MODEL 1
REMARK VINA RESULT:     -10.4      0.000      0.000
REMARK SMILES O=C(OCCOCCOCCOCCOC(=O)c1oc2cccc3c2c1CCC3)c1ccc(-c2c3nc(c(-c4c(F)cc(S(=O)(=O)[O-])cc4F)c4ccc([nH]4)c(-c4c(F)cc(S(=O)(=O)[O-])cc4F)c4nc(c(-c5c(F)cc(S(=O)(=O)[O-])cc5F)c5ccc2[nH]5)C=C4)C=C3)cc1
REMARK SMILES IDX 7 1 6 2 5 3 4 4 3 5 2 6 1 7 30 8 31 9 95 10 32 11 94 12
REMARK SMILES IDX 33 13 34 14 35 15 88 16 36 17 93 18 87 19 89 20 37 21 92 22
REMARK SMILES IDX 86 23 85 24 38 26 72 27 51 28 71 29 52 30 55 31 70 32 90 33
REMARK SMILES IDX 53 34 54 35 69 37 91 38 56 39 39 40 40 41 49 42 41 43 42 44
REMARK SMILES IDX 48 45 50 46 43 47 44 48 45 49 46 50 47 51 73 52 74 53 83 54
REMARK SMILES IDX 75 55 76 56 82 57 84 58 77 59 78 60 79 61 80 62 81 63 57 64
REMARK SMILES IDX 58 65 67 66 59 67 60 68 66 69 68 70 61 71 62 72 63 73 64 74
REMARK SMILES IDX 65 75 8 76 9 77 10 78 11 79 12 80 13 81 14 82 15 83 16 84
REMARK SMILES IDX 17 85 18 86 19 87 26 88 20 89 25 90 27 91 21 92 24 93 28 94
REMARK SMILES IDX 22 95 23 96 29 97
REMARK H PARENT 89 25 55 36
REMARK Flexibility Score: inf
ROOT
ATOM      1  C   UNL A   1      40.136  22.043  27.023  1.00  0.00     0.188 C 
ENDROOT
BRANCH   1   2
ATOM      2  O   UNL A   1      41.334  21.329  27.303  1.00  0.00    -0.376 OA
BRANCH   2   3
ATOM      3  C   UNL A   1      41.257  19.914  27.365  1.00  0.00     0.202 C 
BRANCH   3   4
ATOM      4  C   UNL A   1      42.179  19.174  26.376  1.00  0.00     0.261 C 
BRANCH   4   5
ATOM      5  O   UNL A   1      42.797  19.936  25.309  1.00  0.00    -0.460 OA
BRANCH   5   6
ATOM      6  C   UNL A   1      43.971  20.609  25.310  1.00  0.00     0.338 C 
ATOM      7  O   UNL A   1      45.010  20.026  24.999  1.00  0.00    -0.246 OA
BRANCH   6   8
ATOM      8  C   UNL A   1      44.044  22.046  25.669  1.00  0.00     0.060 A 
ATOM      9  C   UNL A   1      44.698  22.506  26.813  1.00  0.00     0.016 A 
ATOM     10  C   UNL A   1      43.403  22.965  24.813  1.00  0.00     0.016 A 
ATOM     11  C   UNL A   1      44.758  23.854  27.082  1.00  0.00     0.010 A 
ATOM     12  C   UNL A   1      43.384  24.318  25.127  1.00  0.00     0.010 A 
ATOM     13  C   UNL A   1      44.046  24.739  26.277  1.00  0.00    -0.014 A 
BRANCH  13  14
ATOM     14  C   UNL A   1      43.838  26.044  26.875  1.00  0.00     0.031 A 
ATOM     15  C   UNL A   1      44.900  27.064  26.733  1.00  0.00     0.074 A 
ATOM     16  C   UNL A   1      42.745  26.207  27.641  1.00  0.00     0.049 A 
ATOM     17  N   UNL A   1      45.634  27.591  27.661  1.00  0.00    -0.248 NA
ATOM     18  C   UNL A   1      45.219  27.522  25.375  1.00  0.00     0.031 C 
ATOM     19  C   UNL A   1      41.548  25.357  27.675  1.00  0.00     0.029 A 
ATOM     20  N   UNL A   1      42.445  27.213  28.501  1.00  0.00    -0.354 N 
ATOM     21  C   UNL A   1      46.376  28.587  27.035  1.00  0.00     0.074 A 
ATOM     22  C   UNL A   1      46.166  28.428  25.616  1.00  0.00     0.031 C 
ATOM     23  C   UNL A   1      40.575  25.998  28.354  1.00  0.00     0.029 A 
ATOM     24  C   UNL A   1      41.115  27.239  28.883  1.00  0.00     0.049 A 
ATOM     25  H   UNL A   1      43.110  27.863  28.823  1.00  0.00     0.167 HD
ATOM     26  C   UNL A   1      46.962  29.609  27.717  1.00  0.00     0.037 A 
ATOM     27  C   UNL A   1      40.479  28.274  29.477  1.00  0.00     0.037 A 
ATOM     28  C   UNL A   1      47.130  29.322  29.114  1.00  0.00     0.049 A 
ATOM     29  C   UNL A   1      41.512  29.115  30.137  1.00  0.00     0.074 A 
ATOM     30  C   UNL A   1      47.845  28.383  29.830  1.00  0.00     0.029 A 
ATOM     31  N   UNL A   1      46.254  29.886  30.007  1.00  0.00    -0.354 N 
ATOM     32  N   UNL A   1      42.219  28.739  31.170  1.00  0.00    -0.248 NA
ATOM     33  C   UNL A   1      42.050  30.248  29.399  1.00  0.00     0.031 C 
ATOM     34  C   UNL A   1      47.064  28.117  30.992  1.00  0.00     0.029 A 
ATOM     35  C   UNL A   1      45.921  28.916  30.921  1.00  0.00     0.049 A 
ATOM     36  H   UNL A   1      45.924  30.814  29.995  1.00  0.00     0.167 HD
ATOM     37  C   UNL A   1      43.467  29.317  30.982  1.00  0.00     0.074 A 
ATOM     38  C   UNL A   1      43.267  30.320  29.942  1.00  0.00     0.031 C 
ATOM     39  C   UNL A   1      44.601  28.751  31.493  1.00  0.00     0.037 A 
BRANCH  26  40
ATOM     40  C   UNL A   1      47.106  30.989  27.140  1.00  0.00     0.058 A 
ATOM     41  C   UNL A   1      48.370  31.594  27.019  1.00  0.00     0.135 A 
ATOM     42  C   UNL A   1      45.993  31.832  26.928  1.00  0.00     0.135 A 
ATOM     43  F   UNL A   1      49.489  30.887  27.241  1.00  0.00    -0.206 F 
ATOM     44  C   UNL A   1      48.516  32.952  26.724  1.00  0.00     0.059 A 
ATOM     45  C   UNL A   1      46.115  33.172  26.584  1.00  0.00     0.059 A 
ATOM     46  F   UNL A   1      44.740  31.405  27.137  1.00  0.00    -0.206 F 
ATOM     47  C   UNL A   1      47.380  33.734  26.519  1.00  0.00     0.060 A 
BRANCH  47  48
ATOM     48  S   UNL A   1      47.554  35.505  26.232  1.00  0.00     0.124 S 
ATOM     49  O   UNL A   1      48.160  35.941  27.484  1.00  0.00    -0.237 OA
ATOM     50  O   UNL A   1      48.418  35.543  25.056  1.00  0.00    -0.237 OA
ATOM     51  O   UNL A   1      46.180  35.943  26.006  1.00  0.00    -0.744 OA
ENDBRANCH  47  48
ENDBRANCH  26  40
BRANCH  27  52
ATOM     52  C   UNL A   1      39.121  28.760  29.122  1.00  0.00     0.058 A 
ATOM     53  C   UNL A   1      38.129  28.910  30.104  1.00  0.00     0.135 A 
ATOM     54  C   UNL A   1      38.840  29.330  27.861  1.00  0.00     0.135 A 
ATOM     55  F   UNL A   1      38.327  28.427  31.340  1.00  0.00    -0.206 F 
ATOM     56  C   UNL A   1      36.948  29.615  29.861  1.00  0.00     0.059 A 
ATOM     57  C   UNL A   1      37.661  30.016  27.589  1.00  0.00     0.059 A 
ATOM     58  F   UNL A   1      39.744  29.325  26.869  1.00  0.00    -0.206 F 
ATOM     59  C   UNL A   1      36.732  30.180  28.603  1.00  0.00     0.060 A 
BRANCH  59  60
ATOM     60  S   UNL A   1      35.290  31.234  28.335  1.00  0.00     0.124 S 
ATOM     61  O   UNL A   1      34.382  30.331  27.637  1.00  0.00    -0.237 OA
ATOM     62  O   UNL A   1      34.915  31.588  29.701  1.00  0.00    -0.237 OA
ATOM     63  O   UNL A   1      35.817  32.334  27.532  1.00  0.00    -0.744 OA
ENDBRANCH  59  60
ENDBRANCH  27  52
BRANCH  39  64
ATOM     64  C   UNL A   1      44.445  27.667  32.528  1.00  0.00     0.058 A 
ATOM     65  C   UNL A   1      44.303  27.923  33.903  1.00  0.00     0.135 A 
ATOM     66  C   UNL A   1      44.268  26.342  32.101  1.00  0.00     0.135 A 
ATOM     67  F   UNL A   1      44.351  29.176  34.377  1.00  0.00    -0.206 F 
ATOM     68  C   UNL A   1      44.035  26.902  34.816  1.00  0.00     0.059 A 
ATOM     69  C   UNL A   1      43.972  25.311  32.991  1.00  0.00     0.059 A 
ATOM     70  F   UNL A   1      44.326  26.045  30.791  1.00  0.00    -0.206 F 
ATOM     71  C   UNL A   1      43.865  25.598  34.350  1.00  0.00     0.060 A 
BRANCH  71  72
ATOM     72  S   UNL A   1      43.414  24.301  35.525  1.00  0.00     0.124 S 
ATOM     73  O   UNL A   1      44.717  23.801  35.948  1.00  0.00    -0.237 OA
ATOM     74  O   UNL A   1      42.658  25.036  36.536  1.00  0.00    -0.237 OA
ATOM     75  O   UNL A   1      42.620  23.374  34.722  1.00  0.00    -0.744 OA
ENDBRANCH  71  72
ENDBRANCH  39  64
ENDBRANCH  13  14
ENDBRANCH   6   8
ENDBRANCH   5   6
ENDBRANCH   4   5
ENDBRANCH   3   4
ENDBRANCH   2   3
ENDBRANCH   1   2
BRANCH   1  76
ATOM     76  C   UNL A   1      39.246  21.502  25.899  1.00  0.00     0.188 C 
BRANCH  76  77
ATOM     77  O   UNL A   1      38.182  22.380  25.558  1.00  0.00    -0.377 OA
BRANCH  77  78
ATOM     78  C   UNL A   1      37.077  21.819  24.875  1.00  0.00     0.188 C 
BRANCH  78  79
ATOM     79  C   UNL A   1      35.702  22.307  25.363  1.00  0.00     0.188 C 
BRANCH  79  80
ATOM     80  O   UNL A   1      35.082  21.635  26.452  1.00  0.00    -0.376 OA
BRANCH  80  81
ATOM     81  C   UNL A   1      34.413  22.379  27.461  1.00  0.00     0.202 C 
BRANCH  81  82
ATOM     82  C   UNL A   1      32.918  22.135  27.701  1.00  0.00     0.261 C 
BRANCH  82  83
ATOM     83  O   UNL A   1      32.134  23.336  27.642  1.00  0.00    -0.457 OA
BRANCH  83  84
ATOM     84  C   UNL A   1      31.283  23.441  26.579  1.00  0.00     0.374 C 
ATOM     85  O   UNL A   1      30.231  22.826  26.455  1.00  0.00    -0.242 OA
BRANCH  84  86
ATOM     86  C   UNL A   1      31.747  24.493  25.711  1.00  0.00     0.216 A 
ATOM     87  O   UNL A   1      32.455  24.138  24.572  1.00  0.00    -0.449 OA
ATOM     88  C   UNL A   1      31.593  25.862  25.740  1.00  0.00     0.014 A 
ATOM     89  C   UNL A   1      32.743  25.286  23.888  1.00  0.00     0.135 A 
ATOM     90  C   UNL A   1      32.278  26.352  24.615  1.00  0.00     0.028 A 
ATOM     91  C   UNL A   1      30.942  26.829  26.658  1.00  0.00     0.041 C 
ATOM     92  C   UNL A   1      33.389  25.441  22.670  1.00  0.00     0.048 A 
ATOM     93  C   UNL A   1      32.495  27.677  24.241  1.00  0.00    -0.037 A 
ATOM     94  C   UNL A   1      31.714  28.181  26.607  1.00  0.00     0.010 C 
ATOM     95  C   UNL A   1      33.572  26.774  22.246  1.00  0.00     0.004 A 
ATOM     96  C   UNL A   1      33.146  27.874  23.020  1.00  0.00     0.004 A 
ATOM     97  C   UNL A   1      31.970  28.741  25.167  1.00  0.00     0.036 C 
ENDBRANCH  84  86
ENDBRANCH  83  84
ENDBRANCH  82  83
ENDBRANCH  81  82
ENDBRANCH  80  81
ENDBRANCH  79  80
ENDBRANCH  78  79
ENDBRANCH  77  78
ENDBRANCH  76  77
ENDBRANCH   1  76
TORSDOF 23
ENDMDL
MODEL 2
REMARK VINA RESULT:     -10.0      1.588      2.822
REMARK SMILES O=C(OCCOCCOCCOCCOC(=O)c1oc2cccc3c2c1CCC3)c1ccc(-c2c3nc(c(-c4c(F)cc(S(=O)(=O)[O-])cc4F)c4ccc([nH]4)c(-c4c(F)cc(S(=O)(=O)[O-])cc4F)c4nc(c(-c5c(F)cc(S(=O)(=O)[O-])cc5F)c5ccc2[nH]5)C=C4)C=C3)cc1
REMARK SMILES IDX 7 1 6 2 5 3 4 4 3 5 2 6 1 7 30 8 31 9 95 10 32 11 94 12
REMARK SMILES IDX 33 13 34 14 35 15 88 16 36 17 93 18 87 19 89 20 37 21 92 22
REMARK SMILES IDX 86 23 85 24 38 26 72 27 51 28 71 29 52 30 55 31 70 32 90 33
REMARK SMILES IDX 53 34 54 35 69 37 91 38 56 39 39 40 40 41 49 42 41 43 42 44
REMARK SMILES IDX 48 45 50 46 43 47 44 48 45 49 46 50 47 51 73 52 74 53 83 54
REMARK SMILES IDX 75 55 76 56 82 57 84 58 77 59 78 60 79 61 80 62 81 63 57 64
REMARK SMILES IDX 58 65 67 66 59 67 60 68 66 69 68 70 61 71 62 72 63 73 64 74
REMARK SMILES IDX 65 75 8 76 9 77 10 78 11 79 12 80 13 81 14 82 15 83 16 84
REMARK SMILES IDX 17 85 18 86 19 87 26 88 20 89 25 90 27 91 21 92 24 93 28 94
REMARK SMILES IDX 22 95 23 96 29 97
REMARK H PARENT 89 25 55 36
REMARK Flexibility Score: inf
ROOT
ATOM      1  C   UNL A   1      40.120  22.025  27.065  1.00  0.00     0.188 C 
ENDROOT
BRANCH   1   2
ATOM      2  O   UNL A   1      41.370  21.415  27.368  1.00  0.00    -0.376 OA
BRANCH   2   3
ATOM      3  C   UNL A   1      41.428  19.998  27.366  1.00  0.00     0.202 C 
BRANCH   3   4
ATOM      4  C   UNL A   1      42.381  19.393  26.316  1.00  0.00     0.261 C 
BRANCH   4   5
ATOM      5  O   UNL A   1      42.972  20.278  25.332  1.00  0.00    -0.460 OA
BRANCH   5   6
ATOM      6  C   UNL A   1      44.141  20.957  25.388  1.00  0.00     0.338 C 
ATOM      7  O   UNL A   1      45.190  20.396  25.070  1.00  0.00    -0.246 OA
BRANCH   6   8
ATOM      8  C   UNL A   1      44.197  22.376  25.817  1.00  0.00     0.060 A 
ATOM      9  C   UNL A   1      44.759  22.775  27.030  1.00  0.00     0.016 A 
ATOM     10  C   UNL A   1      43.637  23.340  24.955  1.00  0.00     0.016 A 
ATOM     11  C   UNL A   1      44.809  24.109  27.366  1.00  0.00     0.010 A 
ATOM     12  C   UNL A   1      43.603  24.677  25.328  1.00  0.00     0.010 A 
ATOM     13  C   UNL A   1      44.172  25.039  26.546  1.00  0.00    -0.014 A 
BRANCH  13  14
ATOM     14  C   UNL A   1      43.928  26.318  27.184  1.00  0.00     0.031 A 
ATOM     15  C   UNL A   1      44.994  27.342  27.146  1.00  0.00     0.074 A 
ATOM     16  C   UNL A   1      42.792  26.449  27.893  1.00  0.00     0.049 A 
ATOM     17  N   UNL A   1      45.672  27.831  28.136  1.00  0.00    -0.248 NA
ATOM     18  C   UNL A   1      45.389  27.856  25.828  1.00  0.00     0.031 C 
ATOM     19  C   UNL A   1      41.597  25.599  27.823  1.00  0.00     0.029 A 
ATOM     20  N   UNL A   1      42.441  27.419  28.774  1.00  0.00    -0.354 N 
ATOM     21  C   UNL A   1      46.446  28.851  27.595  1.00  0.00     0.074 A 
ATOM     22  C   UNL A   1      46.319  28.751  26.161  1.00  0.00     0.031 C 
ATOM     23  C   UNL A   1      40.585  26.211  28.471  1.00  0.00     0.029 A 
ATOM     24  C   UNL A   1      41.091  27.429  29.080  1.00  0.00     0.049 A 
ATOM     25  H   UNL A   1      43.085  28.055  29.160  1.00  0.00     0.167 HD
ATOM     26  C   UNL A   1      46.990  29.845  28.351  1.00  0.00     0.037 A 
ATOM     27  C   UNL A   1      40.420  28.438  29.678  1.00  0.00     0.037 A 
ATOM     28  C   UNL A   1      47.079  29.500  29.742  1.00  0.00     0.049 A 
ATOM     29  C   UNL A   1      41.411  29.252  30.431  1.00  0.00     0.074 A 
ATOM     30  C   UNL A   1      47.753  28.532  30.459  1.00  0.00     0.029 A 
ATOM     31  N   UNL A   1      46.151  30.027  30.605  1.00  0.00    -0.354 N 
ATOM     32  N   UNL A   1      42.059  28.834  31.486  1.00  0.00    -0.248 NA
ATOM     33  C   UNL A   1      41.988  30.414  29.773  1.00  0.00     0.031 C 
ATOM     34  C   UNL A   1      46.907  28.218  31.562  1.00  0.00     0.029 A 
ATOM     35  C   UNL A   1      45.768  29.021  31.458  1.00  0.00     0.049 A 
ATOM     36  H   UNL A   1      45.820  30.955  30.613  1.00  0.00     0.167 HD
ATOM     37  C   UNL A   1      43.314  29.419  31.395  1.00  0.00     0.074 A 
ATOM     38  C   UNL A   1      43.172  30.463  30.387  1.00  0.00     0.031 C 
ATOM     39  C   UNL A   1      44.418  28.832  31.946  1.00  0.00     0.037 A 
BRANCH  26  40
ATOM     40  C   UNL A   1      47.164  31.247  27.840  1.00  0.00     0.058 A 
ATOM     41  C   UNL A   1      46.059  32.100  27.672  1.00  0.00     0.135 A 
ATOM     42  C   UNL A   1      48.381  31.692  27.276  1.00  0.00     0.135 A 
ATOM     43  F   UNL A   1      44.849  31.748  28.136  1.00  0.00    -0.206 F 
ATOM     44  C   UNL A   1      46.153  33.306  26.973  1.00  0.00     0.059 A 
ATOM     45  C   UNL A   1      48.510  32.910  26.623  1.00  0.00     0.059 A 
ATOM     46  F   UNL A   1      49.473  30.914  27.260  1.00  0.00    -0.206 F 
ATOM     47  C   UNL A   1      47.382  33.696  26.444  1.00  0.00     0.060 A 
BRANCH  47  48
ATOM     48  S   UNL A   1      47.493  35.202  25.460  1.00  0.00     0.124 S 
ATOM     49  O   UNL A   1      46.470  34.963  24.450  1.00  0.00    -0.237 OA
ATOM     50  O   UNL A   1      47.191  36.236  26.446  1.00  0.00    -0.237 OA
ATOM     51  O   UNL A   1      48.872  35.188  24.981  1.00  0.00    -0.744 OA
ENDBRANCH  47  48
ENDBRANCH  26  40
BRANCH  27  52
ATOM     52  C   UNL A   1      39.083  28.939  29.266  1.00  0.00     0.058 A 
ATOM     53  C   UNL A   1      38.088  29.205  30.219  1.00  0.00     0.135 A 
ATOM     54  C   UNL A   1      38.835  29.411  27.958  1.00  0.00     0.135 A 
ATOM     55  F   UNL A   1      38.255  28.821  31.494  1.00  0.00    -0.206 F 
ATOM     56  C   UNL A   1      36.934  29.927  29.903  1.00  0.00     0.059 A 
ATOM     57  C   UNL A   1      37.684  30.111  27.615  1.00  0.00     0.059 A 
ATOM     58  F   UNL A   1      39.749  29.291  26.982  1.00  0.00    -0.206 F 
ATOM     59  C   UNL A   1      36.751  30.391  28.600  1.00  0.00     0.060 A 
BRANCH  59  60
ATOM     60  S   UNL A   1      35.350  31.468  28.226  1.00  0.00     0.124 S 
ATOM     61  O   UNL A   1      34.820  31.746  29.556  1.00  0.00    -0.237 OA
ATOM     62  O   UNL A   1      35.999  32.587  27.549  1.00  0.00    -0.237 OA
ATOM     63  O   UNL A   1      34.500  30.638  27.376  1.00  0.00    -0.744 OA
ENDBRANCH  59  60
ENDBRANCH  27  52
BRANCH  39  64
ATOM     64  C   UNL A   1      44.205  27.706  32.925  1.00  0.00     0.058 A 
ATOM     65  C   UNL A   1      43.941  27.907  34.291  1.00  0.00     0.135 A 
ATOM     66  C   UNL A   1      44.102  26.395  32.438  1.00  0.00     0.135 A 
ATOM     67  F   UNL A   1      43.913  29.141  34.811  1.00  0.00    -0.206 F 
ATOM     68  C   UNL A   1      43.625  26.845  35.141  1.00  0.00     0.059 A 
ATOM     69  C   UNL A   1      43.760  25.324  33.262  1.00  0.00     0.059 A 
ATOM     70  F   UNL A   1      44.279  26.148  31.128  1.00  0.00    -0.206 F 
ATOM     71  C   UNL A   1      43.531  25.556  34.617  1.00  0.00     0.060 A 
BRANCH  71  72
ATOM     72  S   UNL A   1      43.019  24.205  35.702  1.00  0.00     0.124 S 
ATOM     73  O   UNL A   1      42.292  23.333  34.786  1.00  0.00    -0.237 OA
ATOM     74  O   UNL A   1      44.295  23.689  36.191  1.00  0.00    -0.237 OA
ATOM     75  O   UNL A   1      42.200  24.871  36.713  1.00  0.00    -0.744 OA
ENDBRANCH  71  72
ENDBRANCH  39  64
ENDBRANCH  13  14
ENDBRANCH   6   8
ENDBRANCH   5   6
ENDBRANCH   4   5
ENDBRANCH   3   4
ENDBRANCH   2   3
ENDBRANCH   1   2
BRANCH   1  76
ATOM     76  C   UNL A   1      39.323  21.439  25.895  1.00  0.00     0.188 C 
BRANCH  76  77
ATOM     77  O   UNL A   1      38.287  22.299  25.440  1.00  0.00    -0.377 OA
BRANCH  77  78
ATOM     78  C   UNL A   1      37.222  21.703  24.724  1.00  0.00     0.188 C 
BRANCH  78  79
ATOM     79  C   UNL A   1      35.849  22.361  24.944  1.00  0.00     0.188 C 
BRANCH  79  80
ATOM     80  O   UNL A   1      35.799  23.726  25.340  1.00  0.00    -0.376 OA
BRANCH  80  81
ATOM     81  C   UNL A   1      34.698  24.539  24.957  1.00  0.00     0.202 C 
BRANCH  81  82
ATOM     82  C   UNL A   1      33.657  24.932  26.012  1.00  0.00     0.261 C 
BRANCH  82  83
ATOM     83  O   UNL A   1      32.436  24.184  25.905  1.00  0.00    -0.457 OA
BRANCH  83  84
ATOM     84  C   UNL A   1      32.367  23.043  26.653  1.00  0.00     0.374 C 
ATOM     85  O   UNL A   1      32.174  23.004  27.862  1.00  0.00    -0.242 OA
BRANCH  84  86
ATOM     86  C   UNL A   1      32.408  21.905  25.772  1.00  0.00     0.216 A 
ATOM     87  O   UNL A   1      32.766  20.675  26.307  1.00  0.00    -0.449 OA
ATOM     88  C   UNL A   1      32.107  21.746  24.437  1.00  0.00     0.014 A 
ATOM     89  C   UNL A   1      32.686  19.748  25.305  1.00  0.00     0.135 A 
ATOM     90  C   UNL A   1      32.344  20.393  24.144  1.00  0.00     0.028 A 
ATOM     91  C   UNL A   1      31.662  22.647  23.344  1.00  0.00     0.041 C 
ATOM     92  C   UNL A   1      32.899  18.378  25.361  1.00  0.00     0.048 A 
ATOM     93  C   UNL A   1      32.273  19.747  22.911  1.00  0.00    -0.037 A 
ATOM     94  C   UNL A   1      32.210  22.114  21.988  1.00  0.00     0.010 C 
ATOM     95  C   UNL A   1      32.779  17.695  24.133  1.00  0.00     0.004 A 
ATOM     96  C   UNL A   1      32.485  18.365  22.926  1.00  0.00     0.004 A 
ATOM     97  C   UNL A   1      31.937  20.597  21.715  1.00  0.00     0.036 C 
ENDBRANCH  84  86
ENDBRANCH  83  84
ENDBRANCH  82  83
ENDBRANCH  81  82
ENDBRANCH  80  81
ENDBRANCH  79  80
ENDBRANCH  78  79
ENDBRANCH  77  78
ENDBRANCH  76  77
ENDBRANCH   1  76
TORSDOF 23
ENDMDL
MODEL 3
REMARK VINA RESULT:      -9.5      1.974      2.885
REMARK SMILES O=C(OCCOCCOCCOCCOC(=O)c1oc2cccc3c2c1CCC3)c1ccc(-c2c3nc(c(-c4c(F)cc(S(=O)(=O)[O-])cc4F)c4ccc([nH]4)c(-c4c(F)cc(S(=O)(=O)[O-])cc4F)c4nc(c(-c5c(F)cc(S(=O)(=O)[O-])cc5F)c5ccc2[nH]5)C=C4)C=C3)cc1
REMARK SMILES IDX 7 1 6 2 5 3 4 4 3 5 2 6 1 7 30 8 31 9 95 10 32 11 94 12
REMARK SMILES IDX 33 13 34 14 35 15 88 16 36 17 93 18 87 19 89 20 37 21 92 22
REMARK SMILES IDX 86 23 85 24 38 26 72 27 51 28 71 29 52 30 55 31 70 32 90 33
REMARK SMILES IDX 53 34 54 35 69 37 91 38 56 39 39 40 40 41 49 42 41 43 42 44
REMARK SMILES IDX 48 45 50 46 43 47 44 48 45 49 46 50 47 51 73 52 74 53 83 54
REMARK SMILES IDX 75 55 76 56 82 57 84 58 77 59 78 60 79 61 80 62 81 63 57 64
REMARK SMILES IDX 58 65 67 66 59 67 60 68 66 69 68 70 61 71 62 72 63 73 64 74
REMARK SMILES IDX 65 75 8 76 9 77 10 78 11 79 12 80 13 81 14 82 15 83 16 84
REMARK SMILES IDX 17 85 18 86 19 87 26 88 20 89 25 90 27 91 21 92 24 93 28 94
REMARK SMILES IDX 22 95 23 96 29 97
REMARK H PARENT 89 25 55 36
REMARK Flexibility Score: inf
ROOT
ATOM      1  C   UNL A   1      36.599  22.029  25.353  1.00  0.00     0.188 C 
ENDROOT
BRANCH   1   2
ATOM      2  O   UNL A   1      37.752  21.257  25.666  1.00  0.00    -0.376 OA
BRANCH   2   3
ATOM      3  C   UNL A   1      38.958  21.954  25.933  1.00  0.00     0.202 C 
BRANCH   3   4
ATOM      4  C   UNL A   1      40.113  21.071  26.446  1.00  0.00     0.261 C 
BRANCH   4   5
ATOM      5  O   UNL A   1      41.401  21.172  25.789  1.00  0.00    -0.460 OA
BRANCH   5   6
ATOM      6  C   UNL A   1      42.186  22.260  25.611  1.00  0.00     0.338 C 
ATOM      7  O   UNL A   1      43.052  22.252  24.736  1.00  0.00    -0.246 OA
BRANCH   6   8
ATOM      8  C   UNL A   1      42.028  23.478  26.442  1.00  0.00     0.060 A 
ATOM      9  C   UNL A   1      41.302  24.592  26.018  1.00  0.00     0.016 A 
ATOM     10  C   UNL A   1      42.661  23.494  27.702  1.00  0.00     0.016 A 
ATOM     11  C   UNL A   1      41.165  25.685  26.843  1.00  0.00     0.010 A 
ATOM     12  C   UNL A   1      42.601  24.629  28.501  1.00  0.00     0.010 A 
ATOM     13  C   UNL A   1      41.869  25.721  28.044  1.00  0.00    -0.014 A 
BRANCH  13  14
ATOM     14  C   UNL A   1      41.987  27.047  28.620  1.00  0.00     0.031 A 
ATOM     15  C   UNL A   1      43.156  27.875  28.256  1.00  0.00     0.074 A 
ATOM     16  C   UNL A   1      41.090  27.395  29.560  1.00  0.00     0.049 A 
ATOM     17  N   UNL A   1      44.120  28.281  29.019  1.00  0.00    -0.248 NA
ATOM     18  C   UNL A   1      43.296  28.263  26.846  1.00  0.00     0.031 C 
ATOM     19  C   UNL A   1      39.797  26.756  29.836  1.00  0.00     0.029 A 
ATOM     20  N   UNL A   1      41.116  28.444  30.420  1.00  0.00    -0.354 N 
ATOM     21  C   UNL A   1      44.889  29.135  28.236  1.00  0.00     0.074 A 
ATOM     22  C   UNL A   1      44.405  29.001  26.883  1.00  0.00     0.031 C 
ATOM     23  C   UNL A   1      39.079  27.555  30.651  1.00  0.00     0.029 A 
ATOM     24  C   UNL A   1      39.898  28.693  31.029  1.00  0.00     0.049 A 
ATOM     25  H   UNL A   1      41.925  28.977  30.596  1.00  0.00     0.167 HD
ATOM     26  C   UNL A   1      45.745  30.051  28.765  1.00  0.00     0.037 A 
ATOM     27  C   UNL A   1      39.555  29.823  31.687  1.00  0.00     0.037 A 
ATOM     28  C   UNL A   1      46.114  29.751  30.121  1.00  0.00     0.049 A 
ATOM     29  C   UNL A   1      40.812  30.487  32.123  1.00  0.00     0.074 A 
ATOM     30  C   UNL A   1      46.784  28.712  30.735  1.00  0.00     0.029 A 
ATOM     31  N   UNL A   1      45.515  30.459  31.132  1.00  0.00    -0.354 N 
ATOM     32  N   UNL A   1      41.623  30.007  33.028  1.00  0.00    -0.248 NA
ATOM     33  C   UNL A   1      41.385  31.509  31.260  1.00  0.00     0.031 C 
ATOM     34  C   UNL A   1      46.191  28.588  32.024  1.00  0.00     0.029 A 
ATOM     35  C   UNL A   1      45.199  29.566  32.126  1.00  0.00     0.049 A 
ATOM     36  H   UNL A   1      45.343  31.429  31.143  1.00  0.00     0.167 HD
ATOM     37  C   UNL A   1      42.894  30.369  32.602  1.00  0.00     0.074 A 
ATOM     38  C   UNL A   1      42.675  31.382  31.577  1.00  0.00     0.031 C 
ATOM     39  C   UNL A   1      43.994  29.626  32.927  1.00  0.00     0.037 A 
BRANCH  26  40
ATOM     40  C   UNL A   1      46.006  31.383  28.120  1.00  0.00     0.058 A 
ATOM     41  C   UNL A   1      44.992  32.353  28.028  1.00  0.00     0.135 A 
ATOM     42  C   UNL A   1      47.173  31.633  27.365  1.00  0.00     0.135 A 
ATOM     43  F   UNL A   1      43.828  32.188  28.676  1.00  0.00    -0.206 F 
ATOM     44  C   UNL A   1      45.124  33.489  27.225  1.00  0.00     0.059 A 
ATOM     45  C   UNL A   1      47.347  32.780  26.601  1.00  0.00     0.059 A 
ATOM     46  F   UNL A   1      48.156  30.726  27.271  1.00  0.00    -0.206 F 
ATOM     47  C   UNL A   1      46.303  33.686  26.507  1.00  0.00     0.060 A 
BRANCH  47  48
ATOM     48  S   UNL A   1      46.445  35.097  25.395  1.00  0.00     0.124 S 
ATOM     49  O   UNL A   1      47.855  35.035  25.030  1.00  0.00    -0.237 OA
ATOM     50  O   UNL A   1      45.496  34.755  24.340  1.00  0.00    -0.237 OA
ATOM     51  O   UNL A   1      46.058  36.225  26.236  1.00  0.00    -0.744 OA
ENDBRANCH  47  48
ENDBRANCH  26  40
BRANCH  27  52
ATOM     52  C   UNL A   1      38.252  30.525  31.558  1.00  0.00     0.058 A 
ATOM     53  C   UNL A   1      37.401  30.673  32.664  1.00  0.00     0.135 A 
ATOM     54  C   UNL A   1      37.927  31.289  30.415  1.00  0.00     0.135 A 
ATOM     55  F   UNL A   1      37.654  30.010  33.802  1.00  0.00    -0.206 F 
ATOM     56  C   UNL A   1      36.315  31.553  32.650  1.00  0.00     0.059 A 
ATOM     57  C   UNL A   1      36.838  32.153  30.370  1.00  0.00     0.059 A 
ATOM     58  F   UNL A   1      38.712  31.296  29.327  1.00  0.00    -0.206 F 
ATOM     59  C   UNL A   1      36.053  32.302  31.502  1.00  0.00     0.060 A 
BRANCH  59  60
ATOM     60  S   UNL A   1      34.759  33.561  31.535  1.00  0.00     0.124 S 
ATOM     61  O   UNL A   1      34.196  33.450  30.194  1.00  0.00    -0.237 OA
ATOM     62  O   UNL A   1      33.910  33.094  32.627  1.00  0.00    -0.237 OA
ATOM     63  O   UNL A   1      35.492  34.795  31.803  1.00  0.00    -0.744 OA
ENDBRANCH  59  60
ENDBRANCH  27  52
BRANCH  39  64
ATOM     64  C   UNL A   1      43.853  28.592  34.013  1.00  0.00     0.058 A 
ATOM     65  C   UNL A   1      44.036  28.871  35.379  1.00  0.00     0.135 A 
ATOM     66  C   UNL A   1      43.359  27.322  33.679  1.00  0.00     0.135 A 
ATOM     67  F   UNL A   1      44.402  30.094  35.786  1.00  0.00    -0.206 F 
ATOM     68  C   UNL A   1      43.774  27.919  36.365  1.00  0.00     0.059 A 
ATOM     69  C   UNL A   1      43.064  26.364  34.649  1.00  0.00     0.059 A 
ATOM     70  F   UNL A   1      43.101  27.017  32.396  1.00  0.00    -0.206 F 
ATOM     71  C   UNL A   1      43.283  26.668  35.991  1.00  0.00     0.060 A 
BRANCH  71  72
ATOM     72  S   UNL A   1      42.847  25.479  37.280  1.00  0.00     0.124 S 
ATOM     73  O   UNL A   1      43.972  24.552  37.238  1.00  0.00    -0.237 OA
ATOM     74  O   UNL A   1      42.760  26.319  38.472  1.00  0.00    -0.237 OA
ATOM     75  O   UNL A   1      41.571  24.932  36.823  1.00  0.00    -0.744 OA
ENDBRANCH  71  72
ENDBRANCH  39  64
ENDBRANCH  13  14
ENDBRANCH   6   8
ENDBRANCH   5   6
ENDBRANCH   4   5
ENDBRANCH   3   4
ENDBRANCH   2   3
ENDBRANCH   1   2
BRANCH   1  76
ATOM     76  C   UNL A   1      35.259  21.545  25.917  1.00  0.00     0.188 C 
BRANCH  76  77
ATOM     77  O   UNL A   1      34.824  20.319  25.346  1.00  0.00    -0.377 OA
BRANCH  77  78
ATOM     78  C   UNL A   1      33.689  20.368  24.501  1.00  0.00     0.188 C 
BRANCH  78  79
ATOM     79  C   UNL A   1      33.360  21.763  23.943  1.00  0.00     0.188 C 
BRANCH  79  80
ATOM     80  O   UNL A   1      32.082  21.984  23.361  1.00  0.00    -0.376 OA
BRANCH  80  81
ATOM     81  C   UNL A   1      31.075  22.672  24.091  1.00  0.00     0.202 C 
BRANCH  81  82
ATOM     82  C   UNL A   1      31.108  22.637  25.623  1.00  0.00     0.261 C 
BRANCH  82  83
ATOM     83  O   UNL A   1      30.911  23.928  26.221  1.00  0.00    -0.457 OA
BRANCH  83  84
ATOM     84  C   UNL A   1      31.991  24.763  26.207  1.00  0.00     0.374 C 
ATOM     85  O   UNL A   1      33.135  24.441  26.505  1.00  0.00    -0.242 OA
BRANCH  84  86
ATOM     86  C   UNL A   1      31.594  26.030  25.649  1.00  0.00     0.216 A 
ATOM     87  O   UNL A   1      30.745  26.025  24.552  1.00  0.00    -0.449 OA
ATOM     88  C   UNL A   1      31.851  27.333  26.016  1.00  0.00     0.014 A 
ATOM     89  C   UNL A   1      30.470  27.326  24.234  1.00  0.00     0.135 A 
ATOM     90  C   UNL A   1      31.183  28.139  25.079  1.00  0.00     0.028 A 
ATOM     91  C   UNL A   1      32.649  27.989  27.082  1.00  0.00     0.041 C 
ATOM     92  C   UNL A   1      29.634  27.828  23.248  1.00  0.00     0.048 A 
ATOM     93  C   UNL A   1      31.201  29.527  24.959  1.00  0.00    -0.037 A 
ATOM     94  C   UNL A   1      33.168  29.361  26.561  1.00  0.00     0.010 C 
ATOM     95  C   UNL A   1      29.595  29.235  23.144  1.00  0.00     0.004 A 
ATOM     96  C   UNL A   1      30.372  30.071  23.973  1.00  0.00     0.004 A 
ATOM     97  C   UNL A   1      32.072  30.282  25.925  1.00  0.00     0.036 C 
ENDBRANCH  84  86
ENDBRANCH  83  84
ENDBRANCH  82  83
ENDBRANCH  81  82
ENDBRANCH  80  81
ENDBRANCH  79  80
ENDBRANCH  78  79
ENDBRANCH  77  78
ENDBRANCH  76  77
ENDBRANCH   1  76
TORSDOF 23
ENDMDL
