MODEL 1
REMARK VINA RESULT:      -8.5      0.000      0.000
REMARK SMILES CC[C@@](C)(NC(=O)Nc1cccc(C[NH2+]C)c1)C(=O)OCCOCCOCCOCCOC(=O)c1ccc(-c2c3nc(c(-c4c(F)cc(S(=O)(=O)[O-])cc4F)c4ccc([nH]4)c(-c4c(F)cc(S(=O)(=O)[O-])cc4F)c4nc(c(-c5c(F)cc(S(=O)(=O)[O-])cc5F)c5ccc2[nH]5)C=C4)C=C3)cc1
REMARK SMILES IDX 25 1 24 2 23 3 22 4 21 5 20 6 18 7 19 8 3 9 4 10 2 11 1 12
REMARK SMILES IDX 5 13 6 14 7 16 8 17 9 19 10 20 17 21 11 22 13 23 12 24 14 25
REMARK SMILES IDX 15 26 16 27 26 30 27 31 28 32 29 33 30 34 31 35 32 36 33 37
REMARK SMILES IDX 34 38 35 39 36 40 100 41 37 42 99 43 38 44 39 45 40 46 93 47
REMARK SMILES IDX 41 48 98 49 92 50 94 51 42 52 97 53 91 54 90 55 43 57 77 58
REMARK SMILES IDX 56 59 76 60 57 61 60 62 75 63 95 64 58 65 59 66 74 68 96 69
REMARK SMILES IDX 61 70 44 71 45 72 54 73 46 74 47 75 53 76 55 77 48 78 49 79
REMARK SMILES IDX 50 80 51 81 52 82 78 83 79 84 88 85 80 86 81 87 87 88 89 89
REMARK SMILES IDX 82 90 83 91 84 92 85 93 86 94 62 95 63 96 72 97 64 98 65 99
REMARK SMILES IDX 71 100 73 101 66 102 67 103 68 104 69 105 70 106
REMARK H PARENT 5 15 8 18 15 28 15 29 94 56 60 67
REMARK Flexibility Score: inf
ROOT
ATOM      1  C   UNL A   1      41.100  21.502  26.089  1.00  0.00     0.188 C 
ENDROOT
BRANCH   1   2
ATOM      2  C   UNL A   1      39.832  21.987  26.875  1.00  0.00     0.188 C 
BRANCH   2   3
ATOM      3  O   UNL A   1      38.787  22.212  25.891  1.00  0.00    -0.376 OA
BRANCH   3   4
ATOM      4  C   UNL A   1      37.709  21.401  25.389  1.00  0.00     0.202 C 
BRANCH   4   5
ATOM      5  C   UNL A   1      36.791  22.123  24.178  1.00  0.00     0.261 C 
BRANCH   5   6
ATOM      6  O   UNL A   1      35.407  22.631  24.501  1.00  0.00    -0.462 OA
BRANCH   6   7
ATOM      7  C   UNL A   1      34.526  23.658  24.137  1.00  0.00     0.331 C 
ATOM      8  O   UNL A   1      34.750  24.457  23.231  1.00  0.00    -0.249 OA
BRANCH   7   9
ATOM      9  C   UNL A   1      33.004  23.555  24.937  1.00  0.00     0.136 C 
ATOM     10  C   UNL A   1      33.299  23.264  26.410  1.00  0.00     0.047 C 
BRANCH   9  11
ATOM     11  C   UNL A   1      31.589  24.320  24.954  1.00  0.00     0.037 C 
ATOM     12  C   UNL A   1      30.770  24.700  26.160  1.00  0.00     0.007 C 
ENDBRANCH   9  11
BRANCH   9  13
ATOM     13  N   UNL A   1      32.582  22.404  24.230  1.00  0.00    -0.322 N 
ATOM     14  C   UNL A   1      31.978  22.576  23.048  1.00  0.00     0.320 C 
ATOM     15  H   UNL A   1      32.730  21.502  24.597  1.00  0.00     0.166 HD
ATOM     16  O   UNL A   1      31.926  21.538  22.389  1.00  0.00    -0.248 OA
ATOM     17  N   UNL A   1      31.559  23.806  22.547  1.00  0.00    -0.308 N 
ATOM     18  H   UNL A   1      30.858  23.578  21.896  1.00  0.00     0.171 HD
BRANCH  17  19
ATOM     19  C   UNL A   1      31.636  25.273  22.502  1.00  0.00     0.043 A 
ATOM     20  C   UNL A   1      32.859  25.893  22.190  1.00  0.00     0.026 A 
ATOM     21  C   UNL A   1      30.698  26.202  22.942  1.00  0.00     0.035 A 
ATOM     22  C   UNL A   1      33.103  27.279  22.355  1.00  0.00     0.003 A 
ATOM     23  C   UNL A   1      30.831  27.606  22.932  1.00  0.00     0.008 A 
ATOM     24  C   UNL A   1      32.074  28.147  22.694  1.00  0.00     0.010 A 
BRANCH  23  25
ATOM     25  C   UNL A   1      29.572  28.422  23.129  1.00  0.00     0.297 C 
BRANCH  25  26
ATOM     26  N   UNL A   1      28.340  27.644  23.057  1.00  0.00    -0.345 N 
ATOM     27  C   UNL A   1      27.221  28.467  23.525  1.00  0.00     0.331 C 
ATOM     28  H   UNL A   1      28.426  26.816  23.648  1.00  0.00     0.346 HD
ATOM     29  H   UNL A   1      28.174  27.354  22.093  1.00  0.00     0.346 HD
ENDBRANCH  25  26
ENDBRANCH  23  25
ENDBRANCH  17  19
ENDBRANCH   9  13
ENDBRANCH   7   9
ENDBRANCH   6   7
ENDBRANCH   5   6
ENDBRANCH   4   5
ENDBRANCH   3   4
ENDBRANCH   2   3
ENDBRANCH   1   2
BRANCH   1  30
ATOM     30  O   UNL A   1      41.270  20.098  25.952  1.00  0.00    -0.377 OA
BRANCH  30  31
ATOM     31  C   UNL A   1      42.144  19.472  26.876  1.00  0.00     0.188 C 
BRANCH  31  32
ATOM     32  C   UNL A   1      42.953  18.345  26.232  1.00  0.00     0.188 C 
BRANCH  32  33
ATOM     33  O   UNL A   1      43.812  18.622  25.134  1.00  0.00    -0.376 OA
BRANCH  33  34
ATOM     34  C   UNL A   1      44.962  19.429  25.307  1.00  0.00     0.202 C 
BRANCH  34  35
ATOM     35  C   UNL A   1      44.994  20.879  24.777  1.00  0.00     0.261 C 
BRANCH  35  36
ATOM     36  O   UNL A   1      44.465  21.950  25.575  1.00  0.00    -0.460 OA
BRANCH  36  37
ATOM     37  C   UNL A   1      43.999  23.066  24.957  1.00  0.00     0.338 C 
ATOM     38  O   UNL A   1      43.544  23.142  23.846  1.00  0.00    -0.246 OA
BRANCH  37  39
ATOM     39  C   UNL A   1      43.958  24.174  25.969  1.00  0.00     0.060 A 
ATOM     40  C   UNL A   1      45.159  24.777  26.383  1.00  0.00     0.016 A 
ATOM     41  C   UNL A   1      42.748  24.610  26.511  1.00  0.00     0.016 A 
ATOM     42  C   UNL A   1      45.166  25.767  27.367  1.00  0.00     0.010 A 
ATOM     43  C   UNL A   1      42.758  25.552  27.545  1.00  0.00     0.010 A 
ATOM     44  C   UNL A   1      43.973  26.087  28.015  1.00  0.00    -0.014 A 
BRANCH  44  45
ATOM     45  C   UNL A   1      44.022  26.676  29.374  1.00  0.00     0.031 A 
ATOM     46  C   UNL A   1      43.884  28.173  29.472  1.00  0.00     0.074 A 
ATOM     47  C   UNL A   1      44.196  25.936  30.481  1.00  0.00     0.049 A 
ATOM     48  N   UNL A   1      44.074  28.964  30.492  1.00  0.00    -0.248 NA
ATOM     49  C   UNL A   1      43.490  28.869  28.234  1.00  0.00     0.031 C 
ATOM     50  C   UNL A   1      44.266  24.478  30.522  1.00  0.00     0.029 A 
ATOM     51  N   UNL A   1      44.381  26.325  31.784  1.00  0.00    -0.354 N 
ATOM     52  C   UNL A   1      43.868  30.252  30.009  1.00  0.00     0.074 A 
ATOM     53  C   UNL A   1      43.545  30.137  28.606  1.00  0.00     0.031 C 
ATOM     54  C   UNL A   1      44.532  24.094  31.783  1.00  0.00     0.029 A 
ATOM     55  C   UNL A   1      44.700  25.283  32.622  1.00  0.00     0.049 A 
ATOM     56  H   UNL A   1      44.295  27.257  32.088  1.00  0.00     0.167 HD
ATOM     57  C   UNL A   1      43.950  31.427  30.676  1.00  0.00     0.037 A 
ATOM     58  C   UNL A   1      45.133  25.295  33.899  1.00  0.00     0.037 A 
ATOM     59  C   UNL A   1      44.274  31.523  32.074  1.00  0.00     0.049 A 
ATOM     60  C   UNL A   1      45.285  26.613  34.617  1.00  0.00     0.074 A 
ATOM     61  C   UNL A   1      44.359  32.657  32.859  1.00  0.00     0.029 A 
ATOM     62  N   UNL A   1      44.586  30.444  32.889  1.00  0.00    -0.354 N 
ATOM     63  N   UNL A   1      45.079  27.828  34.162  1.00  0.00    -0.248 NA
ATOM     64  C   UNL A   1      45.731  26.567  36.017  1.00  0.00     0.031 C 
ATOM     65  C   UNL A   1      44.788  32.270  34.132  1.00  0.00     0.029 A 
ATOM     66  C   UNL A   1      44.896  30.888  34.161  1.00  0.00     0.049 A 
ATOM     67  H   UNL A   1      44.585  29.501  32.604  1.00  0.00     0.167 HD
ATOM     68  C   UNL A   1      45.339  28.687  35.226  1.00  0.00     0.074 A 
ATOM     69  C   UNL A   1      45.720  27.853  36.348  1.00  0.00     0.031 C 
ATOM     70  C   UNL A   1      45.262  30.041  35.273  1.00  0.00     0.037 A 
BRANCH  57  71
ATOM     71  C   UNL A   1      43.755  32.691  29.884  1.00  0.00     0.058 A 
ATOM     72  C   UNL A   1      42.517  33.352  29.818  1.00  0.00     0.135 A 
ATOM     73  C   UNL A   1      44.828  33.244  29.167  1.00  0.00     0.135 A 
ATOM     74  F   UNL A   1      41.450  32.859  30.467  1.00  0.00    -0.206 F 
ATOM     75  C   UNL A   1      42.340  34.488  29.032  1.00  0.00     0.059 A 
ATOM     76  C   UNL A   1      44.684  34.398  28.404  1.00  0.00     0.059 A 
ATOM     77  F   UNL A   1      46.034  32.653  29.190  1.00  0.00    -0.206 F 
ATOM     78  C   UNL A   1      43.430  35.000  28.326  1.00  0.00     0.060 A 
BRANCH  78  79
ATOM     79  S   UNL A   1      43.181  36.460  27.293  1.00  0.00     0.124 S 
ATOM     80  O   UNL A   1      42.213  37.213  28.082  1.00  0.00    -0.237 OA
ATOM     81  O   UNL A   1      44.524  37.028  27.228  1.00  0.00    -0.237 OA
ATOM     82  O   UNL A   1      42.675  35.910  26.040  1.00  0.00    -0.744 OA
ENDBRANCH  78  79
ENDBRANCH  57  71
BRANCH  58  83
ATOM     83  C   UNL A   1      45.492  24.010  34.559  1.00  0.00     0.058 A 
ATOM     84  C   UNL A   1      46.796  23.499  34.500  1.00  0.00     0.135 A 
ATOM     85  C   UNL A   1      44.543  23.294  35.308  1.00  0.00     0.135 A 
ATOM     86  F   UNL A   1      47.735  24.136  33.783  1.00  0.00    -0.206 F 
ATOM     87  C   UNL A   1      47.151  22.331  35.167  1.00  0.00     0.059 A 
ATOM     88  C   UNL A   1      44.880  22.138  36.004  1.00  0.00     0.059 A 
ATOM     89  F   UNL A   1      43.282  23.742  35.399  1.00  0.00    -0.206 F 
ATOM     90  C   UNL A   1      46.189  21.665  35.929  1.00  0.00     0.060 A 
BRANCH  90  91
ATOM     91  S   UNL A   1      46.687  20.205  36.870  1.00  0.00     0.124 S 
ATOM     92  O   UNL A   1      46.356  19.129  35.943  1.00  0.00    -0.237 OA
ATOM     93  O   UNL A   1      48.111  20.452  37.080  1.00  0.00    -0.237 OA
ATOM     94  O   UNL A   1      45.862  20.280  38.071  1.00  0.00    -0.744 OA
ENDBRANCH  90  91
ENDBRANCH  58  83
BRANCH  70  95
ATOM     95  C   UNL A   1      45.540  30.724  36.585  1.00  0.00     0.058 A 
ATOM     96  C   UNL A   1      44.539  30.921  37.549  1.00  0.00     0.135 A 
ATOM     97  C   UNL A   1      46.856  31.080  36.926  1.00  0.00     0.135 A 
ATOM     98  F   UNL A   1      43.263  30.606  37.274  1.00  0.00    -0.206 F 
ATOM     99  C   UNL A   1      44.834  31.450  38.803  1.00  0.00     0.059 A 
ATOM    100  C   UNL A   1      47.178  31.582  38.182  1.00  0.00     0.059 A 
ATOM    101  F   UNL A   1      47.853  30.902  36.045  1.00  0.00    -0.206 F 
ATOM    102  C   UNL A   1      46.158  31.765  39.115  1.00  0.00     0.060 A 
BRANCH 102 103
ATOM    103  S   UNL A   1      46.536  32.377  40.771  1.00  0.00     0.124 S 
ATOM    104  O   UNL A   1      47.922  32.808  40.618  1.00  0.00    -0.237 OA
ATOM    105  O   UNL A   1      45.555  33.444  40.939  1.00  0.00    -0.237 OA
ATOM    106  O   UNL A   1      46.334  31.208  41.622  1.00  0.00    -0.744 OA
ENDBRANCH 102 103
ENDBRANCH  70  95
ENDBRANCH  44  45
ENDBRANCH  37  39
ENDBRANCH  36  37
ENDBRANCH  35  36
ENDBRANCH  34  35
ENDBRANCH  33  34
ENDBRANCH  32  33
ENDBRANCH  31  32
ENDBRANCH  30  31
ENDBRANCH   1  30
TORSDOF 28
ENDMDL
MODEL 2
REMARK VINA RESULT:      -8.5      5.865      9.298
REMARK SMILES CC[C@@](C)(NC(=O)Nc1cccc(C[NH2+]C)c1)C(=O)OCCOCCOCCOCCOC(=O)c1ccc(-c2c3nc(c(-c4c(F)cc(S(=O)(=O)[O-])cc4F)c4ccc([nH]4)c(-c4c(F)cc(S(=O)(=O)[O-])cc4F)c4nc(c(-c5c(F)cc(S(=O)(=O)[O-])cc5F)c5ccc2[nH]5)C=C4)C=C3)cc1
REMARK SMILES IDX 25 1 24 2 23 3 22 4 21 5 20 6 18 7 19 8 3 9 4 10 2 11 1 12
REMARK SMILES IDX 5 13 6 14 7 16 8 17 9 19 10 20 17 21 11 22 13 23 12 24 14 25
REMARK SMILES IDX 15 26 16 27 26 30 27 31 28 32 29 33 30 34 31 35 32 36 33 37
REMARK SMILES IDX 34 38 35 39 36 40 100 41 37 42 99 43 38 44 39 45 40 46 93 47
REMARK SMILES IDX 41 48 98 49 92 50 94 51 42 52 97 53 91 54 90 55 43 57 77 58
REMARK SMILES IDX 56 59 76 60 57 61 60 62 75 63 95 64 58 65 59 66 74 68 96 69
REMARK SMILES IDX 61 70 44 71 45 72 54 73 46 74 47 75 53 76 55 77 48 78 49 79
REMARK SMILES IDX 50 80 51 81 52 82 78 83 79 84 88 85 80 86 81 87 87 88 89 89
REMARK SMILES IDX 82 90 83 91 84 92 85 93 86 94 62 95 63 96 72 97 64 98 65 99
REMARK SMILES IDX 71 100 73 101 66 102 67 103 68 104 69 105 70 106
REMARK H PARENT 5 15 8 18 15 28 15 29 94 56 60 67
REMARK Flexibility Score: inf
ROOT
ATOM      1  C   UNL A   1      41.126  21.043  25.780  1.00  0.00     0.188 C 
ENDROOT
BRANCH   1   2
ATOM      2  C   UNL A   1      41.433  22.294  26.674  1.00  0.00     0.188 C 
BRANCH   2   3
ATOM      3  O   UNL A   1      40.347  23.237  26.466  1.00  0.00    -0.376 OA
BRANCH   3   4
ATOM      4  C   UNL A   1      39.026  23.363  27.023  1.00  0.00     0.202 C 
BRANCH   4   5
ATOM      5  C   UNL A   1      37.811  23.642  25.893  1.00  0.00     0.261 C 
BRANCH   5   6
ATOM      6  O   UNL A   1      36.468  22.977  26.070  1.00  0.00    -0.462 OA
BRANCH   6   7
ATOM      7  C   UNL A   1      35.603  22.103  25.397  1.00  0.00     0.331 C 
ATOM      8  O   UNL A   1      35.610  20.885  25.553  1.00  0.00    -0.249 OA
BRANCH   7   9
ATOM      9  C   UNL A   1      34.385  22.923  24.496  1.00  0.00     0.136 C 
ATOM     10  C   UNL A   1      35.088  24.036  23.715  1.00  0.00     0.047 C 
BRANCH   9  11
ATOM     11  C   UNL A   1      33.086  22.572  23.615  1.00  0.00     0.037 C 
ATOM     12  C   UNL A   1      32.837  22.927  22.172  1.00  0.00     0.007 C 
ENDBRANCH   9  11
BRANCH   9  13
ATOM     13  N   UNL A   1      33.706  23.408  25.640  1.00  0.00    -0.322 N 
ATOM     14  C   UNL A   1      32.898  22.567  26.297  1.00  0.00     0.320 C 
ATOM     15  H   UNL A   1      33.825  24.337  25.942  1.00  0.00     0.166 HD
ATOM     16  O   UNL A   1      32.601  22.978  27.418  1.00  0.00    -0.248 OA
ATOM     17  N   UNL A   1      32.524  21.309  25.834  1.00  0.00    -0.308 N 
ATOM     18  H   UNL A   1      31.685  21.114  26.310  1.00  0.00     0.171 HD
BRANCH  17  19
ATOM     19  C   UNL A   1      32.750  20.125  24.993  1.00  0.00     0.043 A 
ATOM     20  C   UNL A   1      32.342  20.145  23.646  1.00  0.00     0.026 A 
ATOM     21  C   UNL A   1      33.136  18.847  25.384  1.00  0.00     0.035 A 
ATOM     22  C   UNL A   1      32.290  18.992  22.824  1.00  0.00     0.003 A 
ATOM     23  C   UNL A   1      33.290  17.719  24.551  1.00  0.00     0.008 A 
ATOM     24  C   UNL A   1      32.799  17.779  23.266  1.00  0.00     0.010 A 
BRANCH  23  25
ATOM     25  C   UNL A   1      34.042  16.535  25.119  1.00  0.00     0.297 C 
BRANCH  25  26
ATOM     26  N   UNL A   1      33.354  15.259  24.958  1.00  0.00    -0.345 N 
ATOM     27  C   UNL A   1      32.320  15.134  25.990  1.00  0.00     0.331 C 
ATOM     28  H   UNL A   1      34.026  14.496  25.053  1.00  0.00     0.346 HD
ATOM     29  H   UNL A   1      32.924  15.216  24.033  1.00  0.00     0.346 HD
ENDBRANCH  25  26
ENDBRANCH  23  25
ENDBRANCH  17  19
ENDBRANCH   9  13
ENDBRANCH   7   9
ENDBRANCH   6   7
ENDBRANCH   5   6
ENDBRANCH   4   5
ENDBRANCH   3   4
ENDBRANCH   2   3
ENDBRANCH   1   2
BRANCH   1  30
ATOM     30  O   UNL A   1      41.179  19.774  26.418  1.00  0.00    -0.377 OA
BRANCH  30  31
ATOM     31  C   UNL A   1      42.418  19.408  27.002  1.00  0.00     0.188 C 
BRANCH  31  32
ATOM     32  C   UNL A   1      42.961  18.097  26.432  1.00  0.00     0.188 C 
BRANCH  32  33
ATOM     33  O   UNL A   1      43.859  18.116  25.330  1.00  0.00    -0.376 OA
BRANCH  33  34
ATOM     34  C   UNL A   1      45.180  18.600  25.488  1.00  0.00     0.202 C 
BRANCH  34  35
ATOM     35  C   UNL A   1      45.579  19.989  24.944  1.00  0.00     0.261 C 
BRANCH  35  36
ATOM     36  O   UNL A   1      44.902  21.167  25.408  1.00  0.00    -0.460 OA
BRANCH  36  37
ATOM     37  C   UNL A   1      44.771  22.227  24.568  1.00  0.00     0.338 C 
ATOM     38  O   UNL A   1      44.243  22.233  23.487  1.00  0.00    -0.246 OA
BRANCH  37  39
ATOM     39  C   UNL A   1      45.222  23.457  25.300  1.00  0.00     0.060 A 
ATOM     40  C   UNL A   1      44.745  24.718  24.895  1.00  0.00     0.016 A 
ATOM     41  C   UNL A   1      46.113  23.372  26.370  1.00  0.00     0.016 A 
ATOM     42  C   UNL A   1      45.189  25.888  25.511  1.00  0.00     0.010 A 
ATOM     43  C   UNL A   1      46.613  24.547  26.944  1.00  0.00     0.010 A 
ATOM     44  C   UNL A   1      46.196  25.807  26.473  1.00  0.00    -0.014 A 
BRANCH  44  45
ATOM     45  C   UNL A   1      47.054  26.989  26.725  1.00  0.00     0.031 A 
ATOM     46  C   UNL A   1      46.466  28.087  27.574  1.00  0.00     0.074 A 
ATOM     47  C   UNL A   1      48.292  27.108  26.222  1.00  0.00     0.049 A 
ATOM     48  N   UNL A   1      46.906  29.295  27.798  1.00  0.00    -0.248 NA
ATOM     49  C   UNL A   1      45.193  27.774  28.248  1.00  0.00     0.031 C 
ATOM     50  C   UNL A   1      48.996  26.086  25.453  1.00  0.00     0.029 A 
ATOM     51  N   UNL A   1      49.162  28.170  26.257  1.00  0.00    -0.354 N 
ATOM     52  C   UNL A   1      45.944  29.900  28.601  1.00  0.00     0.074 A 
ATOM     53  C   UNL A   1      44.896  28.930  28.817  1.00  0.00     0.031 C 
ATOM     54  C   UNL A   1      50.173  26.589  25.043  1.00  0.00     0.029 A 
ATOM     55  C   UNL A   1      50.279  27.983  25.479  1.00  0.00     0.049 A 
ATOM     56  H   UNL A   1      49.002  28.983  26.788  1.00  0.00     0.167 HD
ATOM     57  C   UNL A   1      45.933  31.156  29.103  1.00  0.00     0.037 A 
ATOM     58  C   UNL A   1      51.242  28.855  25.115  1.00  0.00     0.037 A 
ATOM     59  C   UNL A   1      46.985  32.110  28.876  1.00  0.00     0.049 A 
ATOM     60  C   UNL A   1      51.188  30.274  25.626  1.00  0.00     0.074 A 
ATOM     61  C   UNL A   1      47.092  33.401  29.358  1.00  0.00     0.029 A 
ATOM     62  N   UNL A   1      48.102  31.880  28.086  1.00  0.00    -0.354 N 
ATOM     63  N   UNL A   1      50.284  30.840  26.394  1.00  0.00    -0.248 NA
ATOM     64  C   UNL A   1      52.278  31.174  25.224  1.00  0.00     0.031 C 
ATOM     65  C   UNL A   1      48.240  33.975  28.803  1.00  0.00     0.029 A 
ATOM     66  C   UNL A   1      48.888  33.017  28.038  1.00  0.00     0.049 A 
ATOM     67  H   UNL A   1      48.306  31.033  27.627  1.00  0.00     0.167 HD
ATOM     68  C   UNL A   1      50.712  32.150  26.590  1.00  0.00     0.074 A 
ATOM     69  C   UNL A   1      51.955  32.294  25.860  1.00  0.00     0.031 C 
ATOM     70  C   UNL A   1      50.133  33.140  27.315  1.00  0.00     0.037 A 
BRANCH  57  71
ATOM     71  C   UNL A   1      44.718  31.582  29.883  1.00  0.00     0.058 A 
ATOM     72  C   UNL A   1      44.602  31.373  31.267  1.00  0.00     0.135 A 
ATOM     73  C   UNL A   1      43.643  32.201  29.225  1.00  0.00     0.135 A 
ATOM     74  F   UNL A   1      45.590  30.768  31.946  1.00  0.00    -0.206 F 
ATOM     75  C   UNL A   1      43.447  31.721  31.961  1.00  0.00     0.059 A 
ATOM     76  C   UNL A   1      42.493  32.590  29.904  1.00  0.00     0.059 A 
ATOM     77  F   UNL A   1      43.696  32.423  27.901  1.00  0.00    -0.206 F 
ATOM     78  C   UNL A   1      42.396  32.325  31.268  1.00  0.00     0.060 A 
BRANCH  78  79
ATOM     79  S   UNL A   1      40.894  32.749  32.176  1.00  0.00     0.124 S 
ATOM     80  O   UNL A   1      41.351  32.648  33.558  1.00  0.00    -0.237 OA
ATOM     81  O   UNL A   1      40.614  34.100  31.699  1.00  0.00    -0.237 OA
ATOM     82  O   UNL A   1      39.941  31.729  31.755  1.00  0.00    -0.744 OA
ENDBRANCH  78  79
ENDBRANCH  57  71
BRANCH  58  83
ATOM     83  C   UNL A   1      52.312  28.411  24.181  1.00  0.00     0.058 A 
ATOM     84  C   UNL A   1      52.229  28.658  22.804  1.00  0.00     0.135 A 
ATOM     85  C   UNL A   1      53.469  27.773  24.662  1.00  0.00     0.135 A 
ATOM     86  F   UNL A   1      51.137  29.248  22.293  1.00  0.00    -0.206 F 
ATOM     87  C   UNL A   1      53.256  28.299  21.936  1.00  0.00     0.059 A 
ATOM     88  C   UNL A   1      54.520  27.430  23.818  1.00  0.00     0.059 A 
ATOM     89  F   UNL A   1      53.600  27.517  25.972  1.00  0.00    -0.206 F 
ATOM     90  C   UNL A   1      54.405  27.698  22.456  1.00  0.00     0.060 A 
BRANCH  90  91
ATOM     91  S   UNL A   1      55.771  27.329  21.333  1.00  0.00     0.124 S 
ATOM     92  O   UNL A   1      56.783  26.826  22.254  1.00  0.00    -0.237 OA
ATOM     93  O   UNL A   1      55.171  26.341  20.441  1.00  0.00    -0.237 OA
ATOM     94  O   UNL A   1      56.062  28.621  20.719  1.00  0.00    -0.744 OA
ENDBRANCH  90  91
ENDBRANCH  58  83
BRANCH  70  95
ATOM     95  C   UNL A   1      50.849  34.461  27.413  1.00  0.00     0.058 A 
ATOM     96  C   UNL A   1      51.856  34.694  28.361  1.00  0.00     0.135 A 
ATOM     97  C   UNL A   1      50.598  35.466  26.463  1.00  0.00     0.135 A 
ATOM     98  F   UNL A   1      52.131  33.771  29.296  1.00  0.00    -0.206 F 
ATOM     99  C   UNL A   1      52.588  35.878  28.365  1.00  0.00     0.059 A 
ATOM    100  C   UNL A   1      51.336  36.644  26.430  1.00  0.00     0.059 A 
ATOM    101  F   UNL A   1      49.652  35.290  25.526  1.00  0.00    -0.206 F 
ATOM    102  C   UNL A   1      52.329  36.842  27.388  1.00  0.00     0.060 A 
BRANCH 102 103
ATOM    103  S   UNL A   1      53.338  38.339  27.359  1.00  0.00     0.124 S 
ATOM    104  O   UNL A   1      52.723  39.130  28.419  1.00  0.00    -0.237 OA
ATOM    105  O   UNL A   1      54.672  37.820  27.646  1.00  0.00    -0.237 OA
ATOM    106  O   UNL A   1      53.150  38.852  26.005  1.00  0.00    -0.744 OA
ENDBRANCH 102 103
ENDBRANCH  70  95
ENDBRANCH  44  45
ENDBRANCH  37  39
ENDBRANCH  36  37
ENDBRANCH  35  36
ENDBRANCH  34  35
ENDBRANCH  33  34
ENDBRANCH  32  33
ENDBRANCH  31  32
ENDBRANCH  30  31
ENDBRANCH   1  30
TORSDOF 28
ENDMDL
MODEL 3
REMARK VINA RESULT:      -8.4      5.506      8.389
REMARK SMILES CC[C@@](C)(NC(=O)Nc1cccc(C[NH2+]C)c1)C(=O)OCCOCCOCCOCCOC(=O)c1ccc(-c2c3nc(c(-c4c(F)cc(S(=O)(=O)[O-])cc4F)c4ccc([nH]4)c(-c4c(F)cc(S(=O)(=O)[O-])cc4F)c4nc(c(-c5c(F)cc(S(=O)(=O)[O-])cc5F)c5ccc2[nH]5)C=C4)C=C3)cc1
REMARK SMILES IDX 25 1 24 2 23 3 22 4 21 5 20 6 18 7 19 8 3 9 4 10 2 11 1 12
REMARK SMILES IDX 5 13 6 14 7 16 8 17 9 19 10 20 17 21 11 22 13 23 12 24 14 25
REMARK SMILES IDX 15 26 16 27 26 30 27 31 28 32 29 33 30 34 31 35 32 36 33 37
REMARK SMILES IDX 34 38 35 39 36 40 100 41 37 42 99 43 38 44 39 45 40 46 93 47
REMARK SMILES IDX 41 48 98 49 92 50 94 51 42 52 97 53 91 54 90 55 43 57 77 58
REMARK SMILES IDX 56 59 76 60 57 61 60 62 75 63 95 64 58 65 59 66 74 68 96 69
REMARK SMILES IDX 61 70 44 71 45 72 54 73 46 74 47 75 53 76 55 77 48 78 49 79
REMARK SMILES IDX 50 80 51 81 52 82 78 83 79 84 88 85 80 86 81 87 87 88 89 89
REMARK SMILES IDX 82 90 83 91 84 92 85 93 86 94 62 95 63 96 72 97 64 98 65 99
REMARK SMILES IDX 71 100 73 101 66 102 67 103 68 104 69 105 70 106
REMARK H PARENT 5 15 8 18 15 28 15 29 94 56 60 67
REMARK Flexibility Score: inf
ROOT
ATOM      1  C   UNL A   1      40.585  21.063  26.278  1.00  0.00     0.188 C 
ENDROOT
BRANCH   1   2
ATOM      2  C   UNL A   1      40.828  22.393  27.071  1.00  0.00     0.188 C 
BRANCH   2   3
ATOM      3  O   UNL A   1      39.829  23.345  26.613  1.00  0.00    -0.376 OA
BRANCH   3   4
ATOM      4  C   UNL A   1      38.430  23.525  26.899  1.00  0.00     0.202 C 
BRANCH   4   5
ATOM      5  C   UNL A   1      37.461  23.762  25.545  1.00  0.00     0.261 C 
BRANCH   5   6
ATOM      6  O   UNL A   1      35.990  23.432  25.619  1.00  0.00    -0.462 OA
BRANCH   6   7
ATOM      7  C   UNL A   1      35.074  22.487  25.138  1.00  0.00     0.331 C 
ATOM      8  O   UNL A   1      35.197  21.276  25.300  1.00  0.00    -0.249 OA
BRANCH   7   9
ATOM      9  C   UNL A   1      33.648  23.203  24.487  1.00  0.00     0.136 C 
ATOM     10  C   UNL A   1      34.095  24.432  23.693  1.00  0.00     0.047 C 
BRANCH   9  11
ATOM     11  C   UNL A   1      32.275  22.746  23.784  1.00  0.00     0.037 C 
ATOM     12  C   UNL A   1      31.057  23.594  23.522  1.00  0.00     0.007 C 
ENDBRANCH   9  11
BRANCH   9  13
ATOM     13  N   UNL A   1      33.105  23.541  25.750  1.00  0.00    -0.322 N 
ATOM     14  C   UNL A   1      32.573  22.560  26.490  1.00  0.00     0.320 C 
ATOM     15  H   UNL A   1      33.118  24.470  26.074  1.00  0.00     0.166 HD
ATOM     16  O   UNL A   1      32.410  22.892  27.664  1.00  0.00    -0.248 OA
ATOM     17  N   UNL A   1      32.340  21.266  26.035  1.00  0.00    -0.308 N 
ATOM     18  H   UNL A   1      31.639  20.920  26.633  1.00  0.00     0.171 HD
BRANCH  17  19
ATOM     19  C   UNL A   1      32.611  20.156  25.111  1.00  0.00     0.043 A 
ATOM     20  C   UNL A   1      32.263  20.284  23.753  1.00  0.00     0.026 A 
ATOM     21  C   UNL A   1      32.988  18.851  25.413  1.00  0.00     0.035 A 
ATOM     22  C   UNL A   1      32.256  19.203  22.838  1.00  0.00     0.003 A 
ATOM     23  C   UNL A   1      33.186  17.795  24.498  1.00  0.00     0.008 A 
ATOM     24  C   UNL A   1      32.753  17.959  23.202  1.00  0.00     0.010 A 
BRANCH  23  25
ATOM     25  C   UNL A   1      33.920  16.572  25.001  1.00  0.00     0.297 C 
BRANCH  25  26
ATOM     26  N   UNL A   1      33.189  15.323  24.822  1.00  0.00    -0.345 N 
ATOM     27  C   UNL A   1      32.269  15.136  25.948  1.00  0.00     0.331 C 
ATOM     28  H   UNL A   1      33.848  14.544  24.786  1.00  0.00     0.346 HD
ATOM     29  H   UNL A   1      32.661  15.357  23.949  1.00  0.00     0.346 HD
ENDBRANCH  25  26
ENDBRANCH  23  25
ENDBRANCH  17  19
ENDBRANCH   9  13
ENDBRANCH   7   9
ENDBRANCH   6   7
ENDBRANCH   5   6
ENDBRANCH   4   5
ENDBRANCH   3   4
ENDBRANCH   2   3
ENDBRANCH   1   2
BRANCH   1  30
ATOM     30  O   UNL A   1      40.864  19.850  26.964  1.00  0.00    -0.377 OA
BRANCH  30  31
ATOM     31  C   UNL A   1      42.228  19.575  27.237  1.00  0.00     0.188 C 
BRANCH  31  32
ATOM     32  C   UNL A   1      42.656  18.202  26.716  1.00  0.00     0.188 C 
BRANCH  32  33
ATOM     33  O   UNL A   1      43.257  18.082  25.434  1.00  0.00    -0.376 OA
BRANCH  33  34
ATOM     34  C   UNL A   1      44.553  18.600  25.196  1.00  0.00     0.202 C 
BRANCH  34  35
ATOM     35  C   UNL A   1      44.758  19.804  24.251  1.00  0.00     0.261 C 
BRANCH  35  36
ATOM     36  O   UNL A   1      44.003  21.010  24.445  1.00  0.00    -0.460 OA
BRANCH  36  37
ATOM     37  C   UNL A   1      44.509  22.186  23.989  1.00  0.00     0.338 C 
ATOM     38  O   UNL A   1      44.484  22.594  22.858  1.00  0.00    -0.246 OA
BRANCH  37  39
ATOM     39  C   UNL A   1      44.935  22.999  25.177  1.00  0.00     0.060 A 
ATOM     40  C   UNL A   1      45.001  24.400  25.068  1.00  0.00     0.016 A 
ATOM     41  C   UNL A   1      45.274  22.387  26.384  1.00  0.00     0.016 A 
ATOM     42  C   UNL A   1      45.452  25.184  26.130  1.00  0.00     0.010 A 
ATOM     43  C   UNL A   1      45.791  23.164  27.427  1.00  0.00     0.010 A 
ATOM     44  C   UNL A   1      45.936  24.556  27.278  1.00  0.00    -0.014 A 
BRANCH  44  45
ATOM     45  C   UNL A   1      46.898  25.277  28.146  1.00  0.00     0.031 A 
ATOM     46  C   UNL A   1      46.433  25.619  29.538  1.00  0.00     0.074 A 
ATOM     47  C   UNL A   1      48.125  25.632  27.732  1.00  0.00     0.049 A 
ATOM     48  N   UNL A   1      46.981  26.394  30.434  1.00  0.00    -0.248 NA
ATOM     49  C   UNL A   1      45.163  25.008  29.965  1.00  0.00     0.031 C 
ATOM     50  C   UNL A   1      48.714  25.293  26.440  1.00  0.00     0.029 A 
ATOM     51  N   UNL A   1      49.082  26.394  28.355  1.00  0.00    -0.354 N 
ATOM     52  C   UNL A   1      46.101  26.400  31.511  1.00  0.00     0.074 A 
ATOM     53  C   UNL A   1      44.983  25.558  31.154  1.00  0.00     0.031 C 
ATOM     54  C   UNL A   1      49.915  25.889  26.344  1.00  0.00     0.029 A 
ATOM     55  C   UNL A   1      50.152  26.690  27.546  1.00  0.00     0.049 A 
ATOM     56  H   UNL A   1      49.008  26.698  29.289  1.00  0.00     0.167 HD
ATOM     57  C   UNL A   1      46.212  27.058  32.688  1.00  0.00     0.037 A 
ATOM     58  C   UNL A   1      51.172  27.553  27.734  1.00  0.00     0.037 A 
ATOM     59  C   UNL A   1      47.332  27.894  33.026  1.00  0.00     0.049 A 
ATOM     60  C   UNL A   1      51.254  28.333  29.023  1.00  0.00     0.074 A 
ATOM     61  C   UNL A   1      47.564  28.587  34.199  1.00  0.00     0.029 A 
ATOM     62  N   UNL A   1      48.399  28.165  32.180  1.00  0.00    -0.354 N 
ATOM     63  N   UNL A   1      50.428  28.328  30.044  1.00  0.00    -0.248 NA
ATOM     64  C   UNL A   1      52.402  29.237  29.188  1.00  0.00     0.031 C 
ATOM     65  C   UNL A   1      48.737  29.330  34.038  1.00  0.00     0.029 A 
ATOM     66  C   UNL A   1      49.276  29.042  32.793  1.00  0.00     0.049 A 
ATOM     67  H   UNL A   1      48.515  27.788  31.278  1.00  0.00     0.167 HD
ATOM     68  C   UNL A   1      50.970  29.202  30.982  1.00  0.00     0.074 A 
ATOM     69  C   UNL A   1      52.196  29.718  30.408  1.00  0.00     0.031 C 
ATOM     70  C   UNL A   1      50.502  29.538  32.210  1.00  0.00     0.037 A 
BRANCH  57  71
ATOM     71  C   UNL A   1      45.065  26.951  33.655  1.00  0.00     0.058 A 
ATOM     72  C   UNL A   1      44.025  27.894  33.697  1.00  0.00     0.135 A 
ATOM     73  C   UNL A   1      45.015  25.886  34.569  1.00  0.00     0.135 A 
ATOM     74  F   UNL A   1      44.030  28.945  32.860  1.00  0.00    -0.206 F 
ATOM     75  C   UNL A   1      43.004  27.811  34.638  1.00  0.00     0.059 A 
ATOM     76  C   UNL A   1      43.984  25.761  35.496  1.00  0.00     0.059 A 
ATOM     77  F   UNL A   1      45.983  24.955  34.579  1.00  0.00    -0.206 F 
ATOM     78  C   UNL A   1      42.995  26.742  35.537  1.00  0.00     0.060 A 
BRANCH  78  79
ATOM     79  S   UNL A   1      41.677  26.658  36.768  1.00  0.00     0.124 S 
ATOM     80  O   UNL A   1      42.431  26.364  37.982  1.00  0.00    -0.237 OA
ATOM     81  O   UNL A   1      41.096  27.995  36.692  1.00  0.00    -0.237 OA
ATOM     82  O   UNL A   1      40.824  25.579  36.283  1.00  0.00    -0.744 OA
ENDBRANCH  78  79
ENDBRANCH  57  71
BRANCH  58  83
ATOM     83  C   UNL A   1      52.169  27.750  26.647  1.00  0.00     0.058 A 
ATOM     84  C   UNL A   1      53.251  26.875  26.482  1.00  0.00     0.135 A 
ATOM     85  C   UNL A   1      52.025  28.793  25.716  1.00  0.00     0.135 A 
ATOM     86  F   UNL A   1      53.444  25.873  27.354  1.00  0.00    -0.206 F 
ATOM     87  C   UNL A   1      54.151  27.019  25.430  1.00  0.00     0.059 A 
ATOM     88  C   UNL A   1      52.895  28.942  24.642  1.00  0.00     0.059 A 
ATOM     89  F   UNL A   1      51.003  29.656  25.827  1.00  0.00    -0.206 F 
ATOM     90  C   UNL A   1      53.955  28.048  24.506  1.00  0.00     0.060 A 
BRANCH  90  91
ATOM     91  S   UNL A   1      55.072  28.163  23.090  1.00  0.00     0.124 S 
ATOM     92  O   UNL A   1      55.116  26.778  22.636  1.00  0.00    -0.237 OA
ATOM     93  O   UNL A   1      54.364  29.098  22.221  1.00  0.00    -0.237 OA
ATOM     94  O   UNL A   1      56.307  28.676  23.675  1.00  0.00    -0.744 OA
ENDBRANCH  90  91
ENDBRANCH  58  83
BRANCH  70  95
ATOM     95  C   UNL A   1      51.328  30.469  33.056  1.00  0.00     0.058 A 
ATOM     96  C   UNL A   1      52.380  30.007  33.862  1.00  0.00     0.135 A 
ATOM     97  C   UNL A   1      51.134  31.858  32.966  1.00  0.00     0.135 A 
ATOM     98  F   UNL A   1      52.606  28.690  33.990  1.00  0.00    -0.206 F 
ATOM     99  C   UNL A   1      53.209  30.890  34.548  1.00  0.00     0.059 A 
ATOM    100  C   UNL A   1      51.967  32.759  33.619  1.00  0.00     0.059 A 
ATOM    101  F   UNL A   1      50.149  32.353  32.200  1.00  0.00    -0.206 F 
ATOM    102  C   UNL A   1      53.002  32.265  34.411  1.00  0.00     0.060 A 
BRANCH 102 103
ATOM    103  S   UNL A   1      54.133  33.398  35.247  1.00  0.00     0.124 S 
ATOM    104  O   UNL A   1      53.905  33.062  36.648  1.00  0.00    -0.237 OA
ATOM    105  O   UNL A   1      55.428  33.004  34.701  1.00  0.00    -0.237 OA
ATOM    106  O   UNL A   1      53.661  34.717  34.834  1.00  0.00    -0.744 OA
ENDBRANCH 102 103
ENDBRANCH  70  95
ENDBRANCH  44  45
ENDBRANCH  37  39
ENDBRANCH  36  37
ENDBRANCH  35  36
ENDBRANCH  34  35
ENDBRANCH  33  34
ENDBRANCH  32  33
ENDBRANCH  31  32
ENDBRANCH  30  31
ENDBRANCH   1  30
TORSDOF 28
ENDMDL
