MODEL 1
REMARK VINA RESULT:      -8.9      0.000      0.000
REMARK SMILES CC[C@](O)(C(=O)OCCOCCOCCOCCOC(=O)c1ccc(-c2c3nc(c(-c4c(F)cc(S(=O)(=O)[O-])cc4F)c4ccc([nH]4)c(-c4c(F)cc(S(=O)(=O)[O-])cc4F)c4nc(c(-c5c(F)cc(S(=O)(=O)[O-])cc5F)c5ccc2[nH]5)C=C4)C=C3)cc1)[C@@H](C)c1ccc(C)s1
REMARK SMILES IDX 14 1 13 2 12 3 11 4 10 5 9 6 8 7 7 8 5 9 6 10 3 11 2 12 1 13
REMARK SMILES IDX 88 14 89 15 90 16 91 17 95 18 92 19 93 20 94 21 4 22 15 24
REMARK SMILES IDX 16 25 17 26 18 27 19 28 20 29 21 30 22 31 23 32 87 33 24 34
REMARK SMILES IDX 86 35 25 36 26 37 27 38 80 39 28 40 85 41 79 42 81 43 29 44
REMARK SMILES IDX 84 45 78 46 77 47 30 49 64 50 43 51 63 52 44 53 47 54 62 55
REMARK SMILES IDX 82 56 45 57 46 58 61 60 83 61 48 62 31 63 32 64 41 65 33 66
REMARK SMILES IDX 34 67 40 68 42 69 35 70 36 71 37 72 38 73 39 74 65 75 66 76
REMARK SMILES IDX 75 77 67 78 68 79 74 80 76 81 69 82 70 83 71 84 72 85 73 86
REMARK SMILES IDX 49 87 50 88 59 89 51 90 52 91 58 92 60 93 53 94 54 95 55 96
REMARK SMILES IDX 56 97 57 98
REMARK H PARENT 4 23 81 48 47 59
REMARK Flexibility Score: inf
ROOT
ATOM      1  C   UNL A   1      33.231  28.764  25.563  1.00  0.00     0.188 C 
ENDROOT
BRANCH   1   2
ATOM      2  O   UNL A   1      33.807  28.589  24.278  1.00  0.00    -0.377 OA
BRANCH   2   3
ATOM      3  C   UNL A   1      32.909  28.677  23.195  1.00  0.00     0.188 C 
BRANCH   3   4
ATOM      4  C   UNL A   1      31.475  29.063  23.601  1.00  0.00     0.188 C 
BRANCH   4   5
ATOM      5  O   UNL A   1      30.370  28.310  23.133  1.00  0.00    -0.376 OA
BRANCH   5   6
ATOM      6  C   UNL A   1      30.050  27.081  23.772  1.00  0.00     0.202 C 
BRANCH   6   7
ATOM      7  C   UNL A   1      30.583  25.715  23.282  1.00  0.00     0.261 C 
BRANCH   7   8
ATOM      8  O   UNL A   1      30.775  24.672  24.256  1.00  0.00    -0.461 OA
BRANCH   8   9
ATOM      9  C   UNL A   1      32.045  24.460  24.703  1.00  0.00     0.338 C 
ATOM     10  O   UNL A   1      32.952  25.281  24.608  1.00  0.00    -0.249 OA
BRANCH   9  11
ATOM     11  C   UNL A   1      32.232  23.036  25.338  1.00  0.00     0.168 C 
BRANCH  11  12
ATOM     12  C   UNL A   1      30.771  22.606  25.632  1.00  0.00     0.044 C 
ATOM     13  C   UNL A   1      30.233  22.911  27.026  1.00  0.00     0.007 C 
ENDBRANCH  11  12
BRANCH  11  14
ATOM     14  C   UNL A   1      32.975  22.148  24.263  1.00  0.00     0.070 C 
ATOM     15  C   UNL A   1      32.581  22.383  22.783  1.00  0.00     0.017 C 
BRANCH  14  16
ATOM     16  C   UNL A   1      34.484  22.236  24.287  1.00  0.00     0.011 A 
ATOM     17  C   UNL A   1      35.345  23.021  23.544  1.00  0.00     0.016 A 
ATOM     18  S   UNL A   1      35.343  21.109  25.254  1.00  0.00    -0.145 S 
ATOM     19  C   UNL A   1      36.709  22.673  23.759  1.00  0.00     0.015 A 
ATOM     20  C   UNL A   1      36.844  21.608  24.624  1.00  0.00     0.002 A 
ATOM     21  C   UNL A   1      38.084  20.906  25.044  1.00  0.00     0.056 C 
ENDBRANCH  14  16
ENDBRANCH  11  14
BRANCH  11  22
ATOM     22  O   UNL A   1      32.903  23.014  26.599  1.00  0.00    -0.378 OA
ATOM     23  H   UNL A   1      33.705  23.557  26.548  1.00  0.00     0.212 HD
ENDBRANCH  11  22
ENDBRANCH   9  11
ENDBRANCH   8   9
ENDBRANCH   7   8
ENDBRANCH   6   7
ENDBRANCH   5   6
ENDBRANCH   4   5
ENDBRANCH   3   4
ENDBRANCH   2   3
ENDBRANCH   1   2
BRANCH   1  24
ATOM     24  C   UNL A   1      34.138  28.537  26.793  1.00  0.00     0.188 C 
BRANCH  24  25
ATOM     25  O   UNL A   1      34.147  29.618  27.721  1.00  0.00    -0.376 OA
BRANCH  25  26
ATOM     26  C   UNL A   1      34.356  30.942  27.259  1.00  0.00     0.202 C 
BRANCH  26  27
ATOM     27  C   UNL A   1      33.297  32.006  27.592  1.00  0.00     0.261 C 
BRANCH  27  28
ATOM     28  O   UNL A   1      33.678  33.373  27.397  1.00  0.00    -0.460 OA
BRANCH  28  29
ATOM     29  C   UNL A   1      33.530  34.219  28.444  1.00  0.00     0.338 C 
ATOM     30  O   UNL A   1      32.585  34.940  28.670  1.00  0.00    -0.246 OA
BRANCH  29  31
ATOM     31  C   UNL A   1      34.636  33.938  29.391  1.00  0.00     0.060 A 
ATOM     32  C   UNL A   1      35.954  34.176  28.976  1.00  0.00     0.016 A 
ATOM     33  C   UNL A   1      34.371  33.485  30.685  1.00  0.00     0.016 A 
ATOM     34  C   UNL A   1      37.014  33.933  29.846  1.00  0.00     0.010 A 
ATOM     35  C   UNL A   1      35.437  33.207  31.544  1.00  0.00     0.010 A 
ATOM     36  C   UNL A   1      36.763  33.397  31.115  1.00  0.00    -0.014 A 
BRANCH  36  37
ATOM     37  C   UNL A   1      37.882  32.817  31.893  1.00  0.00     0.031 A 
ATOM     38  C   UNL A   1      38.561  31.595  31.337  1.00  0.00     0.074 A 
ATOM     39  C   UNL A   1      38.303  33.369  33.045  1.00  0.00     0.049 A 
ATOM     40  N   UNL A   1      39.521  30.872  31.847  1.00  0.00    -0.248 NA
ATOM     41  C   UNL A   1      38.087  31.125  30.022  1.00  0.00     0.031 C 
ATOM     42  C   UNL A   1      37.757  34.580  33.653  1.00  0.00     0.029 A 
ATOM     43  N   UNL A   1      39.290  32.970  33.912  1.00  0.00    -0.354 N 
ATOM     44  C   UNL A   1      39.759  29.858  30.926  1.00  0.00     0.074 A 
ATOM     45  C   UNL A   1      38.825  30.041  29.839  1.00  0.00     0.031 C 
ATOM     46  C   UNL A   1      38.407  34.818  34.807  1.00  0.00     0.029 A 
ATOM     47  C   UNL A   1      39.388  33.758  35.034  1.00  0.00     0.049 A 
ATOM     48  H   UNL A   1      39.873  32.195  33.745  1.00  0.00     0.167 HD
ATOM     49  C   UNL A   1      40.680  28.868  30.981  1.00  0.00     0.037 A 
ATOM     50  C   UNL A   1      40.164  33.617  36.129  1.00  0.00     0.037 A 
ATOM     51  C   UNL A   1      41.603  28.693  32.070  1.00  0.00     0.049 A 
ATOM     52  C   UNL A   1      41.128  32.459  36.203  1.00  0.00     0.074 A 
ATOM     53  C   UNL A   1      42.586  27.731  32.216  1.00  0.00     0.029 A 
ATOM     54  N   UNL A   1      41.653  29.492  33.204  1.00  0.00    -0.354 N 
ATOM     55  N   UNL A   1      41.361  31.518  35.317  1.00  0.00    -0.248 NA
ATOM     56  C   UNL A   1      41.938  32.343  37.424  1.00  0.00     0.031 C 
ATOM     57  C   UNL A   1      43.188  27.909  33.465  1.00  0.00     0.029 A 
ATOM     58  C   UNL A   1      42.629  29.025  34.068  1.00  0.00     0.049 A 
ATOM     59  H   UNL A   1      41.078  30.274  33.369  1.00  0.00     0.167 HD
ATOM     60  C   UNL A   1      42.367  30.722  35.859  1.00  0.00     0.074 A 
ATOM     61  C   UNL A   1      42.704  31.297  37.145  1.00  0.00     0.031 C 
ATOM     62  C   UNL A   1      42.961  29.618  35.340  1.00  0.00     0.037 A 
BRANCH  49  63
ATOM     63  C   UNL A   1      40.707  27.877  29.851  1.00  0.00     0.058 A 
ATOM     64  C   UNL A   1      39.727  26.880  29.711  1.00  0.00     0.135 A 
ATOM     65  C   UNL A   1      41.711  27.947  28.872  1.00  0.00     0.135 A 
ATOM     66  F   UNL A   1      38.758  26.751  30.632  1.00  0.00    -0.206 F 
ATOM     67  C   UNL A   1      39.753  25.978  28.653  1.00  0.00     0.059 A 
ATOM     68  C   UNL A   1      41.739  27.076  27.788  1.00  0.00     0.059 A 
ATOM     69  F   UNL A   1      42.678  28.874  28.962  1.00  0.00    -0.206 F 
ATOM     70  C   UNL A   1      40.761  26.087  27.693  1.00  0.00     0.060 A 
BRANCH  70  71
ATOM     71  S   UNL A   1      40.769  24.921  26.315  1.00  0.00     0.124 S 
ATOM     72  O   UNL A   1      41.859  24.028  26.695  1.00  0.00    -0.237 OA
ATOM     73  O   UNL A   1      39.428  24.349  26.386  1.00  0.00    -0.237 OA
ATOM     74  O   UNL A   1      41.027  25.766  25.154  1.00  0.00    -0.744 OA
ENDBRANCH  70  71
ENDBRANCH  49  63
BRANCH  50  75
ATOM     75  C   UNL A   1      40.055  34.586  37.255  1.00  0.00     0.058 A 
ATOM     76  C   UNL A   1      39.066  34.448  38.240  1.00  0.00     0.135 A 
ATOM     77  C   UNL A   1      40.927  35.682  37.358  1.00  0.00     0.135 A 
ATOM     78  F   UNL A   1      38.199  33.425  38.181  1.00  0.00    -0.206 F 
ATOM     79  C   UNL A   1      38.933  35.369  39.275  1.00  0.00     0.059 A 
ATOM     80  C   UNL A   1      40.833  36.599  38.400  1.00  0.00     0.059 A 
ATOM     81  F   UNL A   1      41.895  35.860  36.445  1.00  0.00    -0.206 F 
ATOM     82  C   UNL A   1      39.824  36.440  39.348  1.00  0.00     0.060 A 
BRANCH  82  83
ATOM     83  S   UNL A   1      39.664  37.607  40.717  1.00  0.00     0.124 S 
ATOM     84  O   UNL A   1      39.587  36.708  41.864  1.00  0.00    -0.237 OA
ATOM     85  O   UNL A   1      40.893  38.386  40.597  1.00  0.00    -0.237 OA
ATOM     86  O   UNL A   1      38.438  38.331  40.400  1.00  0.00    -0.744 OA
ENDBRANCH  82  83
ENDBRANCH  50  75
BRANCH  62  87
ATOM     87  C   UNL A   1      44.072  28.981  36.133  1.00  0.00     0.058 A 
ATOM     88  C   UNL A   1      45.369  29.516  36.161  1.00  0.00     0.135 A 
ATOM     89  C   UNL A   1      43.814  27.851  36.928  1.00  0.00     0.135 A 
ATOM     90  F   UNL A   1      45.672  30.592  35.418  1.00  0.00    -0.206 F 
ATOM     91  C   UNL A   1      46.377  28.940  36.928  1.00  0.00     0.059 A 
ATOM     92  C   UNL A   1      44.798  27.278  37.728  1.00  0.00     0.059 A 
ATOM     93  F   UNL A   1      42.588  27.306  36.951  1.00  0.00    -0.206 F 
ATOM     94  C   UNL A   1      46.080  27.822  37.712  1.00  0.00     0.060 A 
BRANCH  94  95
ATOM     95  S   UNL A   1      47.389  27.107  38.728  1.00  0.00     0.124 S 
ATOM     96  O   UNL A   1      46.630  26.225  39.608  1.00  0.00    -0.237 OA
ATOM     97  O   UNL A   1      48.227  26.444  37.734  1.00  0.00    -0.237 OA
ATOM     98  O   UNL A   1      47.993  28.269  39.374  1.00  0.00    -0.744 OA
ENDBRANCH  94  95
ENDBRANCH  62  87
ENDBRANCH  36  37
ENDBRANCH  29  31
ENDBRANCH  28  29
ENDBRANCH  27  28
ENDBRANCH  26  27
ENDBRANCH  25  26
ENDBRANCH  24  25
ENDBRANCH   1  24
TORSDOF 27
ENDMDL
MODEL 2
REMARK VINA RESULT:      -8.8      6.462      8.731
REMARK SMILES CC[C@](O)(C(=O)OCCOCCOCCOCCOC(=O)c1ccc(-c2c3nc(c(-c4c(F)cc(S(=O)(=O)[O-])cc4F)c4ccc([nH]4)c(-c4c(F)cc(S(=O)(=O)[O-])cc4F)c4nc(c(-c5c(F)cc(S(=O)(=O)[O-])cc5F)c5ccc2[nH]5)C=C4)C=C3)cc1)[C@@H](C)c1ccc(C)s1
REMARK SMILES IDX 14 1 13 2 12 3 11 4 10 5 9 6 8 7 7 8 5 9 6 10 3 11 2 12 1 13
REMARK SMILES IDX 88 14 89 15 90 16 91 17 95 18 92 19 93 20 94 21 4 22 15 24
REMARK SMILES IDX 16 25 17 26 18 27 19 28 20 29 21 30 22 31 23 32 87 33 24 34
REMARK SMILES IDX 86 35 25 36 26 37 27 38 80 39 28 40 85 41 79 42 81 43 29 44
REMARK SMILES IDX 84 45 78 46 77 47 30 49 64 50 43 51 63 52 44 53 47 54 62 55
REMARK SMILES IDX 82 56 45 57 46 58 61 60 83 61 48 62 31 63 32 64 41 65 33 66
REMARK SMILES IDX 34 67 40 68 42 69 35 70 36 71 37 72 38 73 39 74 65 75 66 76
REMARK SMILES IDX 75 77 67 78 68 79 74 80 76 81 69 82 70 83 71 84 72 85 73 86
REMARK SMILES IDX 49 87 50 88 59 89 51 90 52 91 58 92 60 93 53 94 54 95 55 96
REMARK SMILES IDX 56 97 57 98
REMARK H PARENT 4 23 81 48 47 59
REMARK Flexibility Score: inf
ROOT
ATOM      1  C   UNL A   1      31.654  30.083  25.355  1.00  0.00     0.188 C 
ENDROOT
BRANCH   1   2
ATOM      2  O   UNL A   1      31.450  28.831  24.719  1.00  0.00    -0.377 OA
BRANCH   2   3
ATOM      3  C   UNL A   1      30.994  28.895  23.386  1.00  0.00     0.188 C 
BRANCH   3   4
ATOM      4  C   UNL A   1      30.355  27.589  22.881  1.00  0.00     0.188 C 
BRANCH   4   5
ATOM      5  O   UNL A   1      29.269  27.006  23.579  1.00  0.00    -0.376 OA
BRANCH   5   6
ATOM      6  C   UNL A   1      29.508  25.878  24.411  1.00  0.00     0.202 C 
BRANCH   6   7
ATOM      7  C   UNL A   1      30.419  24.701  23.992  1.00  0.00     0.261 C 
BRANCH   7   8
ATOM      8  O   UNL A   1      30.653  23.650  24.947  1.00  0.00    -0.461 OA
BRANCH   8   9
ATOM      9  C   UNL A   1      31.661  23.833  25.846  1.00  0.00     0.338 C 
ATOM     10  O   UNL A   1      31.483  24.124  27.025  1.00  0.00    -0.249 OA
BRANCH   9  11
ATOM     11  C   UNL A   1      33.083  23.653  25.206  1.00  0.00     0.168 C 
BRANCH  11  12
ATOM     12  C   UNL A   1      33.722  25.052  25.413  1.00  0.00     0.044 C 
ATOM     13  C   UNL A   1      34.043  25.852  24.154  1.00  0.00     0.007 C 
ENDBRANCH  11  12
BRANCH  11  14
ATOM     14  C   UNL A   1      33.796  22.483  25.992  1.00  0.00     0.070 C 
ATOM     15  C   UNL A   1      33.160  21.076  25.859  1.00  0.00     0.017 C 
BRANCH  14  16
ATOM     16  C   UNL A   1      35.259  22.285  25.664  1.00  0.00     0.011 A 
ATOM     17  C   UNL A   1      35.890  21.269  24.973  1.00  0.00     0.016 A 
ATOM     18  S   UNL A   1      36.394  23.371  26.355  1.00  0.00    -0.145 S 
ATOM     19  C   UNL A   1      37.308  21.380  25.035  1.00  0.00     0.015 A 
ATOM     20  C   UNL A   1      37.715  22.447  25.806  1.00  0.00     0.002 A 
ATOM     21  C   UNL A   1      39.096  22.855  26.172  1.00  0.00     0.056 C 
ENDBRANCH  14  16
ENDBRANCH  11  14
BRANCH  11  22
ATOM     22  O   UNL A   1      33.093  23.428  23.795  1.00  0.00    -0.378 OA
ATOM     23  H   UNL A   1      32.234  23.679  23.422  1.00  0.00     0.212 HD
ENDBRANCH  11  22
ENDBRANCH   9  11
ENDBRANCH   8   9
ENDBRANCH   7   8
ENDBRANCH   6   7
ENDBRANCH   5   6
ENDBRANCH   4   5
ENDBRANCH   3   4
ENDBRANCH   2   3
ENDBRANCH   1   2
BRANCH   1  24
ATOM     24  C   UNL A   1      32.172  30.072  26.810  1.00  0.00     0.188 C 
BRANCH  24  25
ATOM     25  O   UNL A   1      33.567  30.334  26.937  1.00  0.00    -0.376 OA
BRANCH  25  26
ATOM     26  C   UNL A   1      34.033  31.177  27.978  1.00  0.00     0.202 C 
BRANCH  26  27
ATOM     27  C   UNL A   1      35.498  31.041  28.425  1.00  0.00     0.261 C 
BRANCH  27  28
ATOM     28  O   UNL A   1      35.940  29.726  28.783  1.00  0.00    -0.460 OA
BRANCH  28  29
ATOM     29  C   UNL A   1      36.658  29.597  29.924  1.00  0.00     0.338 C 
ATOM     30  O   UNL A   1      36.232  29.345  31.028  1.00  0.00    -0.246 OA
BRANCH  29  31
ATOM     31  C   UNL A   1      38.089  29.598  29.541  1.00  0.00     0.060 A 
ATOM     32  C   UNL A   1      38.422  29.644  28.179  1.00  0.00     0.016 A 
ATOM     33  C   UNL A   1      39.090  29.595  30.514  1.00  0.00     0.016 A 
ATOM     34  C   UNL A   1      39.759  29.657  27.787  1.00  0.00     0.010 A 
ATOM     35  C   UNL A   1      40.430  29.572  30.120  1.00  0.00     0.010 A 
ATOM     36  C   UNL A   1      40.767  29.568  28.754  1.00  0.00    -0.014 A 
BRANCH  36  37
ATOM     37  C   UNL A   1      42.148  29.231  28.335  1.00  0.00     0.031 A 
ATOM     38  C   UNL A   1      42.438  27.800  27.969  1.00  0.00     0.074 A 
ATOM     39  C   UNL A   1      43.111  30.166  28.254  1.00  0.00     0.049 A 
ATOM     40  N   UNL A   1      43.567  27.242  27.625  1.00  0.00    -0.248 NA
ATOM     41  C   UNL A   1      41.292  26.872  27.998  1.00  0.00     0.031 C 
ATOM     42  C   UNL A   1      42.934  31.589  28.534  1.00  0.00     0.029 A 
ATOM     43  N   UNL A   1      44.437  30.048  27.919  1.00  0.00    -0.354 N 
ATOM     44  C   UNL A   1      43.274  25.900  27.408  1.00  0.00     0.074 A 
ATOM     45  C   UNL A   1      41.867  25.721  27.686  1.00  0.00     0.031 C 
ATOM     46  C   UNL A   1      44.115  32.213  28.373  1.00  0.00     0.029 A 
ATOM     47  C   UNL A   1      45.135  31.228  28.015  1.00  0.00     0.049 A 
ATOM     48  H   UNL A   1      44.848  29.200  27.635  1.00  0.00     0.167 HD
ATOM     49  C   UNL A   1      44.103  24.909  27.006  1.00  0.00     0.037 A 
ATOM     50  C   UNL A   1      46.453  31.473  27.858  1.00  0.00     0.037 A 
ATOM     51  C   UNL A   1      45.503  25.098  26.735  1.00  0.00     0.049 A 
ATOM     52  C   UNL A   1      47.373  30.335  27.487  1.00  0.00     0.074 A 
ATOM     53  C   UNL A   1      46.428  24.164  26.308  1.00  0.00     0.029 A 
ATOM     54  N   UNL A   1      46.182  26.301  26.873  1.00  0.00    -0.354 N 
ATOM     55  N   UNL A   1      47.081  29.075  27.263  1.00  0.00    -0.248 NA
ATOM     56  C   UNL A   1      48.801  30.653  27.344  1.00  0.00     0.031 C 
ATOM     57  C   UNL A   1      47.679  24.785  26.247  1.00  0.00     0.029 A 
ATOM     58  C   UNL A   1      47.521  26.124  26.569  1.00  0.00     0.049 A 
ATOM     59  H   UNL A   1      45.772  27.152  27.147  1.00  0.00     0.167 HD
ATOM     60  C   UNL A   1      48.283  28.459  26.919  1.00  0.00     0.074 A 
ATOM     61  C   UNL A   1      49.302  29.488  26.956  1.00  0.00     0.031 C 
ATOM     62  C   UNL A   1      48.522  27.163  26.598  1.00  0.00     0.037 A 
BRANCH  49  63
ATOM     63  C   UNL A   1      43.527  23.527  26.873  1.00  0.00     0.058 A 
ATOM     64  C   UNL A   1      43.227  22.735  27.994  1.00  0.00     0.135 A 
ATOM     65  C   UNL A   1      43.236  23.001  25.604  1.00  0.00     0.135 A 
ATOM     66  F   UNL A   1      43.507  23.178  29.230  1.00  0.00    -0.206 F 
ATOM     67  C   UNL A   1      42.679  21.464  27.859  1.00  0.00     0.059 A 
ATOM     68  C   UNL A   1      42.659  21.745  25.447  1.00  0.00     0.059 A 
ATOM     69  F   UNL A   1      43.511  23.711  24.499  1.00  0.00    -0.206 F 
ATOM     70  C   UNL A   1      42.394  20.979  26.582  1.00  0.00     0.060 A 
BRANCH  70  71
ATOM     71  S   UNL A   1      41.665  19.335  26.426  1.00  0.00     0.124 S 
ATOM     72  O   UNL A   1      42.508  18.738  25.395  1.00  0.00    -0.237 OA
ATOM     73  O   UNL A   1      41.831  18.794  27.772  1.00  0.00    -0.237 OA
ATOM     74  O   UNL A   1      40.288  19.608  26.029  1.00  0.00    -0.744 OA
ENDBRANCH  70  71
ENDBRANCH  49  63
BRANCH  50  75
ATOM     75  C   UNL A   1      46.991  32.846  28.066  1.00  0.00     0.058 A 
ATOM     76  C   UNL A   1      47.002  33.788  27.026  1.00  0.00     0.135 A 
ATOM     77  C   UNL A   1      47.521  33.239  29.305  1.00  0.00     0.135 A 
ATOM     78  F   UNL A   1      46.518  33.459  25.818  1.00  0.00    -0.206 F 
ATOM     79  C   UNL A   1      47.536  35.061  27.201  1.00  0.00     0.059 A 
ATOM     80  C   UNL A   1      48.034  34.515  29.512  1.00  0.00     0.059 A 
ATOM     81  F   UNL A   1      47.531  32.379  30.336  1.00  0.00    -0.206 F 
ATOM     82  C   UNL A   1      48.047  35.417  28.449  1.00  0.00     0.060 A 
BRANCH  82  83
ATOM     83  S   UNL A   1      48.703  37.084  28.673  1.00  0.00     0.124 S 
ATOM     84  O   UNL A   1      50.128  36.875  28.441  1.00  0.00    -0.237 OA
ATOM     85  O   UNL A   1      47.991  37.832  27.641  1.00  0.00    -0.237 OA
ATOM     86  O   UNL A   1      48.328  37.412  30.045  1.00  0.00    -0.744 OA
ENDBRANCH  82  83
ENDBRANCH  50  75
BRANCH  62  87
ATOM     87  C   UNL A   1      49.927  26.784  26.213  1.00  0.00     0.058 A 
ATOM     88  C   UNL A   1      50.388  26.878  24.890  1.00  0.00     0.135 A 
ATOM     89  C   UNL A   1      50.844  26.378  27.197  1.00  0.00     0.135 A 
ATOM     90  F   UNL A   1      49.553  27.257  23.909  1.00  0.00    -0.206 F 
ATOM     91  C   UNL A   1      51.700  26.561  24.553  1.00  0.00     0.059 A 
ATOM     92  C   UNL A   1      52.170  26.088  26.888  1.00  0.00     0.059 A 
ATOM     93  F   UNL A   1      50.462  26.283  28.480  1.00  0.00    -0.206 F 
ATOM     94  C   UNL A   1      52.585  26.170  25.560  1.00  0.00     0.060 A 
BRANCH  94  95
ATOM     95  S   UNL A   1      54.293  25.794  25.113  1.00  0.00     0.124 S 
ATOM     96  O   UNL A   1      55.030  26.457  26.183  1.00  0.00    -0.237 OA
ATOM     97  O   UNL A   1      54.309  24.335  25.140  1.00  0.00    -0.237 OA
ATOM     98  O   UNL A   1      54.438  26.393  23.788  1.00  0.00    -0.744 OA
ENDBRANCH  94  95
ENDBRANCH  62  87
ENDBRANCH  36  37
ENDBRANCH  29  31
ENDBRANCH  28  29
ENDBRANCH  27  28
ENDBRANCH  26  27
ENDBRANCH  25  26
ENDBRANCH  24  25
ENDBRANCH   1  24
TORSDOF 27
ENDMDL
MODEL 3
REMARK VINA RESULT:      -8.1      2.522      8.778
REMARK SMILES CC[C@](O)(C(=O)OCCOCCOCCOCCOC(=O)c1ccc(-c2c3nc(c(-c4c(F)cc(S(=O)(=O)[O-])cc4F)c4ccc([nH]4)c(-c4c(F)cc(S(=O)(=O)[O-])cc4F)c4nc(c(-c5c(F)cc(S(=O)(=O)[O-])cc5F)c5ccc2[nH]5)C=C4)C=C3)cc1)[C@@H](C)c1ccc(C)s1
REMARK SMILES IDX 14 1 13 2 12 3 11 4 10 5 9 6 8 7 7 8 5 9 6 10 3 11 2 12 1 13
REMARK SMILES IDX 88 14 89 15 90 16 91 17 95 18 92 19 93 20 94 21 4 22 15 24
REMARK SMILES IDX 16 25 17 26 18 27 19 28 20 29 21 30 22 31 23 32 87 33 24 34
REMARK SMILES IDX 86 35 25 36 26 37 27 38 80 39 28 40 85 41 79 42 81 43 29 44
REMARK SMILES IDX 84 45 78 46 77 47 30 49 64 50 43 51 63 52 44 53 47 54 62 55
REMARK SMILES IDX 82 56 45 57 46 58 61 60 83 61 48 62 31 63 32 64 41 65 33 66
REMARK SMILES IDX 34 67 40 68 42 69 35 70 36 71 37 72 38 73 39 74 65 75 66 76
REMARK SMILES IDX 75 77 67 78 68 79 74 80 76 81 69 82 70 83 71 84 72 85 73 86
REMARK SMILES IDX 49 87 50 88 59 89 51 90 52 91 58 92 60 93 53 94 54 95 55 96
REMARK SMILES IDX 56 97 57 98
REMARK H PARENT 4 23 81 48 47 59
REMARK Flexibility Score: inf
ROOT
ATOM      1  C   UNL A   1      43.973  21.740  26.242  1.00  0.00     0.188 C 
ENDROOT
BRANCH   1   2
ATOM      2  O   UNL A   1      43.113  20.900  25.488  1.00  0.00    -0.377 OA
BRANCH   2   3
ATOM      3  C   UNL A   1      42.512  19.846  26.206  1.00  0.00     0.188 C 
BRANCH   3   4
ATOM      4  C   UNL A   1      40.978  19.943  26.290  1.00  0.00     0.188 C 
BRANCH   4   5
ATOM      5  O   UNL A   1      40.365  20.840  27.199  1.00  0.00    -0.376 OA
BRANCH   5   6
ATOM      6  C   UNL A   1      39.574  21.907  26.690  1.00  0.00     0.202 C 
BRANCH   6   7
ATOM      7  C   UNL A   1      38.549  21.724  25.548  1.00  0.00     0.261 C 
BRANCH   7   8
ATOM      8  O   UNL A   1      37.158  21.601  25.897  1.00  0.00    -0.461 OA
BRANCH   8   9
ATOM      9  C   UNL A   1      36.279  22.434  25.272  1.00  0.00     0.338 C 
ATOM     10  O   UNL A   1      36.615  23.375  24.559  1.00  0.00    -0.249 OA
BRANCH   9  11
ATOM     11  C   UNL A   1      34.782  22.075  25.579  1.00  0.00     0.168 C 
BRANCH  11  12
ATOM     12  C   UNL A   1      34.496  22.902  26.861  1.00  0.00     0.044 C 
ATOM     13  C   UNL A   1      33.597  22.254  27.909  1.00  0.00     0.007 C 
ENDBRANCH  11  12
BRANCH  11  14
ATOM     14  C   UNL A   1      33.937  22.508  24.317  1.00  0.00     0.070 C 
ATOM     15  C   UNL A   1      32.940  21.460  23.762  1.00  0.00     0.017 C 
BRANCH  14  16
ATOM     16  C   UNL A   1      33.125  23.771  24.489  1.00  0.00     0.011 A 
ATOM     17  C   UNL A   1      33.512  25.097  24.442  1.00  0.00     0.016 A 
ATOM     18  S   UNL A   1      31.485  23.617  24.972  1.00  0.00    -0.145 S 
ATOM     19  C   UNL A   1      32.461  25.977  24.826  1.00  0.00     0.015 A 
ATOM     20  C   UNL A   1      31.320  25.297  25.195  1.00  0.00     0.002 A 
ATOM     21  C   UNL A   1      30.043  25.844  25.721  1.00  0.00     0.056 C 
ENDBRANCH  14  16
ENDBRANCH  11  14
BRANCH  11  22
ATOM     22  O   UNL A   1      34.542  20.713  25.936  1.00  0.00    -0.378 OA
ATOM     23  H   UNL A   1      33.720  20.653  26.449  1.00  0.00     0.212 HD
ENDBRANCH  11  22
ENDBRANCH   9  11
ENDBRANCH   8   9
ENDBRANCH   7   8
ENDBRANCH   6   7
ENDBRANCH   5   6
ENDBRANCH   4   5
ENDBRANCH   3   4
ENDBRANCH   2   3
ENDBRANCH   1   2
BRANCH   1  24
ATOM     24  C   UNL A   1      43.335  22.615  27.344  1.00  0.00     0.188 C 
BRANCH  24  25
ATOM     25  O   UNL A   1      42.914  23.901  26.900  1.00  0.00    -0.376 OA
BRANCH  25  26
ATOM     26  C   UNL A   1      43.191  24.313  25.572  1.00  0.00     0.202 C 
BRANCH  26  27
ATOM     27  C   UNL A   1      42.201  25.269  24.884  1.00  0.00     0.261 C 
BRANCH  27  28
ATOM     28  O   UNL A   1      42.024  26.555  25.491  1.00  0.00    -0.460 OA
BRANCH  28  29
ATOM     29  C   UNL A   1      43.135  27.290  25.732  1.00  0.00     0.338 C 
ATOM     30  O   UNL A   1      43.978  27.621  24.931  1.00  0.00    -0.246 OA
BRANCH  29  31
ATOM     31  C   UNL A   1      43.019  27.812  27.115  1.00  0.00     0.060 A 
ATOM     32  C   UNL A   1      42.274  27.081  28.051  1.00  0.00     0.016 A 
ATOM     33  C   UNL A   1      43.672  28.987  27.493  1.00  0.00     0.016 A 
ATOM     34  C   UNL A   1      42.156  27.539  29.361  1.00  0.00     0.010 A 
ATOM     35  C   UNL A   1      43.524  29.465  28.797  1.00  0.00     0.010 A 
ATOM     36  C   UNL A   1      42.737  28.760  29.725  1.00  0.00    -0.014 A 
BRANCH  36  37
ATOM     37  C   UNL A   1      42.325  29.411  30.991  1.00  0.00     0.031 A 
ATOM     38  C   UNL A   1      41.082  30.259  30.969  1.00  0.00     0.074 A 
ATOM     39  C   UNL A   1      43.015  29.238  32.132  1.00  0.00     0.049 A 
ATOM     40  N   UNL A   1      40.545  30.973  31.922  1.00  0.00    -0.248 NA
ATOM     41  C   UNL A   1      40.345  30.307  29.693  1.00  0.00     0.031 C 
ATOM     42  C   UNL A   1      44.203  28.400  32.285  1.00  0.00     0.029 A 
ATOM     43  N   UNL A   1      42.813  29.770  33.381  1.00  0.00    -0.354 N 
ATOM     44  C   UNL A   1      39.418  31.563  31.361  1.00  0.00     0.074 A 
ATOM     45  C   UNL A   1      39.363  31.147  29.978  1.00  0.00     0.031 C 
ATOM     46  C   UNL A   1      44.635  28.488  33.556  1.00  0.00     0.029 A 
ATOM     47  C   UNL A   1      43.776  29.413  34.294  1.00  0.00     0.049 A 
ATOM     48  H   UNL A   1      42.050  30.351  33.602  1.00  0.00     0.167 HD
ATOM     49  C   UNL A   1      38.508  32.372  31.949  1.00  0.00     0.037 A 
ATOM     50  C   UNL A   1      43.955  29.813  35.570  1.00  0.00     0.037 A 
ATOM     51  C   UNL A   1      38.574  32.782  33.327  1.00  0.00     0.049 A 
ATOM     52  C   UNL A   1      42.971  30.780  36.182  1.00  0.00     0.074 A 
ATOM     53  C   UNL A   1      37.695  33.589  34.026  1.00  0.00     0.029 A 
ATOM     54  N   UNL A   1      39.581  32.425  34.213  1.00  0.00    -0.354 N 
ATOM     55  N   UNL A   1      41.896  31.315  35.650  1.00  0.00    -0.248 NA
ATOM     56  C   UNL A   1      43.221  31.197  37.570  1.00  0.00     0.031 C 
ATOM     57  C   UNL A   1      38.202  33.771  35.316  1.00  0.00     0.029 A 
ATOM     58  C   UNL A   1      39.361  33.021  35.443  1.00  0.00     0.049 A 
ATOM     59  H   UNL A   1      40.340  31.837  33.997  1.00  0.00     0.167 HD
ATOM     60  C   UNL A   1      41.325  32.101  36.648  1.00  0.00     0.074 A 
ATOM     61  C   UNL A   1      42.169  31.964  37.817  1.00  0.00     0.031 C 
ATOM     62  C   UNL A   1      40.204  32.864  36.603  1.00  0.00     0.037 A 
BRANCH  49  63
ATOM     63  C   UNL A   1      37.386  32.898  31.098  1.00  0.00     0.058 A 
ATOM     64  C   UNL A   1      36.095  32.346  31.145  1.00  0.00     0.135 A 
ATOM     65  C   UNL A   1      37.597  33.995  30.248  1.00  0.00     0.135 A 
ATOM     66  F   UNL A   1      35.843  31.280  31.922  1.00  0.00    -0.206 F 
ATOM     67  C   UNL A   1      35.060  32.851  30.365  1.00  0.00     0.059 A 
ATOM     68  C   UNL A   1      36.569  34.537  29.482  1.00  0.00     0.059 A 
ATOM     69  F   UNL A   1      38.814  34.556  30.157  1.00  0.00    -0.206 F 
ATOM     70  C   UNL A   1      35.306  33.951  29.540  1.00  0.00     0.060 A 
BRANCH  70  71
ATOM     71  S   UNL A   1      33.947  34.606  28.550  1.00  0.00     0.124 S 
ATOM     72  O   UNL A   1      33.816  35.955  29.089  1.00  0.00    -0.237 OA
ATOM     73  O   UNL A   1      34.481  34.515  27.194  1.00  0.00    -0.237 OA
ATOM     74  O   UNL A   1      32.841  33.702  28.847  1.00  0.00    -0.744 OA
ENDBRANCH  70  71
ENDBRANCH  49  63
BRANCH  50  75
ATOM     75  C   UNL A   1      45.120  29.318  36.355  1.00  0.00     0.058 A 
ATOM     76  C   UNL A   1      46.361  29.970  36.304  1.00  0.00     0.135 A 
ATOM     77  C   UNL A   1      45.020  28.171  37.159  1.00  0.00     0.135 A 
ATOM     78  F   UNL A   1      46.514  31.064  35.541  1.00  0.00    -0.206 F 
ATOM     79  C   UNL A   1      47.465  29.494  37.005  1.00  0.00     0.059 A 
ATOM     80  C   UNL A   1      46.101  27.693  37.892  1.00  0.00     0.059 A 
ATOM     81  F   UNL A   1      43.854  27.511  37.248  1.00  0.00    -0.206 F 
ATOM     82  C   UNL A   1      47.324  28.355  37.799  1.00  0.00     0.060 A 
BRANCH  82  83
ATOM     83  S   UNL A   1      48.754  27.769  38.734  1.00  0.00     0.124 S 
ATOM     84  O   UNL A   1      48.312  26.441  39.147  1.00  0.00    -0.237 OA
ATOM     85  O   UNL A   1      49.811  27.805  37.727  1.00  0.00    -0.237 OA
ATOM     86  O   UNL A   1      48.883  28.752  39.804  1.00  0.00    -0.744 OA
ENDBRANCH  82  83
ENDBRANCH  50  75
BRANCH  62  87
ATOM     87  C   UNL A   1      39.789  33.574  37.864  1.00  0.00     0.058 A 
ATOM     88  C   UNL A   1      38.813  33.052  38.727  1.00  0.00     0.135 A 
ATOM     89  C   UNL A   1      40.425  34.768  38.244  1.00  0.00     0.135 A 
ATOM     90  F   UNL A   1      38.171  31.915  38.410  1.00  0.00    -0.206 F 
ATOM     91  C   UNL A   1      38.465  33.698  39.909  1.00  0.00     0.059 A 
ATOM     92  C   UNL A   1      40.117  35.415  39.438  1.00  0.00     0.059 A 
ATOM     93  F   UNL A   1      41.376  35.307  37.464  1.00  0.00    -0.206 F 
ATOM     94  C   UNL A   1      39.126  34.879  40.257  1.00  0.00     0.060 A 
BRANCH  94  95
ATOM     95  S   UNL A   1      38.688  35.688  41.810  1.00  0.00     0.124 S 
ATOM     96  O   UNL A   1      38.800  37.097  41.448  1.00  0.00    -0.237 OA
ATOM     97  O   UNL A   1      37.334  35.199  42.045  1.00  0.00    -0.237 OA
ATOM     98  O   UNL A   1      39.697  35.200  42.746  1.00  0.00    -0.744 OA
ENDBRANCH  94  95
ENDBRANCH  62  87
ENDBRANCH  36  37
ENDBRANCH  29  31
ENDBRANCH  28  29
ENDBRANCH  27  28
ENDBRANCH  26  27
ENDBRANCH  25  26
ENDBRANCH  24  25
ENDBRANCH   1  24
TORSDOF 27
ENDMDL
