MODEL 1
REMARK VINA RESULT:      -9.4      0.000      0.000
REMARK SMILES COc1cc(-c2cc(C(=O)OCCOCCOCCOCCOC(=O)c3ccc(-c4c5nc(c(-c6c(F)cc(S(=O)(=O)[O-])cc6F)c6ccc([nH]6)c(-c6c(F)cc(S(=O)(=O)[O-])cc6F)c6nc(c(-c7c(F)cc(S(=O)(=O)[O-])cc7F)c7ccc4[nH]7)C=C6)C=C5)cc3)c3cc(C)ccc3n2)cc(OC)c1OC
REMARK SMILES IDX 18 1 17 2 16 3 15 4 14 5 13 6 12 7 11 8 9 9 10 10 8 11 6 12
REMARK SMILES IDX 7 13 99 14 98 15 92 16 97 17 93 18 96 19 94 20 95 21 5 22
REMARK SMILES IDX 3 23 4 24 104 25 101 26 100 27 2 28 1 29 105 30 106 31
REMARK SMILES IDX 102 32 103 33 19 34 20 35 21 36 22 37 23 38 24 39 25 40
REMARK SMILES IDX 26 41 27 42 91 43 28 44 90 45 29 46 30 47 31 48 84 49 32 50
REMARK SMILES IDX 89 51 83 52 85 53 33 54 88 55 82 56 81 57 34 59 68 60 47 61
REMARK SMILES IDX 67 62 48 63 51 64 66 65 86 66 49 67 50 68 65 70 87 71 52 72
REMARK SMILES IDX 35 73 36 74 45 75 37 76 38 77 44 78 46 79 39 80 40 81 41 82
REMARK SMILES IDX 42 83 43 84 69 85 70 86 79 87 71 88 72 89 78 90 80 91 73 92
REMARK SMILES IDX 74 93 75 94 76 95 77 96 53 97 54 98 63 99 55 100 56 101
REMARK SMILES IDX 62 102 64 103 57 104 58 105 59 106 60 107 61 108
REMARK H PARENT 85 58 51 69
REMARK Flexibility Score: inf
ROOT
ATOM      1  C   UNL A   1      41.089  20.404  27.160  1.00  0.00     0.188 C 
ENDROOT
BRANCH   1   2
ATOM      2  O   UNL A   1      39.720  20.694  26.913  1.00  0.00    -0.377 OA
BRANCH   2   3
ATOM      3  C   UNL A   1      39.344  21.080  25.603  1.00  0.00     0.188 C 
BRANCH   3   4
ATOM      4  C   UNL A   1      37.856  21.396  25.295  1.00  0.00     0.188 C 
BRANCH   4   5
ATOM      5  O   UNL A   1      37.345  22.550  25.936  1.00  0.00    -0.376 OA
BRANCH   5   6
ATOM      6  C   UNL A   1      36.191  23.137  25.355  1.00  0.00     0.202 C 
BRANCH   6   7
ATOM      7  C   UNL A   1      34.802  22.594  25.752  1.00  0.00     0.261 C 
BRANCH   7   8
ATOM      8  O   UNL A   1      34.199  23.270  26.874  1.00  0.00    -0.460 OA
BRANCH   8   9
ATOM      9  C   UNL A   1      32.874  23.507  26.813  1.00  0.00     0.338 C 
ATOM     10  O   UNL A   1      32.033  23.119  27.607  1.00  0.00    -0.246 OA
BRANCH   9  11
ATOM     11  C   UNL A   1      32.582  24.515  25.751  1.00  0.00     0.071 A 
ATOM     12  C   UNL A   1      30.605  25.113  24.685  1.00  0.00     0.072 A 
ATOM     13  C   UNL A   1      31.633  24.201  24.789  1.00  0.00     0.045 A 
ATOM     14  N   UNL A   1      30.305  25.866  25.788  1.00  0.00    -0.248 NA
ATOM     15  C   UNL A   1      31.350  26.387  26.438  1.00  0.00     0.072 A 
ATOM     16  C   UNL A   1      32.594  25.834  26.225  1.00  0.00     0.015 A 
ATOM     17  C   UNL A   1      31.271  27.628  27.053  1.00  0.00     0.029 A 
ATOM     18  C   UNL A   1      33.698  26.710  26.155  1.00  0.00     0.014 A 
ATOM     19  C   UNL A   1      32.398  28.453  27.129  1.00  0.00     0.005 A 
ATOM     20  C   UNL A   1      33.588  28.044  26.535  1.00  0.00    -0.050 A 
ATOM     21  C   UNL A   1      34.703  28.998  26.226  1.00  0.00     0.044 C 
BRANCH  12  22
ATOM     22  C   UNL A   1      30.394  25.977  23.465  1.00  0.00     0.008 A 
ATOM     23  C   UNL A   1      30.821  28.310  23.087  1.00  0.00     0.165 A 
ATOM     24  C   UNL A   1      30.036  27.306  23.663  1.00  0.00     0.061 A 
ATOM     25  C   UNL A   1      31.989  27.981  22.375  1.00  0.00     0.203 A 
ATOM     26  C   UNL A   1      32.146  26.671  21.920  1.00  0.00     0.165 A 
ATOM     27  C   UNL A   1      31.231  25.700  22.352  1.00  0.00     0.061 A 
BRANCH  23  28
ATOM     28  O   UNL A   1      30.481  29.596  23.419  1.00  0.00    -0.493 OA
ATOM     29  C   UNL A   1      30.591  29.822  24.824  1.00  0.00     0.278 C 
ENDBRANCH  23  28
BRANCH  25  30
ATOM     30  O   UNL A   1      33.061  28.832  22.509  1.00  0.00    -0.490 OA
ATOM     31  C   UNL A   1      34.325  28.222  22.675  1.00  0.00     0.278 C 
ENDBRANCH  25  30
BRANCH  26  32
ATOM     32  O   UNL A   1      33.156  26.179  21.134  1.00  0.00    -0.493 OA
ATOM     33  C   UNL A   1      33.267  24.764  21.047  1.00  0.00     0.278 C 
ENDBRANCH  26  32
ENDBRANCH  12  22
ENDBRANCH   9  11
ENDBRANCH   8   9
ENDBRANCH   7   8
ENDBRANCH   6   7
ENDBRANCH   5   6
ENDBRANCH   4   5
ENDBRANCH   3   4
ENDBRANCH   2   3
ENDBRANCH   1   2
BRANCH   1  34
ATOM     34  C   UNL A   1      42.026  20.133  25.958  1.00  0.00     0.188 C 
BRANCH  34  35
ATOM     35  O   UNL A   1      42.636  21.288  25.396  1.00  0.00    -0.376 OA
BRANCH  35  36
ATOM     36  C   UNL A   1      42.559  22.493  26.143  1.00  0.00     0.202 C 
BRANCH  36  37
ATOM     37  C   UNL A   1      42.731  23.817  25.383  1.00  0.00     0.261 C 
BRANCH  37  38
ATOM     38  O   UNL A   1      42.596  25.020  26.157  1.00  0.00    -0.460 OA
BRANCH  38  39
ATOM     39  C   UNL A   1      43.691  25.792  26.318  1.00  0.00     0.338 C 
ATOM     40  O   UNL A   1      44.605  25.945  25.523  1.00  0.00    -0.246 OA
BRANCH  39  41
ATOM     41  C   UNL A   1      43.490  26.598  27.540  1.00  0.00     0.060 A 
ATOM     42  C   UNL A   1      42.725  26.067  28.590  1.00  0.00     0.016 A 
ATOM     43  C   UNL A   1      44.099  27.847  27.672  1.00  0.00     0.016 A 
ATOM     44  C   UNL A   1      42.548  26.795  29.765  1.00  0.00     0.010 A 
ATOM     45  C   UNL A   1      43.891  28.593  28.835  1.00  0.00     0.010 A 
ATOM     46  C   UNL A   1      43.088  28.083  29.870  1.00  0.00    -0.014 A 
BRANCH  46  47
ATOM     47  C   UNL A   1      42.613  28.980  30.950  1.00  0.00     0.031 A 
ATOM     48  C   UNL A   1      43.384  28.986  32.244  1.00  0.00     0.074 A 
ATOM     49  C   UNL A   1      41.552  29.788  30.785  1.00  0.00     0.049 A 
ATOM     50  N   UNL A   1      43.155  29.648  33.346  1.00  0.00    -0.248 NA
ATOM     51  C   UNL A   1      44.574  28.119  32.298  1.00  0.00     0.031 C 
ATOM     52  C   UNL A   1      40.754  29.901  29.566  1.00  0.00     0.029 A 
ATOM     53  N   UNL A   1      40.958  30.665  31.660  1.00  0.00    -0.354 N 
ATOM     54  C   UNL A   1      44.165  29.275  34.226  1.00  0.00     0.074 A 
ATOM     55  C   UNL A   1      44.989  28.304  33.541  1.00  0.00     0.031 C 
ATOM     56  C   UNL A   1      39.763  30.787  29.776  1.00  0.00     0.029 A 
ATOM     57  C   UNL A   1      39.838  31.277  31.152  1.00  0.00     0.049 A 
ATOM     58  H   UNL A   1      41.302  30.838  32.566  1.00  0.00     0.167 HD
ATOM     59  C   UNL A   1      44.389  29.709  35.488  1.00  0.00     0.037 A 
ATOM     60  C   UNL A   1      38.964  32.119  31.742  1.00  0.00     0.037 A 
ATOM     61  C   UNL A   1      43.560  30.672  36.163  1.00  0.00     0.049 A 
ATOM     62  C   UNL A   1      39.194  32.536  33.173  1.00  0.00     0.074 A 
ATOM     63  C   UNL A   1      43.710  31.191  37.437  1.00  0.00     0.029 A 
ATOM     64  N   UNL A   1      42.419  31.250  35.626  1.00  0.00    -0.354 N 
ATOM     65  N   UNL A   1      40.167  32.199  33.988  1.00  0.00    -0.248 NA
ATOM     66  C   UNL A   1      38.209  33.453  33.766  1.00  0.00     0.031 C 
ATOM     67  C   UNL A   1      42.626  32.037  37.691  1.00  0.00     0.029 A 
ATOM     68  C   UNL A   1      41.837  32.098  36.553  1.00  0.00     0.049 A 
ATOM     69  H   UNL A   1      42.073  31.082  34.719  1.00  0.00     0.167 HD
ATOM     70  C   UNL A   1      39.928  32.885  35.174  1.00  0.00     0.074 A 
ATOM     71  C   UNL A   1      38.727  33.667  34.968  1.00  0.00     0.031 C 
ATOM     72  C   UNL A   1      40.641  32.875  36.330  1.00  0.00     0.037 A 
BRANCH  59  73
ATOM     73  C   UNL A   1      45.557  29.118  36.228  1.00  0.00     0.058 A 
ATOM     74  C   UNL A   1      46.834  29.701  36.191  1.00  0.00     0.135 A 
ATOM     75  C   UNL A   1      45.390  27.959  37.004  1.00  0.00     0.135 A 
ATOM     76  F   UNL A   1      47.057  30.796  35.447  1.00  0.00    -0.206 F 
ATOM     77  C   UNL A   1      47.909  29.142  36.875  1.00  0.00     0.059 A 
ATOM     78  C   UNL A   1      46.442  27.401  37.721  1.00  0.00     0.059 A 
ATOM     79  F   UNL A   1      44.192  27.356  37.069  1.00  0.00    -0.206 F 
ATOM     80  C   UNL A   1      47.702  27.992  37.639  1.00  0.00     0.060 A 
BRANCH  80  81
ATOM     81  S   UNL A   1      49.105  27.283  38.527  1.00  0.00     0.124 S 
ATOM     82  O   UNL A   1      49.900  28.473  38.812  1.00  0.00    -0.237 OA
ATOM     83  O   UNL A   1      48.462  26.661  39.679  1.00  0.00    -0.237 OA
ATOM     84  O   UNL A   1      49.688  26.358  37.561  1.00  0.00    -0.744 OA
ENDBRANCH  80  81
ENDBRANCH  59  73
BRANCH  60  85
ATOM     85  C   UNL A   1      37.780  32.612  30.986  1.00  0.00     0.058 A 
ATOM     86  C   UNL A   1      36.510  32.042  31.167  1.00  0.00     0.135 A 
ATOM     87  C   UNL A   1      37.896  33.661  30.059  1.00  0.00     0.135 A 
ATOM     88  F   UNL A   1      36.347  31.027  32.029  1.00  0.00    -0.206 F 
ATOM     89  C   UNL A   1      35.403  32.483  30.447  1.00  0.00     0.059 A 
ATOM     90  C   UNL A   1      36.798  34.138  29.349  1.00  0.00     0.059 A 
ATOM     91  F   UNL A   1      39.087  34.245  29.851  1.00  0.00    -0.206 F 
ATOM     92  C   UNL A   1      35.557  33.536  29.544  1.00  0.00     0.060 A 
BRANCH  92  93
ATOM     93  S   UNL A   1      34.102  34.133  28.655  1.00  0.00     0.124 S 
ATOM     94  O   UNL A   1      34.643  35.287  27.948  1.00  0.00    -0.237 OA
ATOM     95  O   UNL A   1      33.758  32.980  27.829  1.00  0.00    -0.237 OA
ATOM     96  O   UNL A   1      33.154  34.434  29.723  1.00  0.00    -0.744 OA
ENDBRANCH  92  93
ENDBRANCH  60  85
BRANCH  72  97
ATOM     97  C   UNL A   1      40.167  33.763  37.450  1.00  0.00     0.058 A 
ATOM     98  C   UNL A   1      39.177  33.353  38.357  1.00  0.00     0.135 A 
ATOM     99  C   UNL A   1      40.751  35.026  37.648  1.00  0.00     0.135 A 
ATOM    100  F   UNL A   1      38.584  32.157  38.216  1.00  0.00    -0.206 F 
ATOM    101  C   UNL A   1      38.760  34.175  39.400  1.00  0.00     0.059 A 
ATOM    102  C   UNL A   1      40.374  35.851  38.703  1.00  0.00     0.059 A 
ATOM    103  F   UNL A   1      41.713  35.463  36.820  1.00  0.00    -0.206 F 
ATOM    104  C   UNL A   1      39.366  35.422  39.565  1.00  0.00     0.060 A 
BRANCH 104 105
ATOM    105  S   UNL A   1      38.831  36.470  40.936  1.00  0.00     0.124 S 
ATOM    106  O   UNL A   1      40.061  36.593  41.709  1.00  0.00    -0.237 OA
ATOM    107  O   UNL A   1      38.389  37.680  40.249  1.00  0.00    -0.237 OA
ATOM    108  O   UNL A   1      37.769  35.691  41.565  1.00  0.00    -0.744 OA
ENDBRANCH 104 105
ENDBRANCH  72  97
ENDBRANCH  46  47
ENDBRANCH  39  41
ENDBRANCH  38  39
ENDBRANCH  37  38
ENDBRANCH  36  37
ENDBRANCH  35  36
ENDBRANCH  34  35
ENDBRANCH   1  34
TORSDOF 27
ENDMDL
MODEL 2
REMARK VINA RESULT:      -9.3      6.296     14.348
REMARK SMILES COc1cc(-c2cc(C(=O)OCCOCCOCCOCCOC(=O)c3ccc(-c4c5nc(c(-c6c(F)cc(S(=O)(=O)[O-])cc6F)c6ccc([nH]6)c(-c6c(F)cc(S(=O)(=O)[O-])cc6F)c6nc(c(-c7c(F)cc(S(=O)(=O)[O-])cc7F)c7ccc4[nH]7)C=C6)C=C5)cc3)c3cc(C)ccc3n2)cc(OC)c1OC
REMARK SMILES IDX 18 1 17 2 16 3 15 4 14 5 13 6 12 7 11 8 9 9 10 10 8 11 6 12
REMARK SMILES IDX 7 13 99 14 98 15 92 16 97 17 93 18 96 19 94 20 95 21 5 22
REMARK SMILES IDX 3 23 4 24 104 25 101 26 100 27 2 28 1 29 105 30 106 31
REMARK SMILES IDX 102 32 103 33 19 34 20 35 21 36 22 37 23 38 24 39 25 40
REMARK SMILES IDX 26 41 27 42 91 43 28 44 90 45 29 46 30 47 31 48 84 49 32 50
REMARK SMILES IDX 89 51 83 52 85 53 33 54 88 55 82 56 81 57 34 59 68 60 47 61
REMARK SMILES IDX 67 62 48 63 51 64 66 65 86 66 49 67 50 68 65 70 87 71 52 72
REMARK SMILES IDX 35 73 36 74 45 75 37 76 38 77 44 78 46 79 39 80 40 81 41 82
REMARK SMILES IDX 42 83 43 84 69 85 70 86 79 87 71 88 72 89 78 90 80 91 73 92
REMARK SMILES IDX 74 93 75 94 76 95 77 96 53 97 54 98 63 99 55 100 56 101
REMARK SMILES IDX 62 102 64 103 57 104 58 105 59 106 60 107 61 108
REMARK H PARENT 85 58 51 69
REMARK Flexibility Score: inf
ROOT
ATOM      1  C   UNL A   1      33.059  34.984  28.625  1.00  0.00     0.188 C 
ENDROOT
BRANCH   1   2
ATOM      2  O   UNL A   1      32.567  35.273  29.926  1.00  0.00    -0.377 OA
BRANCH   2   3
ATOM      3  C   UNL A   1      33.497  35.346  30.992  1.00  0.00     0.188 C 
BRANCH   3   4
ATOM      4  C   UNL A   1      33.291  36.394  32.118  1.00  0.00     0.188 C 
BRANCH   4   5
ATOM      5  O   UNL A   1      33.958  36.106  33.332  1.00  0.00    -0.376 OA
BRANCH   5   6
ATOM      6  C   UNL A   1      34.745  34.925  33.356  1.00  0.00     0.202 C 
BRANCH   6   7
ATOM      7  C   UNL A   1      35.508  34.568  34.649  1.00  0.00     0.261 C 
BRANCH   7   8
ATOM      8  O   UNL A   1      35.741  33.156  34.830  1.00  0.00    -0.460 OA
BRANCH   8   9
ATOM      9  C   UNL A   1      36.822  32.626  34.227  1.00  0.00     0.338 C 
ATOM     10  O   UNL A   1      36.828  31.981  33.191  1.00  0.00    -0.246 OA
BRANCH   9  11
ATOM     11  C   UNL A   1      38.069  33.128  34.876  1.00  0.00     0.071 A 
ATOM     12  C   UNL A   1      39.097  32.579  36.888  1.00  0.00     0.072 A 
ATOM     13  C   UNL A   1      38.083  33.267  36.257  1.00  0.00     0.045 A 
ATOM     14  N   UNL A   1      39.608  31.476  36.260  1.00  0.00    -0.248 NA
ATOM     15  C   UNL A   1      39.856  31.612  34.954  1.00  0.00     0.072 A 
ATOM     16  C   UNL A   1      39.238  32.640  34.275  1.00  0.00     0.015 A 
ATOM     17  C   UNL A   1      40.926  30.967  34.352  1.00  0.00     0.029 A 
ATOM     18  C   UNL A   1      39.987  33.319  33.290  1.00  0.00     0.014 A 
ATOM     19  C   UNL A   1      41.590  31.557  33.270  1.00  0.00     0.005 A 
ATOM     20  C   UNL A   1      41.204  32.821  32.836  1.00  0.00    -0.050 A 
ATOM     21  C   UNL A   1      42.081  33.679  31.973  1.00  0.00     0.044 C 
BRANCH  12  22
ATOM     22  C   UNL A   1      40.232  33.268  37.606  1.00  0.00     0.008 A 
ATOM     23  C   UNL A   1      41.082  35.508  37.437  1.00  0.00     0.165 A 
ATOM     24  C   UNL A   1      40.963  34.221  36.905  1.00  0.00     0.061 A 
ATOM     25  C   UNL A   1      40.418  35.850  38.630  1.00  0.00     0.203 A 
ATOM     26  C   UNL A   1      39.976  34.824  39.465  1.00  0.00     0.165 A 
ATOM     27  C   UNL A   1      40.041  33.505  38.993  1.00  0.00     0.061 A 
BRANCH  23  28
ATOM     28  O   UNL A   1      41.715  36.427  36.639  1.00  0.00    -0.493 OA
ATOM     29  C   UNL A   1      41.248  36.361  35.293  1.00  0.00     0.278 C 
ENDBRANCH  23  28
BRANCH  25  30
ATOM     30  O   UNL A   1      39.900  37.121  38.711  1.00  0.00    -0.490 OA
ATOM     31  C   UNL A   1      40.494  37.977  39.667  1.00  0.00     0.278 C 
ENDBRANCH  25  30
BRANCH  26  32
ATOM     32  O   UNL A   1      39.400  34.949  40.702  1.00  0.00    -0.493 OA
ATOM     33  C   UNL A   1      37.988  35.120  40.737  1.00  0.00     0.278 C 
ENDBRANCH  26  32
ENDBRANCH  12  22
ENDBRANCH   9  11
ENDBRANCH   8   9
ENDBRANCH   7   8
ENDBRANCH   6   7
ENDBRANCH   5   6
ENDBRANCH   4   5
ENDBRANCH   3   4
ENDBRANCH   2   3
ENDBRANCH   1   2
BRANCH   1  34
ATOM     34  C   UNL A   1      33.764  33.629  28.374  1.00  0.00     0.188 C 
BRANCH  34  35
ATOM     35  O   UNL A   1      35.109  33.722  27.925  1.00  0.00    -0.376 OA
BRANCH  35  36
ATOM     36  C   UNL A   1      36.116  33.196  28.776  1.00  0.00     0.202 C 
BRANCH  36  37
ATOM     37  C   UNL A   1      35.704  32.118  29.790  1.00  0.00     0.261 C 
BRANCH  37  38
ATOM     38  O   UNL A   1      36.046  30.763  29.457  1.00  0.00    -0.460 OA
BRANCH  38  39
ATOM     39  C   UNL A   1      36.719  30.039  30.376  1.00  0.00     0.338 C 
ATOM     40  O   UNL A   1      36.241  29.411  31.308  1.00  0.00    -0.246 OA
BRANCH  39  41
ATOM     41  C   UNL A   1      38.126  29.957  29.933  1.00  0.00     0.060 A 
ATOM     42  C   UNL A   1      38.405  29.859  28.561  1.00  0.00     0.016 A 
ATOM     43  C   UNL A   1      39.166  30.031  30.862  1.00  0.00     0.016 A 
ATOM     44  C   UNL A   1      39.725  29.812  28.117  1.00  0.00     0.010 A 
ATOM     45  C   UNL A   1      40.488  29.947  30.419  1.00  0.00     0.010 A 
ATOM     46  C   UNL A   1      40.771  29.804  29.049  1.00  0.00    -0.014 A 
BRANCH  46  47
ATOM     47  C   UNL A   1      42.128  29.404  28.610  1.00  0.00     0.031 A 
ATOM     48  C   UNL A   1      42.339  27.968  28.207  1.00  0.00     0.074 A 
ATOM     49  C   UNL A   1      43.139  30.287  28.539  1.00  0.00     0.049 A 
ATOM     50  N   UNL A   1      43.430  27.364  27.822  1.00  0.00    -0.248 NA
ATOM     51  C   UNL A   1      41.151  27.098  28.250  1.00  0.00     0.031 C 
ATOM     52  C   UNL A   1      43.046  31.710  28.861  1.00  0.00     0.029 A 
ATOM     53  N   UNL A   1      44.452  30.108  28.177  1.00  0.00    -0.354 N 
ATOM     54  C   UNL A   1      43.065  26.044  27.584  1.00  0.00     0.074 A 
ATOM     55  C   UNL A   1      41.658  25.928  27.899  1.00  0.00     0.031 C 
ATOM     56  C   UNL A   1      44.257  32.273  28.697  1.00  0.00     0.029 A 
ATOM     57  C   UNL A   1      45.215  31.245  28.290  1.00  0.00     0.049 A 
ATOM     58  H   UNL A   1      44.812  29.246  27.866  1.00  0.00     0.167 HD
ATOM     59  C   UNL A   1      43.831  25.022  27.136  1.00  0.00     0.037 A 
ATOM     60  C   UNL A   1      46.540  31.425  28.108  1.00  0.00     0.037 A 
ATOM     61  C   UNL A   1      45.231  25.145  26.831  1.00  0.00     0.049 A 
ATOM     62  C   UNL A   1      47.389  30.256  27.676  1.00  0.00     0.074 A 
ATOM     63  C   UNL A   1      46.096  24.176  26.355  1.00  0.00     0.029 A 
ATOM     64  N   UNL A   1      45.976  26.306  26.984  1.00  0.00    -0.354 N 
ATOM     65  N   UNL A   1      47.029  29.017  27.427  1.00  0.00    -0.248 NA
ATOM     66  C   UNL A   1      48.826  30.508  27.494  1.00  0.00     0.031 C 
ATOM     67  C   UNL A   1      47.376  24.734  26.278  1.00  0.00     0.029 A 
ATOM     68  C   UNL A   1      47.297  26.070  26.640  1.00  0.00     0.049 A 
ATOM     69  H   UNL A   1      45.619  27.171  27.292  1.00  0.00     0.167 HD
ATOM     70  C   UNL A   1      48.187  28.354  27.030  1.00  0.00     0.074 A 
ATOM     71  C   UNL A   1      49.256  29.330  27.059  1.00  0.00     0.031 C 
ATOM     72  C   UNL A   1      48.351  27.056  26.670  1.00  0.00     0.037 A 
BRANCH  59  73
ATOM     73  C   UNL A   1      43.176  23.677  26.985  1.00  0.00     0.058 A 
ATOM     74  C   UNL A   1      42.773  23.182  25.734  1.00  0.00     0.135 A 
ATOM     75  C   UNL A   1      42.967  22.861  28.109  1.00  0.00     0.135 A 
ATOM     76  F   UNL A   1      42.926  23.929  24.629  1.00  0.00    -0.206 F 
ATOM     77  C   UNL A   1      42.162  21.939  25.606  1.00  0.00     0.059 A 
ATOM     78  C   UNL A   1      42.388  21.601  28.001  1.00  0.00     0.059 A 
ATOM     79  F   UNL A   1      43.327  23.287  29.330  1.00  0.00    -0.206 F 
ATOM     80  C   UNL A   1      41.975  21.155  26.747  1.00  0.00     0.060 A 
BRANCH  80  81
ATOM     81  S   UNL A   1      41.188  19.540  26.564  1.00  0.00     0.124 S 
ATOM     82  O   UNL A   1      40.975  19.161  27.957  1.00  0.00    -0.237 OA
ATOM     83  O   UNL A   1      39.985  19.866  25.805  1.00  0.00    -0.237 OA
ATOM     84  O   UNL A   1      42.186  18.754  25.846  1.00  0.00    -0.744 OA
ENDBRANCH  80  81
ENDBRANCH  59  73
BRANCH  60  85
ATOM     85  C   UNL A   1      47.150  32.761  28.349  1.00  0.00     0.058 A 
ATOM     86  C   UNL A   1      47.624  33.129  29.618  1.00  0.00     0.135 A 
ATOM     87  C   UNL A   1      47.264  33.704  27.313  1.00  0.00     0.135 A 
ATOM     88  F   UNL A   1      47.525  32.271  30.644  1.00  0.00    -0.206 F 
ATOM     89  C   UNL A   1      48.175  34.384  29.856  1.00  0.00     0.059 A 
ATOM     90  C   UNL A   1      47.837  34.955  27.520  1.00  0.00     0.059 A 
ATOM     91  F   UNL A   1      46.831  33.402  26.079  1.00  0.00    -0.206 F 
ATOM     92  C   UNL A   1      48.282  35.289  28.798  1.00  0.00     0.060 A 
BRANCH  92  93
ATOM     93  S   UNL A   1      49.046  36.897  29.108  1.00  0.00     0.124 S 
ATOM     94  O   UNL A   1      48.369  37.737  28.129  1.00  0.00    -0.237 OA
ATOM     95  O   UNL A   1      48.697  37.134  30.505  1.00  0.00    -0.237 OA
ATOM     96  O   UNL A   1      50.463  36.650  28.857  1.00  0.00    -0.744 OA
ENDBRANCH  92  93
ENDBRANCH  60  85
BRANCH  72  97
ATOM     97  C   UNL A   1      49.726  26.620  26.238  1.00  0.00     0.058 A 
ATOM     98  C   UNL A   1      50.233  26.909  24.961  1.00  0.00     0.135 A 
ATOM     99  C   UNL A   1      50.569  25.944  27.137  1.00  0.00     0.135 A 
ATOM    100  F   UNL A   1      49.470  27.551  24.061  1.00  0.00    -0.206 F 
ATOM    101  C   UNL A   1      51.512  26.517  24.580  1.00  0.00     0.059 A 
ATOM    102  C   UNL A   1      51.864  25.573  26.789  1.00  0.00     0.059 A 
ATOM    103  F   UNL A   1      50.143  25.654  28.376  1.00  0.00    -0.206 F 
ATOM    104  C   UNL A   1      52.321  25.850  25.502  1.00  0.00     0.060 A 
BRANCH 104 105
ATOM    105  S   UNL A   1      53.988  25.366  25.001  1.00  0.00     0.124 S 
ATOM    106  O   UNL A   1      53.822  23.935  24.773  1.00  0.00    -0.237 OA
ATOM    107  O   UNL A   1      54.203  26.179  23.808  1.00  0.00    -0.237 OA
ATOM    108  O   UNL A   1      54.807  25.727  26.154  1.00  0.00    -0.744 OA
ENDBRANCH 104 105
ENDBRANCH  72  97
ENDBRANCH  46  47
ENDBRANCH  39  41
ENDBRANCH  38  39
ENDBRANCH  37  38
ENDBRANCH  36  37
ENDBRANCH  35  36
ENDBRANCH  34  35
ENDBRANCH   1  34
TORSDOF 27
ENDMDL
MODEL 3
REMARK VINA RESULT:      -9.3      5.812      8.863
REMARK SMILES COc1cc(-c2cc(C(=O)OCCOCCOCCOCCOC(=O)c3ccc(-c4c5nc(c(-c6c(F)cc(S(=O)(=O)[O-])cc6F)c6ccc([nH]6)c(-c6c(F)cc(S(=O)(=O)[O-])cc6F)c6nc(c(-c7c(F)cc(S(=O)(=O)[O-])cc7F)c7ccc4[nH]7)C=C6)C=C5)cc3)c3cc(C)ccc3n2)cc(OC)c1OC
REMARK SMILES IDX 18 1 17 2 16 3 15 4 14 5 13 6 12 7 11 8 9 9 10 10 8 11 6 12
REMARK SMILES IDX 7 13 99 14 98 15 92 16 97 17 93 18 96 19 94 20 95 21 5 22
REMARK SMILES IDX 3 23 4 24 104 25 101 26 100 27 2 28 1 29 105 30 106 31
REMARK SMILES IDX 102 32 103 33 19 34 20 35 21 36 22 37 23 38 24 39 25 40
REMARK SMILES IDX 26 41 27 42 91 43 28 44 90 45 29 46 30 47 31 48 84 49 32 50
REMARK SMILES IDX 89 51 83 52 85 53 33 54 88 55 82 56 81 57 34 59 68 60 47 61
REMARK SMILES IDX 67 62 48 63 51 64 66 65 86 66 49 67 50 68 65 70 87 71 52 72
REMARK SMILES IDX 35 73 36 74 45 75 37 76 38 77 44 78 46 79 39 80 40 81 41 82
REMARK SMILES IDX 42 83 43 84 69 85 70 86 79 87 71 88 72 89 78 90 80 91 73 92
REMARK SMILES IDX 74 93 75 94 76 95 77 96 53 97 54 98 63 99 55 100 56 101
REMARK SMILES IDX 62 102 64 103 57 104 58 105 59 106 60 107 61 108
REMARK H PARENT 85 58 51 69
REMARK Flexibility Score: inf
ROOT
ATOM      1  C   UNL A   1      34.771  32.701  31.458  1.00  0.00     0.188 C 
ENDROOT
BRANCH   1   2
ATOM      2  O   UNL A   1      34.149  33.827  30.857  1.00  0.00    -0.377 OA
BRANCH   2   3
ATOM      3  C   UNL A   1      34.608  34.244  29.583  1.00  0.00     0.188 C 
BRANCH   3   4
ATOM      4  C   UNL A   1      34.029  33.579  28.306  1.00  0.00     0.188 C 
BRANCH   4   5
ATOM      5  O   UNL A   1      32.674  33.886  28.034  1.00  0.00    -0.376 OA
BRANCH   5   6
ATOM      6  C   UNL A   1      32.105  33.274  26.887  1.00  0.00     0.202 C 
BRANCH   6   7
ATOM      7  C   UNL A   1      31.419  31.900  27.041  1.00  0.00     0.261 C 
BRANCH   7   8
ATOM      8  O   UNL A   1      31.918  30.883  26.148  1.00  0.00    -0.460 OA
BRANCH   8   9
ATOM      9  C   UNL A   1      32.905  30.090  26.607  1.00  0.00     0.338 C 
ATOM     10  O   UNL A   1      33.438  30.160  27.702  1.00  0.00    -0.246 OA
BRANCH   9  11
ATOM     11  C   UNL A   1      33.119  28.945  25.673  1.00  0.00     0.071 A 
ATOM     12  C   UNL A   1      33.918  26.790  26.023  1.00  0.00     0.072 A 
ATOM     13  C   UNL A   1      34.221  28.126  25.878  1.00  0.00     0.045 A 
ATOM     14  N   UNL A   1      32.671  26.464  26.484  1.00  0.00    -0.248 NA
ATOM     15  C   UNL A   1      31.654  27.134  25.933  1.00  0.00     0.072 A 
ATOM     16  C   UNL A   1      31.926  28.319  25.286  1.00  0.00     0.015 A 
ATOM     17  C   UNL A   1      30.423  26.531  25.726  1.00  0.00     0.029 A 
ATOM     18  C   UNL A   1      31.213  28.598  24.100  1.00  0.00     0.014 A 
ATOM     19  C   UNL A   1      29.627  26.903  24.636  1.00  0.00     0.005 A 
ATOM     20  C   UNL A   1      30.105  27.844  23.729  1.00  0.00    -0.050 A 
ATOM     21  C   UNL A   1      29.520  28.010  22.358  1.00  0.00     0.044 C 
BRANCH  12  22
ATOM     22  C   UNL A   1      34.327  25.742  25.017  1.00  0.00     0.008 A 
ATOM     23  C   UNL A   1      34.043  23.357  25.014  1.00  0.00     0.165 A 
ATOM     24  C   UNL A   1      34.703  24.492  25.496  1.00  0.00     0.061 A 
ATOM     25  C   UNL A   1      32.972  23.485  24.110  1.00  0.00     0.203 A 
ATOM     26  C   UNL A   1      32.831  24.684  23.409  1.00  0.00     0.165 A 
ATOM     27  C   UNL A   1      33.641  25.769  23.774  1.00  0.00     0.061 A 
BRANCH  23  28
ATOM     28  O   UNL A   1      34.382  22.171  25.614  1.00  0.00    -0.493 OA
ATOM     29  C   UNL A   1      35.787  21.935  25.551  1.00  0.00     0.278 C 
ENDBRANCH  23  28
BRANCH  25  30
ATOM     30  O   UNL A   1      31.925  22.607  24.256  1.00  0.00    -0.490 OA
ATOM     31  C   UNL A   1      31.083  22.819  25.372  1.00  0.00     0.278 C 
ENDBRANCH  25  30
BRANCH  26  32
ATOM     32  O   UNL A   1      31.921  24.969  22.425  1.00  0.00    -0.493 OA
ATOM     33  C   UNL A   1      32.359  25.829  21.379  1.00  0.00     0.278 C 
ENDBRANCH  26  32
ENDBRANCH  12  22
ENDBRANCH   9  11
ENDBRANCH   8   9
ENDBRANCH   7   8
ENDBRANCH   6   7
ENDBRANCH   5   6
ENDBRANCH   4   5
ENDBRANCH   3   4
ENDBRANCH   2   3
ENDBRANCH   1   2
BRANCH   1  34
ATOM     34  C   UNL A   1      36.096  32.899  32.233  1.00  0.00     0.188 C 
BRANCH  34  35
ATOM     35  O   UNL A   1      36.869  31.721  32.418  1.00  0.00    -0.376 OA
BRANCH  35  36
ATOM     36  C   UNL A   1      36.240  30.480  32.137  1.00  0.00     0.202 C 
BRANCH  36  37
ATOM     37  C   UNL A   1      36.954  29.519  31.173  1.00  0.00     0.261 C 
BRANCH  37  38
ATOM     38  O   UNL A   1      37.245  30.028  29.862  1.00  0.00    -0.460 OA
BRANCH  38  39
ATOM     39  C   UNL A   1      38.490  29.838  29.375  1.00  0.00     0.338 C 
ATOM     40  O   UNL A   1      38.849  28.964  28.601  1.00  0.00    -0.246 OA
BRANCH  39  41
ATOM     41  C   UNL A   1      39.304  31.007  29.769  1.00  0.00     0.060 A 
ATOM     42  C   UNL A   1      40.650  30.815  30.115  1.00  0.00     0.016 A 
ATOM     43  C   UNL A   1      38.757  32.291  29.742  1.00  0.00     0.016 A 
ATOM     44  C   UNL A   1      41.446  31.907  30.459  1.00  0.00     0.010 A 
ATOM     45  C   UNL A   1      39.545  33.380  30.122  1.00  0.00     0.010 A 
ATOM     46  C   UNL A   1      40.881  33.187  30.514  1.00  0.00    -0.014 A 
BRANCH  46  47
ATOM     47  C   UNL A   1      41.615  34.272  31.207  1.00  0.00     0.031 A 
ATOM     48  C   UNL A   1      41.550  34.311  32.711  1.00  0.00     0.074 A 
ATOM     49  C   UNL A   1      42.342  35.179  30.532  1.00  0.00     0.049 A 
ATOM     50  N   UNL A   1      42.071  35.170  33.544  1.00  0.00    -0.248 NA
ATOM     51  C   UNL A   1      40.788  33.229  33.359  1.00  0.00     0.031 C 
ATOM     52  C   UNL A   1      42.514  35.218  29.081  1.00  0.00     0.029 A 
ATOM     53  N   UNL A   1      43.068  36.253  30.988  1.00  0.00    -0.354 N 
ATOM     54  C   UNL A   1      41.695  34.741  34.812  1.00  0.00     0.074 A 
ATOM     55  C   UNL A   1      40.876  33.562  34.636  1.00  0.00     0.031 C 
ATOM     56  C   UNL A   1      43.285  36.275  28.763  1.00  0.00     0.029 A 
ATOM     57  C   UNL A   1      43.632  37.003  29.984  1.00  0.00     0.049 A 
ATOM     58  H   UNL A   1      43.173  36.465  31.943  1.00  0.00     0.167 HD
ATOM     59  C   UNL A   1      42.012  35.275  36.014  1.00  0.00     0.037 A 
ATOM     60  C   UNL A   1      44.329  38.156  30.047  1.00  0.00     0.037 A 
ATOM     61  C   UNL A   1      42.823  36.452  36.179  1.00  0.00     0.049 A 
ATOM     62  C   UNL A   1      44.611  38.774  31.394  1.00  0.00     0.074 A 
ATOM     63  C   UNL A   1      43.216  37.067  37.354  1.00  0.00     0.029 A 
ATOM     64  N   UNL A   1      43.355  37.200  35.138  1.00  0.00    -0.354 N 
ATOM     65  N   UNL A   1      44.275  38.345  32.589  1.00  0.00    -0.248 NA
ATOM     66  C   UNL A   1      45.372  40.032  31.404  1.00  0.00     0.031 C 
ATOM     67  C   UNL A   1      43.935  38.220  37.022  1.00  0.00     0.029 A 
ATOM     68  C   UNL A   1      44.047  38.288  35.642  1.00  0.00     0.049 A 
ATOM     69  H   UNL A   1      43.254  36.989  34.181  1.00  0.00     0.167 HD
ATOM     70  C   UNL A   1      44.809  39.261  33.489  1.00  0.00     0.074 A 
ATOM     71  C   UNL A   1      45.502  40.261  32.703  1.00  0.00     0.031 C 
ATOM     72  C   UNL A   1      44.738  39.273  34.845  1.00  0.00     0.037 A 
BRANCH  59  73
ATOM     73  C   UNL A   1      41.448  34.611  37.239  1.00  0.00     0.058 A 
ATOM     74  C   UNL A   1      40.190  34.956  37.760  1.00  0.00     0.135 A 
ATOM     75  C   UNL A   1      42.171  33.599  37.893  1.00  0.00     0.135 A 
ATOM     76  F   UNL A   1      39.466  35.932  37.191  1.00  0.00    -0.206 F 
ATOM     77  C   UNL A   1      39.681  34.339  38.899  1.00  0.00     0.059 A 
ATOM     78  C   UNL A   1      41.668  32.947  39.013  1.00  0.00     0.059 A 
ATOM     79  F   UNL A   1      43.382  33.236  37.442  1.00  0.00    -0.206 F 
ATOM     80  C   UNL A   1      40.427  33.335  39.518  1.00  0.00     0.060 A 
BRANCH  80  81
ATOM     81  S   UNL A   1      39.749  32.539  40.990  1.00  0.00     0.124 S 
ATOM     82  O   UNL A   1      39.493  33.690  41.850  1.00  0.00    -0.237 OA
ATOM     83  O   UNL A   1      38.567  31.867  40.463  1.00  0.00    -0.237 OA
ATOM     84  O   UNL A   1      40.826  31.658  41.428  1.00  0.00    -0.744 OA
ENDBRANCH  80  81
ENDBRANCH  59  73
BRANCH  60  85
ATOM     85  C   UNL A   1      44.796  38.814  28.795  1.00  0.00     0.058 A 
ATOM     86  C   UNL A   1      46.037  38.494  28.223  1.00  0.00     0.135 A 
ATOM     87  C   UNL A   1      44.012  39.783  28.149  1.00  0.00     0.135 A 
ATOM     88  F   UNL A   1      46.831  37.586  28.810  1.00  0.00    -0.206 F 
ATOM     89  C   UNL A   1      46.491  39.121  27.066  1.00  0.00     0.059 A 
ATOM     90  C   UNL A   1      44.431  40.403  26.975  1.00  0.00     0.059 A 
ATOM     91  F   UNL A   1      42.814  40.123  28.651  1.00  0.00    -0.206 F 
ATOM     92  C   UNL A   1      45.677  40.070  26.447  1.00  0.00     0.060 A 
BRANCH  92  93
ATOM     93  S   UNL A   1      46.254  40.840  24.917  1.00  0.00     0.124 S 
ATOM     94  O   UNL A   1      46.809  39.696  24.204  1.00  0.00    -0.237 OA
ATOM     95  O   UNL A   1      45.020  41.396  24.373  1.00  0.00    -0.237 OA
ATOM     96  O   UNL A   1      47.226  41.826  25.382  1.00  0.00    -0.744 OA
ENDBRANCH  92  93
ENDBRANCH  60  85
BRANCH  72  97
ATOM     97  C   UNL A   1      45.459  40.377  35.572  1.00  0.00     0.058 A 
ATOM     98  C   UNL A   1      44.882  41.642  35.765  1.00  0.00     0.135 A 
ATOM     99  C   UNL A   1      46.729  40.148  36.128  1.00  0.00     0.135 A 
ATOM    100  F   UNL A   1      43.671  41.918  35.255  1.00  0.00    -0.206 F 
ATOM    101  C   UNL A   1      45.550  42.649  36.455  1.00  0.00     0.059 A 
ATOM    102  C   UNL A   1      47.402  41.128  36.850  1.00  0.00     0.059 A 
ATOM    103  F   UNL A   1      47.323  38.952  35.987  1.00  0.00    -0.206 F 
ATOM    104  C   UNL A   1      46.810  42.382  36.995  1.00  0.00     0.060 A 
BRANCH 104 105
ATOM    105  S   UNL A   1      47.657  43.691  37.906  1.00  0.00     0.124 S 
ATOM    106  O   UNL A   1      47.177  44.885  37.220  1.00  0.00    -0.237 OA
ATOM    107  O   UNL A   1      47.159  43.497  39.265  1.00  0.00    -0.237 OA
ATOM    108  O   UNL A   1      49.070  43.381  37.713  1.00  0.00    -0.744 OA
ENDBRANCH 104 105
ENDBRANCH  72  97
ENDBRANCH  46  47
ENDBRANCH  39  41
ENDBRANCH  38  39
ENDBRANCH  37  38
ENDBRANCH  36  37
ENDBRANCH  35  36
ENDBRANCH  34  35
ENDBRANCH   1  34
TORSDOF 27
ENDMDL
