MODEL 1
REMARK VINA RESULT:      -8.4      0.000      0.000
REMARK SMILES C[C@@H](C(=O)OCCOCCOCCOCCOC(=O)c1ccc(-c2c3nc(c(-c4c(F)cc(S(=O)(=O)[O-])cc4F)c4ccc([nH]4)c(-c4c(F)cc(S(=O)(=O)[O-])cc4F)c4nc(c(-c5c(F)cc(S(=O)(=O)[O-])cc5F)c5ccc2[nH]5)C=C4)C=C3)cc1)N1C(=O)/C(=C/c2nc3ccccc3[nH]2)SC1=S
REMARK SMILES IDX 12 1 11 2 10 3 9 4 8 5 7 6 6 7 5 8 3 9 4 10 2 11 1 12 86 13
REMARK SMILES IDX 87 14 101 15 88 16 89 17 100 18 102 19 90 20 91 21 92 22
REMARK SMILES IDX 99 23 93 24 98 25 94 27 97 28 95 29 96 30 13 31 14 32 15 33
REMARK SMILES IDX 16 34 17 35 18 36 19 37 20 38 21 39 85 40 22 41 84 42 23 43
REMARK SMILES IDX 24 44 25 45 78 46 26 47 83 48 77 49 79 50 27 51 82 52 76 53
REMARK SMILES IDX 75 54 28 56 62 57 41 58 61 59 42 60 45 61 60 62 80 63 43 64
REMARK SMILES IDX 44 65 59 67 81 68 46 69 29 70 30 71 39 72 31 73 32 74 38 75
REMARK SMILES IDX 40 76 33 77 34 78 35 79 36 80 37 81 63 82 64 83 73 84 65 85
REMARK SMILES IDX 66 86 72 87 74 88 67 89 68 90 69 91 70 92 71 93 47 94 48 95
REMARK SMILES IDX 57 96 49 97 50 98 56 99 58 100 51 101 52 102 53 103 54 104
REMARK SMILES IDX 55 105
REMARK H PARENT 99 26 79 55 45 66
REMARK Flexibility Score: inf
ROOT
ATOM      1  C   UNL A   1      35.244  32.053  31.137  1.00  0.00     0.188 C 
ENDROOT
BRANCH   1   2
ATOM      2  O   UNL A   1      34.577  32.662  30.029  1.00  0.00    -0.377 OA
BRANCH   2   3
ATOM      3  C   UNL A   1      34.867  32.195  28.722  1.00  0.00     0.188 C 
BRANCH   3   4
ATOM      4  C   UNL A   1      36.059  31.228  28.625  1.00  0.00     0.188 C 
BRANCH   4   5
ATOM      5  O   UNL A   1      35.901  30.212  27.652  1.00  0.00    -0.376 OA
BRANCH   5   6
ATOM      6  C   UNL A   1      34.734  29.398  27.641  1.00  0.00     0.202 C 
BRANCH   6   7
ATOM      7  C   UNL A   1      34.138  28.789  26.356  1.00  0.00     0.261 C 
BRANCH   7   8
ATOM      8  O   UNL A   1      33.617  27.468  26.541  1.00  0.00    -0.462 OA
BRANCH   8   9
ATOM      9  C   UNL A   1      32.280  27.271  26.533  1.00  0.00     0.329 C 
ATOM     10  O   UNL A   1      31.527  27.505  27.469  1.00  0.00    -0.250 OA
BRANCH   9  11
ATOM     11  C   UNL A   1      31.805  26.726  25.169  1.00  0.00     0.199 C 
ATOM     12  C   UNL A   1      30.255  26.752  25.195  1.00  0.00     0.044 C 
BRANCH  11  13
ATOM     13  N   UNL A   1      32.363  25.411  24.723  1.00  0.00    -0.279 N 
ATOM     14  C   UNL A   1      32.211  24.304  25.563  1.00  0.00     0.267 C 
ATOM     15  C   UNL A   1      32.667  25.064  23.418  1.00  0.00     0.149 C 
ATOM     16  O   UNL A   1      31.638  24.282  26.645  1.00  0.00    -0.268 OA
ATOM     17  C   UNL A   1      32.718  23.057  24.921  1.00  0.00     0.084 C 
ATOM     18  S   UNL A   1      33.357  23.454  23.379  1.00  0.00    -0.054 SA
ATOM     19  S   UNL A   1      32.469  25.891  21.984  1.00  0.00    -0.052 S 
ATOM     20  C   UNL A   1      32.560  21.828  25.449  1.00  0.00     0.068 C 
BRANCH  20  21
ATOM     21  C   UNL A   1      33.021  20.675  24.763  1.00  0.00     0.132 A 
ATOM     22  N   UNL A   1      32.423  19.967  23.826  1.00  0.00    -0.229 NA
ATOM     23  N   UNL A   1      34.203  20.070  25.132  1.00  0.00    -0.338 N 
ATOM     24  C   UNL A   1      33.109  18.790  23.746  1.00  0.00     0.089 A 
ATOM     25  C   UNL A   1      34.241  18.821  24.549  1.00  0.00     0.066 A 
ATOM     26  H   UNL A   1      34.897  20.460  25.711  1.00  0.00     0.168 HD
ATOM     27  C   UNL A   1      32.787  17.628  23.034  1.00  0.00     0.030 A 
ATOM     28  C   UNL A   1      35.112  17.734  24.669  1.00  0.00     0.028 A 
ATOM     29  C   UNL A   1      33.621  16.514  23.163  1.00  0.00     0.002 A 
ATOM     30  C   UNL A   1      34.768  16.572  23.961  1.00  0.00     0.002 A 
ENDBRANCH  20  21
ENDBRANCH  11  13
ENDBRANCH   9  11
ENDBRANCH   8   9
ENDBRANCH   7   8
ENDBRANCH   6   7
ENDBRANCH   5   6
ENDBRANCH   4   5
ENDBRANCH   3   4
ENDBRANCH   2   3
ENDBRANCH   1   2
BRANCH   1  31
ATOM     31  C   UNL A   1      36.206  32.842  32.059  1.00  0.00     0.188 C 
BRANCH  31  32
ATOM     32  O   UNL A   1      36.358  32.316  33.370  1.00  0.00    -0.376 OA
BRANCH  32  33
ATOM     33  C   UNL A   1      37.645  31.865  33.762  1.00  0.00     0.202 C 
BRANCH  33  34
ATOM     34  C   UNL A   1      37.922  30.363  33.595  1.00  0.00     0.261 C 
BRANCH  34  35
ATOM     35  O   UNL A   1      39.149  29.886  34.171  1.00  0.00    -0.460 OA
BRANCH  35  36
ATOM     36  C   UNL A   1      39.992  29.206  33.366  1.00  0.00     0.338 C 
ATOM     37  O   UNL A   1      39.934  28.024  33.071  1.00  0.00    -0.246 OA
BRANCH  36  38
ATOM     38  C   UNL A   1      40.897  30.184  32.732  1.00  0.00     0.060 A 
ATOM     39  C   UNL A   1      40.762  30.446  31.362  1.00  0.00     0.016 A 
ATOM     40  C   UNL A   1      41.869  30.843  33.488  1.00  0.00     0.016 A 
ATOM     41  C   UNL A   1      41.631  31.338  30.735  1.00  0.00     0.010 A 
ATOM     42  C   UNL A   1      42.752  31.719  32.854  1.00  0.00     0.010 A 
ATOM     43  C   UNL A   1      42.660  31.942  31.468  1.00  0.00    -0.014 A 
BRANCH  43  44
ATOM     44  C   UNL A   1      43.766  32.627  30.755  1.00  0.00     0.031 A 
ATOM     45  C   UNL A   1      44.829  31.776  30.114  1.00  0.00     0.074 A 
ATOM     46  C   UNL A   1      43.818  33.968  30.659  1.00  0.00     0.049 A 
ATOM     47  N   UNL A   1      45.921  32.136  29.493  1.00  0.00    -0.248 NA
ATOM     48  C   UNL A   1      44.633  30.318  30.189  1.00  0.00     0.031 C 
ATOM     49  C   UNL A   1      42.827  34.895  31.199  1.00  0.00     0.029 A 
ATOM     50  N   UNL A   1      44.760  34.781  30.078  1.00  0.00    -0.354 N 
ATOM     51  C   UNL A   1      46.544  30.955  29.108  1.00  0.00     0.074 A 
ATOM     52  C   UNL A   1      45.728  29.865  29.595  1.00  0.00     0.031 C 
ATOM     53  C   UNL A   1      43.221  36.154  30.939  1.00  0.00     0.029 A 
ATOM     54  C   UNL A   1      44.509  36.122  30.245  1.00  0.00     0.049 A 
ATOM     55  H   UNL A   1      45.540  34.437  29.587  1.00  0.00     0.167 HD
ATOM     56  C   UNL A   1      47.690  30.792  28.405  1.00  0.00     0.037 A 
ATOM     57  C   UNL A   1      45.249  37.197  29.903  1.00  0.00     0.037 A 
ATOM     58  C   UNL A   1      48.499  31.882  27.927  1.00  0.00     0.049 A 
ATOM     59  C   UNL A   1      46.560  36.991  29.186  1.00  0.00     0.074 A 
ATOM     60  C   UNL A   1      49.674  31.823  27.197  1.00  0.00     0.029 A 
ATOM     61  N   UNL A   1      48.224  33.225  28.138  1.00  0.00    -0.354 N 
ATOM     62  N   UNL A   1      47.131  35.869  28.812  1.00  0.00    -0.248 NA
ATOM     63  C   UNL A   1      47.328  38.196  28.840  1.00  0.00     0.031 C 
ATOM     64  C   UNL A   1      50.138  33.130  27.016  1.00  0.00     0.029 A 
ATOM     65  C   UNL A   1      49.221  34.005  27.575  1.00  0.00     0.049 A 
ATOM     66  H   UNL A   1      47.438  33.573  28.617  1.00  0.00     0.167 HD
ATOM     67  C   UNL A   1      48.307  36.235  28.161  1.00  0.00     0.074 A 
ATOM     68  C   UNL A   1      48.359  37.683  28.181  1.00  0.00     0.031 C 
ATOM     69  C   UNL A   1      49.254  35.448  27.594  1.00  0.00     0.037 A 
BRANCH  56  70
ATOM     70  C   UNL A   1      48.148  29.386  28.134  1.00  0.00     0.058 A 
ATOM     71  C   UNL A   1      49.020  28.709  29.002  1.00  0.00     0.135 A 
ATOM     72  C   UNL A   1      47.681  28.693  27.006  1.00  0.00     0.135 A 
ATOM     73  F   UNL A   1      49.514  29.332  30.084  1.00  0.00    -0.206 F 
ATOM     74  C   UNL A   1      49.430  27.404  28.750  1.00  0.00     0.059 A 
ATOM     75  C   UNL A   1      48.054  27.376  26.750  1.00  0.00     0.059 A 
ATOM     76  F   UNL A   1      46.851  29.292  26.139  1.00  0.00    -0.206 F 
ATOM     77  C   UNL A   1      48.940  26.745  27.622  1.00  0.00     0.060 A 
BRANCH  77  78
ATOM     78  S   UNL A   1      49.472  25.047  27.317  1.00  0.00     0.124 S 
ATOM     79  O   UNL A   1      50.324  25.215  26.144  1.00  0.00    -0.237 OA
ATOM     80  O   UNL A   1      50.160  24.711  28.559  1.00  0.00    -0.237 OA
ATOM     81  O   UNL A   1      48.219  24.334  27.085  1.00  0.00    -0.744 OA
ENDBRANCH  77  78
ENDBRANCH  56  70
BRANCH  57  82
ATOM     82  C   UNL A   1      44.781  38.567  30.251  1.00  0.00     0.058 A 
ATOM     83  C   UNL A   1      44.053  39.344  29.336  1.00  0.00     0.135 A 
ATOM     84  C   UNL A   1      45.067  39.134  31.503  1.00  0.00     0.135 A 
ATOM     85  F   UNL A   1      43.766  38.855  28.120  1.00  0.00    -0.206 F 
ATOM     86  C   UNL A   1      43.640  40.637  29.642  1.00  0.00     0.059 A 
ATOM     87  C   UNL A   1      44.639  40.413  31.844  1.00  0.00     0.059 A 
ATOM     88  F   UNL A   1      45.754  38.433  32.418  1.00  0.00    -0.206 F 
ATOM     89  C   UNL A   1      43.935  41.162  30.902  1.00  0.00     0.060 A 
BRANCH  89  90
ATOM     90  S   UNL A   1      43.355  42.824  31.306  1.00  0.00     0.124 S 
ATOM     91  O   UNL A   1      43.951  43.032  32.620  1.00  0.00    -0.237 OA
ATOM     92  O   UNL A   1      43.917  43.616  30.216  1.00  0.00    -0.237 OA
ATOM     93  O   UNL A   1      41.901  42.686  31.287  1.00  0.00    -0.744 OA
ENDBRANCH  89  90
ENDBRANCH  57  82
BRANCH  69  94
ATOM     94  C   UNL A   1      50.410  36.125  26.907  1.00  0.00     0.058 A 
ATOM     95  C   UNL A   1      51.570  36.503  27.601  1.00  0.00     0.135 A 
ATOM     96  C   UNL A   1      50.379  36.344  25.519  1.00  0.00     0.135 A 
ATOM     97  F   UNL A   1      51.653  36.322  28.929  1.00  0.00    -0.206 F 
ATOM     98  C   UNL A   1      52.647  37.096  26.949  1.00  0.00     0.059 A 
ATOM     99  C   UNL A   1      51.457  36.904  24.842  1.00  0.00     0.059 A 
ATOM    100  F   UNL A   1      49.301  35.990  24.802  1.00  0.00    -0.206 F 
ATOM    101  C   UNL A   1      52.583  37.289  25.568  1.00  0.00     0.060 A 
BRANCH 101 102
ATOM    102  S   UNL A   1      54.002  38.027  24.730  1.00  0.00     0.124 S 
ATOM    103  O   UNL A   1      53.807  39.445  25.014  1.00  0.00    -0.237 OA
ATOM    104  O   UNL A   1      55.128  37.393  25.407  1.00  0.00    -0.237 OA
ATOM    105  O   UNL A   1      53.816  37.635  23.336  1.00  0.00    -0.744 OA
ENDBRANCH 101 102
ENDBRANCH  69  94
ENDBRANCH  43  44
ENDBRANCH  36  38
ENDBRANCH  35  36
ENDBRANCH  34  35
ENDBRANCH  33  34
ENDBRANCH  32  33
ENDBRANCH  31  32
ENDBRANCH   1  31
TORSDOF 25
ENDMDL
MODEL 2
REMARK VINA RESULT:      -8.4      8.722     15.260
REMARK SMILES C[C@@H](C(=O)OCCOCCOCCOCCOC(=O)c1ccc(-c2c3nc(c(-c4c(F)cc(S(=O)(=O)[O-])cc4F)c4ccc([nH]4)c(-c4c(F)cc(S(=O)(=O)[O-])cc4F)c4nc(c(-c5c(F)cc(S(=O)(=O)[O-])cc5F)c5ccc2[nH]5)C=C4)C=C3)cc1)N1C(=O)/C(=C/c2nc3ccccc3[nH]2)SC1=S
REMARK SMILES IDX 12 1 11 2 10 3 9 4 8 5 7 6 6 7 5 8 3 9 4 10 2 11 1 12 86 13
REMARK SMILES IDX 87 14 101 15 88 16 89 17 100 18 102 19 90 20 91 21 92 22
REMARK SMILES IDX 99 23 93 24 98 25 94 27 97 28 95 29 96 30 13 31 14 32 15 33
REMARK SMILES IDX 16 34 17 35 18 36 19 37 20 38 21 39 85 40 22 41 84 42 23 43
REMARK SMILES IDX 24 44 25 45 78 46 26 47 83 48 77 49 79 50 27 51 82 52 76 53
REMARK SMILES IDX 75 54 28 56 62 57 41 58 61 59 42 60 45 61 60 62 80 63 43 64
REMARK SMILES IDX 44 65 59 67 81 68 46 69 29 70 30 71 39 72 31 73 32 74 38 75
REMARK SMILES IDX 40 76 33 77 34 78 35 79 36 80 37 81 63 82 64 83 73 84 65 85
REMARK SMILES IDX 66 86 72 87 74 88 67 89 68 90 69 91 70 92 71 93 47 94 48 95
REMARK SMILES IDX 57 96 49 97 50 98 56 99 58 100 51 101 52 102 53 103 54 104
REMARK SMILES IDX 55 105
REMARK H PARENT 99 26 79 55 45 66
REMARK Flexibility Score: inf
ROOT
ATOM      1  C   UNL A   1      45.178  25.417  30.349  1.00  0.00     0.188 C 
ENDROOT
BRANCH   1   2
ATOM      2  O   UNL A   1      46.461  25.329  29.724  1.00  0.00    -0.377 OA
BRANCH   2   3
ATOM      3  C   UNL A   1      47.505  26.160  30.201  1.00  0.00     0.188 C 
BRANCH   3   4
ATOM      4  C   UNL A   1      48.915  25.553  30.110  1.00  0.00     0.188 C 
BRANCH   4   5
ATOM      5  O   UNL A   1      49.473  25.198  31.362  1.00  0.00    -0.376 OA
BRANCH   5   6
ATOM      6  C   UNL A   1      50.703  24.485  31.428  1.00  0.00     0.202 C 
BRANCH   6   7
ATOM      7  C   UNL A   1      51.138  23.660  32.656  1.00  0.00     0.261 C 
BRANCH   7   8
ATOM      8  O   UNL A   1      50.038  23.158  33.423  1.00  0.00    -0.462 OA
BRANCH   8   9
ATOM      9  C   UNL A   1      49.528  23.905  34.426  1.00  0.00     0.329 C 
ATOM     10  O   UNL A   1      50.168  24.684  35.121  1.00  0.00    -0.250 OA
BRANCH   9  11
ATOM     11  C   UNL A   1      48.010  23.672  34.581  1.00  0.00     0.199 C 
ATOM     12  C   UNL A   1      47.402  25.010  35.073  1.00  0.00     0.044 C 
BRANCH  11  13
ATOM     13  N   UNL A   1      47.577  22.494  35.396  1.00  0.00    -0.279 N 
ATOM     14  C   UNL A   1      48.201  22.270  36.627  1.00  0.00     0.267 C 
ATOM     15  C   UNL A   1      46.372  21.824  35.269  1.00  0.00     0.149 C 
ATOM     16  O   UNL A   1      49.074  22.960  37.139  1.00  0.00    -0.268 OA
ATOM     17  C   UNL A   1      47.574  21.132  37.359  1.00  0.00     0.084 C 
ATOM     18  S   UNL A   1      46.327  20.472  36.382  1.00  0.00    -0.054 SA
ATOM     19  S   UNL A   1      45.051  22.109  34.292  1.00  0.00    -0.052 S 
ATOM     20  C   UNL A   1      47.885  20.797  38.625  1.00  0.00     0.068 C 
BRANCH  20  21
ATOM     21  C   UNL A   1      47.215  19.733  39.284  1.00  0.00     0.132 A 
ATOM     22  N   UNL A   1      46.019  19.716  39.835  1.00  0.00    -0.229 NA
ATOM     23  N   UNL A   1      47.867  18.543  39.526  1.00  0.00    -0.338 N 
ATOM     24  C   UNL A   1      45.981  18.600  40.621  1.00  0.00     0.089 A 
ATOM     25  C   UNL A   1      47.125  17.833  40.446  1.00  0.00     0.066 A 
ATOM     26  H   UNL A   1      48.713  18.252  39.115  1.00  0.00     0.168 HD
ATOM     27  C   UNL A   1      45.009  18.207  41.548  1.00  0.00     0.030 A 
ATOM     28  C   UNL A   1      47.353  16.645  41.148  1.00  0.00     0.028 A 
ATOM     29  C   UNL A   1      45.227  17.042  42.290  1.00  0.00     0.002 A 
ATOM     30  C   UNL A   1      46.376  16.273  42.085  1.00  0.00     0.002 A 
ENDBRANCH  20  21
ENDBRANCH  11  13
ENDBRANCH   9  11
ENDBRANCH   8   9
ENDBRANCH   7   8
ENDBRANCH   6   7
ENDBRANCH   5   6
ENDBRANCH   4   5
ENDBRANCH   3   4
ENDBRANCH   2   3
ENDBRANCH   1   2
BRANCH   1  31
ATOM     31  C   UNL A   1      44.401  24.165  30.824  1.00  0.00     0.188 C 
BRANCH  31  32
ATOM     32  O   UNL A   1      44.420  23.062  29.928  1.00  0.00    -0.376 OA
BRANCH  32  33
ATOM     33  C   UNL A   1      43.199  22.685  29.310  1.00  0.00     0.202 C 
BRANCH  33  34
ATOM     34  C   UNL A   1      43.159  22.761  27.776  1.00  0.00     0.261 C 
BRANCH  34  35
ATOM     35  O   UNL A   1      42.212  23.687  27.221  1.00  0.00    -0.460 OA
BRANCH  35  36
ATOM     36  C   UNL A   1      42.680  24.880  26.797  1.00  0.00     0.338 C 
ATOM     37  O   UNL A   1      43.225  25.119  25.732  1.00  0.00    -0.246 OA
BRANCH  36  38
ATOM     38  C   UNL A   1      42.241  25.905  27.763  1.00  0.00     0.060 A 
ATOM     39  C   UNL A   1      43.037  27.042  27.956  1.00  0.00     0.016 A 
ATOM     40  C   UNL A   1      41.047  25.746  28.470  1.00  0.00     0.016 A 
ATOM     41  C   UNL A   1      42.661  28.005  28.892  1.00  0.00     0.010 A 
ATOM     42  C   UNL A   1      40.684  26.700  29.423  1.00  0.00     0.010 A 
ATOM     43  C   UNL A   1      41.508  27.814  29.664  1.00  0.00    -0.014 A 
BRANCH  43  44
ATOM     44  C   UNL A   1      41.279  28.656  30.864  1.00  0.00     0.031 A 
ATOM     45  C   UNL A   1      40.183  29.686  30.807  1.00  0.00     0.074 A 
ATOM     46  C   UNL A   1      42.008  28.499  31.984  1.00  0.00     0.049 A 
ATOM     47  N   UNL A   1      39.832  30.577  31.696  1.00  0.00    -0.248 NA
ATOM     48  C   UNL A   1      39.376  29.715  29.575  1.00  0.00     0.031 C 
ATOM     49  C   UNL A   1      43.065  27.509  32.174  1.00  0.00     0.029 A 
ATOM     50  N   UNL A   1      41.972  29.189  33.171  1.00  0.00    -0.354 N 
ATOM     51  C   UNL A   1      38.771  31.276  31.132  1.00  0.00     0.074 A 
ATOM     52  C   UNL A   1      38.556  30.729  29.811  1.00  0.00     0.031 C 
ATOM     53  C   UNL A   1      43.590  27.665  33.402  1.00  0.00     0.029 A 
ATOM     54  C   UNL A   1      42.932  28.787  34.070  1.00  0.00     0.049 A 
ATOM     55  H   UNL A   1      41.321  29.901  33.361  1.00  0.00     0.167 HD
ATOM     56  C   UNL A   1      38.036  32.277  31.670  1.00  0.00     0.037 A 
ATOM     57  C   UNL A   1      43.258  29.290  35.279  1.00  0.00     0.037 A 
ATOM     58  C   UNL A   1      38.258  32.818  32.985  1.00  0.00     0.049 A 
ATOM     59  C   UNL A   1      42.474  30.456  35.828  1.00  0.00     0.074 A 
ATOM     60  C   UNL A   1      37.562  33.829  33.626  1.00  0.00     0.029 A 
ATOM     61  N   UNL A   1      39.255  32.403  33.855  1.00  0.00    -0.354 N 
ATOM     62  N   UNL A   1      41.461  31.097  35.293  1.00  0.00    -0.248 NA
ATOM     63  C   UNL A   1      42.873  30.966  37.148  1.00  0.00     0.031 C 
ATOM     64  C   UNL A   1      38.174  34.062  34.862  1.00  0.00     0.029 A 
ATOM     65  C   UNL A   1      39.210  33.154  35.018  1.00  0.00     0.049 A 
ATOM     66  H   UNL A   1      39.899  31.682  33.674  1.00  0.00     0.167 HD
ATOM     67  C   UNL A   1      41.084  32.063  36.223  1.00  0.00     0.074 A 
ATOM     68  C   UNL A   1      41.970  31.914  37.359  1.00  0.00     0.031 C 
ATOM     69  C   UNL A   1      40.093  32.986  36.147  1.00  0.00     0.037 A 
BRANCH  56  70
ATOM     70  C   UNL A   1      36.941  32.869  30.826  1.00  0.00     0.058 A 
ATOM     71  C   UNL A   1      35.602  32.463  30.955  1.00  0.00     0.135 A 
ATOM     72  C   UNL A   1      37.230  33.880  29.896  1.00  0.00     0.135 A 
ATOM     73  F   UNL A   1      35.272  31.485  31.813  1.00  0.00    -0.206 F 
ATOM     74  C   UNL A   1      34.594  33.024  30.178  1.00  0.00     0.059 A 
ATOM     75  C   UNL A   1      36.232  34.477  29.130  1.00  0.00     0.059 A 
ATOM     76  F   UNL A   1      38.492  34.302  29.726  1.00  0.00    -0.206 F 
ATOM     77  C   UNL A   1      34.919  34.032  29.270  1.00  0.00     0.060 A 
BRANCH  77  78
ATOM     78  S   UNL A   1      33.596  34.758  28.279  1.00  0.00     0.124 S 
ATOM     79  O   UNL A   1      34.322  35.173  27.082  1.00  0.00    -0.237 OA
ATOM     80  O   UNL A   1      32.684  33.631  28.107  1.00  0.00    -0.237 OA
ATOM     81  O   UNL A   1      33.097  35.843  29.118  1.00  0.00    -0.744 OA
ENDBRANCH  77  78
ENDBRANCH  56  70
BRANCH  57  82
ATOM     82  C   UNL A   1      44.393  28.709  36.048  1.00  0.00     0.058 A 
ATOM     83  C   UNL A   1      45.713  29.135  35.833  1.00  0.00     0.135 A 
ATOM     84  C   UNL A   1      44.181  27.705  37.005  1.00  0.00     0.135 A 
ATOM     85  F   UNL A   1      45.972  30.082  34.918  1.00  0.00    -0.206 F 
ATOM     86  C   UNL A   1      46.783  28.575  36.525  1.00  0.00     0.059 A 
ATOM     87  C   UNL A   1      45.230  27.151  37.732  1.00  0.00     0.059 A 
ATOM     88  F   UNL A   1      42.938  27.265  37.255  1.00  0.00    -0.206 F 
ATOM     89  C   UNL A   1      46.531  27.585  37.476  1.00  0.00     0.060 A 
BRANCH  89  90
ATOM     90  S   UNL A   1      47.921  26.898  38.401  1.00  0.00     0.124 S 
ATOM     91  O   UNL A   1      49.030  27.137  37.486  1.00  0.00    -0.237 OA
ATOM     92  O   UNL A   1      47.908  27.707  39.616  1.00  0.00    -0.237 OA
ATOM     93  O   UNL A   1      47.544  25.499  38.584  1.00  0.00    -0.744 OA
ENDBRANCH  89  90
ENDBRANCH  57  82
BRANCH  69  94
ATOM     94  C   UNL A   1      39.877  33.883  37.337  1.00  0.00     0.058 A 
ATOM     95  C   UNL A   1      40.552  35.104  37.480  1.00  0.00     0.135 A 
ATOM     96  C   UNL A   1      38.932  33.540  38.319  1.00  0.00     0.135 A 
ATOM     97  F   UNL A   1      41.469  35.481  36.575  1.00  0.00    -0.206 F 
ATOM     98  C   UNL A   1      40.318  35.942  38.567  1.00  0.00     0.059 A 
ATOM     99  C   UNL A   1      38.658  34.377  39.396  1.00  0.00     0.059 A 
ATOM    100  F   UNL A   1      38.247  32.389  38.226  1.00  0.00    -0.206 F 
ATOM    101  C   UNL A   1      39.365  35.571  39.518  1.00  0.00     0.060 A 
BRANCH 101 102
ATOM    102  S   UNL A   1      39.045  36.684  40.903  1.00  0.00     0.124 S 
ATOM    103  O   UNL A   1      38.289  37.751  40.255  1.00  0.00    -0.237 OA
ATOM    104  O   UNL A   1      38.288  35.836  41.817  1.00  0.00    -0.237 OA
ATOM    105  O   UNL A   1      40.382  37.052  41.361  1.00  0.00    -0.744 OA
ENDBRANCH 101 102
ENDBRANCH  69  94
ENDBRANCH  43  44
ENDBRANCH  36  38
ENDBRANCH  35  36
ENDBRANCH  34  35
ENDBRANCH  33  34
ENDBRANCH  32  33
ENDBRANCH  31  32
ENDBRANCH   1  31
TORSDOF 25
ENDMDL
MODEL 3
REMARK VINA RESULT:      -8.3      6.667     12.499
REMARK SMILES C[C@@H](C(=O)OCCOCCOCCOCCOC(=O)c1ccc(-c2c3nc(c(-c4c(F)cc(S(=O)(=O)[O-])cc4F)c4ccc([nH]4)c(-c4c(F)cc(S(=O)(=O)[O-])cc4F)c4nc(c(-c5c(F)cc(S(=O)(=O)[O-])cc5F)c5ccc2[nH]5)C=C4)C=C3)cc1)N1C(=O)/C(=C/c2nc3ccccc3[nH]2)SC1=S
REMARK SMILES IDX 12 1 11 2 10 3 9 4 8 5 7 6 6 7 5 8 3 9 4 10 2 11 1 12 86 13
REMARK SMILES IDX 87 14 101 15 88 16 89 17 100 18 102 19 90 20 91 21 92 22
REMARK SMILES IDX 99 23 93 24 98 25 94 27 97 28 95 29 96 30 13 31 14 32 15 33
REMARK SMILES IDX 16 34 17 35 18 36 19 37 20 38 21 39 85 40 22 41 84 42 23 43
REMARK SMILES IDX 24 44 25 45 78 46 26 47 83 48 77 49 79 50 27 51 82 52 76 53
REMARK SMILES IDX 75 54 28 56 62 57 41 58 61 59 42 60 45 61 60 62 80 63 43 64
REMARK SMILES IDX 44 65 59 67 81 68 46 69 29 70 30 71 39 72 31 73 32 74 38 75
REMARK SMILES IDX 40 76 33 77 34 78 35 79 36 80 37 81 63 82 64 83 73 84 65 85
REMARK SMILES IDX 66 86 72 87 74 88 67 89 68 90 69 91 70 92 71 93 47 94 48 95
REMARK SMILES IDX 57 96 49 97 50 98 56 99 58 100 51 101 52 102 53 103 54 104
REMARK SMILES IDX 55 105
REMARK H PARENT 99 26 79 55 45 66
REMARK Flexibility Score: inf
ROOT
ATOM      1  C   UNL A   1      43.872  23.619  30.258  1.00  0.00     0.188 C 
ENDROOT
BRANCH   1   2
ATOM      2  O   UNL A   1      43.568  22.957  31.488  1.00  0.00    -0.377 OA
BRANCH   2   3
ATOM      3  C   UNL A   1      44.158  23.440  32.682  1.00  0.00     0.188 C 
BRANCH   3   4
ATOM      4  C   UNL A   1      43.563  22.869  33.980  1.00  0.00     0.188 C 
BRANCH   4   5
ATOM      5  O   UNL A   1      43.892  23.610  35.142  1.00  0.00    -0.376 OA
BRANCH   5   6
ATOM      6  C   UNL A   1      43.362  24.915  35.339  1.00  0.00     0.202 C 
BRANCH   6   7
ATOM      7  C   UNL A   1      42.582  25.331  36.602  1.00  0.00     0.261 C 
BRANCH   7   8
ATOM      8  O   UNL A   1      43.334  25.177  37.812  1.00  0.00    -0.462 OA
BRANCH   8   9
ATOM      9  C   UNL A   1      44.157  26.169  38.216  1.00  0.00     0.329 C 
ATOM     10  O   UNL A   1      44.048  27.347  37.904  1.00  0.00    -0.250 OA
BRANCH   9  11
ATOM     11  C   UNL A   1      45.260  25.632  39.153  1.00  0.00     0.199 C 
ATOM     12  C   UNL A   1      45.541  26.745  40.195  1.00  0.00     0.044 C 
BRANCH  11  13
ATOM     13  N   UNL A   1      46.504  25.098  38.513  1.00  0.00    -0.279 N 
ATOM     14  C   UNL A   1      46.550  23.743  38.175  1.00  0.00     0.267 C 
ATOM     15  C   UNL A   1      47.462  25.853  37.859  1.00  0.00     0.149 C 
ATOM     16  O   UNL A   1      45.654  22.922  38.329  1.00  0.00    -0.268 OA
ATOM     17  C   UNL A   1      47.805  23.403  37.445  1.00  0.00     0.084 C 
ATOM     18  S   UNL A   1      48.771  24.816  37.330  1.00  0.00    -0.054 SA
ATOM     19  S   UNL A   1      47.536  27.483  37.516  1.00  0.00    -0.052 S 
ATOM     20  C   UNL A   1      48.038  22.204  36.879  1.00  0.00     0.068 C 
BRANCH  20  21
ATOM     21  C   UNL A   1      49.234  21.960  36.154  1.00  0.00     0.132 A 
ATOM     22  N   UNL A   1      49.611  22.434  34.985  1.00  0.00    -0.229 NA
ATOM     23  N   UNL A   1      50.143  21.027  36.603  1.00  0.00    -0.338 N 
ATOM     24  C   UNL A   1      50.648  21.648  34.574  1.00  0.00     0.089 A 
ATOM     25  C   UNL A   1      51.016  20.755  35.572  1.00  0.00     0.066 A 
ATOM     26  H   UNL A   1      50.164  20.625  37.502  1.00  0.00     0.168 HD
ATOM     27  C   UNL A   1      51.295  21.617  33.333  1.00  0.00     0.030 A 
ATOM     28  C   UNL A   1      52.040  19.817  35.406  1.00  0.00     0.028 A 
ATOM     29  C   UNL A   1      52.298  20.666  33.127  1.00  0.00     0.002 A 
ATOM     30  C   UNL A   1      52.668  19.788  34.151  1.00  0.00     0.002 A 
ENDBRANCH  20  21
ENDBRANCH  11  13
ENDBRANCH   9  11
ENDBRANCH   8   9
ENDBRANCH   7   8
ENDBRANCH   6   7
ENDBRANCH   5   6
ENDBRANCH   4   5
ENDBRANCH   3   4
ENDBRANCH   2   3
ENDBRANCH   1   2
BRANCH   1  31
ATOM     31  C   UNL A   1      44.680  22.935  29.127  1.00  0.00     0.188 C 
BRANCH  31  32
ATOM     32  O   UNL A   1      43.926  22.561  27.983  1.00  0.00    -0.376 OA
BRANCH  32  33
ATOM     33  C   UNL A   1      42.633  23.124  27.823  1.00  0.00     0.202 C 
BRANCH  33  34
ATOM     34  C   UNL A   1      41.524  22.167  27.361  1.00  0.00     0.261 C 
BRANCH  34  35
ATOM     35  O   UNL A   1      40.796  22.571  26.191  1.00  0.00    -0.460 OA
BRANCH  35  36
ATOM     36  C   UNL A   1      39.547  23.052  26.367  1.00  0.00     0.338 C 
ATOM     37  O   UNL A   1      38.498  22.452  26.202  1.00  0.00    -0.246 OA
BRANCH  36  38
ATOM     38  C   UNL A   1      39.662  24.383  26.995  1.00  0.00     0.060 A 
ATOM     39  C   UNL A   1      40.287  25.417  26.287  1.00  0.00     0.016 A 
ATOM     40  C   UNL A   1      39.150  24.607  28.275  1.00  0.00     0.016 A 
ATOM     41  C   UNL A   1      40.440  26.672  26.876  1.00  0.00     0.010 A 
ATOM     42  C   UNL A   1      39.325  25.858  28.872  1.00  0.00     0.010 A 
ATOM     43  C   UNL A   1      40.003  26.884  28.189  1.00  0.00    -0.014 A 
BRANCH  43  44
ATOM     44  C   UNL A   1      40.444  28.095  28.924  1.00  0.00     0.031 A 
ATOM     45  C   UNL A   1      41.835  28.104  29.500  1.00  0.00     0.074 A 
ATOM     46  C   UNL A   1      39.643  29.167  29.061  1.00  0.00     0.049 A 
ATOM     47  N   UNL A   1      42.425  29.012  30.231  1.00  0.00    -0.248 NA
ATOM     48  C   UNL A   1      42.670  26.925  29.214  1.00  0.00     0.031 C 
ATOM     49  C   UNL A   1      38.296  29.293  28.511  1.00  0.00     0.029 A 
ATOM     50  N   UNL A   1      39.851  30.353  29.721  1.00  0.00    -0.354 N 
ATOM     51  C   UNL A   1      43.696  28.515  30.497  1.00  0.00     0.074 A 
ATOM     52  C   UNL A   1      43.779  27.210  29.879  1.00  0.00     0.031 C 
ATOM     53  C   UNL A   1      37.789  30.485  28.871  1.00  0.00     0.029 A 
ATOM     54  C   UNL A   1      38.761  31.191  29.705  1.00  0.00     0.049 A 
ATOM     55  H   UNL A   1      40.700  30.582  30.163  1.00  0.00     0.167 HD
ATOM     56  C   UNL A   1      44.705  29.096  31.188  1.00  0.00     0.037 A 
ATOM     57  C   UNL A   1      38.564  32.376  30.318  1.00  0.00     0.037 A 
ATOM     58  C   UNL A   1      44.612  30.393  31.803  1.00  0.00     0.049 A 
ATOM     59  C   UNL A   1      39.677  32.971  31.146  1.00  0.00     0.074 A 
ATOM     60  C   UNL A   1      45.582  31.075  32.519  1.00  0.00     0.029 A 
ATOM     61  N   UNL A   1      43.484  31.200  31.786  1.00  0.00    -0.354 N 
ATOM     62  N   UNL A   1      40.880  32.500  31.376  1.00  0.00    -0.248 NA
ATOM     63  C   UNL A   1      39.407  34.263  31.796  1.00  0.00     0.031 C 
ATOM     64  C   UNL A   1      45.021  32.270  32.981  1.00  0.00     0.029 A 
ATOM     65  C   UNL A   1      43.725  32.362  32.501  1.00  0.00     0.049 A 
ATOM     66  H   UNL A   1      42.639  30.980  31.335  1.00  0.00     0.167 HD
ATOM     67  C   UNL A   1      41.519  33.449  32.169  1.00  0.00     0.074 A 
ATOM     68  C   UNL A   1      40.574  34.529  32.369  1.00  0.00     0.031 C 
ATOM     69  C   UNL A   1      42.775  33.434  32.682  1.00  0.00     0.037 A 
BRANCH  56  70
ATOM     70  C   UNL A   1      45.985  28.321  31.335  1.00  0.00     0.058 A 
ATOM     71  C   UNL A   1      47.070  28.505  30.462  1.00  0.00     0.135 A 
ATOM     72  C   UNL A   1      46.142  27.403  32.386  1.00  0.00     0.135 A 
ATOM     73  F   UNL A   1      46.967  29.355  29.427  1.00  0.00    -0.206 F 
ATOM     74  C   UNL A   1      48.254  27.792  30.613  1.00  0.00     0.059 A 
ATOM     75  C   UNL A   1      47.329  26.701  32.574  1.00  0.00     0.059 A 
ATOM     76  F   UNL A   1      45.136  27.182  33.247  1.00  0.00    -0.206 F 
ATOM     77  C   UNL A   1      48.375  26.894  31.674  1.00  0.00     0.060 A 
BRANCH  77  78
ATOM     78  S   UNL A   1      49.925  25.987  31.862  1.00  0.00     0.124 S 
ATOM     79  O   UNL A   1      50.905  27.066  31.789  1.00  0.00    -0.237 OA
ATOM     80  O   UNL A   1      49.762  25.366  33.172  1.00  0.00    -0.237 OA
ATOM     81  O   UNL A   1      49.920  25.065  30.729  1.00  0.00    -0.744 OA
ENDBRANCH  77  78
ENDBRANCH  56  70
BRANCH  57  82
ATOM     82  C   UNL A   1      37.255  33.073  30.194  1.00  0.00     0.058 A 
ATOM     83  C   UNL A   1      36.322  33.066  31.242  1.00  0.00     0.135 A 
ATOM     84  C   UNL A   1      36.904  33.750  29.015  1.00  0.00     0.135 A 
ATOM     85  F   UNL A   1      36.602  32.421  32.385  1.00  0.00    -0.206 F 
ATOM     86  C   UNL A   1      35.083  33.689  31.122  1.00  0.00     0.059 A 
ATOM     87  C   UNL A   1      35.685  34.407  28.881  1.00  0.00     0.059 A 
ATOM     88  F   UNL A   1      37.762  33.794  27.984  1.00  0.00    -0.206 F 
ATOM     89  C   UNL A   1      34.775  34.360  29.937  1.00  0.00     0.060 A 
BRANCH  89  90
ATOM     90  S   UNL A   1      33.183  35.204  29.808  1.00  0.00     0.124 S 
ATOM     91  O   UNL A   1      33.597  36.566  29.491  1.00  0.00    -0.237 OA
ATOM     92  O   UNL A   1      32.534  34.466  28.729  1.00  0.00    -0.237 OA
ATOM     93  O   UNL A   1      32.595  35.015  31.131  1.00  0.00    -0.744 OA
ENDBRANCH  89  90
ENDBRANCH  57  82
BRANCH  69  94
ATOM     94  C   UNL A   1      43.224  34.634  33.473  1.00  0.00     0.058 A 
ATOM     95  C   UNL A   1      43.882  35.717  32.872  1.00  0.00     0.135 A 
ATOM     96  C   UNL A   1      42.934  34.726  34.845  1.00  0.00     0.135 A 
ATOM     97  F   UNL A   1      44.189  35.683  31.565  1.00  0.00    -0.206 F 
ATOM     98  C   UNL A   1      44.261  36.838  33.607  1.00  0.00     0.059 A 
ATOM     99  C   UNL A   1      43.273  35.849  35.592  1.00  0.00     0.059 A 
ATOM    100  F   UNL A   1      42.294  33.724  35.470  1.00  0.00    -0.206 F 
ATOM    101  C   UNL A   1      43.948  36.896  34.966  1.00  0.00     0.060 A 
BRANCH 101 102
ATOM    102  S   UNL A   1      44.412  38.370  35.899  1.00  0.00     0.124 S 
ATOM    103  O   UNL A   1      43.760  38.124  37.182  1.00  0.00    -0.237 OA
ATOM    104  O   UNL A   1      45.869  38.291  35.903  1.00  0.00    -0.237 OA
ATOM    105  O   UNL A   1      43.852  39.463  35.110  1.00  0.00    -0.744 OA
ENDBRANCH 101 102
ENDBRANCH  69  94
ENDBRANCH  43  44
ENDBRANCH  36  38
ENDBRANCH  35  36
ENDBRANCH  34  35
ENDBRANCH  33  34
ENDBRANCH  32  33
ENDBRANCH  31  32
ENDBRANCH   1  31
TORSDOF 25
ENDMDL
