MODEL 1
REMARK VINA RESULT:      -8.7      0.000      0.000
REMARK SMILES CC[C@@H](C)[C@@H](NC(=O)C(F)(F)F)C(=O)OCCOCCOCCOCCOC(=O)c1ccc(-c2c3nc(c(-c4c(F)cc(S(=O)(=O)[O-])cc4F)c4ccc([nH]4)c(-c4c(F)cc(S(=O)(=O)[O-])cc4F)c4nc(c(-c5c(F)cc(S(=O)(=O)[O-])cc5F)c5ccc2[nH]5)C=C4)C=C3)cc1
REMARK SMILES IDX 22 1 21 2 20 3 19 4 18 5 17 6 16 7 15 8 13 9 14 10 5 11 3 12
REMARK SMILES IDX 4 13 2 14 1 15 6 16 7 17 8 19 9 20 10 21 11 22 12 23 23 24
REMARK SMILES IDX 24 25 25 26 26 27 27 28 28 29 29 30 30 31 31 32 95 33 32 34
REMARK SMILES IDX 94 35 33 36 34 37 35 38 88 39 36 40 93 41 87 42 89 43 37 44
REMARK SMILES IDX 92 45 86 46 85 47 38 49 72 50 51 51 71 52 52 53 55 54 70 55
REMARK SMILES IDX 90 56 53 57 54 58 69 60 91 61 56 62 39 63 40 64 49 65 41 66
REMARK SMILES IDX 42 67 48 68 50 69 43 70 44 71 45 72 46 73 47 74 73 75 74 76
REMARK SMILES IDX 83 77 75 78 76 79 82 80 84 81 77 82 78 83 79 84 80 85 81 86
REMARK SMILES IDX 57 87 58 88 67 89 59 90 60 91 66 92 68 93 61 94 62 95 63 96
REMARK SMILES IDX 64 97 65 98
REMARK H PARENT 6 18 89 48 55 59
REMARK Flexibility Score: inf
ROOT
ATOM      1  C   UNL A   1      37.809  21.057  25.020  1.00  0.00     0.188 C 
ENDROOT
BRANCH   1   2
ATOM      2  O   UNL A   1      37.014  21.792  25.948  1.00  0.00    -0.377 OA
BRANCH   2   3
ATOM      3  C   UNL A   1      35.603  21.771  25.851  1.00  0.00     0.188 C 
BRANCH   3   4
ATOM      4  C   UNL A   1      35.039  20.784  24.833  1.00  0.00     0.188 C 
BRANCH   4   5
ATOM      5  O   UNL A   1      33.724  20.325  25.084  1.00  0.00    -0.376 OA
BRANCH   5   6
ATOM      6  C   UNL A   1      32.681  20.733  24.195  1.00  0.00     0.202 C 
BRANCH   6   7
ATOM      7  C   UNL A   1      32.770  22.054  23.415  1.00  0.00     0.261 C 
BRANCH   7   8
ATOM      8  O   UNL A   1      32.603  23.268  24.203  1.00  0.00    -0.462 OA
BRANCH   8   9
ATOM      9  C   UNL A   1      33.391  24.319  23.855  1.00  0.00     0.329 C 
ATOM     10  O   UNL A   1      34.619  24.265  23.800  1.00  0.00    -0.250 OA
BRANCH   9  11
ATOM     11  C   UNL A   1      32.677  25.688  23.767  1.00  0.00     0.195 C 
BRANCH  11  12
ATOM     12  C   UNL A   1      32.474  26.510  22.454  1.00  0.00     0.019 C 
ATOM     13  C   UNL A   1      33.464  27.676  22.353  1.00  0.00     0.010 C 
BRANCH  12  14
ATOM     14  C   UNL A   1      31.015  27.075  22.418  1.00  0.00     0.002 C 
ATOM     15  C   UNL A   1      30.854  28.582  22.598  1.00  0.00     0.004 C 
ENDBRANCH  12  14
ENDBRANCH  11  12
BRANCH  11  16
ATOM     16  N   UNL A   1      31.534  25.786  24.705  1.00  0.00    -0.335 N 
ATOM     17  C   UNL A   1      31.320  26.492  25.863  1.00  0.00     0.326 C 
ATOM     18  H   UNL A   1      30.767  25.227  24.444  1.00  0.00     0.164 HD
ATOM     19  O   UNL A   1      30.344  26.120  26.529  1.00  0.00    -0.265 OA
BRANCH  17  20
ATOM     20  C   UNL A   1      32.166  27.720  26.262  1.00  0.00     0.471 C 
ATOM     21  F   UNL A   1      31.632  28.889  25.818  1.00  0.00    -0.162 F 
ATOM     22  F   UNL A   1      32.285  27.831  27.616  1.00  0.00    -0.162 F 
ATOM     23  F   UNL A   1      33.439  27.669  25.787  1.00  0.00    -0.162 F 
ENDBRANCH  17  20
ENDBRANCH  11  16
ENDBRANCH   9  11
ENDBRANCH   8   9
ENDBRANCH   7   8
ENDBRANCH   6   7
ENDBRANCH   5   6
ENDBRANCH   4   5
ENDBRANCH   3   4
ENDBRANCH   2   3
ENDBRANCH   1   2
BRANCH   1  24
ATOM     24  C   UNL A   1      39.050  20.336  25.545  1.00  0.00     0.188 C 
BRANCH  24  25
ATOM     25  O   UNL A   1      39.754  20.950  26.628  1.00  0.00    -0.376 OA
BRANCH  25  26
ATOM     26  C   UNL A   1      41.144  20.678  26.777  1.00  0.00     0.202 C 
BRANCH  26  27
ATOM     27  C   UNL A   1      42.070  21.890  26.657  1.00  0.00     0.261 C 
BRANCH  27  28
ATOM     28  O   UNL A   1      41.413  23.032  26.086  1.00  0.00    -0.460 OA
BRANCH  28  29
ATOM     29  C   UNL A   1      42.204  24.119  25.913  1.00  0.00     0.338 C 
ATOM     30  O   UNL A   1      43.108  24.250  25.109  1.00  0.00    -0.246 OA
BRANCH  29  31
ATOM     31  C   UNL A   1      41.732  25.217  26.776  1.00  0.00     0.060 A 
ATOM     32  C   UNL A   1      42.398  26.447  26.706  1.00  0.00     0.016 A 
ATOM     33  C   UNL A   1      40.721  25.004  27.716  1.00  0.00     0.016 A 
ATOM     34  C   UNL A   1      42.097  27.452  27.622  1.00  0.00     0.010 A 
ATOM     35  C   UNL A   1      40.429  26.008  28.640  1.00  0.00     0.010 A 
ATOM     36  C   UNL A   1      41.147  27.215  28.624  1.00  0.00    -0.014 A 
BRANCH  36  37
ATOM     37  C   UNL A   1      41.044  28.146  29.770  1.00  0.00     0.031 A 
ATOM     38  C   UNL A   1      41.974  27.950  30.937  1.00  0.00     0.074 A 
ATOM     39  C   UNL A   1      40.144  29.145  29.769  1.00  0.00     0.049 A 
ATOM     40  N   UNL A   1      42.019  28.584  32.077  1.00  0.00    -0.248 NA
ATOM     41  C   UNL A   1      42.986  26.889  30.795  1.00  0.00     0.031 C 
ATOM     42  C   UNL A   1      39.222  29.449  28.677  1.00  0.00     0.029 A 
ATOM     43  N   UNL A   1      39.852  30.078  30.729  1.00  0.00    -0.354 N 
ATOM     44  C   UNL A   1      43.058  27.998  32.792  1.00  0.00     0.074 A 
ATOM     45  C   UNL A   1      43.596  26.938  31.969  1.00  0.00     0.031 C 
ATOM     46  C   UNL A   1      38.448  30.487  29.038  1.00  0.00     0.029 A 
ATOM     47  C   UNL A   1      38.801  30.898  30.396  1.00  0.00     0.049 A 
ATOM     48  H   UNL A   1      40.349  30.156  31.576  1.00  0.00     0.167 HD
ATOM     49  C   UNL A   1      43.525  28.323  34.022  1.00  0.00     0.037 A 
ATOM     50  C   UNL A   1      38.178  31.848  31.121  1.00  0.00     0.037 A 
ATOM     51  C   UNL A   1      42.975  29.375  34.834  1.00  0.00     0.049 A 
ATOM     52  C   UNL A   1      38.672  32.152  32.511  1.00  0.00     0.074 A 
ATOM     53  C   UNL A   1      43.372  29.791  36.092  1.00  0.00     0.029 A 
ATOM     54  N   UNL A   1      41.902  30.177  34.468  1.00  0.00    -0.354 N 
ATOM     55  N   UNL A   1      39.663  31.600  33.173  1.00  0.00    -0.248 NA
ATOM     56  C   UNL A   1      37.969  33.207  33.253  1.00  0.00     0.031 C 
ATOM     57  C   UNL A   1      42.512  30.814  36.505  1.00  0.00     0.029 A 
ATOM     58  C   UNL A   1      41.611  31.072  35.483  1.00  0.00     0.049 A 
ATOM     59  H   UNL A   1      41.419  30.117  33.613  1.00  0.00     0.167 HD
ATOM     60  C   UNL A   1      39.717  32.258  34.397  1.00  0.00     0.074 A 
ATOM     61  C   UNL A   1      38.665  33.255  34.380  1.00  0.00     0.031 C 
ATOM     62  C   UNL A   1      40.561  32.060  35.441  1.00  0.00     0.037 A 
BRANCH  49  63
ATOM     63  C   UNL A   1      44.665  27.510  34.567  1.00  0.00     0.058 A 
ATOM     64  C   UNL A   1      44.449  26.335  35.305  1.00  0.00     0.135 A 
ATOM     65  C   UNL A   1      45.994  27.902  34.339  1.00  0.00     0.135 A 
ATOM     66  F   UNL A   1      43.199  25.924  35.570  1.00  0.00    -0.206 F 
ATOM     67  C   UNL A   1      45.507  25.593  35.821  1.00  0.00     0.059 A 
ATOM     68  C   UNL A   1      47.069  27.163  34.823  1.00  0.00     0.059 A 
ATOM     69  F   UNL A   1      46.259  29.021  33.645  1.00  0.00    -0.206 F 
ATOM     70  C   UNL A   1      46.815  26.017  35.576  1.00  0.00     0.060 A 
BRANCH  70  71
ATOM     71  S   UNL A   1      48.178  25.048  36.256  1.00  0.00     0.124 S 
ATOM     72  O   UNL A   1      47.636  23.695  36.187  1.00  0.00    -0.237 OA
ATOM     73  O   UNL A   1      49.264  25.342  35.327  1.00  0.00    -0.237 OA
ATOM     74  O   UNL A   1      48.343  25.591  37.601  1.00  0.00    -0.744 OA
ENDBRANCH  70  71
ENDBRANCH  49  63
BRANCH  50  75
ATOM     75  C   UNL A   1      37.012  32.569  30.547  1.00  0.00     0.058 A 
ATOM     76  C   UNL A   1      37.183  33.598  29.610  1.00  0.00     0.135 A 
ATOM     77  C   UNL A   1      35.700  32.233  30.917  1.00  0.00     0.135 A 
ATOM     78  F   UNL A   1      38.418  33.962  29.232  1.00  0.00    -0.206 F 
ATOM     79  C   UNL A   1      36.097  34.277  29.067  1.00  0.00     0.059 A 
ATOM     80  C   UNL A   1      34.596  32.880  30.370  1.00  0.00     0.059 A 
ATOM     81  F   UNL A   1      35.481  31.247  31.801  1.00  0.00    -0.206 F 
ATOM     82  C   UNL A   1      34.806  33.908  29.451  1.00  0.00     0.060 A 
BRANCH  82  83
ATOM     83  S   UNL A   1      33.401  34.759  28.700  1.00  0.00     0.124 S 
ATOM     84  O   UNL A   1      32.528  34.956  29.851  1.00  0.00    -0.237 OA
ATOM     85  O   UNL A   1      34.026  35.963  28.159  1.00  0.00    -0.237 OA
ATOM     86  O   UNL A   1      32.926  33.805  27.702  1.00  0.00    -0.744 OA
ENDBRANCH  82  83
ENDBRANCH  50  75
BRANCH  62  87
ATOM     87  C   UNL A   1      40.407  32.958  36.637  1.00  0.00     0.058 A 
ATOM     88  C   UNL A   1      41.238  34.070  36.838  1.00  0.00     0.135 A 
ATOM     89  C   UNL A   1      39.375  32.734  37.562  1.00  0.00     0.135 A 
ATOM     90  F   UNL A   1      42.243  34.326  35.985  1.00  0.00    -0.206 F 
ATOM     91  C   UNL A   1      41.065  34.918  37.927  1.00  0.00     0.059 A 
ATOM     92  C   UNL A   1      39.166  33.584  38.644  1.00  0.00     0.059 A 
ATOM     93  F   UNL A   1      38.544  31.691  37.409  1.00  0.00    -0.206 F 
ATOM     94  C   UNL A   1      40.024  34.667  38.824  1.00  0.00     0.060 A 
BRANCH  94  95
ATOM     95  S   UNL A   1      39.787  35.796  40.213  1.00  0.00     0.124 S 
ATOM     96  O   UNL A   1      39.799  37.092  39.543  1.00  0.00    -0.237 OA
ATOM     97  O   UNL A   1      38.497  35.370  40.746  1.00  0.00    -0.237 OA
ATOM     98  O   UNL A   1      40.935  35.522  41.072  1.00  0.00    -0.744 OA
ENDBRANCH  94  95
ENDBRANCH  62  87
ENDBRANCH  36  37
ENDBRANCH  29  31
ENDBRANCH  28  29
ENDBRANCH  27  28
ENDBRANCH  26  27
ENDBRANCH  25  26
ENDBRANCH  24  25
ENDBRANCH   1  24
TORSDOF 27
ENDMDL
MODEL 2
REMARK VINA RESULT:      -8.5      5.130      6.613
REMARK SMILES CC[C@@H](C)[C@@H](NC(=O)C(F)(F)F)C(=O)OCCOCCOCCOCCOC(=O)c1ccc(-c2c3nc(c(-c4c(F)cc(S(=O)(=O)[O-])cc4F)c4ccc([nH]4)c(-c4c(F)cc(S(=O)(=O)[O-])cc4F)c4nc(c(-c5c(F)cc(S(=O)(=O)[O-])cc5F)c5ccc2[nH]5)C=C4)C=C3)cc1
REMARK SMILES IDX 22 1 21 2 20 3 19 4 18 5 17 6 16 7 15 8 13 9 14 10 5 11 3 12
REMARK SMILES IDX 4 13 2 14 1 15 6 16 7 17 8 19 9 20 10 21 11 22 12 23 23 24
REMARK SMILES IDX 24 25 25 26 26 27 27 28 28 29 29 30 30 31 31 32 95 33 32 34
REMARK SMILES IDX 94 35 33 36 34 37 35 38 88 39 36 40 93 41 87 42 89 43 37 44
REMARK SMILES IDX 92 45 86 46 85 47 38 49 72 50 51 51 71 52 52 53 55 54 70 55
REMARK SMILES IDX 90 56 53 57 54 58 69 60 91 61 56 62 39 63 40 64 49 65 41 66
REMARK SMILES IDX 42 67 48 68 50 69 43 70 44 71 45 72 46 73 47 74 73 75 74 76
REMARK SMILES IDX 83 77 75 78 76 79 82 80 84 81 77 82 78 83 79 84 80 85 81 86
REMARK SMILES IDX 57 87 58 88 67 89 59 90 60 91 66 92 68 93 61 94 62 95 63 96
REMARK SMILES IDX 64 97 65 98
REMARK H PARENT 6 18 89 48 55 59
REMARK Flexibility Score: inf
ROOT
ATOM      1  C   UNL A   1      34.249  21.455  26.761  1.00  0.00     0.188 C 
ENDROOT
BRANCH   1   2
ATOM      2  O   UNL A   1      33.077  21.052  26.055  1.00  0.00    -0.377 OA
BRANCH   2   3
ATOM      3  C   UNL A   1      32.413  21.961  25.198  1.00  0.00     0.188 C 
BRANCH   3   4
ATOM      4  C   UNL A   1      31.030  22.403  25.671  1.00  0.00     0.188 C 
BRANCH   4   5
ATOM      5  O   UNL A   1      30.946  23.722  26.177  1.00  0.00    -0.376 OA
BRANCH   5   6
ATOM      6  C   UNL A   1      32.126  24.315  26.726  1.00  0.00     0.202 C 
BRANCH   6   7
ATOM      7  C   UNL A   1      32.615  25.695  26.259  1.00  0.00     0.261 C 
BRANCH   7   8
ATOM      8  O   UNL A   1      31.797  26.349  25.246  1.00  0.00    -0.462 OA
BRANCH   8   9
ATOM      9  C   UNL A   1      32.468  27.053  24.298  1.00  0.00     0.329 C 
ATOM     10  O   UNL A   1      33.610  27.485  24.447  1.00  0.00    -0.250 OA
BRANCH   9  11
ATOM     11  C   UNL A   1      31.625  27.510  23.084  1.00  0.00     0.195 C 
BRANCH  11  12
ATOM     12  C   UNL A   1      30.958  28.915  22.934  1.00  0.00     0.019 C 
ATOM     13  C   UNL A   1      30.751  29.595  24.292  1.00  0.00     0.010 C 
BRANCH  12  14
ATOM     14  C   UNL A   1      29.572  28.756  22.225  1.00  0.00     0.002 C 
ATOM     15  C   UNL A   1      28.354  28.572  23.127  1.00  0.00     0.004 C 
ENDBRANCH  12  14
ENDBRANCH  11  12
BRANCH  11  16
ATOM     16  N   UNL A   1      32.141  26.964  21.806  1.00  0.00    -0.335 N 
ATOM     17  C   UNL A   1      32.725  25.772  21.456  1.00  0.00     0.326 C 
ATOM     18  H   UNL A   1      32.047  27.587  21.050  1.00  0.00     0.164 HD
ATOM     19  O   UNL A   1      33.279  25.766  20.347  1.00  0.00    -0.265 OA
BRANCH  17  20
ATOM     20  C   UNL A   1      32.619  24.501  22.326  1.00  0.00     0.471 C 
ATOM     21  F   UNL A   1      32.877  23.365  21.625  1.00  0.00    -0.162 F 
ATOM     22  F   UNL A   1      33.499  24.529  23.368  1.00  0.00    -0.162 F 
ATOM     23  F   UNL A   1      31.392  24.341  22.890  1.00  0.00    -0.162 F 
ENDBRANCH  17  20
ENDBRANCH  11  16
ENDBRANCH   9  11
ENDBRANCH   8   9
ENDBRANCH   7   8
ENDBRANCH   6   7
ENDBRANCH   5   6
ENDBRANCH   4   5
ENDBRANCH   3   4
ENDBRANCH   2   3
ENDBRANCH   1   2
BRANCH   1  24
ATOM     24  C   UNL A   1      35.330  22.215  25.994  1.00  0.00     0.188 C 
BRANCH  24  25
ATOM     25  O   UNL A   1      36.256  21.438  25.230  1.00  0.00    -0.376 OA
BRANCH  25  26
ATOM     26  C   UNL A   1      37.586  21.926  25.072  1.00  0.00     0.202 C 
BRANCH  26  27
ATOM     27  C   UNL A   1      38.678  21.097  25.750  1.00  0.00     0.261 C 
BRANCH  27  28
ATOM     28  O   UNL A   1      39.896  21.834  25.935  1.00  0.00    -0.460 OA
BRANCH  28  29
ATOM     29  C   UNL A   1      40.428  21.753  27.180  1.00  0.00     0.338 C 
ATOM     30  O   UNL A   1      40.767  20.745  27.770  1.00  0.00    -0.246 OA
BRANCH  29  31
ATOM     31  C   UNL A   1      40.670  23.109  27.704  1.00  0.00     0.060 A 
ATOM     32  C   UNL A   1      39.876  24.157  27.221  1.00  0.00     0.016 A 
ATOM     33  C   UNL A   1      41.734  23.361  28.573  1.00  0.00     0.016 A 
ATOM     34  C   UNL A   1      40.184  25.473  27.559  1.00  0.00     0.010 A 
ATOM     35  C   UNL A   1      42.049  24.680  28.900  1.00  0.00     0.010 A 
ATOM     36  C   UNL A   1      41.303  25.740  28.359  1.00  0.00    -0.014 A 
BRANCH  36  37
ATOM     37  C   UNL A   1      41.812  27.126  28.467  1.00  0.00     0.031 A 
ATOM     38  C   UNL A   1      43.232  27.401  28.053  1.00  0.00     0.074 A 
ATOM     39  C   UNL A   1      41.024  28.117  28.920  1.00  0.00     0.049 A 
ATOM     40  N   UNL A   1      43.919  28.508  28.129  1.00  0.00    -0.248 NA
ATOM     41  C   UNL A   1      43.977  26.268  27.478  1.00  0.00     0.031 C 
ATOM     42  C   UNL A   1      39.624  27.970  29.312  1.00  0.00     0.029 A 
ATOM     43  N   UNL A   1      41.301  29.441  29.140  1.00  0.00    -0.354 N 
ATOM     44  C   UNL A   1      45.177  28.207  27.620  1.00  0.00     0.074 A 
ATOM     45  C   UNL A   1      45.168  26.805  27.265  1.00  0.00     0.031 C 
ATOM     46  C   UNL A   1      39.168  29.157  29.748  1.00  0.00     0.029 A 
ATOM     47  C   UNL A   1      40.253  30.136  29.693  1.00  0.00     0.049 A 
ATOM     48  H   UNL A   1      42.167  29.856  28.921  1.00  0.00     0.167 HD
ATOM     49  C   UNL A   1      46.241  29.030  27.456  1.00  0.00     0.037 A 
ATOM     50  C   UNL A   1      40.190  31.409  30.131  1.00  0.00     0.037 A 
ATOM     51  C   UNL A   1      46.240  30.421  27.820  1.00  0.00     0.049 A 
ATOM     52  C   UNL A   1      41.404  32.291  29.998  1.00  0.00     0.074 A 
ATOM     53  C   UNL A   1      47.260  31.347  27.694  1.00  0.00     0.029 A 
ATOM     54  N   UNL A   1      45.163  31.088  28.388  1.00  0.00    -0.354 N 
ATOM     55  N   UNL A   1      42.585  31.998  29.503  1.00  0.00    -0.248 NA
ATOM     56  C   UNL A   1      41.279  33.673  30.477  1.00  0.00     0.031 C 
ATOM     57  C   UNL A   1      46.815  32.561  28.227  1.00  0.00     0.029 A 
ATOM     58  C   UNL A   1      45.500  32.408  28.638  1.00  0.00     0.049 A 
ATOM     59  H   UNL A   1      44.288  30.682  28.586  1.00  0.00     0.167 HD
ATOM     60  C   UNL A   1      43.334  33.168  29.589  1.00  0.00     0.074 A 
ATOM     61  C   UNL A   1      42.470  34.173  30.174  1.00  0.00     0.031 C 
ATOM     62  C   UNL A   1      44.619  33.392  29.216  1.00  0.00     0.037 A 
BRANCH  49  63
ATOM     63  C   UNL A   1      47.497  28.434  26.884  1.00  0.00     0.058 A 
ATOM     64  C   UNL A   1      47.657  28.234  25.503  1.00  0.00     0.135 A 
ATOM     65  C   UNL A   1      48.560  28.068  27.725  1.00  0.00     0.135 A 
ATOM     66  F   UNL A   1      46.665  28.545  24.655  1.00  0.00    -0.206 F 
ATOM     67  C   UNL A   1      48.815  27.668  24.979  1.00  0.00     0.059 A 
ATOM     68  C   UNL A   1      49.738  27.525  27.221  1.00  0.00     0.059 A 
ATOM     69  F   UNL A   1      48.458  28.232  29.053  1.00  0.00    -0.206 F 
ATOM     70  C   UNL A   1      49.850  27.314  25.847  1.00  0.00     0.060 A 
BRANCH  70  71
ATOM     71  S   UNL A   1      51.345  26.577  25.154  1.00  0.00     0.124 S 
ATOM     72  O   UNL A   1      51.316  25.245  25.750  1.00  0.00    -0.237 OA
ATOM     73  O   UNL A   1      51.085  26.633  23.719  1.00  0.00    -0.237 OA
ATOM     74  O   UNL A   1      52.410  27.455  25.629  1.00  0.00    -0.744 OA
ENDBRANCH  70  71
ENDBRANCH  49  63
BRANCH  50  75
ATOM     75  C   UNL A   1      38.937  31.917  30.749  1.00  0.00     0.058 A 
ATOM     76  C   UNL A   1      37.874  32.380  29.961  1.00  0.00     0.135 A 
ATOM     77  C   UNL A   1      38.775  31.938  32.144  1.00  0.00     0.135 A 
ATOM     78  F   UNL A   1      37.985  32.388  28.624  1.00  0.00    -0.206 F 
ATOM     79  C   UNL A   1      36.698  32.855  30.531  1.00  0.00     0.059 A 
ATOM     80  C   UNL A   1      37.599  32.386  32.737  1.00  0.00     0.059 A 
ATOM     81  F   UNL A   1      39.759  31.496  32.943  1.00  0.00    -0.206 F 
ATOM     82  C   UNL A   1      36.569  32.852  31.921  1.00  0.00     0.060 A 
BRANCH  82  83
ATOM     83  S   UNL A   1      35.017  33.421  32.650  1.00  0.00     0.124 S 
ATOM     84  O   UNL A   1      35.058  34.847  32.348  1.00  0.00    -0.237 OA
ATOM     85  O   UNL A   1      34.028  32.640  31.912  1.00  0.00    -0.237 OA
ATOM     86  O   UNL A   1      35.160  33.069  34.059  1.00  0.00    -0.744 OA
ENDBRANCH  82  83
ENDBRANCH  50  75
BRANCH  62  87
ATOM     87  C   UNL A   1      45.160  34.784  29.395  1.00  0.00     0.058 A 
ATOM     88  C   UNL A   1      45.059  35.752  28.385  1.00  0.00     0.135 A 
ATOM     89  C   UNL A   1      45.733  35.169  30.618  1.00  0.00     0.135 A 
ATOM     90  F   UNL A   1      44.524  35.434  27.195  1.00  0.00    -0.206 F 
ATOM     91  C   UNL A   1      45.527  37.048  28.572  1.00  0.00     0.059 A 
ATOM     92  C   UNL A   1      46.184  36.466  30.837  1.00  0.00     0.059 A 
ATOM     93  F   UNL A   1      45.842  34.284  31.622  1.00  0.00    -0.206 F 
ATOM     94  C   UNL A   1      46.087  37.397  29.804  1.00  0.00     0.060 A 
BRANCH  94  95
ATOM     95  S   UNL A   1      46.658  39.092  30.047  1.00  0.00     0.124 S 
ATOM     96  O   UNL A   1      45.396  39.810  30.186  1.00  0.00    -0.237 OA
ATOM     97  O   UNL A   1      47.462  38.981  31.261  1.00  0.00    -0.237 OA
ATOM     98  O   UNL A   1      47.411  39.374  28.829  1.00  0.00    -0.744 OA
ENDBRANCH  94  95
ENDBRANCH  62  87
ENDBRANCH  36  37
ENDBRANCH  29  31
ENDBRANCH  28  29
ENDBRANCH  27  28
ENDBRANCH  26  27
ENDBRANCH  25  26
ENDBRANCH  24  25
ENDBRANCH   1  24
TORSDOF 27
ENDMDL
MODEL 3
REMARK VINA RESULT:      -8.5      4.770      6.176
REMARK SMILES CC[C@@H](C)[C@@H](NC(=O)C(F)(F)F)C(=O)OCCOCCOCCOCCOC(=O)c1ccc(-c2c3nc(c(-c4c(F)cc(S(=O)(=O)[O-])cc4F)c4ccc([nH]4)c(-c4c(F)cc(S(=O)(=O)[O-])cc4F)c4nc(c(-c5c(F)cc(S(=O)(=O)[O-])cc5F)c5ccc2[nH]5)C=C4)C=C3)cc1
REMARK SMILES IDX 22 1 21 2 20 3 19 4 18 5 17 6 16 7 15 8 13 9 14 10 5 11 3 12
REMARK SMILES IDX 4 13 2 14 1 15 6 16 7 17 8 19 9 20 10 21 11 22 12 23 23 24
REMARK SMILES IDX 24 25 25 26 26 27 27 28 28 29 29 30 30 31 31 32 95 33 32 34
REMARK SMILES IDX 94 35 33 36 34 37 35 38 88 39 36 40 93 41 87 42 89 43 37 44
REMARK SMILES IDX 92 45 86 46 85 47 38 49 72 50 51 51 71 52 52 53 55 54 70 55
REMARK SMILES IDX 90 56 53 57 54 58 69 60 91 61 56 62 39 63 40 64 49 65 41 66
REMARK SMILES IDX 42 67 48 68 50 69 43 70 44 71 45 72 46 73 47 74 73 75 74 76
REMARK SMILES IDX 83 77 75 78 76 79 82 80 84 81 77 82 78 83 79 84 80 85 81 86
REMARK SMILES IDX 57 87 58 88 67 89 59 90 60 91 66 92 68 93 61 94 62 95 63 96
REMARK SMILES IDX 64 97 65 98
REMARK H PARENT 6 18 89 48 55 59
REMARK Flexibility Score: inf
ROOT
ATOM      1  C   UNL A   1      33.618  20.303  25.560  1.00  0.00     0.188 C 
ENDROOT
BRANCH   1   2
ATOM      2  O   UNL A   1      32.555  20.000  24.658  1.00  0.00    -0.377 OA
BRANCH   2   3
ATOM      3  C   UNL A   1      32.551  20.544  23.352  1.00  0.00     0.188 C 
BRANCH   3   4
ATOM      4  C   UNL A   1      31.887  21.912  23.223  1.00  0.00     0.188 C 
BRANCH   4   5
ATOM      5  O   UNL A   1      32.676  23.019  23.616  1.00  0.00    -0.376 OA
BRANCH   5   6
ATOM      6  C   UNL A   1      33.434  23.703  22.614  1.00  0.00     0.202 C 
BRANCH   6   7
ATOM      7  C   UNL A   1      32.829  24.868  21.815  1.00  0.00     0.261 C 
BRANCH   7   8
ATOM      8  O   UNL A   1      31.934  25.747  22.555  1.00  0.00    -0.462 OA
BRANCH   8   9
ATOM      9  C   UNL A   1      32.527  26.714  23.303  1.00  0.00     0.329 C 
ATOM     10  O   UNL A   1      33.601  27.241  23.013  1.00  0.00    -0.250 OA
BRANCH   9  11
ATOM     11  C   UNL A   1      31.903  26.958  24.697  1.00  0.00     0.195 C 
BRANCH  11  12
ATOM     12  C   UNL A   1      32.289  26.187  26.000  1.00  0.00     0.019 C 
ATOM     13  C   UNL A   1      33.667  25.525  25.882  1.00  0.00     0.010 C 
BRANCH  12  14
ATOM     14  C   UNL A   1      31.216  25.085  26.287  1.00  0.00     0.002 C 
ATOM     15  C   UNL A   1      31.717  23.775  26.888  1.00  0.00     0.004 C 
ENDBRANCH  12  14
ENDBRANCH  11  12
BRANCH  11  16
ATOM     16  N   UNL A   1      31.594  28.389  24.930  1.00  0.00    -0.335 N 
ATOM     17  C   UNL A   1      32.154  29.358  25.724  1.00  0.00     0.326 C 
ATOM     18  H   UNL A   1      30.826  28.712  24.406  1.00  0.00     0.164 HD
ATOM     19  O   UNL A   1      31.465  30.378  25.870  1.00  0.00    -0.265 OA
BRANCH  17  20
ATOM     20  C   UNL A   1      33.575  29.238  26.314  1.00  0.00     0.471 C 
ATOM     21  F   UNL A   1      33.616  28.458  27.427  1.00  0.00    -0.162 F 
ATOM     22  F   UNL A   1      34.448  28.692  25.419  1.00  0.00    -0.162 F 
ATOM     23  F   UNL A   1      34.112  30.439  26.661  1.00  0.00    -0.162 F 
ENDBRANCH  17  20
ENDBRANCH  11  16
ENDBRANCH   9  11
ENDBRANCH   8   9
ENDBRANCH   7   8
ENDBRANCH   6   7
ENDBRANCH   5   6
ENDBRANCH   4   5
ENDBRANCH   3   4
ENDBRANCH   2   3
ENDBRANCH   1   2
BRANCH   1  24
ATOM     24  C   UNL A   1      34.922  20.849  24.982  1.00  0.00     0.188 C 
BRANCH  24  25
ATOM     25  O   UNL A   1      36.033  19.951  24.915  1.00  0.00    -0.376 OA
BRANCH  25  26
ATOM     26  C   UNL A   1      37.350  20.495  24.929  1.00  0.00     0.202 C 
BRANCH  26  27
ATOM     27  C   UNL A   1      37.502  21.839  25.643  1.00  0.00     0.261 C 
BRANCH  27  28
ATOM     28  O   UNL A   1      38.815  22.400  25.490  1.00  0.00    -0.460 OA
BRANCH  28  29
ATOM     29  C   UNL A   1      39.641  22.215  26.549  1.00  0.00     0.338 C 
ATOM     30  O   UNL A   1      40.175  21.177  26.893  1.00  0.00    -0.246 OA
BRANCH  29  31
ATOM     31  C   UNL A   1      39.922  23.512  27.190  1.00  0.00     0.060 A 
ATOM     32  C   UNL A   1      39.268  24.649  26.699  1.00  0.00     0.016 A 
ATOM     33  C   UNL A   1      40.896  23.622  28.185  1.00  0.00     0.016 A 
ATOM     34  C   UNL A   1      39.632  25.912  27.159  1.00  0.00     0.010 A 
ATOM     35  C   UNL A   1      41.269  24.890  28.636  1.00  0.00     0.010 A 
ATOM     36  C   UNL A   1      40.670  26.038  28.092  1.00  0.00    -0.014 A 
BRANCH  36  37
ATOM     37  C   UNL A   1      41.265  27.369  28.352  1.00  0.00     0.031 A 
ATOM     38  C   UNL A   1      42.721  27.575  28.035  1.00  0.00     0.074 A 
ATOM     39  C   UNL A   1      40.522  28.370  28.854  1.00  0.00     0.049 A 
ATOM     40  N   UNL A   1      43.476  28.619  28.246  1.00  0.00    -0.248 NA
ATOM     41  C   UNL A   1      43.418  26.445  27.397  1.00  0.00     0.031 C 
ATOM     42  C   UNL A   1      39.095  28.291  29.161  1.00  0.00     0.029 A 
ATOM     43  N   UNL A   1      40.875  29.646  29.207  1.00  0.00    -0.354 N 
ATOM     44  C   UNL A   1      44.738  28.273  27.774  1.00  0.00     0.074 A 
ATOM     45  C   UNL A   1      44.653  26.912  27.293  1.00  0.00     0.031 C 
ATOM     46  C   UNL A   1      38.697  29.465  29.680  1.00  0.00     0.029 A 
ATOM     47  C   UNL A   1      39.847  30.364  29.769  1.00  0.00     0.049 A 
ATOM     48  H   UNL A   1      41.778  30.015  29.070  1.00  0.00     0.167 HD
ATOM     49  C   UNL A   1      45.862  29.027  27.739  1.00  0.00     0.037 A 
ATOM     50  C   UNL A   1      39.846  31.595  30.318  1.00  0.00     0.037 A 
ATOM     51  C   UNL A   1      45.934  30.378  28.228  1.00  0.00     0.049 A 
ATOM     52  C   UNL A   1      41.123  32.395  30.326  1.00  0.00     0.074 A 
ATOM     53  C   UNL A   1      47.021  31.235  28.238  1.00  0.00     0.029 A 
ATOM     54  N   UNL A   1      44.875  31.069  28.801  1.00  0.00    -0.354 N 
ATOM     55  N   UNL A   1      42.307  32.062  29.865  1.00  0.00    -0.248 NA
ATOM     56  C   UNL A   1      41.065  33.736  30.923  1.00  0.00     0.031 C 
ATOM     57  C   UNL A   1      46.629  32.427  28.857  1.00  0.00     0.029 A 
ATOM     58  C   UNL A   1      45.286  32.334  29.186  1.00  0.00     0.049 A 
ATOM     59  H   UNL A   1      43.965  30.711  28.917  1.00  0.00     0.167 HD
ATOM     60  C   UNL A   1      43.127  33.162  30.095  1.00  0.00     0.074 A 
ATOM     61  C   UNL A   1      42.302  34.172  30.726  1.00  0.00     0.031 C 
ATOM     62  C   UNL A   1      44.444  33.325  29.807  1.00  0.00     0.037 A 
BRANCH  49  63
ATOM     63  C   UNL A   1      47.104  28.394  27.178  1.00  0.00     0.058 A 
ATOM     64  C   UNL A   1      48.048  27.761  28.003  1.00  0.00     0.135 A 
ATOM     65  C   UNL A   1      47.351  28.408  25.796  1.00  0.00     0.135 A 
ATOM     66  F   UNL A   1      47.873  27.736  29.334  1.00  0.00    -0.206 F 
ATOM     67  C   UNL A   1      49.204  27.189  27.482  1.00  0.00     0.059 A 
ATOM     68  C   UNL A   1      48.487  27.820  25.249  1.00  0.00     0.059 A 
ATOM     69  F   UNL A   1      46.485  29.005  24.961  1.00  0.00    -0.206 F 
ATOM     70  C   UNL A   1      49.416  27.226  26.102  1.00  0.00     0.060 A 
BRANCH  70  71
ATOM     71  S   UNL A   1      50.923  26.484  25.440  1.00  0.00     0.124 S 
ATOM     72  O   UNL A   1      51.934  27.441  25.875  1.00  0.00    -0.237 OA
ATOM     73  O   UNL A   1      50.952  25.186  26.107  1.00  0.00    -0.237 OA
ATOM     74  O   UNL A   1      50.677  26.441  24.001  1.00  0.00    -0.744 OA
ENDBRANCH  70  71
ENDBRANCH  49  63
BRANCH  50  75
ATOM     75  C   UNL A   1      38.598  32.137  30.917  1.00  0.00     0.058 A 
ATOM     76  C   UNL A   1      37.698  32.896  30.157  1.00  0.00     0.135 A 
ATOM     77  C   UNL A   1      38.277  31.894  32.262  1.00  0.00     0.135 A 
ATOM     78  F   UNL A   1      37.966  33.163  28.869  1.00  0.00    -0.206 F 
ATOM     79  C   UNL A   1      36.527  33.405  30.709  1.00  0.00     0.059 A 
ATOM     80  C   UNL A   1      37.100  32.371  32.831  1.00  0.00     0.059 A 
ATOM     81  F   UNL A   1      39.100  31.163  33.030  1.00  0.00    -0.206 F 
ATOM     82  C   UNL A   1      36.236  33.134  32.047  1.00  0.00     0.060 A 
BRANCH  82  83
ATOM     83  S   UNL A   1      34.687  33.755  32.740  1.00  0.00     0.124 S 
ATOM     84  O   UNL A   1      34.531  35.017  32.026  1.00  0.00    -0.237 OA
ATOM     85  O   UNL A   1      33.746  32.697  32.382  1.00  0.00    -0.237 OA
ATOM     86  O   UNL A   1      34.979  33.867  34.166  1.00  0.00    -0.744 OA
ENDBRANCH  82  83
ENDBRANCH  50  75
BRANCH  62  87
ATOM     87  C   UNL A   1      45.066  34.653  30.140  1.00  0.00     0.058 A 
ATOM     88  C   UNL A   1      45.049  35.725  29.235  1.00  0.00     0.135 A 
ATOM     89  C   UNL A   1      45.636  34.871  31.405  1.00  0.00     0.135 A 
ATOM     90  F   UNL A   1      44.521  35.566  28.010  1.00  0.00    -0.206 F 
ATOM     91  C   UNL A   1      45.593  36.961  29.564  1.00  0.00     0.059 A 
ATOM     92  C   UNL A   1      46.162  36.107  31.766  1.00  0.00     0.059 A 
ATOM     93  F   UNL A   1      45.667  33.882  32.313  1.00  0.00    -0.206 F 
ATOM     94  C   UNL A   1      46.147  37.144  30.834  1.00  0.00     0.060 A 
BRANCH  94  95
ATOM     95  S   UNL A   1      46.818  38.764  31.262  1.00  0.00     0.124 S 
ATOM     96  O   UNL A   1      46.672  39.484  30.001  1.00  0.00    -0.237 OA
ATOM     97  O   UNL A   1      45.936  39.193  32.342  1.00  0.00    -0.237 OA
ATOM     98  O   UNL A   1      48.190  38.468  31.661  1.00  0.00    -0.744 OA
ENDBRANCH  94  95
ENDBRANCH  62  87
ENDBRANCH  36  37
ENDBRANCH  29  31
ENDBRANCH  28  29
ENDBRANCH  27  28
ENDBRANCH  26  27
ENDBRANCH  25  26
ENDBRANCH  24  25
ENDBRANCH   1  24
TORSDOF 27
ENDMDL
