MODEL 1
REMARK VINA RESULT:      -9.7      0.000      0.000
REMARK SMILES O=C(OCCOCCOCCOCCOC(=O)c1ccccc1/N=C/c1coc2ccccc2c1=O)c1ccc(-c2c3nc(c(-c4c(F)cc(S(=O)(=O)[O-])cc4F)c4ccc([nH]4)c(-c4c(F)cc(S(=O)(=O)[O-])cc4F)c4nc(c(-c5c(F)cc(S(=O)(=O)[O-])cc5F)c5ccc2[nH]5)C=C4)C=C3)cc1
REMARK SMILES IDX 8 1 7 2 6 3 5 4 4 5 3 6 2 7 1 8 37 9 38 10 102 11 39 12
REMARK SMILES IDX 101 13 40 14 41 15 42 16 95 17 43 18 100 19 94 20 96 21
REMARK SMILES IDX 44 22 99 23 93 24 92 25 45 27 79 28 58 29 78 30 59 31 62 32
REMARK SMILES IDX 77 33 97 34 60 35 61 36 76 38 98 39 63 40 46 41 47 42 56 43
REMARK SMILES IDX 48 44 49 45 55 46 57 47 50 48 51 49 52 50 53 51 54 52 80 53
REMARK SMILES IDX 81 54 90 55 82 56 83 57 89 58 91 59 84 60 85 61 86 62 87 63
REMARK SMILES IDX 88 64 64 65 65 66 74 67 66 68 67 69 73 70 75 71 68 72 69 73
REMARK SMILES IDX 70 74 71 75 72 76 9 77 10 78 11 79 12 80 13 81 14 82 15 83
REMARK SMILES IDX 16 84 17 85 18 86 19 87 23 88 20 89 22 90 21 91 24 92 25 93
REMARK SMILES IDX 26 94 27 95 35 96 28 97 34 98 36 99 29 100 33 101 30 102
REMARK SMILES IDX 32 103 31 104
REMARK H PARENT 96 26 62 37
REMARK Flexibility Score: inf
ROOT
ATOM      1  C   UNL A   1      35.903  32.933  27.996  1.00  0.00     0.188 C 
ENDROOT
BRANCH   1   2
ATOM      2  C   UNL A   1      35.475  34.199  28.738  1.00  0.00     0.188 C 
BRANCH   2   3
ATOM      3  O   UNL A   1      34.433  34.909  28.068  1.00  0.00    -0.376 OA
BRANCH   3   4
ATOM      4  C   UNL A   1      34.155  36.230  28.502  1.00  0.00     0.202 C 
BRANCH   4   5
ATOM      5  C   UNL A   1      32.763  36.339  29.128  1.00  0.00     0.261 C 
BRANCH   5   6
ATOM      6  O   UNL A   1      32.553  35.290  30.087  1.00  0.00    -0.460 OA
BRANCH   6   7
ATOM      7  C   UNL A   1      32.806  35.275  31.419  1.00  0.00     0.338 C 
ATOM      8  O   UNL A   1      31.916  35.678  32.168  1.00  0.00    -0.246 OA
BRANCH   7   9
ATOM      9  C   UNL A   1      34.066  34.757  32.053  1.00  0.00     0.060 A 
ATOM     10  C   UNL A   1      35.288  35.426  32.130  1.00  0.00     0.016 A 
ATOM     11  C   UNL A   1      33.981  33.489  32.663  1.00  0.00     0.016 A 
ATOM     12  C   UNL A   1      36.408  34.833  32.707  1.00  0.00     0.010 A 
ATOM     13  C   UNL A   1      35.095  32.893  33.265  1.00  0.00     0.010 A 
ATOM     14  C   UNL A   1      36.326  33.552  33.247  1.00  0.00    -0.014 A 
BRANCH  14  15
ATOM     15  C   UNL A   1      37.588  32.877  33.606  1.00  0.00     0.031 A 
ATOM     16  C   UNL A   1      38.201  33.199  34.939  1.00  0.00     0.074 A 
ATOM     17  C   UNL A   1      38.065  31.884  32.833  1.00  0.00     0.049 A 
ATOM     18  N   UNL A   1      39.267  32.703  35.503  1.00  0.00    -0.248 NA
ATOM     19  C   UNL A   1      37.498  34.204  35.759  1.00  0.00     0.031 C 
ATOM     20  C   UNL A   1      37.468  31.435  31.574  1.00  0.00     0.029 A 
ATOM     21  N   UNL A   1      39.139  31.053  33.011  1.00  0.00    -0.354 N 
ATOM     22  C   UNL A   1      39.361  33.327  36.742  1.00  0.00     0.074 A 
ATOM     23  C   UNL A   1      38.259  34.257  36.840  1.00  0.00     0.031 C 
ATOM     24  C   UNL A   1      38.181  30.399  31.097  1.00  0.00     0.029 A 
ATOM     25  C   UNL A   1      39.303  30.139  31.996  1.00  0.00     0.049 A 
ATOM     26  H   UNL A   1      39.738  31.105  33.790  1.00  0.00     0.167 HD
ATOM     27  C   UNL A   1      40.282  33.133  37.712  1.00  0.00     0.037 A 
ATOM     28  C   UNL A   1      40.265  29.216  31.813  1.00  0.00     0.037 A 
ATOM     29  C   UNL A   1      41.385  32.222  37.582  1.00  0.00     0.049 A 
ATOM     30  C   UNL A   1      41.336  29.086  32.867  1.00  0.00     0.074 A 
ATOM     31  C   UNL A   1      42.446  32.013  38.443  1.00  0.00     0.029 A 
ATOM     32  N   UNL A   1      41.560  31.357  36.508  1.00  0.00    -0.354 N 
ATOM     33  N   UNL A   1      41.457  29.735  34.003  1.00  0.00    -0.248 NA
ATOM     34  C   UNL A   1      42.402  28.109  32.617  1.00  0.00     0.031 C 
ATOM     35  C   UNL A   1      43.278  31.041  37.876  1.00  0.00     0.029 A 
ATOM     36  C   UNL A   1      42.714  30.616  36.682  1.00  0.00     0.049 A 
ATOM     37  H   UNL A   1      40.952  31.283  35.738  1.00  0.00     0.167 HD
ATOM     38  C   UNL A   1      42.609  29.243  34.604  1.00  0.00     0.074 A 
ATOM     39  C   UNL A   1      43.131  28.219  33.719  1.00  0.00     0.031 C 
ATOM     40  C   UNL A   1      43.195  29.606  35.773  1.00  0.00     0.037 A 
BRANCH  27  41
ATOM     41  C   UNL A   1      40.146  33.960  38.958  1.00  0.00     0.058 A 
ATOM     42  C   UNL A   1      40.819  35.183  39.106  1.00  0.00     0.135 A 
ATOM     43  C   UNL A   1      39.366  33.506  40.034  1.00  0.00     0.135 A 
ATOM     44  F   UNL A   1      41.605  35.646  38.122  1.00  0.00    -0.206 F 
ATOM     45  C   UNL A   1      40.743  35.916  40.287  1.00  0.00     0.059 A 
ATOM     46  C   UNL A   1      39.262  34.231  41.217  1.00  0.00     0.059 A 
ATOM     47  F   UNL A   1      38.715  32.335  39.949  1.00  0.00    -0.206 F 
ATOM     48  C   UNL A   1      39.967  35.427  41.340  1.00  0.00     0.060 A 
BRANCH  48  49
ATOM     49  S   UNL A   1      39.899  36.376  42.876  1.00  0.00     0.124 S 
ATOM     50  O   UNL A   1      39.742  37.736  42.371  1.00  0.00    -0.237 OA
ATOM     51  O   UNL A   1      38.732  35.809  43.543  1.00  0.00    -0.237 OA
ATOM     52  O   UNL A   1      41.182  36.087  43.509  1.00  0.00    -0.744 OA
ENDBRANCH  48  49
ENDBRANCH  27  41
BRANCH  28  53
ATOM     53  C   UNL A   1      40.295  28.388  30.575  1.00  0.00     0.058 A 
ATOM     54  C   UNL A   1      39.426  27.304  30.388  1.00  0.00     0.135 A 
ATOM     55  C   UNL A   1      41.224  28.658  29.556  1.00  0.00     0.135 A 
ATOM     56  F   UNL A   1      38.525  26.995  31.334  1.00  0.00    -0.206 F 
ATOM     57  C   UNL A   1      39.490  26.503  29.250  1.00  0.00     0.059 A 
ATOM     58  C   UNL A   1      41.289  27.890  28.397  1.00  0.00     0.059 A 
ATOM     59  F   UNL A   1      42.075  29.688  29.676  1.00  0.00    -0.206 F 
ATOM     60  C   UNL A   1      40.430  26.802  28.261  1.00  0.00     0.060 A 
BRANCH  60  61
ATOM     61  S   UNL A   1      40.504  25.770  26.779  1.00  0.00     0.124 S 
ATOM     62  O   UNL A   1      39.168  25.187  26.761  1.00  0.00    -0.237 OA
ATOM     63  O   UNL A   1      40.789  26.747  25.732  1.00  0.00    -0.237 OA
ATOM     64  O   UNL A   1      41.594  24.844  27.072  1.00  0.00    -0.744 OA
ENDBRANCH  60  61
ENDBRANCH  28  53
BRANCH  40  65
ATOM     65  C   UNL A   1      44.453  28.882  36.153  1.00  0.00     0.058 A 
ATOM     66  C   UNL A   1      44.411  27.674  36.866  1.00  0.00     0.135 A 
ATOM     67  C   UNL A   1      45.706  29.379  35.765  1.00  0.00     0.135 A 
ATOM     68  F   UNL A   1      43.236  27.161  37.262  1.00  0.00    -0.206 F 
ATOM     69  C   UNL A   1      45.576  26.995  37.205  1.00  0.00     0.059 A 
ATOM     70  C   UNL A   1      46.882  28.705  36.072  1.00  0.00     0.059 A 
ATOM     71  F   UNL A   1      45.794  30.525  35.070  1.00  0.00    -0.206 F 
ATOM     72  C   UNL A   1      46.807  27.520  36.805  1.00  0.00     0.060 A 
BRANCH  72  73
ATOM     73  S   UNL A   1      48.312  26.620  37.228  1.00  0.00     0.124 S 
ATOM     74  O   UNL A   1      47.891  25.887  38.417  1.00  0.00    -0.237 OA
ATOM     75  O   UNL A   1      48.544  25.814  36.035  1.00  0.00    -0.237 OA
ATOM     76  O   UNL A   1      49.288  27.683  37.457  1.00  0.00    -0.744 OA
ENDBRANCH  72  73
ENDBRANCH  40  65
ENDBRANCH  14  15
ENDBRANCH   7   9
ENDBRANCH   6   7
ENDBRANCH   5   6
ENDBRANCH   4   5
ENDBRANCH   3   4
ENDBRANCH   2   3
ENDBRANCH   1   2
BRANCH   1  77
ATOM     77  O   UNL A   1      34.963  31.866  28.017  1.00  0.00    -0.377 OA
BRANCH  77  78
ATOM     78  C   UNL A   1      35.420  30.665  28.631  1.00  0.00     0.188 C 
BRANCH  78  79
ATOM     79  C   UNL A   1      35.585  29.487  27.646  1.00  0.00     0.188 C 
BRANCH  79  80
ATOM     80  O   UNL A   1      34.553  29.413  26.665  1.00  0.00    -0.376 OA
BRANCH  80  81
ATOM     81  C   UNL A   1      33.766  28.221  26.712  1.00  0.00     0.202 C 
BRANCH  81  82
ATOM     82  C   UNL A   1      33.815  27.390  25.429  1.00  0.00     0.261 C 
BRANCH  82  83
ATOM     83  O   UNL A   1      33.095  27.974  24.328  1.00  0.00    -0.460 OA
BRANCH  83  84
ATOM     84  C   UNL A   1      32.516  27.157  23.420  1.00  0.00     0.340 C 
ATOM     85  O   UNL A   1      33.062  26.468  22.589  1.00  0.00    -0.246 OA
BRANCH  84  86
ATOM     86  C   UNL A   1      31.063  27.163  23.678  1.00  0.00     0.085 A 
ATOM     87  C   UNL A   1      30.289  28.031  22.885  1.00  0.00     0.018 A 
ATOM     88  C   UNL A   1      30.449  26.260  24.559  1.00  0.00     0.077 A 
ATOM     89  C   UNL A   1      28.896  27.977  22.936  1.00  0.00     0.001 A 
ATOM     90  C   UNL A   1      29.046  26.270  24.630  1.00  0.00     0.029 A 
ATOM     91  C   UNL A   1      28.273  27.104  23.819  1.00  0.00     0.002 A 
BRANCH  88  92
ATOM     92  N   UNL A   1      31.040  25.139  25.146  1.00  0.00    -0.255 NA
ATOM     93  C   UNL A   1      31.351  24.029  24.566  1.00  0.00     0.127 C 
BRANCH  93  94
ATOM     94  C   UNL A   1      31.482  22.772  25.391  1.00  0.00     0.076 A 
ATOM     95  C   UNL A   1      31.777  21.684  24.649  1.00  0.00     0.209 A 
ATOM     96  C   UNL A   1      32.572  22.883  26.428  1.00  0.00     0.201 A 
ATOM     97  O   UNL A   1      33.068  21.446  24.129  1.00  0.00    -0.463 OA
ATOM     98  C   UNL A   1      33.924  22.940  25.831  1.00  0.00     0.065 A 
ATOM     99  O   UNL A   1      32.356  22.936  27.628  1.00  0.00    -0.288 OA
ATOM    100  C   UNL A   1      34.083  22.240  24.630  1.00  0.00     0.137 A 
ATOM    101  C   UNL A   1      34.891  23.839  26.278  1.00  0.00     0.016 A 
ATOM    102  C   UNL A   1      35.233  22.411  23.869  1.00  0.00     0.048 A 
ATOM    103  C   UNL A   1      36.028  24.040  25.490  1.00  0.00     0.001 A 
ATOM    104  C   UNL A   1      36.198  23.328  24.294  1.00  0.00     0.004 A 
ENDBRANCH  93  94
ENDBRANCH  88  92
ENDBRANCH  84  86
ENDBRANCH  83  84
ENDBRANCH  82  83
ENDBRANCH  81  82
ENDBRANCH  80  81
ENDBRANCH  79  80
ENDBRANCH  78  79
ENDBRANCH  77  78
ENDBRANCH   1  77
TORSDOF 25
ENDMDL
MODEL 2
REMARK VINA RESULT:      -9.5      2.529      9.177
REMARK SMILES O=C(OCCOCCOCCOCCOC(=O)c1ccccc1/N=C/c1coc2ccccc2c1=O)c1ccc(-c2c3nc(c(-c4c(F)cc(S(=O)(=O)[O-])cc4F)c4ccc([nH]4)c(-c4c(F)cc(S(=O)(=O)[O-])cc4F)c4nc(c(-c5c(F)cc(S(=O)(=O)[O-])cc5F)c5ccc2[nH]5)C=C4)C=C3)cc1
REMARK SMILES IDX 8 1 7 2 6 3 5 4 4 5 3 6 2 7 1 8 37 9 38 10 102 11 39 12
REMARK SMILES IDX 101 13 40 14 41 15 42 16 95 17 43 18 100 19 94 20 96 21
REMARK SMILES IDX 44 22 99 23 93 24 92 25 45 27 79 28 58 29 78 30 59 31 62 32
REMARK SMILES IDX 77 33 97 34 60 35 61 36 76 38 98 39 63 40 46 41 47 42 56 43
REMARK SMILES IDX 48 44 49 45 55 46 57 47 50 48 51 49 52 50 53 51 54 52 80 53
REMARK SMILES IDX 81 54 90 55 82 56 83 57 89 58 91 59 84 60 85 61 86 62 87 63
REMARK SMILES IDX 88 64 64 65 65 66 74 67 66 68 67 69 73 70 75 71 68 72 69 73
REMARK SMILES IDX 70 74 71 75 72 76 9 77 10 78 11 79 12 80 13 81 14 82 15 83
REMARK SMILES IDX 16 84 17 85 18 86 19 87 23 88 20 89 22 90 21 91 24 92 25 93
REMARK SMILES IDX 26 94 27 95 35 96 28 97 34 98 36 99 29 100 33 101 30 102
REMARK SMILES IDX 32 103 31 104
REMARK H PARENT 96 26 62 37
REMARK Flexibility Score: inf
ROOT
ATOM      1  C   UNL A   1      41.117  21.503  26.324  1.00  0.00     0.188 C 
ENDROOT
BRANCH   1   2
ATOM      2  C   UNL A   1      41.985  21.908  27.515  1.00  0.00     0.188 C 
BRANCH   2   3
ATOM      3  O   UNL A   1      43.152  22.635  27.128  1.00  0.00    -0.376 OA
BRANCH   3   4
ATOM      4  C   UNL A   1      43.641  22.437  25.811  1.00  0.00     0.202 C 
BRANCH   4   5
ATOM      5  C   UNL A   1      43.451  23.683  24.944  1.00  0.00     0.261 C 
BRANCH   5   6
ATOM      6  O   UNL A   1      43.491  24.873  25.749  1.00  0.00    -0.460 OA
BRANCH   6   7
ATOM      7  C   UNL A   1      42.506  25.764  26.023  1.00  0.00     0.338 C 
ATOM      8  O   UNL A   1      41.639  25.929  25.164  1.00  0.00    -0.246 OA
BRANCH   7   9
ATOM      9  C   UNL A   1      42.362  26.524  27.310  1.00  0.00     0.060 A 
ATOM     10  C   UNL A   1      41.665  26.107  28.445  1.00  0.00     0.016 A 
ATOM     11  C   UNL A   1      43.036  27.761  27.383  1.00  0.00     0.016 A 
ATOM     12  C   UNL A   1      41.562  26.913  29.574  1.00  0.00     0.010 A 
ATOM     13  C   UNL A   1      42.957  28.570  28.522  1.00  0.00     0.010 A 
ATOM     14  C   UNL A   1      42.178  28.161  29.607  1.00  0.00    -0.014 A 
BRANCH  14  15
ATOM     15  C   UNL A   1      41.823  29.074  30.711  1.00  0.00     0.031 A 
ATOM     16  C   UNL A   1      42.770  29.167  31.874  1.00  0.00     0.074 A 
ATOM     17  C   UNL A   1      40.778  29.912  30.585  1.00  0.00     0.049 A 
ATOM     18  N   UNL A   1      42.712  29.928  32.931  1.00  0.00    -0.248 NA
ATOM     19  C   UNL A   1      43.960  28.297  31.823  1.00  0.00     0.031 C 
ATOM     20  C   UNL A   1      39.870  29.960  29.437  1.00  0.00     0.029 A 
ATOM     21  N   UNL A   1      40.325  30.904  31.413  1.00  0.00    -0.354 N 
ATOM     22  C   UNL A   1      43.854  29.636  33.668  1.00  0.00     0.074 A 
ATOM     23  C   UNL A   1      44.577  28.610  32.951  1.00  0.00     0.031 C 
ATOM     24  C   UNL A   1      38.973  30.944  29.631  1.00  0.00     0.029 A 
ATOM     25  C   UNL A   1      39.220  31.564  30.929  1.00  0.00     0.049 A 
ATOM     26  H   UNL A   1      40.750  31.124  32.274  1.00  0.00     0.167 HD
ATOM     27  C   UNL A   1      44.264  30.183  34.834  1.00  0.00     0.037 A 
ATOM     28  C   UNL A   1      38.487  32.544  31.489  1.00  0.00     0.037 A 
ATOM     29  C   UNL A   1      43.516  31.183  35.542  1.00  0.00     0.049 A 
ATOM     30  C   UNL A   1      38.913  33.070  32.836  1.00  0.00     0.074 A 
ATOM     31  C   UNL A   1      43.764  31.738  36.784  1.00  0.00     0.029 A 
ATOM     32  N   UNL A   1      42.361  31.785  35.056  1.00  0.00    -0.354 N 
ATOM     33  N   UNL A   1      39.956  32.734  33.560  1.00  0.00    -0.248 NA
ATOM     34  C   UNL A   1      38.065  34.101  33.448  1.00  0.00     0.031 C 
ATOM     35  C   UNL A   1      42.743  32.655  37.060  1.00  0.00     0.029 A 
ATOM     36  C   UNL A   1      41.882  32.700  35.973  1.00  0.00     0.049 A 
ATOM     37  H   UNL A   1      41.945  31.586  34.185  1.00  0.00     0.167 HD
ATOM     38  C   UNL A   1      39.893  33.512  34.710  1.00  0.00     0.074 A 
ATOM     39  C   UNL A   1      38.724  34.359  34.570  1.00  0.00     0.031 C 
ATOM     40  C   UNL A   1      40.712  33.523  35.791  1.00  0.00     0.037 A 
BRANCH  27  41
ATOM     41  C   UNL A   1      45.547  29.665  35.417  1.00  0.00     0.058 A 
ATOM     42  C   UNL A   1      45.568  28.562  36.285  1.00  0.00     0.135 A 
ATOM     43  C   UNL A   1      46.766  30.303  35.137  1.00  0.00     0.135 A 
ATOM     44  F   UNL A   1      44.426  27.937  36.612  1.00  0.00    -0.206 F 
ATOM     45  C   UNL A   1      46.750  28.124  36.875  1.00  0.00     0.059 A 
ATOM     46  C   UNL A   1      47.963  29.871  35.703  1.00  0.00     0.059 A 
ATOM     47  F   UNL A   1      46.799  31.372  34.327  1.00  0.00    -0.206 F 
ATOM     48  C   UNL A   1      47.942  28.790  36.583  1.00  0.00     0.060 A 
BRANCH  48  49
ATOM     49  S   UNL A   1      49.463  28.228  37.378  1.00  0.00     0.124 S 
ATOM     50  O   UNL A   1      50.404  28.261  36.262  1.00  0.00    -0.237 OA
ATOM     51  O   UNL A   1      49.670  29.238  38.411  1.00  0.00    -0.237 OA
ATOM     52  O   UNL A   1      49.118  26.897  37.866  1.00  0.00    -0.744 OA
ENDBRANCH  48  49
ENDBRANCH  27  41
BRANCH  28  53
ATOM     53  C   UNL A   1      37.259  33.050  30.815  1.00  0.00     0.058 A 
ATOM     54  C   UNL A   1      35.979  32.607  31.179  1.00  0.00     0.135 A 
ATOM     55  C   UNL A   1      37.349  33.979  29.764  1.00  0.00     0.135 A 
ATOM     56  F   UNL A   1      35.834  31.713  32.169  1.00  0.00    -0.206 F 
ATOM     57  C   UNL A   1      34.836  33.047  30.513  1.00  0.00     0.059 A 
ATOM     58  C   UNL A   1      36.221  34.453  29.102  1.00  0.00     0.059 A 
ATOM     59  F   UNL A   1      38.547  34.444  29.379  1.00  0.00    -0.206 F 
ATOM     60  C   UNL A   1      34.969  33.967  29.471  1.00  0.00     0.060 A 
BRANCH  60  61
ATOM     61  S   UNL A   1      33.486  34.546  28.616  1.00  0.00     0.124 S 
ATOM     62  O   UNL A   1      33.987  35.733  27.932  1.00  0.00    -0.237 OA
ATOM     63  O   UNL A   1      33.154  33.410  27.761  1.00  0.00    -0.237 OA
ATOM     64  O   UNL A   1      32.547  34.793  29.706  1.00  0.00    -0.744 OA
ENDBRANCH  60  61
ENDBRANCH  28  53
BRANCH  40  65
ATOM     65  C   UNL A   1      40.372  34.487  36.889  1.00  0.00     0.058 A 
ATOM     66  C   UNL A   1      40.940  35.769  36.936  1.00  0.00     0.135 A 
ATOM     67  C   UNL A   1      39.439  34.139  37.877  1.00  0.00     0.135 A 
ATOM     68  F   UNL A   1      41.840  36.145  36.013  1.00  0.00    -0.206 F 
ATOM     69  C   UNL A   1      40.612  36.668  37.945  1.00  0.00     0.059 A 
ATOM     70  C   UNL A   1      39.079  35.030  38.881  1.00  0.00     0.059 A 
ATOM     71  F   UNL A   1      38.860  32.927  37.865  1.00  0.00    -0.206 F 
ATOM     72  C   UNL A   1      39.682  36.288  38.914  1.00  0.00     0.060 A 
BRANCH  72  73
ATOM     73  S   UNL A   1      39.244  37.469  40.206  1.00  0.00     0.124 S 
ATOM     74  O   UNL A   1      38.812  36.581  41.280  1.00  0.00    -0.237 OA
ATOM     75  O   UNL A   1      40.502  38.172  40.431  1.00  0.00    -0.237 OA
ATOM     76  O   UNL A   1      38.189  38.268  39.588  1.00  0.00    -0.744 OA
ENDBRANCH  72  73
ENDBRANCH  40  65
ENDBRANCH  14  15
ENDBRANCH   7   9
ENDBRANCH   6   7
ENDBRANCH   5   6
ENDBRANCH   4   5
ENDBRANCH   3   4
ENDBRANCH   2   3
ENDBRANCH   1   2
BRANCH   1  77
ATOM     77  O   UNL A   1      39.716  21.478  26.571  1.00  0.00    -0.377 OA
BRANCH  77  78
ATOM     78  C   UNL A   1      38.908  21.118  25.454  1.00  0.00     0.188 C 
BRANCH  78  79
ATOM     79  C   UNL A   1      37.432  21.549  25.591  1.00  0.00     0.188 C 
BRANCH  79  80
ATOM     80  O   UNL A   1      36.681  21.412  24.386  1.00  0.00    -0.376 OA
BRANCH  80  81
ATOM     81  C   UNL A   1      36.279  22.645  23.786  1.00  0.00     0.202 C 
BRANCH  81  82
ATOM     82  C   UNL A   1      36.119  23.798  24.778  1.00  0.00     0.261 C 
BRANCH  82  83
ATOM     83  O   UNL A   1      34.749  24.124  25.076  1.00  0.00    -0.460 OA
BRANCH  83  84
ATOM     84  C   UNL A   1      34.213  23.692  26.240  1.00  0.00     0.340 C 
ATOM     85  O   UNL A   1      34.797  23.287  27.219  1.00  0.00    -0.246 OA
BRANCH  84  86
ATOM     86  C   UNL A   1      32.753  23.894  26.159  1.00  0.00     0.085 A 
ATOM     87  C   UNL A   1      31.956  22.735  26.221  1.00  0.00     0.018 A 
ATOM     88  C   UNL A   1      32.166  25.167  26.163  1.00  0.00     0.077 A 
ATOM     89  C   UNL A   1      30.569  22.840  26.328  1.00  0.00     0.001 A 
ATOM     90  C   UNL A   1      30.763  25.239  26.214  1.00  0.00     0.029 A 
ATOM     91  C   UNL A   1      29.970  24.094  26.312  1.00  0.00     0.002 A 
BRANCH  88  92
ATOM     92  N   UNL A   1      32.807  26.378  26.436  1.00  0.00    -0.255 NA
ATOM     93  C   UNL A   1      32.264  27.467  26.866  1.00  0.00     0.127 C 
BRANCH  93  94
ATOM     94  C   UNL A   1      32.952  28.787  26.618  1.00  0.00     0.076 A 
ATOM     95  C   UNL A   1      34.018  28.679  25.797  1.00  0.00     0.209 A 
ATOM     96  C   UNL A   1      32.031  29.798  25.982  1.00  0.00     0.201 A 
ATOM     97  O   UNL A   1      33.888  28.513  24.401  1.00  0.00    -0.463 OA
ATOM     98  C   UNL A   1      31.660  29.438  24.596  1.00  0.00     0.065 A 
ATOM     99  O   UNL A   1      31.626  30.796  26.557  1.00  0.00    -0.288 OA
ATOM    100  C   UNL A   1      32.628  28.730  23.876  1.00  0.00     0.137 A 
ATOM    101  C   UNL A   1      30.351  29.553  24.129  1.00  0.00     0.016 A 
ATOM    102  C   UNL A   1      32.304  28.147  22.658  1.00  0.00     0.048 A 
ATOM    103  C   UNL A   1      30.017  28.929  22.924  1.00  0.00     0.001 A 
ATOM    104  C   UNL A   1      30.989  28.233  22.191  1.00  0.00     0.004 A 
ENDBRANCH  93  94
ENDBRANCH  88  92
ENDBRANCH  84  86
ENDBRANCH  83  84
ENDBRANCH  82  83
ENDBRANCH  81  82
ENDBRANCH  80  81
ENDBRANCH  79  80
ENDBRANCH  78  79
ENDBRANCH  77  78
ENDBRANCH   1  77
TORSDOF 25
ENDMDL
MODEL 3
REMARK VINA RESULT:      -9.5      5.442      9.545
REMARK SMILES O=C(OCCOCCOCCOCCOC(=O)c1ccccc1/N=C/c1coc2ccccc2c1=O)c1ccc(-c2c3nc(c(-c4c(F)cc(S(=O)(=O)[O-])cc4F)c4ccc([nH]4)c(-c4c(F)cc(S(=O)(=O)[O-])cc4F)c4nc(c(-c5c(F)cc(S(=O)(=O)[O-])cc5F)c5ccc2[nH]5)C=C4)C=C3)cc1
REMARK SMILES IDX 8 1 7 2 6 3 5 4 4 5 3 6 2 7 1 8 37 9 38 10 102 11 39 12
REMARK SMILES IDX 101 13 40 14 41 15 42 16 95 17 43 18 100 19 94 20 96 21
REMARK SMILES IDX 44 22 99 23 93 24 92 25 45 27 79 28 58 29 78 30 59 31 62 32
REMARK SMILES IDX 77 33 97 34 60 35 61 36 76 38 98 39 63 40 46 41 47 42 56 43
REMARK SMILES IDX 48 44 49 45 55 46 57 47 50 48 51 49 52 50 53 51 54 52 80 53
REMARK SMILES IDX 81 54 90 55 82 56 83 57 89 58 91 59 84 60 85 61 86 62 87 63
REMARK SMILES IDX 88 64 64 65 65 66 74 67 66 68 67 69 73 70 75 71 68 72 69 73
REMARK SMILES IDX 70 74 71 75 72 76 9 77 10 78 11 79 12 80 13 81 14 82 15 83
REMARK SMILES IDX 16 84 17 85 18 86 19 87 23 88 20 89 22 90 21 91 24 92 25 93
REMARK SMILES IDX 26 94 27 95 35 96 28 97 34 98 36 99 29 100 33 101 30 102
REMARK SMILES IDX 32 103 31 104
REMARK H PARENT 96 26 62 37
REMARK Flexibility Score: inf
ROOT
ATOM      1  C   UNL A   1      33.979  21.611  25.042  1.00  0.00     0.188 C 
ENDROOT
BRANCH   1   2
ATOM      2  C   UNL A   1      35.020  22.214  24.100  1.00  0.00     0.188 C 
BRANCH   2   3
ATOM      3  O   UNL A   1      35.458  23.509  24.512  1.00  0.00    -0.376 OA
BRANCH   3   4
ATOM      4  C   UNL A   1      36.694  23.595  25.202  1.00  0.00     0.202 C 
BRANCH   4   5
ATOM      5  C   UNL A   1      37.507  22.305  25.068  1.00  0.00     0.261 C 
BRANCH   5   6
ATOM      6  O   UNL A   1      38.301  22.081  26.245  1.00  0.00    -0.460 OA
BRANCH   6   7
ATOM      7  C   UNL A   1      39.588  22.427  26.497  1.00  0.00     0.338 C 
ATOM      8  O   UNL A   1      40.446  21.557  26.346  1.00  0.00    -0.246 OA
BRANCH   7   9
ATOM      9  C   UNL A   1      40.052  23.799  26.896  1.00  0.00     0.060 A 
ATOM     10  C   UNL A   1      39.863  24.979  26.175  1.00  0.00     0.016 A 
ATOM     11  C   UNL A   1      40.705  23.898  28.141  1.00  0.00     0.016 A 
ATOM     12  C   UNL A   1      40.373  26.194  26.621  1.00  0.00     0.010 A 
ATOM     13  C   UNL A   1      41.204  25.120  28.609  1.00  0.00     0.010 A 
ATOM     14  C   UNL A   1      41.074  26.266  27.821  1.00  0.00    -0.014 A 
BRANCH  14  15
ATOM     15  C   UNL A   1      41.811  27.510  28.114  1.00  0.00     0.031 A 
ATOM     16  C   UNL A   1      41.051  28.640  28.750  1.00  0.00     0.074 A 
ATOM     17  C   UNL A   1      43.147  27.554  27.971  1.00  0.00     0.049 A 
ATOM     18  N   UNL A   1      41.479  29.805  29.150  1.00  0.00    -0.248 NA
ATOM     19  C   UNL A   1      39.613  28.413  28.989  1.00  0.00     0.031 C 
ATOM     20  C   UNL A   1      43.976  26.460  27.460  1.00  0.00     0.029 A 
ATOM     21  N   UNL A   1      44.045  28.543  28.273  1.00  0.00    -0.354 N 
ATOM     22  C   UNL A   1      40.371  30.446  29.692  1.00  0.00     0.074 A 
ATOM     23  C   UNL A   1      39.244  29.553  29.548  1.00  0.00     0.031 C 
ATOM     24  C   UNL A   1      45.267  26.837  27.496  1.00  0.00     0.029 A 
ATOM     25  C   UNL A   1      45.350  28.207  27.994  1.00  0.00     0.049 A 
ATOM     26  H   UNL A   1      43.783  29.412  28.654  1.00  0.00     0.167 HD
ATOM     27  C   UNL A   1      40.305  31.669  30.266  1.00  0.00     0.037 A 
ATOM     28  C   UNL A   1      46.473  28.939  28.112  1.00  0.00     0.037 A 
ATOM     29  C   UNL A   1      41.433  32.551  30.375  1.00  0.00     0.049 A 
ATOM     30  C   UNL A   1      46.357  30.336  28.666  1.00  0.00     0.074 A 
ATOM     31  C   UNL A   1      41.476  33.854  30.832  1.00  0.00     0.029 A 
ATOM     32  N   UNL A   1      42.732  32.205  30.019  1.00  0.00    -0.354 N 
ATOM     33  N   UNL A   1      45.289  30.961  29.108  1.00  0.00    -0.248 NA
ATOM     34  C   UNL A   1      47.589  31.131  28.734  1.00  0.00     0.031 C 
ATOM     35  C   UNL A   1      42.797  34.306  30.727  1.00  0.00     0.029 A 
ATOM     36  C   UNL A   1      43.583  33.271  30.242  1.00  0.00     0.049 A 
ATOM     37  H   UNL A   1      43.004  31.329  29.661  1.00  0.00     0.167 HD
ATOM     38  C   UNL A   1      45.721  32.220  29.509  1.00  0.00     0.074 A 
ATOM     39  C   UNL A   1      47.153  32.255  29.286  1.00  0.00     0.031 C 
ATOM     40  C   UNL A   1      45.005  33.260  30.004  1.00  0.00     0.037 A 
BRANCH  27  41
ATOM     41  C   UNL A   1      38.961  32.118  30.762  1.00  0.00     0.058 A 
ATOM     42  C   UNL A   1      38.002  32.666  29.896  1.00  0.00     0.135 A 
ATOM     43  C   UNL A   1      38.642  32.039  32.127  1.00  0.00     0.135 A 
ATOM     44  F   UNL A   1      38.270  32.797  28.586  1.00  0.00    -0.206 F 
ATOM     45  C   UNL A   1      36.783  33.142  30.368  1.00  0.00     0.059 A 
ATOM     46  C   UNL A   1      37.421  32.493  32.619  1.00  0.00     0.059 A 
ATOM     47  F   UNL A   1      39.529  31.538  33.000  1.00  0.00    -0.206 F 
ATOM     48  C   UNL A   1      36.505  33.057  31.734  1.00  0.00     0.060 A 
BRANCH  48  49
ATOM     49  S   UNL A   1      34.929  33.704  32.336  1.00  0.00     0.124 S 
ATOM     50  O   UNL A   1      35.258  35.108  32.562  1.00  0.00    -0.237 OA
ATOM     51  O   UNL A   1      34.032  33.435  31.217  1.00  0.00    -0.237 OA
ATOM     52  O   UNL A   1      34.679  32.918  33.540  1.00  0.00    -0.744 OA
ENDBRANCH  48  49
ENDBRANCH  27  41
BRANCH  28  53
ATOM     53  C   UNL A   1      47.782  28.396  27.653  1.00  0.00     0.058 A 
ATOM     54  C   UNL A   1      48.727  27.881  28.553  1.00  0.00     0.135 A 
ATOM     55  C   UNL A   1      48.124  28.406  26.290  1.00  0.00     0.135 A 
ATOM     56  F   UNL A   1      48.457  27.856  29.867  1.00  0.00    -0.206 F 
ATOM     57  C   UNL A   1      49.969  27.418  28.124  1.00  0.00     0.059 A 
ATOM     58  C   UNL A   1      49.347  27.925  25.834  1.00  0.00     0.059 A 
ATOM     59  F   UNL A   1      47.256  28.879  25.383  1.00  0.00    -0.206 F 
ATOM     60  C   UNL A   1      50.272  27.450  26.761  1.00  0.00     0.060 A 
BRANCH  60  61
ATOM     61  S   UNL A   1      51.879  26.838  26.204  1.00  0.00     0.124 S 
ATOM     62  O   UNL A   1      52.390  27.989  25.467  1.00  0.00    -0.237 OA
ATOM     63  O   UNL A   1      52.553  26.537  27.463  1.00  0.00    -0.237 OA
ATOM     64  O   UNL A   1      51.531  25.674  25.396  1.00  0.00    -0.744 OA
ENDBRANCH  60  61
ENDBRANCH  28  53
BRANCH  40  65
ATOM     65  C   UNL A   1      45.767  34.507  30.343  1.00  0.00     0.058 A 
ATOM     66  C   UNL A   1      46.235  34.744  31.645  1.00  0.00     0.135 A 
ATOM     67  C   UNL A   1      46.067  35.450  29.349  1.00  0.00     0.135 A 
ATOM     68  F   UNL A   1      45.969  33.872  32.629  1.00  0.00    -0.206 F 
ATOM     69  C   UNL A   1      46.955  35.893  31.955  1.00  0.00     0.059 A 
ATOM     70  C   UNL A   1      46.807  36.593  29.632  1.00  0.00     0.059 A 
ATOM     71  F   UNL A   1      45.651  35.258  28.086  1.00  0.00    -0.206 F 
ATOM     72  C   UNL A   1      47.234  36.812  30.942  1.00  0.00     0.060 A 
BRANCH  72  73
ATOM     73  S   UNL A   1      48.190  38.287  31.348  1.00  0.00     0.124 S 
ATOM     74  O   UNL A   1      47.153  39.313  31.362  1.00  0.00    -0.237 OA
ATOM     75  O   UNL A   1      48.762  37.945  32.646  1.00  0.00    -0.237 OA
ATOM     76  O   UNL A   1      49.151  38.378  30.252  1.00  0.00    -0.744 OA
ENDBRANCH  72  73
ENDBRANCH  40  65
ENDBRANCH  14  15
ENDBRANCH   7   9
ENDBRANCH   6   7
ENDBRANCH   5   6
ENDBRANCH   4   5
ENDBRANCH   3   4
ENDBRANCH   2   3
ENDBRANCH   1   2
BRANCH   1  77
ATOM     77  O   UNL A   1      32.895  20.943  24.407  1.00  0.00    -0.377 OA
BRANCH  77  78
ATOM     78  C   UNL A   1      31.598  21.346  24.836  1.00  0.00     0.188 C 
BRANCH  78  79
ATOM     79  C   UNL A   1      31.358  22.868  24.742  1.00  0.00     0.188 C 
BRANCH  79  80
ATOM     80  O   UNL A   1      30.680  23.412  25.873  1.00  0.00    -0.376 OA
BRANCH  80  81
ATOM     81  C   UNL A   1      31.473  24.276  26.690  1.00  0.00     0.202 C 
BRANCH  81  82
ATOM     82  C   UNL A   1      32.708  24.839  25.986  1.00  0.00     0.261 C 
BRANCH  82  83
ATOM     83  O   UNL A   1      33.218  26.045  26.582  1.00  0.00    -0.460 OA
BRANCH  83  84
ATOM     84  C   UNL A   1      33.781  26.981  25.784  1.00  0.00     0.340 C 
ATOM     85  O   UNL A   1      34.443  26.803  24.787  1.00  0.00    -0.246 OA
BRANCH  84  86
ATOM     86  C   UNL A   1      33.360  28.304  26.285  1.00  0.00     0.085 A 
ATOM     87  C   UNL A   1      34.306  29.017  27.045  1.00  0.00     0.018 A 
ATOM     88  C   UNL A   1      32.144  28.898  25.916  1.00  0.00     0.077 A 
ATOM     89  C   UNL A   1      34.063  30.341  27.410  1.00  0.00     0.001 A 
ATOM     90  C   UNL A   1      31.904  30.214  26.347  1.00  0.00     0.029 A 
ATOM     91  C   UNL A   1      32.854  30.937  27.072  1.00  0.00     0.002 A 
BRANCH  88  92
ATOM     92  N   UNL A   1      31.274  28.461  24.914  1.00  0.00    -0.255 NA
ATOM     93  C   UNL A   1      30.384  27.531  25.007  1.00  0.00     0.127 C 
BRANCH  93  94
ATOM     94  C   UNL A   1      29.909  26.832  23.757  1.00  0.00     0.076 A 
ATOM     95  C   UNL A   1      28.587  26.560  23.776  1.00  0.00     0.209 A 
ATOM     96  C   UNL A   1      30.151  27.656  22.517  1.00  0.00     0.201 A 
ATOM     97  O   UNL A   1      27.604  27.551  23.565  1.00  0.00    -0.463 OA
ATOM     98  C   UNL A   1      29.310  28.871  22.467  1.00  0.00     0.065 A 
ATOM     99  O   UNL A   1      30.966  27.356  21.659  1.00  0.00    -0.288 OA
ATOM    100  C   UNL A   1      28.055  28.763  23.076  1.00  0.00     0.137 A 
ATOM    101  C   UNL A   1      29.824  30.109  22.085  1.00  0.00     0.016 A 
ATOM    102  C   UNL A   1      27.282  29.897  23.288  1.00  0.00     0.048 A 
ATOM    103  C   UNL A   1      29.063  31.253  22.338  1.00  0.00     0.001 A 
ATOM    104  C   UNL A   1      27.797  31.147  22.934  1.00  0.00     0.004 A 
ENDBRANCH  93  94
ENDBRANCH  88  92
ENDBRANCH  84  86
ENDBRANCH  83  84
ENDBRANCH  82  83
ENDBRANCH  81  82
ENDBRANCH  80  81
ENDBRANCH  79  80
ENDBRANCH  78  79
ENDBRANCH  77  78
ENDBRANCH   1  77
TORSDOF 25
ENDMDL
