MODEL 1
REMARK VINA RESULT:      -9.6      0.000      0.000
REMARK SMILES O=C(OCCOCCOCCOCCOC(=O)c1ccc(-c2c3nc(c(-c4c(F)cc(S(=O)(=O)[O-])cc4F)c4ccc([nH]4)c(-c4c(F)cc(S(=O)(=O)[O-])cc4F)c4nc(c(-c5c(F)cc(S(=O)(=O)[O-])cc5F)c5ccc2[nH]5)C=C4)C=C3)cc1)C1=Cc2cc(OC(F)(F)F)ccc2O[C@@H]1C(F)(F)F
REMARK SMILES IDX 10 1 9 2 8 3 7 4 6 5 5 6 4 7 3 8 2 9 1 10 84 11 85 12 98 13
REMARK SMILES IDX 86 14 97 15 87 16 96 17 88 18 95 19 94 20 99 21 100 22
REMARK SMILES IDX 101 23 102 24 89 25 90 26 91 27 92 28 93 29 11 30 12 31
REMARK SMILES IDX 13 32 14 33 15 34 16 35 17 36 18 37 19 38 83 39 20 40 82 41
REMARK SMILES IDX 21 42 22 43 23 44 76 45 24 46 81 47 75 48 77 49 25 50 80 51
REMARK SMILES IDX 74 52 73 53 26 55 60 56 39 57 59 58 40 59 43 60 58 61 78 62
REMARK SMILES IDX 41 63 42 64 57 66 79 67 44 68 27 69 28 70 37 71 29 72 30 73
REMARK SMILES IDX 36 74 38 75 31 76 32 77 33 78 34 79 35 80 61 81 62 82 71 83
REMARK SMILES IDX 63 84 64 85 70 86 72 87 65 88 66 89 67 90 68 91 69 92 45 93
REMARK SMILES IDX 46 94 55 95 47 96 48 97 54 98 56 99 49 100 50 101 51 102
REMARK SMILES IDX 52 103 53 104
REMARK H PARENT 77 54 43 65
REMARK Flexibility Score: inf
ROOT
ATOM      1  C   UNL A   1      42.255  19.554  26.000  1.00  0.00     0.188 C 
ENDROOT
BRANCH   1   2
ATOM      2  O   UNL A   1      42.525  20.798  26.600  1.00  0.00    -0.377 OA
BRANCH   2   3
ATOM      3  C   UNL A   1      41.950  20.903  27.882  1.00  0.00     0.188 C 
BRANCH   3   4
ATOM      4  C   UNL A   1      40.974  22.076  28.066  1.00  0.00     0.188 C 
BRANCH   4   5
ATOM      5  O   UNL A   1      40.081  22.595  27.017  1.00  0.00    -0.376 OA
BRANCH   5   6
ATOM      6  C   UNL A   1      39.089  21.858  25.903  1.00  0.00     0.202 C 
BRANCH   6   7
ATOM      7  C   UNL A   1      37.245  22.659  25.049  1.00  0.00     0.261 C 
BRANCH   7   8
ATOM      8  O   UNL A   1      36.211  21.885  24.257  1.00  0.00    -0.460 OA
BRANCH   8   9
ATOM      9  C   UNL A   1      35.324  22.688  23.662  1.00  0.00     0.338 C 
ATOM     10  O   UNL A   1      35.485  23.411  22.712  1.00  0.00    -0.246 OA
BRANCH   9  11
ATOM     11  C   UNL A   1      34.373  22.755  24.761  1.00  0.00     0.087 C 
ATOM     12  C   UNL A   1      34.248  24.095  25.354  1.00  0.00     0.027 C 
ATOM     13  C   UNL A   1      32.987  21.872  23.760  1.00  0.00     0.316 C 
ATOM     14  C   UNL A   1      32.874  25.218  25.048  1.00  0.00     0.021 A 
ATOM     15  O   UNL A   1      31.546  23.105  23.311  1.00  0.00    -0.475 OA
ATOM     16  C   UNL A   1      32.907  26.478  25.575  1.00  0.00     0.058 A 
ATOM     17  C   UNL A   1      31.579  24.815  23.986  1.00  0.00     0.128 A 
ATOM     18  C   UNL A   1      31.848  27.342  25.214  1.00  0.00     0.130 A 
ATOM     19  C   UNL A   1      30.580  25.704  23.680  1.00  0.00     0.051 A 
ATOM     20  C   UNL A   1      30.746  26.968  24.330  1.00  0.00     0.050 A 
BRANCH  13  21
ATOM     21  C   UNL A   1      33.028  20.506  24.705  1.00  0.00     0.430 C 
ATOM     22  F   UNL A   1      33.798  19.479  24.303  1.00  0.00    -0.167 F 
ATOM     23  F   UNL A   1      33.581  20.881  25.902  1.00  0.00    -0.167 F 
ATOM     24  F   UNL A   1      31.816  20.004  25.049  1.00  0.00    -0.167 F 
ENDBRANCH  13  21
BRANCH  18  25
ATOM     25  O   UNL A   1      32.025  28.572  25.808  1.00  0.00    -0.406 OA
BRANCH  25  26
ATOM     26  C   UNL A   1      31.828  28.731  27.200  1.00  0.00     0.573 C 
ATOM     27  F   UNL A   1      30.781  28.004  27.629  1.00  0.00    -0.132 F 
ATOM     28  F   UNL A   1      32.941  28.387  27.877  1.00  0.00    -0.132 F 
ATOM     29  F   UNL A   1      31.571  30.037  27.441  1.00  0.00    -0.132 F 
ENDBRANCH  25  26
ENDBRANCH  18  25
ENDBRANCH   9  11
ENDBRANCH   8   9
ENDBRANCH   7   8
ENDBRANCH   6   7
ENDBRANCH   5   6
ENDBRANCH   4   5
ENDBRANCH   3   4
ENDBRANCH   2   3
ENDBRANCH   1   2
BRANCH   1  30
ATOM     30  C   UNL A   1      43.410  18.909  25.227  1.00  0.00     0.188 C 
BRANCH  30  31
ATOM     31  O   UNL A   1      44.325  19.655  24.441  1.00  0.00    -0.376 OA
BRANCH  31  32
ATOM     32  C   UNL A   1      45.613  19.992  24.922  1.00  0.00     0.202 C 
BRANCH  32  33
ATOM     33  C   UNL A   1      46.166  21.424  24.847  1.00  0.00     0.261 C 
BRANCH  33  34
ATOM     34  O   UNL A   1      45.615  22.369  25.769  1.00  0.00    -0.460 OA
BRANCH  34  35
ATOM     35  C   UNL A   1      45.579  23.650  25.343  1.00  0.00     0.338 C 
ATOM     36  O   UNL A   1      45.853  24.061  24.228  1.00  0.00    -0.246 OA
BRANCH  35  37
ATOM     37  C   UNL A   1      44.967  24.492  26.396  1.00  0.00     0.060 A 
ATOM     38  C   UNL A   1      45.224  25.874  26.394  1.00  0.00     0.016 A 
ATOM     39  C   UNL A   1      44.166  23.925  27.387  1.00  0.00     0.016 A 
ATOM     40  C   UNL A   1      44.707  26.691  27.397  1.00  0.00     0.010 A 
ATOM     41  C   UNL A   1      43.691  24.733  28.419  1.00  0.00     0.010 A 
ATOM     42  C   UNL A   1      43.998  26.107  28.448  1.00  0.00    -0.014 A 
BRANCH  42  43
ATOM     43  C   UNL A   1      43.807  26.847  29.716  1.00  0.00     0.031 A 
ATOM     44  C   UNL A   1      42.583  27.710  29.831  1.00  0.00     0.074 A 
ATOM     45  C   UNL A   1      44.713  26.801  30.704  1.00  0.00     0.049 A 
ATOM     46  N   UNL A   1      42.284  28.612  30.725  1.00  0.00    -0.248 NA
ATOM     47  C   UNL A   1      41.574  27.546  28.771  1.00  0.00     0.031 C 
ATOM     48  C   UNL A   1      45.904  25.957  30.719  1.00  0.00     0.029 A 
ATOM     49  N   UNL A   1      44.787  27.523  31.869  1.00  0.00    -0.354 N 
ATOM     50  C   UNL A   1      41.070  29.154  30.314  1.00  0.00     0.074 A 
ATOM     51  C   UNL A   1      40.704  28.493  29.082  1.00  0.00     0.031 C 
ATOM     52  C   UNL A   1      46.622  26.246  31.818  1.00  0.00     0.029 A 
ATOM     53  C   UNL A   1      45.964  27.329  32.550  1.00  0.00     0.049 A 
ATOM     54  H   UNL A   1      44.070  28.118  32.184  1.00  0.00     0.167 HD
ATOM     55  C   UNL A   1      40.339  30.124  30.911  1.00  0.00     0.037 A 
ATOM     56  C   UNL A   1      46.476  27.994  33.607  1.00  0.00     0.037 A 
ATOM     57  C   UNL A   1      40.737  30.780  32.128  1.00  0.00     0.049 A 
ATOM     58  C   UNL A   1      45.685  29.117  34.224  1.00  0.00     0.074 A 
ATOM     59  C   UNL A   1      40.062  31.753  32.841  1.00  0.00     0.029 A 
ATOM     60  N   UNL A   1      41.931  30.547  32.799  1.00  0.00    -0.354 N 
ATOM     61  N   UNL A   1      44.529  29.614  33.851  1.00  0.00    -0.248 NA
ATOM     62  C   UNL A   1      46.262  29.769  35.408  1.00  0.00     0.031 C 
ATOM     63  C   UNL A   1      40.885  32.169  33.892  1.00  0.00     0.029 A 
ATOM     64  C   UNL A   1      42.030  31.388  33.895  1.00  0.00     0.049 A 
ATOM     65  H   UNL A   1      42.608  29.883  32.534  1.00  0.00     0.167 HD
ATOM     66  C   UNL A   1      44.223  30.611  34.772  1.00  0.00     0.074 A 
ATOM     67  C   UNL A   1      45.319  30.650  35.718  1.00  0.00     0.031 C 
ATOM     68  C   UNL A   1      43.127  31.410  34.835  1.00  0.00     0.037 A 
BRANCH  55  69
ATOM     69  C   UNL A   1      39.083  30.575  30.212  1.00  0.00     0.058 A 
ATOM     70  C   UNL A   1      38.970  31.835  29.602  1.00  0.00     0.135 A 
ATOM     71  C   UNL A   1      37.959  29.732  30.172  1.00  0.00     0.135 A 
ATOM     72  F   UNL A   1      40.004  32.692  29.618  1.00  0.00    -0.206 F 
ATOM     73  C   UNL A   1      37.775  32.266  29.033  1.00  0.00     0.059 A 
ATOM     74  C   UNL A   1      36.768  30.123  29.571  1.00  0.00     0.059 A 
ATOM     75  F   UNL A   1      38.006  28.515  30.737  1.00  0.00    -0.206 F 
ATOM     76  C   UNL A   1      36.677  31.403  29.027  1.00  0.00     0.060 A 
BRANCH  76  77
ATOM     77  S   UNL A   1      35.124  31.988  28.318  1.00  0.00     0.124 S 
ATOM     78  O   UNL A   1      34.334  32.240  29.519  1.00  0.00    -0.237 OA
ATOM     79  O   UNL A   1      35.548  33.172  27.579  1.00  0.00    -0.237 OA
ATOM     80  O   UNL A   1      34.678  30.865  27.499  1.00  0.00    -0.744 OA
ENDBRANCH  76  77
ENDBRANCH  55  69
BRANCH  56  81
ATOM     81  C   UNL A   1      47.822  27.617  34.114  1.00  0.00     0.058 A 
ATOM     82  C   UNL A   1      48.978  28.265  33.659  1.00  0.00     0.135 A 
ATOM     83  C   UNL A   1      47.968  26.648  35.121  1.00  0.00     0.135 A 
ATOM     84  F   UNL A   1      48.893  29.187  32.688  1.00  0.00    -0.206 F 
ATOM     85  C   UNL A   1      50.230  27.981  34.196  1.00  0.00     0.059 A 
ATOM     86  C   UNL A   1      49.203  26.367  35.693  1.00  0.00     0.059 A 
ATOM     87  F   UNL A   1      46.890  26.005  35.597  1.00  0.00    -0.206 F 
ATOM     88  C   UNL A   1      50.329  27.043  35.226  1.00  0.00     0.060 A 
BRANCH  88  89
ATOM     89  S   UNL A   1      51.940  26.774  35.995  1.00  0.00     0.124 S 
ATOM     90  O   UNL A   1      52.486  25.701  35.173  1.00  0.00    -0.237 OA
ATOM     91  O   UNL A   1      52.570  28.082  35.841  1.00  0.00    -0.237 OA
ATOM     92  O   UNL A   1      51.601  26.409  37.368  1.00  0.00    -0.744 OA
ENDBRANCH  88  89
ENDBRANCH  56  81
BRANCH  68  93
ATOM     93  C   UNL A   1      43.008  32.360  35.999  1.00  0.00     0.058 A 
ATOM     94  C   UNL A   1      42.475  31.970  37.236  1.00  0.00     0.135 A 
ATOM     95  C   UNL A   1      43.538  33.658  35.896  1.00  0.00     0.135 A 
ATOM     96  F   UNL A   1      41.947  30.745  37.391  1.00  0.00    -0.206 F 
ATOM     97  C   UNL A   1      42.465  32.835  38.328  1.00  0.00     0.059 A 
ATOM     98  C   UNL A   1      43.572  34.525  36.982  1.00  0.00     0.059 A 
ATOM     99  F   UNL A   1      44.068  34.082  34.737  1.00  0.00    -0.206 F 
ATOM    100  C   UNL A   1      43.028  34.106  38.194  1.00  0.00     0.060 A 
BRANCH 100 101
ATOM    101  S   UNL A   1      43.073  35.190  39.637  1.00  0.00     0.124 S 
ATOM    102  O   UNL A   1      43.775  34.358  40.610  1.00  0.00    -0.237 OA
ATOM    103  O   UNL A   1      43.814  36.343  39.136  1.00  0.00    -0.237 OA
ATOM    104  O   UNL A   1      41.663  35.435  39.925  1.00  0.00    -0.744 OA
ENDBRANCH 100 101
ENDBRANCH  68  93
ENDBRANCH  42  43
ENDBRANCH  35  37
ENDBRANCH  34  35
ENDBRANCH  33  34
ENDBRANCH  32  33
ENDBRANCH  31  32
ENDBRANCH  30  31
ENDBRANCH   1  30
TORSDOF 26
ENDMDL
MODEL 2
REMARK VINA RESULT:      -9.3      5.346      8.980
REMARK SMILES O=C(OCCOCCOCCOCCOC(=O)c1ccc(-c2c3nc(c(-c4c(F)cc(S(=O)(=O)[O-])cc4F)c4ccc([nH]4)c(-c4c(F)cc(S(=O)(=O)[O-])cc4F)c4nc(c(-c5c(F)cc(S(=O)(=O)[O-])cc5F)c5ccc2[nH]5)C=C4)C=C3)cc1)C1=Cc2cc(OC(F)(F)F)ccc2O[C@@H]1C(F)(F)F
REMARK SMILES IDX 10 1 9 2 8 3 7 4 6 5 5 6 4 7 3 8 2 9 1 10 84 11 85 12 98 13
REMARK SMILES IDX 86 14 97 15 87 16 96 17 88 18 95 19 94 20 99 21 100 22
REMARK SMILES IDX 101 23 102 24 89 25 90 26 91 27 92 28 93 29 11 30 12 31
REMARK SMILES IDX 13 32 14 33 15 34 16 35 17 36 18 37 19 38 83 39 20 40 82 41
REMARK SMILES IDX 21 42 22 43 23 44 76 45 24 46 81 47 75 48 77 49 25 50 80 51
REMARK SMILES IDX 74 52 73 53 26 55 60 56 39 57 59 58 40 59 43 60 58 61 78 62
REMARK SMILES IDX 41 63 42 64 57 66 79 67 44 68 27 69 28 70 37 71 29 72 30 73
REMARK SMILES IDX 36 74 38 75 31 76 32 77 33 78 34 79 35 80 61 81 62 82 71 83
REMARK SMILES IDX 63 84 64 85 70 86 72 87 65 88 66 89 67 90 68 91 69 92 45 93
REMARK SMILES IDX 46 94 55 95 47 96 48 97 54 98 56 99 49 100 50 101 51 102
REMARK SMILES IDX 52 103 53 104
REMARK H PARENT 77 54 43 65
REMARK Flexibility Score: inf
ROOT
ATOM      1  C   UNL A   1      42.770  25.762  27.455  1.00  0.00     0.188 C 
ENDROOT
BRANCH   1   2
ATOM      2  O   UNL A   1      42.001  24.603  27.240  1.00  0.00    -0.377 OA
BRANCH   2   3
ATOM      3  C   UNL A   1      40.833  24.873  26.500  1.00  0.00     0.188 C 
BRANCH   3   4
ATOM      4  C   UNL A   1      39.543  24.259  27.067  1.00  0.00     0.188 C 
BRANCH   4   5
ATOM      5  O   UNL A   1      39.185  22.834  26.979  1.00  0.00    -0.376 OA
BRANCH   5   6
ATOM      6  C   UNL A   1      38.681  21.865  25.724  1.00  0.00     0.202 C 
BRANCH   6   7
ATOM      7  C   UNL A   1      36.655  21.138  25.354  1.00  0.00     0.261 C 
BRANCH   7   8
ATOM      8  O   UNL A   1      35.389  21.971  25.342  1.00  0.00    -0.460 OA
BRANCH   8   9
ATOM      9  C   UNL A   1      35.387  22.873  24.356  1.00  0.00     0.338 C 
ATOM     10  O   UNL A   1      36.329  23.376  23.797  1.00  0.00    -0.246 OA
BRANCH   9  11
ATOM     11  C   UNL A   1      34.026  23.349  24.545  1.00  0.00     0.087 C 
ATOM     12  C   UNL A   1      33.935  24.575  25.353  1.00  0.00     0.027 C 
ATOM     13  C   UNL A   1      33.612  23.245  22.669  1.00  0.00     0.316 C 
ATOM     14  C   UNL A   1      33.647  26.218  24.676  1.00  0.00     0.021 A 
ATOM     15  O   UNL A   1      33.418  25.021  21.890  1.00  0.00    -0.475 OA
ATOM     16  C   UNL A   1      33.676  27.302  25.508  1.00  0.00     0.058 A 
ATOM     17  C   UNL A   1      33.481  26.498  22.984  1.00  0.00     0.128 A 
ATOM     18  C   UNL A   1      33.544  28.570  24.900  1.00  0.00     0.130 A 
ATOM     19  C   UNL A   1      33.354  27.759  22.460  1.00  0.00     0.051 A 
ATOM     20  C   UNL A   1      33.380  28.780  23.462  1.00  0.00     0.050 A 
BRANCH  13  21
ATOM     21  C   UNL A   1      32.536  21.995  22.868  1.00  0.00     0.430 C 
ATOM     22  F   UNL A   1      31.329  22.273  23.392  1.00  0.00    -0.167 F 
ATOM     23  F   UNL A   1      32.249  21.528  21.612  1.00  0.00    -0.167 F 
ATOM     24  F   UNL A   1      33.026  20.908  23.515  1.00  0.00    -0.167 F 
ENDBRANCH  13  21
BRANCH  18  25
ATOM     25  O   UNL A   1      33.606  29.558  25.858  1.00  0.00    -0.406 OA
BRANCH  25  26
ATOM     26  C   UNL A   1      32.420  30.101  26.405  1.00  0.00     0.573 C 
ATOM     27  F   UNL A   1      31.598  30.546  25.438  1.00  0.00    -0.132 F 
ATOM     28  F   UNL A   1      31.789  29.186  27.167  1.00  0.00    -0.132 F 
ATOM     29  F   UNL A   1      32.762  31.146  27.193  1.00  0.00    -0.132 F 
ENDBRANCH  25  26
ENDBRANCH  18  25
ENDBRANCH   9  11
ENDBRANCH   8   9
ENDBRANCH   7   8
ENDBRANCH   6   7
ENDBRANCH   5   6
ENDBRANCH   4   5
ENDBRANCH   3   4
ENDBRANCH   2   3
ENDBRANCH   1   2
BRANCH   1  30
ATOM     30  C   UNL A   1      42.031  27.099  27.331  1.00  0.00     0.188 C 
BRANCH  30  31
ATOM     31  O   UNL A   1      41.605  27.853  28.454  1.00  0.00    -0.376 OA
BRANCH  31  32
ATOM     32  C   UNL A   1      40.309  27.699  29.002  1.00  0.00     0.202 C 
BRANCH  32  33
ATOM     33  C   UNL A   1      39.076  28.383  28.392  1.00  0.00     0.261 C 
BRANCH  33  34
ATOM     34  O   UNL A   1      38.916  29.777  28.674  1.00  0.00    -0.460 OA
BRANCH  34  35
ATOM     35  C   UNL A   1      37.861  30.100  29.453  1.00  0.00     0.338 C 
ATOM     36  O   UNL A   1      36.737  29.631  29.398  1.00  0.00    -0.246 OA
BRANCH  35  37
ATOM     37  C   UNL A   1      38.319  30.999  30.536  1.00  0.00     0.060 A 
ATOM     38  C   UNL A   1      37.744  32.277  30.646  1.00  0.00     0.016 A 
ATOM     39  C   UNL A   1      39.318  30.597  31.423  1.00  0.00     0.016 A 
ATOM     40  C   UNL A   1      38.183  33.169  31.621  1.00  0.00     0.010 A 
ATOM     41  C   UNL A   1      39.794  31.507  32.366  1.00  0.00     0.010 A 
ATOM     42  C   UNL A   1      39.257  32.807  32.436  1.00  0.00    -0.014 A 
BRANCH  42  43
ATOM     43  C   UNL A   1      40.016  33.845  33.169  1.00  0.00     0.031 A 
ATOM     44  C   UNL A   1      41.167  34.492  32.452  1.00  0.00     0.074 A 
ATOM     45  C   UNL A   1      39.732  34.161  34.442  1.00  0.00     0.049 A 
ATOM     46  N   UNL A   1      42.111  35.260  32.921  1.00  0.00    -0.248 NA
ATOM     47  C   UNL A   1      41.275  34.205  31.012  1.00  0.00     0.031 C 
ATOM     48  C   UNL A   1      38.609  33.636  35.212  1.00  0.00     0.029 A 
ATOM     49  N   UNL A   1      40.405  34.970  35.322  1.00  0.00    -0.354 N 
ATOM     50  C   UNL A   1      42.951  35.516  31.842  1.00  0.00     0.074 A 
ATOM     51  C   UNL A   1      42.413  34.804  30.705  1.00  0.00     0.031 C 
ATOM     52  C   UNL A   1      38.697  34.099  36.471  1.00  0.00     0.029 A 
ATOM     53  C   UNL A   1      39.910  34.906  36.601  1.00  0.00     0.049 A 
ATOM     54  H   UNL A   1      41.165  35.539  35.063  1.00  0.00     0.167 HD
ATOM     55  C   UNL A   1      44.076  36.269  31.813  1.00  0.00     0.037 A 
ATOM     56  C   UNL A   1      40.415  35.393  37.754  1.00  0.00     0.037 A 
ATOM     57  C   UNL A   1      44.601  36.952  32.966  1.00  0.00     0.049 A 
ATOM     58  C   UNL A   1      41.702  36.174  37.724  1.00  0.00     0.074 A 
ATOM     59  C   UNL A   1      45.712  37.769  33.048  1.00  0.00     0.029 A 
ATOM     60  N   UNL A   1      44.063  36.875  34.245  1.00  0.00    -0.354 N 
ATOM     61  N   UNL A   1      42.483  36.435  36.702  1.00  0.00    -0.248 NA
ATOM     62  C   UNL A   1      42.177  36.731  38.997  1.00  0.00     0.031 C 
ATOM     63  C   UNL A   1      45.896  38.115  34.390  1.00  0.00     0.029 A 
ATOM     64  C   UNL A   1      44.845  37.597  35.131  1.00  0.00     0.049 A 
ATOM     65  H   UNL A   1      43.247  36.379  34.486  1.00  0.00     0.167 HD
ATOM     66  C   UNL A   1      43.522  37.215  37.201  1.00  0.00     0.074 A 
ATOM     67  C   UNL A   1      43.272  37.380  38.618  1.00  0.00     0.031 C 
ATOM     68  C   UNL A   1      44.578  37.758  36.541  1.00  0.00     0.037 A 
BRANCH  55  69
ATOM     69  C   UNL A   1      44.840  36.325  30.516  1.00  0.00     0.058 A 
ATOM     70  C   UNL A   1      45.849  35.403  30.194  1.00  0.00     0.135 A 
ATOM     71  C   UNL A   1      44.569  37.342  29.584  1.00  0.00     0.135 A 
ATOM     72  F   UNL A   1      46.164  34.416  31.049  1.00  0.00    -0.206 F 
ATOM     73  C   UNL A   1      46.600  35.520  29.028  1.00  0.00     0.059 A 
ATOM     74  C   UNL A   1      45.276  37.453  28.392  1.00  0.00     0.059 A 
ATOM     75  F   UNL A   1      43.616  38.254  29.835  1.00  0.00    -0.206 F 
ATOM     76  C   UNL A   1      46.308  36.553  28.135  1.00  0.00     0.060 A 
BRANCH  76  77
ATOM     77  S   UNL A   1      47.313  36.714  26.645  1.00  0.00     0.124 S 
ATOM     78  O   UNL A   1      46.436  36.124  25.639  1.00  0.00    -0.237 OA
ATOM     79  O   UNL A   1      47.500  38.159  26.553  1.00  0.00    -0.237 OA
ATOM     80  O   UNL A   1      48.515  35.947  26.958  1.00  0.00    -0.744 OA
ENDBRANCH  76  77
ENDBRANCH  55  69
BRANCH  56  81
ATOM     81  C   UNL A   1      39.700  35.119  39.028  1.00  0.00     0.058 A 
ATOM     82  C   UNL A   1      38.908  36.098  39.643  1.00  0.00     0.135 A 
ATOM     83  C   UNL A   1      39.736  33.843  39.617  1.00  0.00     0.135 A 
ATOM     84  F   UNL A   1      38.851  37.336  39.129  1.00  0.00    -0.206 F 
ATOM     85  C   UNL A   1      38.163  35.820  40.785  1.00  0.00     0.059 A 
ATOM     86  C   UNL A   1      38.980  33.533  40.741  1.00  0.00     0.059 A 
ATOM     87  F   UNL A   1      40.473  32.868  39.061  1.00  0.00    -0.206 F 
ATOM     88  C   UNL A   1      38.192  34.528  41.316  1.00  0.00     0.060 A 
BRANCH  88  89
ATOM     89  S   UNL A   1      37.128  34.151  42.725  1.00  0.00     0.124 S 
ATOM     90  O   UNL A   1      37.714  32.909  43.215  1.00  0.00    -0.237 OA
ATOM     91  O   UNL A   1      37.319  35.326  43.570  1.00  0.00    -0.237 OA
ATOM     92  O   UNL A   1      35.803  34.031  42.123  1.00  0.00    -0.744 OA
ENDBRANCH  88  89
ENDBRANCH  56  81
BRANCH  68  93
ATOM     93  C   UNL A   1      45.521  38.641  37.317  1.00  0.00     0.058 A 
ATOM     94  C   UNL A   1      46.694  38.152  37.908  1.00  0.00     0.135 A 
ATOM     95  C   UNL A   1      45.289  40.027  37.374  1.00  0.00     0.135 A 
ATOM     96  F   UNL A   1      46.964  36.836  37.892  1.00  0.00    -0.206 F 
ATOM     97  C   UNL A   1      47.602  39.003  38.535  1.00  0.00     0.059 A 
ATOM     98  C   UNL A   1      46.198  40.899  37.963  1.00  0.00     0.059 A 
ATOM     99  F   UNL A   1      44.185  40.552  36.818  1.00  0.00    -0.206 F 
ATOM    100  C   UNL A   1      47.351  40.377  38.546  1.00  0.00     0.060 A 
BRANCH 100 101
ATOM    101  S   UNL A   1      48.570  41.475  39.299  1.00  0.00     0.124 S 
ATOM    102  O   UNL A   1      48.115  42.782  38.838  1.00  0.00    -0.237 OA
ATOM    103  O   UNL A   1      48.390  41.206  40.722  1.00  0.00    -0.237 OA
ATOM    104  O   UNL A   1      49.836  41.017  38.735  1.00  0.00    -0.744 OA
ENDBRANCH 100 101
ENDBRANCH  68  93
ENDBRANCH  42  43
ENDBRANCH  35  37
ENDBRANCH  34  35
ENDBRANCH  33  34
ENDBRANCH  32  33
ENDBRANCH  31  32
ENDBRANCH  30  31
ENDBRANCH   1  30
TORSDOF 26
ENDMDL
MODEL 3
REMARK VINA RESULT:      -9.2      5.223      7.551
REMARK SMILES O=C(OCCOCCOCCOCCOC(=O)c1ccc(-c2c3nc(c(-c4c(F)cc(S(=O)(=O)[O-])cc4F)c4ccc([nH]4)c(-c4c(F)cc(S(=O)(=O)[O-])cc4F)c4nc(c(-c5c(F)cc(S(=O)(=O)[O-])cc5F)c5ccc2[nH]5)C=C4)C=C3)cc1)C1=Cc2cc(OC(F)(F)F)ccc2O[C@@H]1C(F)(F)F
REMARK SMILES IDX 10 1 9 2 8 3 7 4 6 5 5 6 4 7 3 8 2 9 1 10 84 11 85 12 98 13
REMARK SMILES IDX 86 14 97 15 87 16 96 17 88 18 95 19 94 20 99 21 100 22
REMARK SMILES IDX 101 23 102 24 89 25 90 26 91 27 92 28 93 29 11 30 12 31
REMARK SMILES IDX 13 32 14 33 15 34 16 35 17 36 18 37 19 38 83 39 20 40 82 41
REMARK SMILES IDX 21 42 22 43 23 44 76 45 24 46 81 47 75 48 77 49 25 50 80 51
REMARK SMILES IDX 74 52 73 53 26 55 60 56 39 57 59 58 40 59 43 60 58 61 78 62
REMARK SMILES IDX 41 63 42 64 57 66 79 67 44 68 27 69 28 70 37 71 29 72 30 73
REMARK SMILES IDX 36 74 38 75 31 76 32 77 33 78 34 79 35 80 61 81 62 82 71 83
REMARK SMILES IDX 63 84 64 85 70 86 72 87 65 88 66 89 67 90 68 91 69 92 45 93
REMARK SMILES IDX 46 94 55 95 47 96 48 97 54 98 56 99 49 100 50 101 51 102
REMARK SMILES IDX 52 103 53 104
REMARK H PARENT 77 54 43 65
REMARK Flexibility Score: inf
ROOT
ATOM      1  C   UNL A   1      52.836  27.681  26.794  1.00  0.00     0.188 C 
ENDROOT
BRANCH   1   2
ATOM      2  O   UNL A   1      51.840  28.542  27.294  1.00  0.00    -0.377 OA
BRANCH   2   3
ATOM      3  C   UNL A   1      51.537  28.272  28.643  1.00  0.00     0.188 C 
BRANCH   3   4
ATOM      4  C   UNL A   1      51.809  26.830  29.099  1.00  0.00     0.188 C 
BRANCH   4   5
ATOM      5  O   UNL A   1      50.771  25.804  29.297  1.00  0.00    -0.376 OA
BRANCH   5   6
ATOM      6  C   UNL A   1      49.608  25.158  28.298  1.00  0.00     0.202 C 
BRANCH   6   7
ATOM      7  C   UNL A   1      47.476  25.629  28.285  1.00  0.00     0.261 C 
BRANCH   7   8
ATOM      8  O   UNL A   1      46.335  24.631  28.264  1.00  0.00    -0.460 OA
BRANCH   8   9
ATOM      9  C   UNL A   1      46.369  23.847  27.182  1.00  0.00     0.338 C 
ATOM     10  O   UNL A   1      47.122  23.897  26.242  1.00  0.00    -0.246 OA
BRANCH   9  11
ATOM     11  C   UNL A   1      45.018  23.321  27.295  1.00  0.00     0.087 C 
ATOM     12  C   UNL A   1      44.151  24.104  28.187  1.00  0.00     0.027 C 
ATOM     13  C   UNL A   1      44.791  23.195  25.388  1.00  0.00     0.316 C 
ATOM     14  C   UNL A   1      42.884  25.252  27.623  1.00  0.00     0.021 A 
ATOM     15  O   UNL A   1      43.512  24.516  24.741  1.00  0.00    -0.475 OA
ATOM     16  C   UNL A   1      42.200  26.001  28.539  1.00  0.00     0.058 A 
ATOM     17  C   UNL A   1      42.598  25.555  25.952  1.00  0.00     0.128 A 
ATOM     18  C   UNL A   1      41.292  26.954  28.026  1.00  0.00     0.130 A 
ATOM     19  C   UNL A   1      41.698  26.497  25.522  1.00  0.00     0.051 A 
ATOM     20  C   UNL A   1      41.050  27.175  26.602  1.00  0.00     0.050 A 
BRANCH  13  21
ATOM     21  C   UNL A   1      44.766  21.534  25.394  1.00  0.00     0.430 C 
ATOM     22  F   UNL A   1      43.755  20.917  26.031  1.00  0.00    -0.167 F 
ATOM     23  F   UNL A   1      44.619  21.143  24.089  1.00  0.00    -0.167 F 
ATOM     24  F   UNL A   1      45.923  20.940  25.783  1.00  0.00    -0.167 F 
ENDBRANCH  13  21
BRANCH  18  25
ATOM     25  O   UNL A   1      40.694  27.636  29.063  1.00  0.00    -0.406 OA
BRANCH  25  26
ATOM     26  C   UNL A   1      39.432  27.228  29.555  1.00  0.00     0.573 C 
ATOM     27  F   UNL A   1      39.146  25.969  29.175  1.00  0.00    -0.132 F 
ATOM     28  F   UNL A   1      39.393  27.328  30.898  1.00  0.00    -0.132 F 
ATOM     29  F   UNL A   1      38.493  28.054  29.040  1.00  0.00    -0.132 F 
ENDBRANCH  25  26
ENDBRANCH  18  25
ENDBRANCH   9  11
ENDBRANCH   8   9
ENDBRANCH   7   8
ENDBRANCH   6   7
ENDBRANCH   5   6
ENDBRANCH   4   5
ENDBRANCH   3   4
ENDBRANCH   2   3
ENDBRANCH   1   2
BRANCH   1  30
ATOM     30  C   UNL A   1      53.031  27.682  25.274  1.00  0.00     0.188 C 
BRANCH  30  31
ATOM     31  O   UNL A   1      52.339  26.800  24.406  1.00  0.00    -0.376 OA
BRANCH  31  32
ATOM     32  C   UNL A   1      51.076  27.136  23.861  1.00  0.00     0.202 C 
BRANCH  32  33
ATOM     33  C   UNL A   1      49.758  26.755  24.553  1.00  0.00     0.261 C 
BRANCH  33  34
ATOM     34  O   UNL A   1      48.719  27.739  24.531  1.00  0.00    -0.460 OA
BRANCH  34  35
ATOM     35  C   UNL A   1      47.458  27.261  24.602  1.00  0.00     0.338 C 
ATOM     36  O   UNL A   1      47.022  26.258  24.062  1.00  0.00    -0.246 OA
BRANCH  35  37
ATOM     37  C   UNL A   1      46.700  28.045  25.603  1.00  0.00     0.060 A 
ATOM     38  C   UNL A   1      47.403  28.905  26.465  1.00  0.00     0.016 A 
ATOM     39  C   UNL A   1      45.315  27.922  25.706  1.00  0.00     0.016 A 
ATOM     40  C   UNL A   1      46.732  29.621  27.452  1.00  0.00     0.010 A 
ATOM     41  C   UNL A   1      44.649  28.599  26.727  1.00  0.00     0.010 A 
ATOM     42  C   UNL A   1      45.362  29.414  27.627  1.00  0.00    -0.014 A 
BRANCH  42  43
ATOM     43  C   UNL A   1      44.707  29.809  28.893  1.00  0.00     0.031 A 
ATOM     44  C   UNL A   1      44.235  31.230  29.010  1.00  0.00     0.074 A 
ATOM     45  C   UNL A   1      44.588  28.957  29.923  1.00  0.00     0.049 A 
ATOM     46  N   UNL A   1      43.829  31.887  30.062  1.00  0.00    -0.248 NA
ATOM     47  C   UNL A   1      44.250  32.021  27.768  1.00  0.00     0.031 C 
ATOM     48  C   UNL A   1      44.962  27.546  29.898  1.00  0.00     0.029 A 
ATOM     49  N   UNL A   1      44.158  29.178  31.207  1.00  0.00    -0.354 N 
ATOM     50  C   UNL A   1      43.580  33.182  29.618  1.00  0.00     0.074 A 
ATOM     51  C   UNL A   1      43.901  33.218  28.208  1.00  0.00     0.031 C 
ATOM     52  C   UNL A   1      44.791  27.035  31.130  1.00  0.00     0.029 A 
ATOM     53  C   UNL A   1      44.348  28.098  32.033  1.00  0.00     0.049 A 
ATOM     54  H   UNL A   1      43.753  30.024  31.505  1.00  0.00     0.167 HD
ATOM     55  C   UNL A   1      43.135  34.243  30.330  1.00  0.00     0.037 A 
ATOM     56  C   UNL A   1      44.237  27.999  33.374  1.00  0.00     0.037 A 
ATOM     57  C   UNL A   1      42.843  34.185  31.738  1.00  0.00     0.049 A 
ATOM     58  C   UNL A   1      43.805  29.204  34.169  1.00  0.00     0.074 A 
ATOM     59  C   UNL A   1      42.356  35.186  32.557  1.00  0.00     0.029 A 
ATOM     60  N   UNL A   1      43.035  33.067  32.541  1.00  0.00    -0.354 N 
ATOM     61  N   UNL A   1      43.548  30.420  33.747  1.00  0.00    -0.248 NA
ATOM     62  C   UNL A   1      43.643  29.026  35.618  1.00  0.00     0.031 C 
ATOM     63  C   UNL A   1      42.336  34.701  33.868  1.00  0.00     0.029 A 
ATOM     64  C   UNL A   1      42.715  33.368  33.855  1.00  0.00     0.049 A 
ATOM     65  H   UNL A   1      43.353  32.191  32.223  1.00  0.00     0.167 HD
ATOM     66  C   UNL A   1      43.160  31.143  34.871  1.00  0.00     0.074 A 
ATOM     67  C   UNL A   1      43.221  30.228  35.993  1.00  0.00     0.031 C 
ATOM     68  C   UNL A   1      42.774  32.442  34.962  1.00  0.00     0.037 A 
BRANCH  55  69
ATOM     69  C   UNL A   1      43.014  35.561  29.610  1.00  0.00     0.058 A 
ATOM     70  C   UNL A   1      41.915  35.876  28.794  1.00  0.00     0.135 A 
ATOM     71  C   UNL A   1      44.035  36.520  29.723  1.00  0.00     0.135 A 
ATOM     72  F   UNL A   1      40.913  34.996  28.635  1.00  0.00    -0.206 F 
ATOM     73  C   UNL A   1      41.860  37.064  28.071  1.00  0.00     0.059 A 
ATOM     74  C   UNL A   1      43.981  37.733  29.044  1.00  0.00     0.059 A 
ATOM     75  F   UNL A   1      45.112  36.277  30.487  1.00  0.00    -0.206 F 
ATOM     76  C   UNL A   1      42.902  37.985  28.200  1.00  0.00     0.060 A 
BRANCH  76  77
ATOM     77  S   UNL A   1      42.835  39.505  27.230  1.00  0.00     0.124 S 
ATOM     78  O   UNL A   1      42.920  40.520  28.275  1.00  0.00    -0.237 OA
ATOM     79  O   UNL A   1      44.009  39.377  26.373  1.00  0.00    -0.237 OA
ATOM     80  O   UNL A   1      41.549  39.417  26.545  1.00  0.00    -0.744 OA
ENDBRANCH  76  77
ENDBRANCH  55  69
BRANCH  56  81
ATOM     81  C   UNL A   1      44.572  26.710  34.034  1.00  0.00     0.058 A 
ATOM     82  C   UNL A   1      43.581  25.764  34.328  1.00  0.00     0.135 A 
ATOM     83  C   UNL A   1      45.906  26.369  34.316  1.00  0.00     0.135 A 
ATOM     84  F   UNL A   1      42.291  26.048  34.091  1.00  0.00    -0.206 F 
ATOM     85  C   UNL A   1      43.899  24.519  34.861  1.00  0.00     0.059 A 
ATOM     86  C   UNL A   1      46.251  25.121  34.822  1.00  0.00     0.059 A 
ATOM     87  F   UNL A   1      46.893  27.237  34.045  1.00  0.00    -0.206 F 
ATOM     88  C   UNL A   1      45.240  24.200  35.087  1.00  0.00     0.060 A 
BRANCH  88  89
ATOM     89  S   UNL A   1      45.646  22.538  35.664  1.00  0.00     0.124 S 
ATOM     90  O   UNL A   1      44.655  21.730  34.964  1.00  0.00    -0.237 OA
ATOM     91  O   UNL A   1      47.027  22.391  35.211  1.00  0.00    -0.237 OA
ATOM     92  O   UNL A   1      45.477  22.634  37.111  1.00  0.00    -0.744 OA
ENDBRANCH  88  89
ENDBRANCH  56  81
BRANCH  68  93
ATOM     93  C   UNL A   1      42.320  32.955  36.304  1.00  0.00     0.058 A 
ATOM     94  C   UNL A   1      40.990  32.856  36.735  1.00  0.00     0.135 A 
ATOM     95  C   UNL A   1      43.267  33.459  37.214  1.00  0.00     0.135 A 
ATOM     96  F   UNL A   1      40.041  32.389  35.907  1.00  0.00    -0.206 F 
ATOM     97  C   UNL A   1      40.611  33.246  38.018  1.00  0.00     0.059 A 
ATOM     98  C   UNL A   1      42.918  33.821  38.510  1.00  0.00     0.059 A 
ATOM     99  F   UNL A   1      44.557  33.569  36.856  1.00  0.00    -0.206 F 
ATOM    100  C   UNL A   1      41.586  33.715  38.903  1.00  0.00     0.060 A 
BRANCH 100 101
ATOM    101  S   UNL A   1      41.093  34.150  40.584  1.00  0.00     0.124 S 
ATOM    102  O   UNL A   1      42.012  33.342  41.379  1.00  0.00    -0.237 OA
ATOM    103  O   UNL A   1      41.326  35.590  40.613  1.00  0.00    -0.237 OA
ATOM    104  O   UNL A   1      39.691  33.746  40.645  1.00  0.00    -0.744 OA
ENDBRANCH 100 101
ENDBRANCH  68  93
ENDBRANCH  42  43
ENDBRANCH  35  37
ENDBRANCH  34  35
ENDBRANCH  33  34
ENDBRANCH  32  33
ENDBRANCH  31  32
ENDBRANCH  30  31
ENDBRANCH   1  30
TORSDOF 26
ENDMDL
