MODEL 1
REMARK VINA RESULT:     -10.3      0.000      0.000
REMARK SMILES O=C(OCCOCCOCCOCCOC(=O)c1ccc(-c2cccc(O)c2)cc1Cl)c1ccc(-c2c3nc(c(-c4c(F)cc(S(=O)(=O)[O-])cc4F)c4ccc([nH]4)c(-c4c(F)cc(S(=O)(=O)[O-])cc4F)c4nc(c(-c5c(F)cc(S(=O)(=O)[O-])cc5F)c5ccc2[nH]5)C=C4)C=C3)cc1
REMARK SMILES IDX 8 1 7 2 6 3 5 4 4 5 3 6 2 7 1 8 32 9 33 10 97 11 34 12 96 13
REMARK SMILES IDX 35 14 36 15 37 16 90 17 38 18 95 19 89 20 91 21 39 22 94 23
REMARK SMILES IDX 88 24 87 25 40 27 74 28 53 29 73 30 54 31 57 32 72 33 92 34
REMARK SMILES IDX 55 35 56 36 71 38 93 39 58 40 41 41 42 42 51 43 43 44 44 45
REMARK SMILES IDX 50 46 52 47 45 48 46 49 47 50 48 51 49 52 75 53 76 54 85 55
REMARK SMILES IDX 77 56 78 57 84 58 86 59 79 60 80 61 81 62 82 63 83 64 59 65
REMARK SMILES IDX 60 66 69 67 61 68 62 69 68 70 70 71 63 72 64 73 65 74 66 75
REMARK SMILES IDX 67 76 9 77 10 78 11 79 12 80 13 81 14 82 15 83 16 84 17 85
REMARK SMILES IDX 18 86 19 87 30 88 20 89 29 90 31 91 21 92 22 93 23 94 28 95
REMARK SMILES IDX 24 96 26 97 25 98 27 99
REMARK H PARENT 91 26 57 37 27 100
REMARK Flexibility Score: inf
ROOT
ATOM      1  C   UNL A   1      41.162  22.556  27.036  1.00  0.00     0.188 C 
ENDROOT
BRANCH   1   2
ATOM      2  C   UNL A   1      41.907  22.149  25.764  1.00  0.00     0.188 C 
BRANCH   2   3
ATOM      3  O   UNL A   1      43.252  21.755  26.043  1.00  0.00    -0.376 OA
BRANCH   3   4
ATOM      4  C   UNL A   1      44.196  22.809  26.233  1.00  0.00     0.202 C 
BRANCH   4   5
ATOM      5  C   UNL A   1      44.087  23.970  25.246  1.00  0.00     0.261 C 
BRANCH   5   6
ATOM      6  O   UNL A   1      43.779  25.215  25.881  1.00  0.00    -0.460 OA
BRANCH   6   7
ATOM      7  C   UNL A   1      42.573  25.827  25.971  1.00  0.00     0.338 C 
ATOM      8  O   UNL A   1      41.781  25.670  25.041  1.00  0.00    -0.246 OA
BRANCH   7   9
ATOM      9  C   UNL A   1      42.138  26.695  27.113  1.00  0.00     0.060 A 
ATOM     10  C   UNL A   1      42.486  28.036  27.315  1.00  0.00     0.016 A 
ATOM     11  C   UNL A   1      41.235  26.117  28.019  1.00  0.00     0.016 A 
ATOM     12  C   UNL A   1      41.998  28.772  28.385  1.00  0.00     0.010 A 
ATOM     13  C   UNL A   1      40.743  26.840  29.106  1.00  0.00     0.010 A 
ATOM     14  C   UNL A   1      41.155  28.162  29.302  1.00  0.00    -0.014 A 
BRANCH  14  15
ATOM     15  C   UNL A   1      40.934  28.835  30.588  1.00  0.00     0.031 A 
ATOM     16  C   UNL A   1      39.789  29.795  30.651  1.00  0.00     0.074 A 
ATOM     17  C   UNL A   1      41.675  28.524  31.662  1.00  0.00     0.049 A 
ATOM     18  N   UNL A   1      39.478  30.658  31.575  1.00  0.00    -0.248 NA
ATOM     19  C   UNL A   1      38.863  29.776  29.503  1.00  0.00     0.031 C 
ATOM     20  C   UNL A   1      42.697  27.478  31.708  1.00  0.00     0.029 A 
ATOM     21  N   UNL A   1      41.683  29.062  32.919  1.00  0.00    -0.354 N 
ATOM     22  C   UNL A   1      38.361  31.327  31.092  1.00  0.00     0.074 A 
ATOM     23  C   UNL A   1      38.037  30.764  29.804  1.00  0.00     0.031 C 
ATOM     24  C   UNL A   1      43.257  27.471  32.928  1.00  0.00     0.029 A 
ATOM     25  C   UNL A   1      42.686  28.561  33.714  1.00  0.00     0.049 A 
ATOM     26  H   UNL A   1      41.036  29.738  33.224  1.00  0.00     0.167 HD
ATOM     27  C   UNL A   1      37.691  32.345  31.678  1.00  0.00     0.037 A 
ATOM     28  C   UNL A   1      43.127  28.996  34.909  1.00  0.00     0.037 A 
ATOM     29  C   UNL A   1      38.070  32.868  32.961  1.00  0.00     0.049 A 
ATOM     30  C   UNL A   1      42.431  30.185  35.516  1.00  0.00     0.074 A 
ATOM     31  C   UNL A   1      37.531  33.928  33.661  1.00  0.00     0.029 A 
ATOM     32  N   UNL A   1      39.108  32.354  33.733  1.00  0.00    -0.354 N 
ATOM     33  N   UNL A   1      41.425  30.879  35.031  1.00  0.00    -0.248 NA
ATOM     34  C   UNL A   1      42.923  30.661  36.811  1.00  0.00     0.031 C 
ATOM     35  C   UNL A   1      38.278  34.086  34.833  1.00  0.00     0.029 A 
ATOM     36  C   UNL A   1      39.239  33.085  34.897  1.00  0.00     0.049 A 
ATOM     37  H   UNL A   1      39.667  31.583  33.486  1.00  0.00     0.167 HD
ATOM     38  C   UNL A   1      41.146  31.861  35.972  1.00  0.00     0.074 A 
ATOM     39  C   UNL A   1      42.095  31.671  37.055  1.00  0.00     0.031 C 
ATOM     40  C   UNL A   1      40.195  32.830  35.952  1.00  0.00     0.037 A 
BRANCH  27  41
ATOM     41  C   UNL A   1      36.593  32.990  30.877  1.00  0.00     0.058 A 
ATOM     42  C   UNL A   1      36.852  33.838  29.787  1.00  0.00     0.135 A 
ATOM     43  C   UNL A   1      35.255  32.830  31.273  1.00  0.00     0.135 A 
ATOM     44  F   UNL A   1      38.114  34.057  29.385  1.00  0.00    -0.206 F 
ATOM     45  C   UNL A   1      35.832  34.548  29.160  1.00  0.00     0.059 A 
ATOM     46  C   UNL A   1      34.216  33.505  30.640  1.00  0.00     0.059 A 
ATOM     47  F   UNL A   1      34.949  32.041  32.316  1.00  0.00    -0.206 F 
ATOM     48  C   UNL A   1      34.518  34.385  29.603  1.00  0.00     0.060 A 
BRANCH  48  49
ATOM     49  S   UNL A   1      33.214  35.362  28.826  1.00  0.00     0.124 S 
ATOM     50  O   UNL A   1      32.445  35.797  29.989  1.00  0.00    -0.237 OA
ATOM     51  O   UNL A   1      33.969  36.406  28.141  1.00  0.00    -0.237 OA
ATOM     52  O   UNL A   1      32.543  34.403  27.954  1.00  0.00    -0.744 OA
ENDBRANCH  48  49
ENDBRANCH  27  41
BRANCH  28  53
ATOM     53  C   UNL A   1      44.305  28.341  35.539  1.00  0.00     0.058 A 
ATOM     54  C   UNL A   1      45.611  28.783  35.291  1.00  0.00     0.135 A 
ATOM     55  C   UNL A   1      44.137  27.305  36.476  1.00  0.00     0.135 A 
ATOM     56  F   UNL A   1      45.829  29.763  34.400  1.00  0.00    -0.206 F 
ATOM     57  C   UNL A   1      46.706  28.237  35.957  1.00  0.00     0.059 A 
ATOM     58  C   UNL A   1      45.212  26.760  37.172  1.00  0.00     0.059 A 
ATOM     59  F   UNL A   1      42.908  26.848  36.759  1.00  0.00    -0.206 F 
ATOM     60  C   UNL A   1      46.495  27.234  36.906  1.00  0.00     0.060 A 
BRANCH  60  61
ATOM     61  S   UNL A   1      47.912  26.599  37.831  1.00  0.00     0.124 S 
ATOM     62  O   UNL A   1      48.833  26.249  36.756  1.00  0.00    -0.237 OA
ATOM     63  O   UNL A   1      48.286  27.751  38.644  1.00  0.00    -0.237 OA
ATOM     64  O   UNL A   1      47.353  25.473  38.573  1.00  0.00    -0.744 OA
ENDBRANCH  60  61
ENDBRANCH  28  53
BRANCH  40  65
ATOM     65  C   UNL A   1      40.090  33.716  37.157  1.00  0.00     0.058 A 
ATOM     66  C   UNL A   1      40.863  34.877  37.287  1.00  0.00     0.135 A 
ATOM     67  C   UNL A   1      39.094  33.467  38.115  1.00  0.00     0.135 A 
ATOM     68  F   UNL A   1      41.831  35.149  36.398  1.00  0.00    -0.206 F 
ATOM     69  C   UNL A   1      40.644  35.773  38.326  1.00  0.00     0.059 A 
ATOM     70  C   UNL A   1      38.840  34.362  39.146  1.00  0.00     0.059 A 
ATOM     71  F   UNL A   1      38.323  32.371  38.021  1.00  0.00    -0.206 F 
ATOM     72  C   UNL A   1      39.619  35.514  39.239  1.00  0.00     0.060 A 
BRANCH  72  73
ATOM     73  S   UNL A   1      39.276  36.738  40.520  1.00  0.00     0.124 S 
ATOM     74  O   UNL A   1      40.604  36.957  41.082  1.00  0.00    -0.237 OA
ATOM     75  O   UNL A   1      38.722  37.846  39.748  1.00  0.00    -0.237 OA
ATOM     76  O   UNL A   1      38.326  36.057  41.395  1.00  0.00    -0.744 OA
ENDBRANCH  72  73
ENDBRANCH  40  65
ENDBRANCH  14  15
ENDBRANCH   7   9
ENDBRANCH   6   7
ENDBRANCH   5   6
ENDBRANCH   4   5
ENDBRANCH   3   4
ENDBRANCH   2   3
ENDBRANCH   1   2
BRANCH   1  77
ATOM     77  O   UNL A   1      39.791  22.908  26.852  1.00  0.00    -0.377 OA
BRANCH  77  78
ATOM     78  C   UNL A   1      39.003  22.001  26.086  1.00  0.00     0.188 C 
BRANCH  78  79
ATOM     79  C   UNL A   1      37.666  22.493  25.484  1.00  0.00     0.188 C 
BRANCH  79  80
ATOM     80  O   UNL A   1      37.227  23.742  25.992  1.00  0.00    -0.376 OA
BRANCH  80  81
ATOM     81  C   UNL A   1      35.871  24.084  25.724  1.00  0.00     0.202 C 
BRANCH  81  82
ATOM     82  C   UNL A   1      35.310  23.737  24.333  1.00  0.00     0.261 C 
BRANCH  82  83
ATOM     83  O   UNL A   1      33.953  24.146  24.088  1.00  0.00    -0.460 OA
BRANCH  83  84
ATOM     84  C   UNL A   1      33.558  24.383  22.821  1.00  0.00     0.339 C 
ATOM     85  O   UNL A   1      33.847  23.738  21.826  1.00  0.00    -0.246 OA
BRANCH  84  86
ATOM     86  C   UNL A   1      32.491  25.410  22.858  1.00  0.00     0.078 A 
ATOM     87  C   UNL A   1      32.816  26.695  22.386  1.00  0.00     0.018 A 
ATOM     88  C   UNL A   1      31.181  25.135  23.257  1.00  0.00     0.056 A 
ATOM     89  C   UNL A   1      31.843  27.698  22.327  1.00  0.00     0.010 A 
ATOM     90  C   UNL A   1      30.218  26.154  23.222  1.00  0.00     0.030 A 
ATOM     91  Cl  UNL A   1      30.695  23.598  23.876  1.00  0.00    -0.083 Cl
ATOM     92  C   UNL A   1      30.544  27.451  22.791  1.00  0.00    -0.017 A 
BRANCH  92  93
ATOM     93  C   UNL A   1      29.620  28.564  23.033  1.00  0.00    -0.015 A 
ATOM     94  C   UNL A   1      28.242  28.304  22.909  1.00  0.00     0.009 A 
ATOM     95  C   UNL A   1      30.027  29.855  23.390  1.00  0.00     0.054 A 
ATOM     96  C   UNL A   1      27.292  29.300  23.127  1.00  0.00     0.004 A 
ATOM     97  C   UNL A   1      29.068  30.849  23.604  1.00  0.00     0.116 A 
ATOM     98  C   UNL A   1      27.706  30.581  23.475  1.00  0.00     0.046 A 
BRANCH  97  99
ATOM     99  O   UNL A   1      29.501  32.098  23.944  1.00  0.00    -0.508 OA
ATOM    100  H   UNL A   1      30.222  32.199  24.535  1.00  0.00     0.293 HD
ENDBRANCH  97  99
ENDBRANCH  92  93
ENDBRANCH  84  86
ENDBRANCH  83  84
ENDBRANCH  82  83
ENDBRANCH  81  82
ENDBRANCH  80  81
ENDBRANCH  79  80
ENDBRANCH  78  79
ENDBRANCH  77  78
ENDBRANCH   1  77
TORSDOF 25
ENDMDL
MODEL 2
REMARK VINA RESULT:     -10.1      3.002      9.532
REMARK SMILES O=C(OCCOCCOCCOCCOC(=O)c1ccc(-c2cccc(O)c2)cc1Cl)c1ccc(-c2c3nc(c(-c4c(F)cc(S(=O)(=O)[O-])cc4F)c4ccc([nH]4)c(-c4c(F)cc(S(=O)(=O)[O-])cc4F)c4nc(c(-c5c(F)cc(S(=O)(=O)[O-])cc5F)c5ccc2[nH]5)C=C4)C=C3)cc1
REMARK SMILES IDX 8 1 7 2 6 3 5 4 4 5 3 6 2 7 1 8 32 9 33 10 97 11 34 12 96 13
REMARK SMILES IDX 35 14 36 15 37 16 90 17 38 18 95 19 89 20 91 21 39 22 94 23
REMARK SMILES IDX 88 24 87 25 40 27 74 28 53 29 73 30 54 31 57 32 72 33 92 34
REMARK SMILES IDX 55 35 56 36 71 38 93 39 58 40 41 41 42 42 51 43 43 44 44 45
REMARK SMILES IDX 50 46 52 47 45 48 46 49 47 50 48 51 49 52 75 53 76 54 85 55
REMARK SMILES IDX 77 56 78 57 84 58 86 59 79 60 80 61 81 62 82 63 83 64 59 65
REMARK SMILES IDX 60 66 69 67 61 68 62 69 68 70 70 71 63 72 64 73 65 74 66 75
REMARK SMILES IDX 67 76 9 77 10 78 11 79 12 80 13 81 14 82 15 83 16 84 17 85
REMARK SMILES IDX 18 86 19 87 30 88 20 89 29 90 31 91 21 92 22 93 23 94 28 95
REMARK SMILES IDX 24 96 26 97 25 98 27 99
REMARK H PARENT 91 26 57 37 27 100
REMARK Flexibility Score: inf
ROOT
ATOM      1  C   UNL A   1      31.465  27.720  25.717  1.00  0.00     0.188 C 
ENDROOT
BRANCH   1   2
ATOM      2  C   UNL A   1      31.803  28.800  26.746  1.00  0.00     0.188 C 
BRANCH   2   3
ATOM      3  O   UNL A   1      32.280  29.994  26.121  1.00  0.00    -0.376 OA
BRANCH   3   4
ATOM      4  C   UNL A   1      32.000  31.219  26.796  1.00  0.00     0.202 C 
BRANCH   4   5
ATOM      5  C   UNL A   1      33.204  31.894  27.452  1.00  0.00     0.261 C 
BRANCH   5   6
ATOM      6  O   UNL A   1      33.034  33.306  27.611  1.00  0.00    -0.460 OA
BRANCH   6   7
ATOM      7  C   UNL A   1      33.413  34.077  28.659  1.00  0.00     0.338 C 
ATOM      8  O   UNL A   1      32.704  35.041  28.947  1.00  0.00    -0.246 OA
BRANCH   7   9
ATOM      9  C   UNL A   1      34.643  33.850  29.486  1.00  0.00     0.060 A 
ATOM     10  C   UNL A   1      35.944  34.251  29.164  1.00  0.00     0.016 A 
ATOM     11  C   UNL A   1      34.443  33.241  30.736  1.00  0.00     0.016 A 
ATOM     12  C   UNL A   1      37.016  34.031  30.016  1.00  0.00     0.010 A 
ATOM     13  C   UNL A   1      35.512  33.004  31.600  1.00  0.00     0.010 A 
ATOM     14  C   UNL A   1      36.806  33.374  31.219  1.00  0.00    -0.014 A 
BRANCH  14  15
ATOM     15  C   UNL A   1      37.978  32.850  31.933  1.00  0.00     0.031 A 
ATOM     16  C   UNL A   1      38.714  31.728  31.274  1.00  0.00     0.074 A 
ATOM     17  C   UNL A   1      38.401  33.423  33.069  1.00  0.00     0.049 A 
ATOM     18  N   UNL A   1      39.648  30.955  31.748  1.00  0.00    -0.248 NA
ATOM     19  C   UNL A   1      38.337  31.437  29.877  1.00  0.00     0.031 C 
ATOM     20  C   UNL A   1      37.825  34.623  33.676  1.00  0.00     0.029 A 
ATOM     21  N   UNL A   1      39.412  33.065  33.918  1.00  0.00    -0.354 N 
ATOM     22  C   UNL A   1      39.926  30.048  30.733  1.00  0.00     0.074 A 
ATOM     23  C   UNL A   1      39.076  30.372  29.613  1.00  0.00     0.031 C 
ATOM     24  C   UNL A   1      38.476  34.886  34.821  1.00  0.00     0.029 A 
ATOM     25  C   UNL A   1      39.455  33.830  35.059  1.00  0.00     0.049 A 
ATOM     26  H   UNL A   1      40.046  32.336  33.730  1.00  0.00     0.167 HD
ATOM     27  C   UNL A   1      40.802  29.019  30.763  1.00  0.00     0.037 A 
ATOM     28  C   UNL A   1      40.159  33.639  36.190  1.00  0.00     0.037 A 
ATOM     29  C   UNL A   1      41.614  28.743  31.915  1.00  0.00     0.049 A 
ATOM     30  C   UNL A   1      41.069  32.440  36.248  1.00  0.00     0.074 A 
ATOM     31  C   UNL A   1      42.505  27.710  32.123  1.00  0.00     0.029 A 
ATOM     32  N   UNL A   1      41.618  29.523  33.068  1.00  0.00    -0.354 N 
ATOM     33  N   UNL A   1      41.280  31.528  35.325  1.00  0.00    -0.248 NA
ATOM     34  C   UNL A   1      41.823  32.231  37.487  1.00  0.00     0.031 C 
ATOM     35  C   UNL A   1      43.007  27.837  33.423  1.00  0.00     0.029 A 
ATOM     36  C   UNL A   1      42.482  28.986  34.001  1.00  0.00     0.049 A 
ATOM     37  H   UNL A   1      41.082  30.338  33.200  1.00  0.00     0.167 HD
ATOM     38  C   UNL A   1      42.209  30.646  35.860  1.00  0.00     0.074 A 
ATOM     39  C   UNL A   1      42.517  31.137  37.192  1.00  0.00     0.031 C 
ATOM     40  C   UNL A   1      42.764  29.537  35.308  1.00  0.00     0.037 A 
BRANCH  27  41
ATOM     41  C   UNL A   1      40.812  28.097  29.575  1.00  0.00     0.058 A 
ATOM     42  C   UNL A   1      39.898  27.040  29.431  1.00  0.00     0.135 A 
ATOM     43  C   UNL A   1      41.823  28.218  28.606  1.00  0.00     0.135 A 
ATOM     44  F   UNL A   1      38.932  26.852  30.344  1.00  0.00    -0.206 F 
ATOM     45  C   UNL A   1      40.022  26.103  28.408  1.00  0.00     0.059 A 
ATOM     46  C   UNL A   1      41.947  27.313  27.557  1.00  0.00     0.059 A 
ATOM     47  F   UNL A   1      42.731  29.203  28.698  1.00  0.00    -0.206 F 
ATOM     48  C   UNL A   1      41.059  26.242  27.483  1.00  0.00     0.060 A 
BRANCH  48  49
ATOM     49  S   UNL A   1      41.250  24.985  26.201  1.00  0.00     0.124 S 
ATOM     50  O   UNL A   1      40.025  24.207  26.372  1.00  0.00    -0.237 OA
ATOM     51  O   UNL A   1      41.324  25.787  24.985  1.00  0.00    -0.237 OA
ATOM     52  O   UNL A   1      42.484  24.302  26.574  1.00  0.00    -0.744 OA
ENDBRANCH  48  49
ENDBRANCH  27  41
BRANCH  28  53
ATOM     53  C   UNL A   1      39.963  34.562  37.341  1.00  0.00     0.058 A 
ATOM     54  C   UNL A   1      39.037  34.284  38.354  1.00  0.00     0.135 A 
ATOM     55  C   UNL A   1      40.769  35.704  37.491  1.00  0.00     0.135 A 
ATOM     56  F   UNL A   1      38.238  33.211  38.257  1.00  0.00    -0.206 F 
ATOM     57  C   UNL A   1      38.925  35.095  39.483  1.00  0.00     0.059 A 
ATOM     58  C   UNL A   1      40.693  36.516  38.619  1.00  0.00     0.059 A 
ATOM     59  F   UNL A   1      41.680  36.013  36.555  1.00  0.00    -0.206 F 
ATOM     60  C   UNL A   1      39.767  36.202  39.612  1.00  0.00     0.060 A 
BRANCH  60  61
ATOM     61  S   UNL A   1      39.677  37.192  41.122  1.00  0.00     0.124 S 
ATOM     62  O   UNL A   1      38.915  38.350  40.670  1.00  0.00    -0.237 OA
ATOM     63  O   UNL A   1      38.986  36.290  42.037  1.00  0.00    -0.237 OA
ATOM     64  O   UNL A   1      41.079  37.445  41.443  1.00  0.00    -0.744 OA
ENDBRANCH  60  61
ENDBRANCH  28  53
BRANCH  40  65
ATOM     65  C   UNL A   1      43.803  28.814  36.112  1.00  0.00     0.058 A 
ATOM     66  C   UNL A   1      43.497  27.655  36.838  1.00  0.00     0.135 A 
ATOM     67  C   UNL A   1      45.146  29.213  36.026  1.00  0.00     0.135 A 
ATOM     68  F   UNL A   1      42.225  27.243  36.952  1.00  0.00    -0.206 F 
ATOM     69  C   UNL A   1      44.496  26.905  37.446  1.00  0.00     0.059 A 
ATOM     70  C   UNL A   1      46.162  28.464  36.603  1.00  0.00     0.059 A 
ATOM     71  F   UNL A   1      45.483  30.311  35.330  1.00  0.00    -0.206 F 
ATOM     72  C   UNL A   1      45.826  27.309  37.308  1.00  0.00     0.060 A 
BRANCH  72  73
ATOM     73  S   UNL A   1      47.121  26.268  38.011  1.00  0.00     0.124 S 
ATOM     74  O   UNL A   1      46.348  25.371  38.863  1.00  0.00    -0.237 OA
ATOM     75  O   UNL A   1      47.712  25.663  36.822  1.00  0.00    -0.237 OA
ATOM     76  O   UNL A   1      47.978  27.220  38.713  1.00  0.00    -0.744 OA
ENDBRANCH  72  73
ENDBRANCH  40  65
ENDBRANCH  14  15
ENDBRANCH   7   9
ENDBRANCH   6   7
ENDBRANCH   5   6
ENDBRANCH   4   5
ENDBRANCH   3   4
ENDBRANCH   2   3
ENDBRANCH   1   2
BRANCH   1  77
ATOM     77  O   UNL A   1      30.496  28.094  24.738  1.00  0.00    -0.377 OA
BRANCH  77  78
ATOM     78  C   UNL A   1      30.987  28.335  23.423  1.00  0.00     0.188 C 
BRANCH  78  79
ATOM     79  C   UNL A   1      30.648  27.327  22.300  1.00  0.00     0.188 C 
BRANCH  79  80
ATOM     80  O   UNL A   1      31.752  26.550  21.866  1.00  0.00    -0.376 OA
BRANCH  80  81
ATOM     81  C   UNL A   1      33.007  26.858  22.463  1.00  0.00     0.202 C 
BRANCH  81  82
ATOM     82  C   UNL A   1      33.811  25.695  23.073  1.00  0.00     0.261 C 
BRANCH  82  83
ATOM     83  O   UNL A   1      33.047  24.736  23.825  1.00  0.00    -0.460 OA
BRANCH  83  84
ATOM     84  C   UNL A   1      33.516  24.314  25.016  1.00  0.00     0.339 C 
ATOM     85  O   UNL A   1      33.776  25.000  25.991  1.00  0.00    -0.246 OA
BRANCH  84  86
ATOM     86  C   UNL A   1      33.418  22.836  25.050  1.00  0.00     0.078 A 
ATOM     87  C   UNL A   1      34.610  22.107  24.883  1.00  0.00     0.018 A 
ATOM     88  C   UNL A   1      32.228  22.156  25.317  1.00  0.00     0.056 A 
ATOM     89  C   UNL A   1      34.608  20.711  24.969  1.00  0.00     0.010 A 
ATOM     90  C   UNL A   1      32.229  20.755  25.374  1.00  0.00     0.030 A 
ATOM     91  Cl  UNL A   1      30.713  22.962  25.508  1.00  0.00    -0.083 Cl
ATOM     92  C   UNL A   1      33.407  20.017  25.167  1.00  0.00    -0.017 A 
BRANCH  92  93
ATOM     93  C   UNL A   1      33.342  18.570  24.940  1.00  0.00    -0.015 A 
ATOM     94  C   UNL A   1      33.909  18.071  23.752  1.00  0.00     0.009 A 
ATOM     95  C   UNL A   1      32.765  17.662  25.836  1.00  0.00     0.054 A 
ATOM     96  C   UNL A   1      33.899  16.710  23.457  1.00  0.00     0.004 A 
ATOM     97  C   UNL A   1      32.756  16.298  25.531  1.00  0.00     0.116 A 
ATOM     98  C   UNL A   1      33.317  15.816  24.350  1.00  0.00     0.046 A 
BRANCH  97  99
ATOM     99  O   UNL A   1      32.178  15.443  26.424  1.00  0.00    -0.508 OA
ATOM    100  H   UNL A   1      31.719  15.782  27.168  1.00  0.00     0.293 HD
ENDBRANCH  97  99
ENDBRANCH  92  93
ENDBRANCH  84  86
ENDBRANCH  83  84
ENDBRANCH  82  83
ENDBRANCH  81  82
ENDBRANCH  80  81
ENDBRANCH  79  80
ENDBRANCH  78  79
ENDBRANCH  77  78
ENDBRANCH   1  77
TORSDOF 25
ENDMDL
MODEL 3
REMARK VINA RESULT:      -9.9      5.971     12.086
REMARK SMILES O=C(OCCOCCOCCOCCOC(=O)c1ccc(-c2cccc(O)c2)cc1Cl)c1ccc(-c2c3nc(c(-c4c(F)cc(S(=O)(=O)[O-])cc4F)c4ccc([nH]4)c(-c4c(F)cc(S(=O)(=O)[O-])cc4F)c4nc(c(-c5c(F)cc(S(=O)(=O)[O-])cc5F)c5ccc2[nH]5)C=C4)C=C3)cc1
REMARK SMILES IDX 8 1 7 2 6 3 5 4 4 5 3 6 2 7 1 8 32 9 33 10 97 11 34 12 96 13
REMARK SMILES IDX 35 14 36 15 37 16 90 17 38 18 95 19 89 20 91 21 39 22 94 23
REMARK SMILES IDX 88 24 87 25 40 27 74 28 53 29 73 30 54 31 57 32 72 33 92 34
REMARK SMILES IDX 55 35 56 36 71 38 93 39 58 40 41 41 42 42 51 43 43 44 44 45
REMARK SMILES IDX 50 46 52 47 45 48 46 49 47 50 48 51 49 52 75 53 76 54 85 55
REMARK SMILES IDX 77 56 78 57 84 58 86 59 79 60 80 61 81 62 82 63 83 64 59 65
REMARK SMILES IDX 60 66 69 67 61 68 62 69 68 70 70 71 63 72 64 73 65 74 66 75
REMARK SMILES IDX 67 76 9 77 10 78 11 79 12 80 13 81 14 82 15 83 16 84 17 85
REMARK SMILES IDX 18 86 19 87 30 88 20 89 29 90 31 91 21 92 22 93 23 94 28 95
REMARK SMILES IDX 24 96 26 97 25 98 27 99
REMARK H PARENT 91 26 57 37 27 100
REMARK Flexibility Score: inf
ROOT
ATOM      1  C   UNL A   1      33.160  33.386  27.612  1.00  0.00     0.188 C 
ENDROOT
BRANCH   1   2
ATOM      2  C   UNL A   1      33.371  34.382  28.754  1.00  0.00     0.188 C 
BRANCH   2   3
ATOM      3  O   UNL A   1      34.758  34.556  29.052  1.00  0.00    -0.376 OA
BRANCH   3   4
ATOM      4  C   UNL A   1      35.215  34.009  30.288  1.00  0.00     0.202 C 
BRANCH   4   5
ATOM      5  C   UNL A   1      35.504  32.508  30.272  1.00  0.00     0.261 C 
BRANCH   5   6
ATOM      6  O   UNL A   1      36.482  32.118  31.240  1.00  0.00    -0.460 OA
BRANCH   6   7
ATOM      7  C   UNL A   1      36.985  30.879  31.461  1.00  0.00     0.338 C 
ATOM      8  O   UNL A   1      36.339  30.119  32.183  1.00  0.00    -0.246 OA
BRANCH   7   9
ATOM      9  C   UNL A   1      38.280  30.370  30.903  1.00  0.00     0.060 A 
ATOM     10  C   UNL A   1      39.363  29.876  31.640  1.00  0.00     0.016 A 
ATOM     11  C   UNL A   1      38.373  30.322  29.503  1.00  0.00     0.016 A 
ATOM     12  C   UNL A   1      40.509  29.387  31.029  1.00  0.00     0.010 A 
ATOM     13  C   UNL A   1      39.522  29.842  28.874  1.00  0.00     0.010 A 
ATOM     14  C   UNL A   1      40.603  29.405  29.646  1.00  0.00    -0.014 A 
BRANCH  14  15
ATOM     15  C   UNL A   1      41.929  29.215  29.043  1.00  0.00     0.031 A 
ATOM     16  C   UNL A   1      42.212  27.865  28.465  1.00  0.00     0.074 A 
ATOM     17  C   UNL A   1      42.791  30.238  28.945  1.00  0.00     0.049 A 
ATOM     18  N   UNL A   1      43.338  27.359  28.049  1.00  0.00    -0.248 NA
ATOM     19  C   UNL A   1      41.057  26.957  28.340  1.00  0.00     0.031 C 
ATOM     20  C   UNL A   1      42.511  31.619  29.340  1.00  0.00     0.029 A 
ATOM     21  N   UNL A   1      44.079  30.270  28.487  1.00  0.00    -0.354 N 
ATOM     22  C   UNL A   1      43.039  26.055  27.675  1.00  0.00     0.074 A 
ATOM     23  C   UNL A   1      41.627  25.850  27.895  1.00  0.00     0.031 C 
ATOM     24  C   UNL A   1      43.611  32.361  29.135  1.00  0.00     0.029 A 
ATOM     25  C   UNL A   1      44.686  31.489  28.671  1.00  0.00     0.049 A 
ATOM     26  H   UNL A   1      44.526  29.499  28.068  1.00  0.00     0.167 HD
ATOM     27  C   UNL A   1      43.890  25.113  27.213  1.00  0.00     0.037 A 
ATOM     28  C   UNL A   1      45.983  31.826  28.544  1.00  0.00     0.037 A 
ATOM     29  C   UNL A   1      45.290  25.378  27.023  1.00  0.00     0.049 A 
ATOM     30  C   UNL A   1      46.942  30.747  28.111  1.00  0.00     0.074 A 
ATOM     31  C   UNL A   1      46.290  24.518  26.618  1.00  0.00     0.029 A 
ATOM     32  N   UNL A   1      45.882  26.619  27.241  1.00  0.00    -0.354 N 
ATOM     33  N   UNL A   1      46.685  29.488  27.833  1.00  0.00    -0.248 NA
ATOM     34  C   UNL A   1      48.354  31.116  27.987  1.00  0.00     0.031 C 
ATOM     35  C   UNL A   1      47.495  25.228  26.641  1.00  0.00     0.029 A 
ATOM     36  C   UNL A   1      47.238  26.547  26.996  1.00  0.00     0.049 A 
ATOM     37  H   UNL A   1      45.403  27.430  27.528  1.00  0.00     0.167 HD
ATOM     38  C   UNL A   1      47.899  28.917  27.476  1.00  0.00     0.074 A 
ATOM     39  C   UNL A   1      48.892  29.972  27.578  1.00  0.00     0.031 C 
ATOM     40  C   UNL A   1      48.175  27.644  27.094  1.00  0.00     0.037 A 
BRANCH  27  41
ATOM     41  C   UNL A   1      43.334  23.731  27.010  1.00  0.00     0.058 A 
ATOM     42  C   UNL A   1      42.890  23.272  25.759  1.00  0.00     0.135 A 
ATOM     43  C   UNL A   1      43.154  22.882  28.115  1.00  0.00     0.135 A 
ATOM     44  F   UNL A   1      43.004  24.052  24.672  1.00  0.00    -0.206 F 
ATOM     45  C   UNL A   1      42.234  22.050  25.622  1.00  0.00     0.059 A 
ATOM     46  C   UNL A   1      42.530  21.644  27.996  1.00  0.00     0.059 A 
ATOM     47  F   UNL A   1      43.549  23.272  29.338  1.00  0.00    -0.206 F 
ATOM     48  C   UNL A   1      42.048  21.250  26.750  1.00  0.00     0.060 A 
BRANCH  48  49
ATOM     49  S   UNL A   1      41.138  19.701  26.572  1.00  0.00     0.124 S 
ATOM     50  O   UNL A   1      42.066  18.909  25.769  1.00  0.00    -0.237 OA
ATOM     51  O   UNL A   1      40.976  19.271  27.957  1.00  0.00    -0.237 OA
ATOM     52  O   UNL A   1      39.909  20.103  25.896  1.00  0.00    -0.744 OA
ENDBRANCH  48  49
ENDBRANCH  27  41
BRANCH  28  53
ATOM     53  C   UNL A   1      46.422  33.204  28.894  1.00  0.00     0.058 A 
ATOM     54  C   UNL A   1      46.266  34.272  28.002  1.00  0.00     0.135 A 
ATOM     55  C   UNL A   1      46.931  33.493  30.173  1.00  0.00     0.135 A 
ATOM     56  F   UNL A   1      45.793  34.050  26.766  1.00  0.00    -0.206 F 
ATOM     57  C   UNL A   1      46.583  35.580  28.366  1.00  0.00     0.059 A 
ATOM     58  C   UNL A   1      47.231  34.793  30.569  1.00  0.00     0.059 A 
ATOM     59  F   UNL A   1      47.092  32.510  31.071  1.00  0.00    -0.206 F 
ATOM     60  C   UNL A   1      47.053  35.831  29.657  1.00  0.00     0.060 A 
BRANCH  60  61
ATOM     61  S   UNL A   1      47.372  37.542  30.149  1.00  0.00     0.124 S 
ATOM     62  O   UNL A   1      48.221  38.008  29.059  1.00  0.00    -0.237 OA
ATOM     63  O   UNL A   1      46.025  38.102  30.194  1.00  0.00    -0.237 OA
ATOM     64  O   UNL A   1      48.029  37.403  31.445  1.00  0.00    -0.744 OA
ENDBRANCH  60  61
ENDBRANCH  28  53
BRANCH  40  65
ATOM     65  C   UNL A   1      49.588  27.334  26.700  1.00  0.00     0.058 A 
ATOM     66  C   UNL A   1      50.535  26.901  27.637  1.00  0.00     0.135 A 
ATOM     67  C   UNL A   1      49.944  27.334  25.342  1.00  0.00     0.135 A 
ATOM     68  F   UNL A   1      50.240  26.893  28.946  1.00  0.00    -0.206 F 
ATOM     69  C   UNL A   1      51.792  26.464  27.237  1.00  0.00     0.059 A 
ATOM     70  C   UNL A   1      51.184  26.877  24.918  1.00  0.00     0.059 A 
ATOM     71  F   UNL A   1      49.060  27.731  24.411  1.00  0.00    -0.206 F 
ATOM     72  C   UNL A   1      52.100  26.440  25.874  1.00  0.00     0.060 A 
BRANCH  72  73
ATOM     73  S   UNL A   1      53.694  25.771  25.361  1.00  0.00     0.124 S 
ATOM     74  O   UNL A   1      53.358  25.159  24.080  1.00  0.00    -0.237 OA
ATOM     75  O   UNL A   1      54.526  26.968  25.295  1.00  0.00    -0.237 OA
ATOM     76  O   UNL A   1      54.033  24.839  26.433  1.00  0.00    -0.744 OA
ENDBRANCH  72  73
ENDBRANCH  40  65
ENDBRANCH  14  15
ENDBRANCH   7   9
ENDBRANCH   6   7
ENDBRANCH   5   6
ENDBRANCH   4   5
ENDBRANCH   3   4
ENDBRANCH   2   3
ENDBRANCH   1   2
BRANCH   1  77
ATOM     77  O   UNL A   1      31.802  33.186  27.222  1.00  0.00    -0.377 OA
BRANCH  77  78
ATOM     78  C   UNL A   1      31.508  31.960  26.560  1.00  0.00     0.188 C 
BRANCH  78  79
ATOM     79  C   UNL A   1      32.280  30.683  26.968  1.00  0.00     0.188 C 
BRANCH  79  80
ATOM     80  O   UNL A   1      33.052  30.114  25.924  1.00  0.00    -0.376 OA
BRANCH  80  81
ATOM     81  C   UNL A   1      32.550  28.908  25.360  1.00  0.00     0.202 C 
BRANCH  81  82
ATOM     82  C   UNL A   1      32.360  28.860  23.833  1.00  0.00     0.261 C 
BRANCH  82  83
ATOM     83  O   UNL A   1      32.661  27.601  23.206  1.00  0.00    -0.460 OA
BRANCH  83  84
ATOM     84  C   UNL A   1      31.653  26.871  22.686  1.00  0.00     0.339 C 
ATOM     85  O   UNL A   1      30.843  27.226  21.846  1.00  0.00    -0.246 OA
BRANCH  84  86
ATOM     86  C   UNL A   1      31.842  25.463  23.108  1.00  0.00     0.078 A 
ATOM     87  C   UNL A   1      32.792  24.701  22.403  1.00  0.00     0.018 A 
ATOM     88  C   UNL A   1      31.188  24.901  24.206  1.00  0.00     0.056 A 
ATOM     89  C   UNL A   1      33.074  23.386  22.787  1.00  0.00     0.010 A 
ATOM     90  C   UNL A   1      31.455  23.573  24.567  1.00  0.00     0.030 A 
ATOM     91  Cl  UNL A   1      29.987  25.748  25.113  1.00  0.00    -0.083 Cl
ATOM     92  C   UNL A   1      32.373  22.791  23.843  1.00  0.00    -0.017 A 
BRANCH  92  93
ATOM     93  C   UNL A   1      32.425  21.339  24.043  1.00  0.00    -0.015 A 
ATOM     94  C   UNL A   1      32.268  20.520  22.909  1.00  0.00     0.009 A 
ATOM     95  C   UNL A   1      32.634  20.727  25.284  1.00  0.00     0.054 A 
ATOM     96  C   UNL A   1      32.311  19.131  23.004  1.00  0.00     0.004 A 
ATOM     97  C   UNL A   1      32.672  19.333  25.372  1.00  0.00     0.116 A 
ATOM     98  C   UNL A   1      32.512  18.532  24.243  1.00  0.00     0.046 A 
BRANCH  97  99
ATOM     99  O   UNL A   1      32.871  18.771  26.600  1.00  0.00    -0.508 OA
ATOM    100  H   UNL A   1      32.166  18.733  27.218  1.00  0.00     0.293 HD
ENDBRANCH  97  99
ENDBRANCH  92  93
ENDBRANCH  84  86
ENDBRANCH  83  84
ENDBRANCH  82  83
ENDBRANCH  81  82
ENDBRANCH  80  81
ENDBRANCH  79  80
ENDBRANCH  78  79
ENDBRANCH  77  78
ENDBRANCH   1  77
TORSDOF 25
ENDMDL
