MODEL 1
REMARK VINA RESULT:     -10.1      0.000      0.000
REMARK SMILES Cc1ccc(S(=O)(=O)Nc2cc3c(cc2C(=O)OCCOCCOCCOCCOC(=O)c2ccc(-c4c5nc(c(-c6c(F)cc(S(=O)(=O)[O-])cc6F)c6ccc([nH]6)c(-c6c(F)cc(S(=O)(=O)[O-])cc6F)c6nc(c(-c7c(F)cc(S(=O)(=O)[O-])cc7F)c7ccc4[nH]7)C=C6)C=C5)cc2)OCCO3)s1
REMARK SMILES IDX 24 1 23 2 22 3 21 4 20 5 19 6 18 7 16 8 17 9 15 10 10 11
REMARK SMILES IDX 11 12 12 13 14 14 13 15 102 16 99 17 101 18 100 19 9 20 6 22
REMARK SMILES IDX 7 23 8 24 5 25 1 26 2 27 3 28 103 29 4 30 25 31 26 32 27 33
REMARK SMILES IDX 28 34 29 35 30 36 31 37 32 38 33 39 34 40 98 41 35 42 97 43
REMARK SMILES IDX 36 44 37 45 38 46 91 47 39 48 96 49 90 50 92 51 40 52 95 53
REMARK SMILES IDX 89 54 88 55 41 57 75 58 54 59 74 60 55 61 58 62 73 63 93 64
REMARK SMILES IDX 56 65 57 66 72 68 94 69 59 70 42 71 43 72 52 73 44 74 45 75
REMARK SMILES IDX 51 76 53 77 46 78 47 79 48 80 49 81 50 82 76 83 77 84 86 85
REMARK SMILES IDX 78 86 79 87 85 88 87 89 80 90 81 91 82 92 83 93 84 94 60 95
REMARK SMILES IDX 61 96 70 97 62 98 63 99 69 100 71 101 64 102 65 103 66 104
REMARK SMILES IDX 67 105 68 106
REMARK H PARENT 9 21 92 56 58 67
REMARK Flexibility Score: inf
ROOT
ATOM      1  O   UNL A   1      30.755  28.161  24.824  1.00  0.00    -0.377 OA
ENDROOT
BRANCH   1   2
ATOM      2  C   UNL A   1      31.252  29.144  23.925  1.00  0.00     0.188 C 
BRANCH   2   3
ATOM      3  C   UNL A   1      31.444  28.539  22.536  1.00  0.00     0.188 C 
BRANCH   3   4
ATOM      4  O   UNL A   1      30.839  27.285  22.229  1.00  0.00    -0.376 OA
BRANCH   4   5
ATOM      5  C   UNL A   1      31.639  26.260  21.660  1.00  0.00     0.202 C 
BRANCH   5   6
ATOM      6  C   UNL A   1      32.564  25.526  22.630  1.00  0.00     0.261 C 
BRANCH   6   7
ATOM      7  O   UNL A   1      32.418  24.096  22.634  1.00  0.00    -0.460 OA
BRANCH   7   8
ATOM      8  C   UNL A   1      31.512  23.622  23.525  1.00  0.00     0.340 C 
ATOM      9  O   UNL A   1      30.694  24.274  24.156  1.00  0.00    -0.246 OA
BRANCH   8  10
ATOM     10  C   UNL A   1      31.684  22.172  23.749  1.00  0.00     0.088 A 
ATOM     11  C   UNL A   1      31.861  21.687  25.057  1.00  0.00     0.067 A 
ATOM     12  C   UNL A   1      32.479  20.452  25.256  1.00  0.00     0.078 A 
ATOM     13  C   UNL A   1      32.681  19.608  24.168  1.00  0.00     0.163 A 
ATOM     14  C   UNL A   1      31.874  21.317  22.656  1.00  0.00     0.068 A 
ATOM     15  C   UNL A   1      32.306  20.012  22.882  1.00  0.00     0.162 A 
ATOM     16  O   UNL A   1      33.152  18.354  24.460  1.00  0.00    -0.486 OA
ATOM     17  O   UNL A   1      32.346  19.170  21.802  1.00  0.00    -0.486 OA
ATOM     18  C   UNL A   1      33.456  17.607  23.277  1.00  0.00     0.271 C 
ATOM     19  C   UNL A   1      32.377  17.800  22.225  1.00  0.00     0.271 C 
BRANCH  11  20
ATOM     20  N   UNL A   1      31.272  22.378  26.172  1.00  0.00    -0.278 N 
ATOM     21  H   UNL A   1      30.300  22.382  26.326  1.00  0.00     0.180 HD
BRANCH  20  22
ATOM     22  S   UNL A   1      32.360  23.198  27.219  1.00  0.00     0.271 S 
ATOM     23  O   UNL A   1      32.648  22.301  28.316  1.00  0.00    -0.200 OA
ATOM     24  O   UNL A   1      31.804  24.513  27.460  1.00  0.00    -0.200 OA
BRANCH  22  25
ATOM     25  C   UNL A   1      33.886  23.507  26.337  1.00  0.00     0.140 A 
ATOM     26  C   UNL A   1      36.867  22.112  24.261  1.00  0.00     0.056 C 
ATOM     27  C   UNL A   1      35.863  22.923  25.001  1.00  0.00     0.003 A 
ATOM     28  C   UNL A   1      35.410  24.192  24.715  1.00  0.00     0.016 A 
ATOM     29  S   UNL A   1      35.093  22.313  26.400  1.00  0.00    -0.127 S 
ATOM     30  C   UNL A   1      34.321  24.565  25.557  1.00  0.00     0.034 A 
ENDBRANCH  22  25
ENDBRANCH  20  22
ENDBRANCH  11  20
ENDBRANCH   8  10
ENDBRANCH   7   8
ENDBRANCH   6   7
ENDBRANCH   5   6
ENDBRANCH   4   5
ENDBRANCH   3   4
ENDBRANCH   2   3
ENDBRANCH   1   2
BRANCH   1  31
ATOM     31  C   UNL A   1      31.714  27.693  25.763  1.00  0.00     0.188 C 
BRANCH  31  32
ATOM     32  C   UNL A   1      31.658  28.533  27.041  1.00  0.00     0.188 C 
BRANCH  32  33
ATOM     33  O   UNL A   1      32.892  29.241  27.184  1.00  0.00    -0.376 OA
BRANCH  33  34
ATOM     34  C   UNL A   1      32.777  30.651  27.020  1.00  0.00     0.202 C 
BRANCH  34  35
ATOM     35  C   UNL A   1      33.844  31.353  27.874  1.00  0.00     0.261 C 
BRANCH  35  36
ATOM     36  O   UNL A   1      35.061  30.589  28.007  1.00  0.00    -0.460 OA
BRANCH  36  37
ATOM     37  C   UNL A   1      35.825  30.895  29.076  1.00  0.00     0.338 C 
ATOM     38  O   UNL A   1      35.477  31.539  30.054  1.00  0.00    -0.246 OA
BRANCH  37  39
ATOM     39  C   UNL A   1      37.115  30.178  28.986  1.00  0.00     0.060 A 
ATOM     40  C   UNL A   1      37.727  29.794  30.186  1.00  0.00     0.016 A 
ATOM     41  C   UNL A   1      37.747  29.930  27.764  1.00  0.00     0.016 A 
ATOM     42  C   UNL A   1      38.996  29.221  30.174  1.00  0.00     0.010 A 
ATOM     43  C   UNL A   1      39.031  29.374  27.752  1.00  0.00     0.010 A 
ATOM     44  C   UNL A   1      39.677  29.069  28.961  1.00  0.00    -0.014 A 
BRANCH  44  45
ATOM     45  C   UNL A   1      41.143  28.851  29.005  1.00  0.00     0.031 A 
ATOM     46  C   UNL A   1      41.660  27.494  28.599  1.00  0.00     0.074 A 
ATOM     47  C   UNL A   1      41.995  29.844  29.316  1.00  0.00     0.049 A 
ATOM     48  N   UNL A   1      42.893  27.073  28.492  1.00  0.00    -0.248 NA
ATOM     49  C   UNL A   1      40.647  26.478  28.262  1.00  0.00     0.031 C 
ATOM     50  C   UNL A   1      41.611  31.203  29.690  1.00  0.00     0.029 A 
ATOM     51  N   UNL A   1      43.366  29.855  29.361  1.00  0.00    -0.354 N 
ATOM     52  C   UNL A   1      42.803  25.752  28.069  1.00  0.00     0.074 A 
ATOM     53  C   UNL A   1      41.398  25.426  27.975  1.00  0.00     0.031 C 
ATOM     54  C   UNL A   1      42.723  31.917  29.936  1.00  0.00     0.029 A 
ATOM     55  C   UNL A   1      43.895  31.063  29.752  1.00  0.00     0.049 A 
ATOM     56  H   UNL A   1      43.918  29.073  29.135  1.00  0.00     0.167 HD
ATOM     57  C   UNL A   1      43.802  24.887  27.774  1.00  0.00     0.037 A 
ATOM     58  C   UNL A   1      45.179  31.425  29.945  1.00  0.00     0.037 A 
ATOM     59  C   UNL A   1      45.199  25.214  27.875  1.00  0.00     0.049 A 
ATOM     60  C   UNL A   1      46.275  30.427  29.664  1.00  0.00     0.074 A 
ATOM     61  C   UNL A   1      46.292  24.416  27.587  1.00  0.00     0.029 A 
ATOM     62  N   UNL A   1      45.694  26.436  28.304  1.00  0.00    -0.354 N 
ATOM     63  N   UNL A   1      46.176  29.192  29.229  1.00  0.00    -0.248 NA
ATOM     64  C   UNL A   1      47.657  30.874  29.888  1.00  0.00     0.031 C 
ATOM     65  C   UNL A   1      47.449  25.140  27.890  1.00  0.00     0.029 A 
ATOM     66  C   UNL A   1      47.078  26.406  28.317  1.00  0.00     0.049 A 
ATOM     67  H   UNL A   1      45.144  27.210  28.563  1.00  0.00     0.167 HD
ATOM     68  C   UNL A   1      47.482  28.725  29.106  1.00  0.00     0.074 A 
ATOM     69  C   UNL A   1      48.351  29.815  29.497  1.00  0.00     0.031 C 
ATOM     70  C   UNL A   1      47.924  27.505  28.707  1.00  0.00     0.037 A 
BRANCH  57  71
ATOM     71  C   UNL A   1      43.418  23.502  27.340  1.00  0.00     0.058 A 
ATOM     72  C   UNL A   1      42.982  22.534  28.259  1.00  0.00     0.135 A 
ATOM     73  C   UNL A   1      43.459  23.146  25.983  1.00  0.00     0.135 A 
ATOM     74  F   UNL A   1      42.948  22.814  29.572  1.00  0.00    -0.206 F 
ATOM     75  C   UNL A   1      42.617  21.255  27.849  1.00  0.00     0.059 A 
ATOM     76  C   UNL A   1      43.075  21.882  25.548  1.00  0.00     0.059 A 
ATOM     77  F   UNL A   1      43.879  24.030  25.065  1.00  0.00    -0.206 F 
ATOM     78  C   UNL A   1      42.665  20.940  26.490  1.00  0.00     0.060 A 
BRANCH  78  79
ATOM     79  S   UNL A   1      42.171  19.282  25.971  1.00  0.00     0.124 S 
ATOM     80  O   UNL A   1      42.937  19.124  24.738  1.00  0.00    -0.237 OA
ATOM     81  O   UNL A   1      42.606  18.461  27.097  1.00  0.00    -0.237 OA
ATOM     82  O   UNL A   1      40.727  19.395  25.801  1.00  0.00    -0.744 OA
ENDBRANCH  78  79
ENDBRANCH  57  71
BRANCH  58  83
ATOM     83  C   UNL A   1      45.504  32.789  30.443  1.00  0.00     0.058 A 
ATOM     84  C   UNL A   1      45.729  33.858  29.563  1.00  0.00     0.135 A 
ATOM     85  C   UNL A   1      45.620  33.044  31.819  1.00  0.00     0.135 A 
ATOM     86  F   UNL A   1      45.642  33.664  28.238  1.00  0.00    -0.206 F 
ATOM     87  C   UNL A   1      46.076  35.125  30.025  1.00  0.00     0.059 A 
ATOM     88  C   UNL A   1      45.940  34.307  32.307  1.00  0.00     0.059 A 
ATOM     89  F   UNL A   1      45.407  32.059  32.707  1.00  0.00    -0.206 F 
ATOM     90  C   UNL A   1      46.179  35.339  31.400  1.00  0.00     0.060 A 
BRANCH  90  91
ATOM     91  S   UNL A   1      46.595  36.992  31.995  1.00  0.00     0.124 S 
ATOM     92  O   UNL A   1      45.439  37.305  32.827  1.00  0.00    -0.237 OA
ATOM     93  O   UNL A   1      47.848  36.757  32.705  1.00  0.00    -0.237 OA
ATOM     94  O   UNL A   1      46.718  37.770  30.765  1.00  0.00    -0.744 OA
ENDBRANCH  90  91
ENDBRANCH  58  83
BRANCH  70  95
ATOM     95  C   UNL A   1      49.412  27.294  28.645  1.00  0.00     0.058 A 
ATOM     96  C   UNL A   1      50.112  26.668  29.687  1.00  0.00     0.135 A 
ATOM     97  C   UNL A   1      50.137  27.681  27.505  1.00  0.00     0.135 A 
ATOM     98  F   UNL A   1      49.466  26.282  30.798  1.00  0.00    -0.206 F 
ATOM     99  C   UNL A   1      51.485  26.460  29.616  1.00  0.00     0.059 A 
ATOM    100  C   UNL A   1      51.506  27.457  27.401  1.00  0.00     0.059 A 
ATOM    101  F   UNL A   1      49.513  28.269  26.472  1.00  0.00    -0.206 F 
ATOM    102  C   UNL A   1      52.174  26.859  28.468  1.00  0.00     0.060 A 
BRANCH 102 103
ATOM    103  S   UNL A   1      53.953  26.567  28.381  1.00  0.00     0.124 S 
ATOM    104  O   UNL A   1      54.021  25.445  27.449  1.00  0.00    -0.237 OA
ATOM    105  O   UNL A   1      54.458  27.840  27.878  1.00  0.00    -0.237 OA
ATOM    106  O   UNL A   1      54.314  26.257  29.762  1.00  0.00    -0.744 OA
ENDBRANCH 102 103
ENDBRANCH  70  95
ENDBRANCH  44  45
ENDBRANCH  37  39
ENDBRANCH  36  37
ENDBRANCH  35  36
ENDBRANCH  34  35
ENDBRANCH  33  34
ENDBRANCH  32  33
ENDBRANCH  31  32
ENDBRANCH   1  31
TORSDOF 26
ENDMDL
MODEL 2
REMARK VINA RESULT:      -9.8      1.717      2.828
REMARK SMILES Cc1ccc(S(=O)(=O)Nc2cc3c(cc2C(=O)OCCOCCOCCOCCOC(=O)c2ccc(-c4c5nc(c(-c6c(F)cc(S(=O)(=O)[O-])cc6F)c6ccc([nH]6)c(-c6c(F)cc(S(=O)(=O)[O-])cc6F)c6nc(c(-c7c(F)cc(S(=O)(=O)[O-])cc7F)c7ccc4[nH]7)C=C6)C=C5)cc2)OCCO3)s1
REMARK SMILES IDX 24 1 23 2 22 3 21 4 20 5 19 6 18 7 16 8 17 9 15 10 10 11
REMARK SMILES IDX 11 12 12 13 14 14 13 15 102 16 99 17 101 18 100 19 9 20 6 22
REMARK SMILES IDX 7 23 8 24 5 25 1 26 2 27 3 28 103 29 4 30 25 31 26 32 27 33
REMARK SMILES IDX 28 34 29 35 30 36 31 37 32 38 33 39 34 40 98 41 35 42 97 43
REMARK SMILES IDX 36 44 37 45 38 46 91 47 39 48 96 49 90 50 92 51 40 52 95 53
REMARK SMILES IDX 89 54 88 55 41 57 75 58 54 59 74 60 55 61 58 62 73 63 93 64
REMARK SMILES IDX 56 65 57 66 72 68 94 69 59 70 42 71 43 72 52 73 44 74 45 75
REMARK SMILES IDX 51 76 53 77 46 78 47 79 48 80 49 81 50 82 76 83 77 84 86 85
REMARK SMILES IDX 78 86 79 87 85 88 87 89 80 90 81 91 82 92 83 93 84 94 60 95
REMARK SMILES IDX 61 96 70 97 62 98 63 99 69 100 71 101 64 102 65 103 66 104
REMARK SMILES IDX 67 105 68 106
REMARK H PARENT 9 21 92 56 58 67
REMARK Flexibility Score: inf
ROOT
ATOM      1  O   UNL A   1      32.500  27.598  22.355  1.00  0.00    -0.377 OA
ENDROOT
BRANCH   1   2
ATOM      2  C   UNL A   1      33.661  26.798  22.172  1.00  0.00     0.188 C 
BRANCH   2   3
ATOM      3  C   UNL A   1      33.266  25.351  21.887  1.00  0.00     0.188 C 
BRANCH   3   4
ATOM      4  O   UNL A   1      33.460  24.361  22.895  1.00  0.00    -0.376 OA
BRANCH   4   5
ATOM      5  C   UNL A   1      34.420  23.339  22.674  1.00  0.00     0.202 C 
BRANCH   5   6
ATOM      6  C   UNL A   1      35.610  23.330  23.631  1.00  0.00     0.261 C 
BRANCH   6   7
ATOM      7  O   UNL A   1      35.273  23.103  25.010  1.00  0.00    -0.460 OA
BRANCH   7   8
ATOM      8  C   UNL A   1      35.713  21.923  25.513  1.00  0.00     0.340 C 
ATOM      9  O   UNL A   1      36.792  21.708  26.043  1.00  0.00    -0.246 OA
BRANCH   8  10
ATOM     10  C   UNL A   1      34.749  20.834  25.251  1.00  0.00     0.088 A 
ATOM     11  C   UNL A   1      33.454  20.906  25.794  1.00  0.00     0.067 A 
ATOM     12  C   UNL A   1      32.713  19.737  25.968  1.00  0.00     0.078 A 
ATOM     13  C   UNL A   1      33.154  18.557  25.377  1.00  0.00     0.163 A 
ATOM     14  C   UNL A   1      35.186  19.649  24.645  1.00  0.00     0.068 A 
ATOM     15  C   UNL A   1      34.350  18.535  24.651  1.00  0.00     0.162 A 
ATOM     16  O   UNL A   1      32.301  17.487  25.462  1.00  0.00    -0.486 OA
ATOM     17  O   UNL A   1      34.756  17.444  23.929  1.00  0.00    -0.486 OA
ATOM     18  C   UNL A   1      32.892  16.288  24.948  1.00  0.00     0.271 C 
ATOM     19  C   UNL A   1      33.652  16.569  23.663  1.00  0.00     0.271 C 
BRANCH  11  20
ATOM     20  N   UNL A   1      32.834  22.184  26.021  1.00  0.00    -0.278 N 
ATOM     21  H   UNL A   1      33.260  22.876  26.577  1.00  0.00     0.180 HD
BRANCH  20  22
ATOM     22  S   UNL A   1      31.310  22.434  25.270  1.00  0.00     0.271 S 
ATOM     23  O   UNL A   1      30.305  21.910  26.169  1.00  0.00    -0.200 OA
ATOM     24  O   UNL A   1      31.422  21.945  23.912  1.00  0.00    -0.200 OA
BRANCH  22  25
ATOM     25  C   UNL A   1      31.036  24.194  25.095  1.00  0.00     0.140 A 
ATOM     26  C   UNL A   1      28.806  27.096  23.771  1.00  0.00     0.056 C 
ATOM     27  C   UNL A   1      29.833  26.218  24.396  1.00  0.00     0.003 A 
ATOM     28  C   UNL A   1      30.528  26.417  25.568  1.00  0.00     0.016 A 
ATOM     29  S   UNL A   1      30.294  24.742  23.668  1.00  0.00    -0.127 S 
ATOM     30  C   UNL A   1      31.300  25.271  25.923  1.00  0.00     0.034 A 
ENDBRANCH  22  25
ENDBRANCH  20  22
ENDBRANCH  11  20
ENDBRANCH   8  10
ENDBRANCH   7   8
ENDBRANCH   6   7
ENDBRANCH   5   6
ENDBRANCH   4   5
ENDBRANCH   3   4
ENDBRANCH   2   3
ENDBRANCH   1   2
BRANCH   1  31
ATOM     31  C   UNL A   1      32.769  28.926  22.783  1.00  0.00     0.188 C 
BRANCH  31  32
ATOM     32  C   UNL A   1      31.854  29.301  23.951  1.00  0.00     0.188 C 
BRANCH  32  33
ATOM     33  O   UNL A   1      32.661  29.651  25.078  1.00  0.00    -0.376 OA
BRANCH  33  34
ATOM     34  C   UNL A   1      31.932  29.794  26.294  1.00  0.00     0.202 C 
BRANCH  34  35
ATOM     35  C   UNL A   1      32.733  30.670  27.269  1.00  0.00     0.261 C 
BRANCH  35  36
ATOM     36  O   UNL A   1      33.910  30.017  27.787  1.00  0.00    -0.460 OA
BRANCH  36  37
ATOM     37  C   UNL A   1      34.802  30.826  28.398  1.00  0.00     0.338 C 
ATOM     38  O   UNL A   1      34.559  31.890  28.944  1.00  0.00    -0.246 OA
BRANCH  37  39
ATOM     39  C   UNL A   1      36.114  30.149  28.475  1.00  0.00     0.060 A 
ATOM     40  C   UNL A   1      36.496  29.617  29.713  1.00  0.00     0.016 A 
ATOM     41  C   UNL A   1      36.983  30.078  27.381  1.00  0.00     0.016 A 
ATOM     42  C   UNL A   1      37.766  29.072  29.881  1.00  0.00     0.010 A 
ATOM     43  C   UNL A   1      38.267  29.550  27.554  1.00  0.00     0.010 A 
ATOM     44  C   UNL A   1      38.678  29.096  28.819  1.00  0.00    -0.014 A 
BRANCH  44  45
ATOM     45  C   UNL A   1      40.114  28.898  29.125  1.00  0.00     0.031 A 
ATOM     46  C   UNL A   1      40.729  27.569  28.767  1.00  0.00     0.074 A 
ATOM     47  C   UNL A   1      40.871  29.889  29.630  1.00  0.00     0.049 A 
ATOM     48  N   UNL A   1      41.970  27.172  28.874  1.00  0.00    -0.248 NA
ATOM     49  C   UNL A   1      39.820  26.554  28.207  1.00  0.00     0.031 C 
ATOM     50  C   UNL A   1      40.393  31.225  29.980  1.00  0.00     0.029 A 
ATOM     51  N   UNL A   1      42.209  29.920  29.929  1.00  0.00    -0.354 N 
ATOM     52  C   UNL A   1      41.990  25.869  28.389  1.00  0.00     0.074 A 
ATOM     53  C   UNL A   1      40.635  25.527  28.021  1.00  0.00     0.031 C 
ATOM     54  C   UNL A   1      41.424  31.944  30.458  1.00  0.00     0.029 A 
ATOM     55  C   UNL A   1      42.629  31.116  30.460  1.00  0.00     0.049 A 
ATOM     56  H   UNL A   1      42.812  29.156  29.778  1.00  0.00     0.167 HD
ATOM     57  C   UNL A   1      43.046  25.034  28.249  1.00  0.00     0.037 A 
ATOM     58  C   UNL A   1      43.846  31.489  30.904  1.00  0.00     0.037 A 
ATOM     59  C   UNL A   1      44.392  25.377  28.621  1.00  0.00     0.049 A 
ATOM     60  C   UNL A   1      44.998  30.521  30.790  1.00  0.00     0.074 A 
ATOM     61  C   UNL A   1      45.538  24.610  28.510  1.00  0.00     0.029 A 
ATOM     62  N   UNL A   1      44.771  26.586  29.185  1.00  0.00    -0.354 N 
ATOM     63  N   UNL A   1      45.010  29.305  30.295  1.00  0.00    -0.248 NA
ATOM     64  C   UNL A   1      46.304  30.979  31.286  1.00  0.00     0.031 C 
ATOM     65  C   UNL A   1      46.602  25.337  29.051  1.00  0.00     0.029 A 
ATOM     66  C   UNL A   1      46.129  26.576  29.453  1.00  0.00     0.049 A 
ATOM     67  H   UNL A   1      44.165  27.340  29.368  1.00  0.00     0.167 HD
ATOM     68  C   UNL A   1      46.326  28.864  30.398  1.00  0.00     0.074 A 
ATOM     69  C   UNL A   1      47.083  29.949  30.988  1.00  0.00     0.031 C 
ATOM     70  C   UNL A   1      46.863  27.671  30.038  1.00  0.00     0.037 A 
BRANCH  57  71
ATOM     71  C   UNL A   1      42.781  23.664  27.695  1.00  0.00     0.058 A 
ATOM     72  C   UNL A   1      42.704  23.428  26.312  1.00  0.00     0.135 A 
ATOM     73  C   UNL A   1      42.630  22.567  28.556  1.00  0.00     0.135 A 
ATOM     74  F   UNL A   1      42.816  24.447  25.445  1.00  0.00    -0.206 F 
ATOM     75  C   UNL A   1      42.469  22.155  25.804  1.00  0.00     0.059 A 
ATOM     76  C   UNL A   1      42.419  21.280  28.070  1.00  0.00     0.059 A 
ATOM     77  F   UNL A   1      42.684  22.739  29.886  1.00  0.00    -0.206 F 
ATOM     78  C   UNL A   1      42.330  21.086  26.693  1.00  0.00     0.060 A 
BRANCH  78  79
ATOM     79  S   UNL A   1      42.043  19.436  26.019  1.00  0.00     0.124 S 
ATOM     80  O   UNL A   1      42.412  18.591  27.151  1.00  0.00    -0.237 OA
ATOM     81  O   UNL A   1      40.621  19.474  25.694  1.00  0.00    -0.237 OA
ATOM     82  O   UNL A   1      42.945  19.375  24.873  1.00  0.00    -0.744 OA
ENDBRANCH  78  79
ENDBRANCH  57  71
BRANCH  58  83
ATOM     83  C   UNL A   1      44.042  32.834  31.508  1.00  0.00     0.058 A 
ATOM     84  C   UNL A   1      44.432  33.938  30.735  1.00  0.00     0.135 A 
ATOM     85  C   UNL A   1      43.864  33.037  32.887  1.00  0.00     0.135 A 
ATOM     86  F   UNL A   1      44.628  33.795  29.415  1.00  0.00    -0.206 F 
ATOM     87  C   UNL A   1      44.658  35.187  31.305  1.00  0.00     0.059 A 
ATOM     88  C   UNL A   1      44.058  34.282  33.476  1.00  0.00     0.059 A 
ATOM     89  F   UNL A   1      43.482  32.017  33.672  1.00  0.00    -0.206 F 
ATOM     90  C   UNL A   1      44.468  35.348  32.679  1.00  0.00     0.060 A 
BRANCH  90  91
ATOM     91  S   UNL A   1      44.728  36.980  33.408  1.00  0.00     0.124 S 
ATOM     92  O   UNL A   1      44.088  37.847  32.426  1.00  0.00    -0.237 OA
ATOM     93  O   UNL A   1      44.046  36.855  34.692  1.00  0.00    -0.237 OA
ATOM     94  O   UNL A   1      46.183  37.082  33.489  1.00  0.00    -0.744 OA
ENDBRANCH  90  91
ENDBRANCH  58  83
BRANCH  70  95
ATOM     95  C   UNL A   1      48.341  27.485  30.245  1.00  0.00     0.058 A 
ATOM     96  C   UNL A   1      48.860  26.988  31.450  1.00  0.00     0.135 A 
ATOM     97  C   UNL A   1      49.244  27.763  29.206  1.00  0.00     0.135 A 
ATOM     98  F   UNL A   1      48.040  26.709  32.474  1.00  0.00    -0.206 F 
ATOM     99  C   UNL A   1      50.227  26.802  31.629  1.00  0.00     0.059 A 
ATOM    100  C   UNL A   1      50.612  27.557  29.353  1.00  0.00     0.059 A 
ATOM    101  F   UNL A   1      48.798  28.225  28.026  1.00  0.00    -0.206 F 
ATOM    102  C   UNL A   1      51.095  27.091  30.574  1.00  0.00     0.060 A 
BRANCH 102 103
ATOM    103  S   UNL A   1      52.865  26.828  30.813  1.00  0.00     0.124 S 
ATOM    104  O   UNL A   1      52.883  25.519  31.459  1.00  0.00    -0.237 OA
ATOM    105  O   UNL A   1      53.377  26.868  29.447  1.00  0.00    -0.237 OA
ATOM    106  O   UNL A   1      53.264  27.949  31.660  1.00  0.00    -0.744 OA
ENDBRANCH 102 103
ENDBRANCH  70  95
ENDBRANCH  44  45
ENDBRANCH  37  39
ENDBRANCH  36  37
ENDBRANCH  35  36
ENDBRANCH  34  35
ENDBRANCH  33  34
ENDBRANCH  32  33
ENDBRANCH  31  32
ENDBRANCH   1  31
TORSDOF 26
ENDMDL
MODEL 3
REMARK VINA RESULT:      -9.4      3.955      8.522
REMARK SMILES Cc1ccc(S(=O)(=O)Nc2cc3c(cc2C(=O)OCCOCCOCCOCCOC(=O)c2ccc(-c4c5nc(c(-c6c(F)cc(S(=O)(=O)[O-])cc6F)c6ccc([nH]6)c(-c6c(F)cc(S(=O)(=O)[O-])cc6F)c6nc(c(-c7c(F)cc(S(=O)(=O)[O-])cc7F)c7ccc4[nH]7)C=C6)C=C5)cc2)OCCO3)s1
REMARK SMILES IDX 24 1 23 2 22 3 21 4 20 5 19 6 18 7 16 8 17 9 15 10 10 11
REMARK SMILES IDX 11 12 12 13 14 14 13 15 102 16 99 17 101 18 100 19 9 20 6 22
REMARK SMILES IDX 7 23 8 24 5 25 1 26 2 27 3 28 103 29 4 30 25 31 26 32 27 33
REMARK SMILES IDX 28 34 29 35 30 36 31 37 32 38 33 39 34 40 98 41 35 42 97 43
REMARK SMILES IDX 36 44 37 45 38 46 91 47 39 48 96 49 90 50 92 51 40 52 95 53
REMARK SMILES IDX 89 54 88 55 41 57 75 58 54 59 74 60 55 61 58 62 73 63 93 64
REMARK SMILES IDX 56 65 57 66 72 68 94 69 59 70 42 71 43 72 52 73 44 74 45 75
REMARK SMILES IDX 51 76 53 77 46 78 47 79 48 80 49 81 50 82 76 83 77 84 86 85
REMARK SMILES IDX 78 86 79 87 85 88 87 89 80 90 81 91 82 92 83 93 84 94 60 95
REMARK SMILES IDX 61 96 70 97 62 98 63 99 69 100 71 101 64 102 65 103 66 104
REMARK SMILES IDX 67 105 68 106
REMARK H PARENT 9 21 92 56 58 67
REMARK Flexibility Score: inf
ROOT
ATOM      1  O   UNL A   1      28.800  29.879  23.686  1.00  0.00    -0.377 OA
ENDROOT
BRANCH   1   2
ATOM      2  C   UNL A   1      29.063  29.073  22.545  1.00  0.00     0.188 C 
BRANCH   2   3
ATOM      3  C   UNL A   1      30.173  28.069  22.852  1.00  0.00     0.188 C 
BRANCH   3   4
ATOM      4  O   UNL A   1      31.462  28.255  22.272  1.00  0.00    -0.376 OA
BRANCH   4   5
ATOM      5  C   UNL A   1      32.595  28.305  23.127  1.00  0.00     0.202 C 
BRANCH   5   6
ATOM      6  C   UNL A   1      33.586  27.152  22.982  1.00  0.00     0.261 C 
BRANCH   6   7
ATOM      7  O   UNL A   1      33.313  26.256  21.891  1.00  0.00    -0.460 OA
BRANCH   7   8
ATOM      8  C   UNL A   1      33.341  24.941  22.218  1.00  0.00     0.340 C 
ATOM      9  O   UNL A   1      33.651  24.010  21.491  1.00  0.00    -0.246 OA
BRANCH   8  10
ATOM     10  C   UNL A   1      32.832  24.716  23.587  1.00  0.00     0.088 A 
ATOM     11  C   UNL A   1      33.677  24.153  24.560  1.00  0.00     0.067 A 
ATOM     12  C   UNL A   1      33.123  23.510  25.666  1.00  0.00     0.078 A 
ATOM     13  C   UNL A   1      31.763  23.651  25.925  1.00  0.00     0.163 A 
ATOM     14  C   UNL A   1      31.466  24.869  23.855  1.00  0.00     0.068 A 
ATOM     15  C   UNL A   1      30.953  24.395  25.060  1.00  0.00     0.162 A 
ATOM     16  O   UNL A   1      31.317  23.120  27.108  1.00  0.00    -0.486 OA
ATOM     17  O   UNL A   1      29.645  24.689  25.343  1.00  0.00    -0.486 OA
ATOM     18  C   UNL A   1      29.893  23.192  27.226  1.00  0.00     0.271 C 
ATOM     19  C   UNL A   1      29.379  24.538  26.743  1.00  0.00     0.271 C 
BRANCH  11  20
ATOM     20  N   UNL A   1      35.097  24.374  24.500  1.00  0.00    -0.278 N 
ATOM     21  H   UNL A   1      35.497  25.247  24.716  1.00  0.00     0.180 HD
BRANCH  20  22
ATOM     22  S   UNL A   1      36.056  23.029  24.029  1.00  0.00     0.271 S 
ATOM     23  O   UNL A   1      36.690  23.379  22.777  1.00  0.00    -0.200 OA
ATOM     24  O   UNL A   1      35.218  21.853  24.136  1.00  0.00    -0.200 OA
BRANCH  22  25
ATOM     25  C   UNL A   1      37.339  22.780  25.252  1.00  0.00     0.140 A 
ATOM     26  C   UNL A   1      40.549  20.881  26.364  1.00  0.00     0.056 C 
ATOM     27  C   UNL A   1      39.366  21.769  26.204  1.00  0.00     0.003 A 
ATOM     28  C   UNL A   1      39.231  23.088  26.576  1.00  0.00     0.016 A 
ATOM     29  S   UNL A   1      37.929  21.202  25.473  1.00  0.00    -0.127 S 
ATOM     30  C   UNL A   1      38.007  23.647  26.101  1.00  0.00     0.034 A 
ENDBRANCH  22  25
ENDBRANCH  20  22
ENDBRANCH  11  20
ENDBRANCH   8  10
ENDBRANCH   7   8
ENDBRANCH   6   7
ENDBRANCH   5   6
ENDBRANCH   4   5
ENDBRANCH   3   4
ENDBRANCH   2   3
ENDBRANCH   1   2
BRANCH   1  31
ATOM     31  C   UNL A   1      29.084  31.259  23.502  1.00  0.00     0.188 C 
BRANCH  31  32
ATOM     32  C   UNL A   1      29.936  31.784  24.660  1.00  0.00     0.188 C 
BRANCH  32  33
ATOM     33  O   UNL A   1      30.798  30.737  25.112  1.00  0.00    -0.376 OA
BRANCH  33  34
ATOM     34  C   UNL A   1      31.471  31.024  26.335  1.00  0.00     0.202 C 
BRANCH  34  35
ATOM     35  C   UNL A   1      32.824  30.297  26.355  1.00  0.00     0.261 C 
BRANCH  35  36
ATOM     36  O   UNL A   1      33.471  30.331  27.644  1.00  0.00    -0.460 OA
BRANCH  36  37
ATOM     37  C   UNL A   1      34.510  31.185  27.750  1.00  0.00     0.338 C 
ATOM     38  O   UNL A   1      34.449  32.405  27.745  1.00  0.00    -0.246 OA
BRANCH  37  39
ATOM     39  C   UNL A   1      35.743  30.431  28.061  1.00  0.00     0.060 A 
ATOM     40  C   UNL A   1      35.773  29.705  29.259  1.00  0.00     0.016 A 
ATOM     41  C   UNL A   1      36.870  30.470  27.234  1.00  0.00     0.016 A 
ATOM     42  C   UNL A   1      36.944  29.070  29.665  1.00  0.00     0.010 A 
ATOM     43  C   UNL A   1      38.054  29.851  27.652  1.00  0.00     0.010 A 
ATOM     44  C   UNL A   1      38.105  29.196  28.894  1.00  0.00    -0.014 A 
BRANCH  44  45
ATOM     45  C   UNL A   1      39.405  28.875  29.529  1.00  0.00     0.031 A 
ATOM     46  C   UNL A   1      39.780  29.634  30.777  1.00  0.00     0.074 A 
ATOM     47  C   UNL A   1      40.193  27.889  29.065  1.00  0.00     0.049 A 
ATOM     48  N   UNL A   1      40.825  29.498  31.550  1.00  0.00    -0.248 NA
ATOM     49  C   UNL A   1      38.843  30.685  31.213  1.00  0.00     0.031 C 
ATOM     50  C   UNL A   1      39.916  27.065  27.890  1.00  0.00     0.029 A 
ATOM     51  N   UNL A   1      41.390  27.412  29.538  1.00  0.00    -0.354 N 
ATOM     52  C   UNL A   1      40.666  30.436  32.564  1.00  0.00     0.074 A 
ATOM     53  C   UNL A   1      39.447  31.162  32.290  1.00  0.00     0.031 C 
ATOM     54  C   UNL A   1      40.923  26.189  27.726  1.00  0.00     0.029 A 
ATOM     55  C   UNL A   1      41.919  26.398  28.775  1.00  0.00     0.049 A 
ATOM     56  H   UNL A   1      41.828  27.764  30.346  1.00  0.00     0.167 HD
ATOM     57  C   UNL A   1      41.460  30.666  33.636  1.00  0.00     0.037 A 
ATOM     58  C   UNL A   1      43.081  25.728  28.909  1.00  0.00     0.037 A 
ATOM     59  C   UNL A   1      42.675  29.945  33.901  1.00  0.00     0.049 A 
ATOM     60  C   UNL A   1      43.979  26.040  30.081  1.00  0.00     0.074 A 
ATOM     61  C   UNL A   1      43.547  30.090  34.966  1.00  0.00     0.029 A 
ATOM     62  N   UNL A   1      43.194  28.948  33.089  1.00  0.00    -0.354 N 
ATOM     63  N   UNL A   1      43.799  26.906  31.053  1.00  0.00    -0.248 NA
ATOM     64  C   UNL A   1      45.232  25.279  30.182  1.00  0.00     0.031 C 
ATOM     65  C   UNL A   1      44.619  29.214  34.771  1.00  0.00     0.029 A 
ATOM     66  C   UNL A   1      44.390  28.487  33.613  1.00  0.00     0.049 A 
ATOM     67  H   UNL A   1      42.776  28.617  32.262  1.00  0.00     0.167 HD
ATOM     68  C   UNL A   1      44.902  26.774  31.890  1.00  0.00     0.074 A 
ATOM     69  C   UNL A   1      45.736  25.736  31.320  1.00  0.00     0.031 C 
ATOM     70  C   UNL A   1      45.202  27.449  33.029  1.00  0.00     0.037 A 
BRANCH  57  71
ATOM     71  C   UNL A   1      41.050  31.756  34.584  1.00  0.00     0.058 A 
ATOM     72  C   UNL A   1      40.261  31.494  35.716  1.00  0.00     0.135 A 
ATOM     73  C   UNL A   1      41.474  33.077  34.373  1.00  0.00     0.135 A 
ATOM     74  F   UNL A   1      39.807  30.252  35.951  1.00  0.00    -0.206 F 
ATOM     75  C   UNL A   1      39.894  32.506  36.596  1.00  0.00     0.059 A 
ATOM     76  C   UNL A   1      41.140  34.101  35.253  1.00  0.00     0.059 A 
ATOM     77  F   UNL A   1      42.220  33.384  33.300  1.00  0.00    -0.206 F 
ATOM     78  C   UNL A   1      40.341  33.807  36.357  1.00  0.00     0.060 A 
BRANCH  78  79
ATOM     79  S   UNL A   1      39.871  35.108  37.518  1.00  0.00     0.124 S 
ATOM     80  O   UNL A   1      39.953  36.296  36.672  1.00  0.00    -0.237 OA
ATOM     81  O   UNL A   1      38.526  34.703  37.913  1.00  0.00    -0.237 OA
ATOM     82  O   UNL A   1      40.884  35.012  38.563  1.00  0.00    -0.744 OA
ENDBRANCH  78  79
ENDBRANCH  57  71
BRANCH  58  83
ATOM     83  C   UNL A   1      43.475  24.704  27.904  1.00  0.00     0.058 A 
ATOM     84  C   UNL A   1      43.039  23.374  28.000  1.00  0.00     0.135 A 
ATOM     85  C   UNL A   1      44.321  25.035  26.833  1.00  0.00     0.135 A 
ATOM     86  F   UNL A   1      42.238  23.004  29.012  1.00  0.00    -0.206 F 
ATOM     87  C   UNL A   1      43.440  22.405  27.086  1.00  0.00     0.059 A 
ATOM     88  C   UNL A   1      44.715  24.090  25.891  1.00  0.00     0.059 A 
ATOM     89  F   UNL A   1      44.761  26.295  26.687  1.00  0.00    -0.206 F 
ATOM     90  C   UNL A   1      44.280  22.774  26.034  1.00  0.00     0.060 A 
BRANCH  90  91
ATOM     91  S   UNL A   1      44.770  21.520  24.830  1.00  0.00     0.124 S 
ATOM     92  O   UNL A   1      44.565  22.225  23.570  1.00  0.00    -0.237 OA
ATOM     93  O   UNL A   1      46.158  21.264  25.201  1.00  0.00    -0.237 OA
ATOM     94  O   UNL A   1      43.846  20.421  25.097  1.00  0.00    -0.744 OA
ENDBRANCH  90  91
ENDBRANCH  58  83
BRANCH  70  95
ATOM     95  C   UNL A   1      46.467  27.069  33.748  1.00  0.00     0.058 A 
ATOM     96  C   UNL A   1      46.473  26.111  34.774  1.00  0.00     0.135 A 
ATOM     97  C   UNL A   1      47.696  27.635  33.371  1.00  0.00     0.135 A 
ATOM     98  F   UNL A   1      45.325  25.542  35.172  1.00  0.00    -0.206 F 
ATOM     99  C   UNL A   1      47.649  25.751  35.423  1.00  0.00     0.059 A 
ATOM    100  C   UNL A   1      48.888  27.269  33.987  1.00  0.00     0.059 A 
ATOM    101  F   UNL A   1      47.748  28.544  32.384  1.00  0.00    -0.206 F 
ATOM    102  C   UNL A   1      48.852  26.337  35.023  1.00  0.00     0.060 A 
BRANCH 102 103
ATOM    103  S   UNL A   1      50.374  25.847  35.861  1.00  0.00     0.124 S 
ATOM    104  O   UNL A   1      50.741  27.080  36.549  1.00  0.00    -0.237 OA
ATOM    105  O   UNL A   1      49.925  24.753  36.716  1.00  0.00    -0.237 OA
ATOM    106  O   UNL A   1      51.255  25.456  34.763  1.00  0.00    -0.744 OA
ENDBRANCH 102 103
ENDBRANCH  70  95
ENDBRANCH  44  45
ENDBRANCH  37  39
ENDBRANCH  36  37
ENDBRANCH  35  36
ENDBRANCH  34  35
ENDBRANCH  33  34
ENDBRANCH  32  33
ENDBRANCH  31  32
ENDBRANCH   1  31
TORSDOF 26
ENDMDL
