MODEL 1
REMARK VINA RESULT:      -8.3      0.000      0.000
REMARK SMILES NC(=O)c1ccc(Oc2cccc(C(=O)OCCOCCOCCOCCOC(=O)c3ccc(-c4c5nc(c(-c6c(F)cc(S(=O)(=O)[O-])cc6F)c6ccc([nH]6)c(-c6c(F)cc(S(=O)(=O)[O-])cc6F)c6nc(c(-c7c(F)cc(S(=O)(=O)[O-])cc7F)c7ccc4[nH]7)C=C6)C=C5)cc3)c2)nc1
REMARK SMILES IDX 22 1 21 2 20 3 19 4 18 5 17 6 16 7 14 8 15 9 13 10 9 11
REMARK SMILES IDX 10 12 97 13 11 14 12 15 8 16 7 17 4 18 5 19 99 20 6 21 98 22
REMARK SMILES IDX 2 23 1 24 3 27 23 28 24 29 25 30 26 31 27 32 28 33 29 34
REMARK SMILES IDX 30 35 31 36 32 37 96 38 33 39 95 40 34 41 35 42 36 43 89 44
REMARK SMILES IDX 37 45 94 46 88 47 90 48 38 49 93 50 87 51 86 52 39 54 73 55
REMARK SMILES IDX 52 56 72 57 53 58 56 59 71 60 91 61 54 62 55 63 70 65 92 66
REMARK SMILES IDX 57 67 40 68 41 69 50 70 42 71 43 72 49 73 51 74 44 75 45 76
REMARK SMILES IDX 46 77 47 78 48 79 74 80 75 81 84 82 76 83 77 84 83 85 85 86
REMARK SMILES IDX 78 87 79 88 80 89 81 90 82 91 58 92 59 93 68 94 60 95 61 96
REMARK SMILES IDX 67 97 69 98 62 99 63 100 64 101 65 102 66 103
REMARK H PARENT 1 25 1 26 90 53 56 64
REMARK Flexibility Score: inf
ROOT
ATOM      1  O   UNL A   1      45.782  19.928  25.466  1.00  0.00    -0.377 OA
ENDROOT
BRANCH   1   2
ATOM      2  C   UNL A   1      45.181  21.162  25.119  1.00  0.00     0.188 C 
BRANCH   2   3
ATOM      3  C   UNL A   1      46.132  22.127  24.389  1.00  0.00     0.188 C 
BRANCH   3   4
ATOM      4  O   UNL A   1      46.545  23.226  25.182  1.00  0.00    -0.376 OA
BRANCH   4   5
ATOM      5  C   UNL A   1      46.347  23.248  26.586  1.00  0.00     0.202 C 
BRANCH   5   6
ATOM      6  C   UNL A   1      45.215  24.004  27.304  1.00  0.00     0.261 C 
BRANCH   6   7
ATOM      7  O   UNL A   1      45.339  24.188  28.711  1.00  0.00    -0.460 OA
BRANCH   7   8
ATOM      8  C   UNL A   1      44.483  23.539  29.519  1.00  0.00     0.338 C 
ATOM      9  O   UNL A   1      43.932  22.471  29.311  1.00  0.00    -0.246 OA
BRANCH   8  10
ATOM     10  C   UNL A   1      44.468  24.261  30.813  1.00  0.00     0.063 A 
ATOM     11  C   UNL A   1      44.252  24.274  33.211  1.00  0.00     0.130 A 
ATOM     12  C   UNL A   1      44.481  25.649  33.236  1.00  0.00     0.047 A 
ATOM     13  C   UNL A   1      44.134  23.600  31.996  1.00  0.00     0.062 A 
ATOM     14  C   UNL A   1      44.712  26.333  32.041  1.00  0.00     0.005 A 
ATOM     15  C   UNL A   1      44.750  25.632  30.833  1.00  0.00     0.016 A 
BRANCH  11  16
ATOM     16  O   UNL A   1      44.193  23.612  34.416  1.00  0.00    -0.439 OA
BRANCH  16  17
ATOM     17  C   UNL A   1      45.319  22.918  34.831  1.00  0.00     0.219 A 
ATOM     18  C   UNL A   1      47.442  21.351  35.650  1.00  0.00     0.058 A 
ATOM     19  C   UNL A   1      47.697  22.559  35.014  1.00  0.00     0.021 A 
ATOM     20  C   UNL A   1      46.112  20.993  35.843  1.00  0.00     0.129 A 
ATOM     21  C   UNL A   1      46.628  23.368  34.645  1.00  0.00     0.070 A 
ATOM     22  N   UNL A   1      45.051  21.749  35.451  1.00  0.00    -0.221 NA
BRANCH  18  23
ATOM     23  C   UNL A   1      48.513  20.455  36.134  1.00  0.00     0.250 C 
ATOM     24  N   UNL A   1      48.243  19.663  37.216  1.00  0.00    -0.366 N 
ATOM     25  H   UNL A   1      48.934  19.055  37.565  1.00  0.00     0.159 HD
ATOM     26  H   UNL A   1      47.359  19.702  37.646  1.00  0.00     0.159 HD
ATOM     27  O   UNL A   1      49.591  20.390  35.560  1.00  0.00    -0.269 OA
ENDBRANCH  18  23
ENDBRANCH  16  17
ENDBRANCH  11  16
ENDBRANCH   8  10
ENDBRANCH   7   8
ENDBRANCH   6   7
ENDBRANCH   5   6
ENDBRANCH   4   5
ENDBRANCH   3   4
ENDBRANCH   2   3
ENDBRANCH   1   2
BRANCH   1  28
ATOM     28  C   UNL A   1      45.013  18.734  25.321  1.00  0.00     0.188 C 
BRANCH  28  29
ATOM     29  C   UNL A   1      43.502  18.758  24.984  1.00  0.00     0.188 C 
BRANCH  29  30
ATOM     30  O   UNL A   1      42.636  18.893  26.105  1.00  0.00    -0.376 OA
BRANCH  30  31
ATOM     31  C   UNL A   1      42.176  20.192  26.440  1.00  0.00     0.202 C 
BRANCH  31  32
ATOM     32  C   UNL A   1      40.871  20.252  27.244  1.00  0.00     0.261 C 
BRANCH  32  33
ATOM     33  O   UNL A   1      40.520  21.544  27.759  1.00  0.00    -0.460 OA
BRANCH  33  34
ATOM     34  C   UNL A   1      39.869  22.385  26.924  1.00  0.00     0.338 C 
ATOM     35  O   UNL A   1      39.094  22.084  26.036  1.00  0.00    -0.246 OA
BRANCH  34  36
ATOM     36  C   UNL A   1      40.113  23.761  27.399  1.00  0.00     0.060 A 
ATOM     37  C   UNL A   1      39.524  24.833  26.717  1.00  0.00     0.016 A 
ATOM     38  C   UNL A   1      40.917  23.987  28.519  1.00  0.00     0.016 A 
ATOM     39  C   UNL A   1      39.769  26.142  27.134  1.00  0.00     0.010 A 
ATOM     40  C   UNL A   1      41.176  25.297  28.923  1.00  0.00     0.010 A 
ATOM     41  C   UNL A   1      40.631  26.382  28.213  1.00  0.00    -0.014 A 
BRANCH  41  42
ATOM     42  C   UNL A   1      41.126  27.756  28.474  1.00  0.00     0.031 A 
ATOM     43  C   UNL A   1      42.584  28.041  28.225  1.00  0.00     0.074 A 
ATOM     44  C   UNL A   1      40.305  28.730  28.905  1.00  0.00     0.049 A 
ATOM     45  N   UNL A   1      43.267  29.132  28.450  1.00  0.00    -0.248 NA
ATOM     46  C   UNL A   1      43.377  26.945  27.642  1.00  0.00     0.031 C 
ATOM     47  C   UNL A   1      38.870  28.585  29.145  1.00  0.00     0.029 A 
ATOM     48  N   UNL A   1      40.570  30.037  29.232  1.00  0.00    -0.354 N 
ATOM     49  C   UNL A   1      44.564  28.857  28.033  1.00  0.00     0.074 A 
ATOM     50  C   UNL A   1      44.584  27.485  27.579  1.00  0.00     0.031 C 
ATOM     51  C   UNL A   1      38.385  29.752  29.605  1.00  0.00     0.029 A 
ATOM     52  C   UNL A   1      39.480  30.716  29.723  1.00  0.00     0.049 A 
ATOM     53  H   UNL A   1      41.457  30.450  29.126  1.00  0.00     0.167 HD
ATOM     54  C   UNL A   1      45.639  29.681  28.015  1.00  0.00     0.037 A 
ATOM     55  C   UNL A   1      39.387  31.959  30.238  1.00  0.00     0.037 A 
ATOM     56  C   UNL A   1      45.616  31.043  28.478  1.00  0.00     0.049 A 
ATOM     57  C   UNL A   1      40.621  32.829  30.289  1.00  0.00     0.074 A 
ATOM     58  C   UNL A   1      46.656  31.955  28.518  1.00  0.00     0.029 A 
ATOM     59  N   UNL A   1      44.497  31.689  28.980  1.00  0.00    -0.354 N 
ATOM     60  N   UNL A   1      41.840  32.561  29.881  1.00  0.00    -0.248 NA
ATOM     61  C   UNL A   1      40.466  34.174  30.863  1.00  0.00     0.031 C 
ATOM     62  C   UNL A   1      46.176  33.139  29.085  1.00  0.00     0.029 A 
ATOM     63  C   UNL A   1      44.824  32.984  29.344  1.00  0.00     0.049 A 
ATOM     64  H   UNL A   1      43.602  31.288  29.065  1.00  0.00     0.167 HD
ATOM     65  C   UNL A   1      42.585  33.714  30.119  1.00  0.00     0.074 A 
ATOM     66  C   UNL A   1      41.677  34.685  30.691  1.00  0.00     0.031 C 
ATOM     67  C   UNL A   1      43.900  33.948  29.887  1.00  0.00     0.037 A 
BRANCH  54  68
ATOM     68  C   UNL A   1      46.931  29.132  27.479  1.00  0.00     0.058 A 
ATOM     69  C   UNL A   1      47.909  28.596  28.333  1.00  0.00     0.135 A 
ATOM     70  C   UNL A   1      47.172  29.085  26.098  1.00  0.00     0.135 A 
ATOM     71  F   UNL A   1      47.740  28.637  29.665  1.00  0.00    -0.206 F 
ATOM     72  C   UNL A   1      49.083  28.042  27.836  1.00  0.00     0.059 A 
ATOM     73  C   UNL A   1      48.327  28.510  25.576  1.00  0.00     0.059 A 
ATOM     74  F   UNL A   1      46.275  29.591  25.237  1.00  0.00    -0.206 F 
ATOM     75  C   UNL A   1      49.280  27.996  26.456  1.00  0.00     0.060 A 
BRANCH  75  76
ATOM     76  S   UNL A   1      50.792  27.236  25.828  1.00  0.00     0.124 S 
ATOM     77  O   UNL A   1      51.248  28.239  24.872  1.00  0.00    -0.237 OA
ATOM     78  O   UNL A   1      51.597  27.102  27.039  1.00  0.00    -0.237 OA
ATOM     79  O   UNL A   1      50.328  25.981  25.245  1.00  0.00    -0.744 OA
ENDBRANCH  75  76
ENDBRANCH  54  68
BRANCH  55  80
ATOM     80  C   UNL A   1      38.093  32.459  30.783  1.00  0.00     0.058 A 
ATOM     81  C   UNL A   1      37.168  33.130  29.969  1.00  0.00     0.135 A 
ATOM     82  C   UNL A   1      37.779  32.324  32.146  1.00  0.00     0.135 A 
ATOM     83  F   UNL A   1      37.422  33.296  28.662  1.00  0.00    -0.206 F 
ATOM     84  C   UNL A   1      36.001  33.681  30.489  1.00  0.00     0.059 A 
ATOM     85  C   UNL A   1      36.603  32.837  32.683  1.00  0.00     0.059 A 
ATOM     86  F   UNL A   1      38.622  31.680  32.968  1.00  0.00    -0.206 F 
ATOM     87  C   UNL A   1      35.729  33.533  31.850  1.00  0.00     0.060 A 
BRANCH  87  88
ATOM     88  S   UNL A   1      34.208  34.248  32.512  1.00  0.00     0.124 S 
ATOM     89  O   UNL A   1      34.729  35.323  33.348  1.00  0.00    -0.237 OA
ATOM     90  O   UNL A   1      33.511  34.663  31.298  1.00  0.00    -0.237 OA
ATOM     91  O   UNL A   1      33.595  33.132  33.226  1.00  0.00    -0.744 OA
ENDBRANCH  87  88
ENDBRANCH  55  80
BRANCH  67  92
ATOM     92  C   UNL A   1      44.431  35.323  30.196  1.00  0.00     0.058 A 
ATOM     93  C   UNL A   1      44.438  36.350  29.240  1.00  0.00     0.135 A 
ATOM     94  C   UNL A   1      44.884  35.631  31.490  1.00  0.00     0.135 A 
ATOM     95  F   UNL A   1      44.018  36.110  27.988  1.00  0.00    -0.206 F 
ATOM     96  C   UNL A   1      44.901  37.626  29.547  1.00  0.00     0.059 A 
ATOM     97  C   UNL A   1      45.321  36.908  31.828  1.00  0.00     0.059 A 
ATOM     98  F   UNL A   1      44.887  34.690  32.449  1.00  0.00    -0.206 F 
ATOM     99  C   UNL A   1      45.338  37.896  30.846  1.00  0.00     0.060 A 
BRANCH  99 100
ATOM    100  S   UNL A   1      45.902  39.565  31.239  1.00  0.00     0.124 S 
ATOM    101  O   UNL A   1      46.552  39.360  32.530  1.00  0.00    -0.237 OA
ATOM    102  O   UNL A   1      46.793  39.866  30.123  1.00  0.00    -0.237 OA
ATOM    103  O   UNL A   1      44.667  40.343  31.276  1.00  0.00    -0.744 OA
ENDBRANCH  99 100
ENDBRANCH  67  92
ENDBRANCH  41  42
ENDBRANCH  34  36
ENDBRANCH  33  34
ENDBRANCH  32  33
ENDBRANCH  31  32
ENDBRANCH  30  31
ENDBRANCH  29  30
ENDBRANCH  28  29
ENDBRANCH   1  28
TORSDOF 26
ENDMDL
MODEL 2
REMARK VINA RESULT:      -8.0      2.362      8.416
REMARK SMILES NC(=O)c1ccc(Oc2cccc(C(=O)OCCOCCOCCOCCOC(=O)c3ccc(-c4c5nc(c(-c6c(F)cc(S(=O)(=O)[O-])cc6F)c6ccc([nH]6)c(-c6c(F)cc(S(=O)(=O)[O-])cc6F)c6nc(c(-c7c(F)cc(S(=O)(=O)[O-])cc7F)c7ccc4[nH]7)C=C6)C=C5)cc3)c2)nc1
REMARK SMILES IDX 22 1 21 2 20 3 19 4 18 5 17 6 16 7 14 8 15 9 13 10 9 11
REMARK SMILES IDX 10 12 97 13 11 14 12 15 8 16 7 17 4 18 5 19 99 20 6 21 98 22
REMARK SMILES IDX 2 23 1 24 3 27 23 28 24 29 25 30 26 31 27 32 28 33 29 34
REMARK SMILES IDX 30 35 31 36 32 37 96 38 33 39 95 40 34 41 35 42 36 43 89 44
REMARK SMILES IDX 37 45 94 46 88 47 90 48 38 49 93 50 87 51 86 52 39 54 73 55
REMARK SMILES IDX 52 56 72 57 53 58 56 59 71 60 91 61 54 62 55 63 70 65 92 66
REMARK SMILES IDX 57 67 40 68 41 69 50 70 42 71 43 72 49 73 51 74 44 75 45 76
REMARK SMILES IDX 46 77 47 78 48 79 74 80 75 81 84 82 76 83 77 84 83 85 85 86
REMARK SMILES IDX 78 87 79 88 80 89 81 90 82 91 58 92 59 93 68 94 60 95 61 96
REMARK SMILES IDX 67 97 69 98 62 99 63 100 64 101 65 102 66 103
REMARK H PARENT 1 25 1 26 90 53 56 64
REMARK Flexibility Score: inf
ROOT
ATOM      1  O   UNL A   1      46.025  20.599  25.391  1.00  0.00    -0.377 OA
ENDROOT
BRANCH   1   2
ATOM      2  C   UNL A   1      45.393  21.855  25.224  1.00  0.00     0.188 C 
BRANCH   2   3
ATOM      3  C   UNL A   1      45.762  22.560  23.905  1.00  0.00     0.188 C 
BRANCH   3   4
ATOM      4  O   UNL A   1      46.375  23.823  24.089  1.00  0.00    -0.376 OA
BRANCH   4   5
ATOM      5  C   UNL A   1      46.608  24.358  25.382  1.00  0.00     0.202 C 
BRANCH   5   6
ATOM      6  C   UNL A   1      47.978  24.823  25.909  1.00  0.00     0.261 C 
BRANCH   6   7
ATOM      7  O   UNL A   1      48.089  25.084  27.305  1.00  0.00    -0.460 OA
BRANCH   7   8
ATOM      8  C   UNL A   1      49.253  24.807  27.916  1.00  0.00     0.338 C 
ATOM      9  O   UNL A   1      50.301  24.462  27.395  1.00  0.00    -0.246 OA
BRANCH   8  10
ATOM     10  C   UNL A   1      49.100  25.182  29.341  1.00  0.00     0.063 A 
ATOM     11  C   UNL A   1      50.016  25.471  31.550  1.00  0.00     0.130 A 
ATOM     12  C   UNL A   1      48.784  25.931  32.013  1.00  0.00     0.047 A 
ATOM     13  C   UNL A   1      50.146  24.992  30.246  1.00  0.00     0.062 A 
ATOM     14  C   UNL A   1      47.705  26.024  31.133  1.00  0.00     0.005 A 
ATOM     15  C   UNL A   1      47.874  25.692  29.786  1.00  0.00     0.016 A 
BRANCH  11  16
ATOM     16  O   UNL A   1      51.092  25.549  32.403  1.00  0.00    -0.439 OA
BRANCH  16  17
ATOM     17  C   UNL A   1      51.675  24.363  32.823  1.00  0.00     0.219 A 
ATOM     18  C   UNL A   1      53.009  22.119  33.726  1.00  0.00     0.058 A 
ATOM     19  C   UNL A   1      51.622  22.099  33.652  1.00  0.00     0.021 A 
ATOM     20  C   UNL A   1      53.658  23.285  33.336  1.00  0.00     0.129 A 
ATOM     21  C   UNL A   1      50.955  23.212  33.152  1.00  0.00     0.070 A 
ATOM     22  N   UNL A   1      53.022  24.401  32.885  1.00  0.00    -0.221 NA
BRANCH  18  23
ATOM     23  C   UNL A   1      53.806  20.962  34.184  1.00  0.00     0.250 C 
ATOM     24  N   UNL A   1      53.645  19.774  33.525  1.00  0.00    -0.366 N 
ATOM     25  H   UNL A   1      54.161  18.983  33.804  1.00  0.00     0.159 HD
ATOM     26  H   UNL A   1      53.014  19.711  32.773  1.00  0.00     0.159 HD
ATOM     27  O   UNL A   1      54.617  21.072  35.094  1.00  0.00    -0.269 OA
ENDBRANCH  18  23
ENDBRANCH  16  17
ENDBRANCH  11  16
ENDBRANCH   8  10
ENDBRANCH   7   8
ENDBRANCH   6   7
ENDBRANCH   5   6
ENDBRANCH   4   5
ENDBRANCH   3   4
ENDBRANCH   2   3
ENDBRANCH   1   2
BRANCH   1  28
ATOM     28  C   UNL A   1      45.209  19.426  25.403  1.00  0.00     0.188 C 
BRANCH  28  29
ATOM     29  C   UNL A   1      43.882  19.332  24.610  1.00  0.00     0.188 C 
BRANCH  29  30
ATOM     30  O   UNL A   1      42.709  19.225  25.407  1.00  0.00    -0.376 OA
BRANCH  30  31
ATOM     31  C   UNL A   1      42.264  20.381  26.098  1.00  0.00     0.202 C 
BRANCH  31  32
ATOM     32  C   UNL A   1      40.769  20.421  26.440  1.00  0.00     0.261 C 
BRANCH  32  33
ATOM     33  O   UNL A   1      40.354  21.513  27.273  1.00  0.00    -0.460 OA
BRANCH  33  34
ATOM     34  C   UNL A   1      39.632  22.495  26.688  1.00  0.00     0.338 C 
ATOM     35  O   UNL A   1      38.650  22.364  25.983  1.00  0.00    -0.246 OA
BRANCH  34  36
ATOM     36  C   UNL A   1      40.130  23.783  27.210  1.00  0.00     0.060 A 
ATOM     37  C   UNL A   1      39.729  24.972  26.588  1.00  0.00     0.016 A 
ATOM     38  C   UNL A   1      40.984  23.813  28.315  1.00  0.00     0.016 A 
ATOM     39  C   UNL A   1      40.214  26.196  27.049  1.00  0.00     0.010 A 
ATOM     40  C   UNL A   1      41.484  25.036  28.763  1.00  0.00     0.010 A 
ATOM     41  C   UNL A   1      41.128  26.231  28.112  1.00  0.00    -0.014 A 
BRANCH  41  42
ATOM     42  C   UNL A   1      41.868  27.481  28.412  1.00  0.00     0.031 A 
ATOM     43  C   UNL A   1      41.100  28.632  29.006  1.00  0.00     0.074 A 
ATOM     44  C   UNL A   1      43.188  27.590  28.180  1.00  0.00     0.049 A 
ATOM     45  N   UNL A   1      41.501  29.845  29.281  1.00  0.00    -0.248 NA
ATOM     46  C   UNL A   1      39.686  28.379  29.334  1.00  0.00     0.031 C 
ATOM     47  C   UNL A   1      44.045  26.534  27.645  1.00  0.00     0.029 A 
ATOM     48  N   UNL A   1      44.037  28.656  28.354  1.00  0.00    -0.354 N 
ATOM     49  C   UNL A   1      40.396  30.495  29.817  1.00  0.00     0.074 A 
ATOM     50  C   UNL A   1      39.296  29.558  29.792  1.00  0.00     0.031 C 
ATOM     51  C   UNL A   1      45.295  27.012  27.511  1.00  0.00     0.029 A 
ATOM     52  C   UNL A   1      45.320  28.417  27.920  1.00  0.00     0.049 A 
ATOM     53  H   UNL A   1      43.754  29.510  28.752  1.00  0.00     0.167 HD
ATOM     54  C   UNL A   1      40.310  31.756  30.303  1.00  0.00     0.037 A 
ATOM     55  C   UNL A   1      46.379  29.248  27.833  1.00  0.00     0.037 A 
ATOM     56  C   UNL A   1      41.405  32.689  30.316  1.00  0.00     0.049 A 
ATOM     57  C   UNL A   1      46.233  30.677  28.299  1.00  0.00     0.074 A 
ATOM     58  C   UNL A   1      41.416  33.996  30.770  1.00  0.00     0.029 A 
ATOM     59  N   UNL A   1      42.684  32.414  29.856  1.00  0.00    -0.354 N 
ATOM     60  N   UNL A   1      45.185  31.277  28.815  1.00  0.00    -0.248 NA
ATOM     61  C   UNL A   1      47.417  31.542  28.180  1.00  0.00     0.031 C 
ATOM     62  C   UNL A   1      42.690  34.526  30.544  1.00  0.00     0.029 A 
ATOM     63  C   UNL A   1      43.489  33.532  30.003  1.00  0.00     0.049 A 
ATOM     64  H   UNL A   1      42.978  31.553  29.480  1.00  0.00     0.167 HD
ATOM     65  C   UNL A   1      45.595  32.576  29.110  1.00  0.00     0.074 A 
ATOM     66  C   UNL A   1      46.988  32.669  28.730  1.00  0.00     0.031 C 
ATOM     67  C   UNL A   1      44.883  33.599  29.645  1.00  0.00     0.037 A 
BRANCH  54  68
ATOM     68  C   UNL A   1      38.988  32.203  30.858  1.00  0.00     0.058 A 
ATOM     69  C   UNL A   1      37.943  32.618  30.017  1.00  0.00     0.135 A 
ATOM     70  C   UNL A   1      38.738  32.161  32.239  1.00  0.00     0.135 A 
ATOM     71  F   UNL A   1      38.134  32.700  28.690  1.00  0.00    -0.206 F 
ATOM     72  C   UNL A   1      36.701  32.984  30.525  1.00  0.00     0.059 A 
ATOM     73  C   UNL A   1      37.496  32.496  32.768  1.00  0.00     0.059 A 
ATOM     74  F   UNL A   1      39.705  31.781  33.089  1.00  0.00    -0.206 F 
ATOM     75  C   UNL A   1      36.485  32.912  31.902  1.00  0.00     0.060 A 
BRANCH  75  76
ATOM     76  S   UNL A   1      34.854  33.351  32.539  1.00  0.00     0.124 S 
ATOM     77  O   UNL A   1      33.977  32.650  31.606  1.00  0.00    -0.237 OA
ATOM     78  O   UNL A   1      34.895  32.814  33.895  1.00  0.00    -0.237 OA
ATOM     79  O   UNL A   1      34.831  34.808  32.445  1.00  0.00    -0.744 OA
ENDBRANCH  75  76
ENDBRANCH  54  68
BRANCH  55  80
ATOM     80  C   UNL A   1      47.668  28.775  27.253  1.00  0.00     0.058 A 
ATOM     81  C   UNL A   1      48.799  28.570  28.057  1.00  0.00     0.135 A 
ATOM     82  C   UNL A   1      47.809  28.571  25.870  1.00  0.00     0.135 A 
ATOM     83  F   UNL A   1      48.723  28.760  29.383  1.00  0.00    -0.206 F 
ATOM     84  C   UNL A   1      50.030  28.219  27.511  1.00  0.00     0.059 A 
ATOM     85  C   UNL A   1      49.020  28.187  25.304  1.00  0.00     0.059 A 
ATOM     86  F   UNL A   1      46.756  28.741  25.055  1.00  0.00    -0.206 F 
ATOM     87  C   UNL A   1      50.132  28.034  26.131  1.00  0.00     0.060 A 
BRANCH  87  88
ATOM     88  S   UNL A   1      51.733  27.572  25.435  1.00  0.00     0.124 S 
ATOM     89  O   UNL A   1      52.457  27.139  26.624  1.00  0.00    -0.237 OA
ATOM     90  O   UNL A   1      51.366  26.520  24.492  1.00  0.00    -0.237 OA
ATOM     91  O   UNL A   1      52.205  28.812  24.824  1.00  0.00    -0.744 OA
ENDBRANCH  87  88
ENDBRANCH  55  80
BRANCH  67  92
ATOM     92  C   UNL A   1      45.607  34.893  29.907  1.00  0.00     0.058 A 
ATOM     93  C   UNL A   1      45.678  35.913  28.947  1.00  0.00     0.135 A 
ATOM     94  C   UNL A   1      46.187  35.136  31.164  1.00  0.00     0.135 A 
ATOM     95  F   UNL A   1      45.143  35.734  27.729  1.00  0.00    -0.206 F 
ATOM     96  C   UNL A   1      46.321  37.119  29.213  1.00  0.00     0.059 A 
ATOM     97  C   UNL A   1      46.807  36.345  31.463  1.00  0.00     0.059 A 
ATOM     98  F   UNL A   1      46.137  34.199  32.125  1.00  0.00    -0.206 F 
ATOM     99  C   UNL A   1      46.880  37.326  30.476  1.00  0.00     0.060 A 
BRANCH  99 100
ATOM    100  S   UNL A   1      47.681  38.907  30.818  1.00  0.00     0.124 S 
ATOM    101  O   UNL A   1      49.092  38.534  30.802  1.00  0.00    -0.237 OA
ATOM    102  O   UNL A   1      47.232  39.734  29.703  1.00  0.00    -0.237 OA
ATOM    103  O   UNL A   1      47.147  39.284  32.124  1.00  0.00    -0.744 OA
ENDBRANCH  99 100
ENDBRANCH  67  92
ENDBRANCH  41  42
ENDBRANCH  34  36
ENDBRANCH  33  34
ENDBRANCH  32  33
ENDBRANCH  31  32
ENDBRANCH  30  31
ENDBRANCH  29  30
ENDBRANCH  28  29
ENDBRANCH   1  28
TORSDOF 26
ENDMDL
MODEL 3
REMARK VINA RESULT:      -8.0      6.279     13.360
REMARK SMILES NC(=O)c1ccc(Oc2cccc(C(=O)OCCOCCOCCOCCOC(=O)c3ccc(-c4c5nc(c(-c6c(F)cc(S(=O)(=O)[O-])cc6F)c6ccc([nH]6)c(-c6c(F)cc(S(=O)(=O)[O-])cc6F)c6nc(c(-c7c(F)cc(S(=O)(=O)[O-])cc7F)c7ccc4[nH]7)C=C6)C=C5)cc3)c2)nc1
REMARK SMILES IDX 22 1 21 2 20 3 19 4 18 5 17 6 16 7 14 8 15 9 13 10 9 11
REMARK SMILES IDX 10 12 97 13 11 14 12 15 8 16 7 17 4 18 5 19 99 20 6 21 98 22
REMARK SMILES IDX 2 23 1 24 3 27 23 28 24 29 25 30 26 31 27 32 28 33 29 34
REMARK SMILES IDX 30 35 31 36 32 37 96 38 33 39 95 40 34 41 35 42 36 43 89 44
REMARK SMILES IDX 37 45 94 46 88 47 90 48 38 49 93 50 87 51 86 52 39 54 73 55
REMARK SMILES IDX 52 56 72 57 53 58 56 59 71 60 91 61 54 62 55 63 70 65 92 66
REMARK SMILES IDX 57 67 40 68 41 69 50 70 42 71 43 72 49 73 51 74 44 75 45 76
REMARK SMILES IDX 46 77 47 78 48 79 74 80 75 81 84 82 76 83 77 84 83 85 85 86
REMARK SMILES IDX 78 87 79 88 80 89 81 90 82 91 58 92 59 93 68 94 60 95 61 96
REMARK SMILES IDX 67 97 69 98 62 99 63 100 64 101 65 102 66 103
REMARK H PARENT 1 25 1 26 90 53 56 64
REMARK Flexibility Score: inf
ROOT
ATOM      1  O   UNL A   1      36.958  32.173  29.125  1.00  0.00    -0.377 OA
ENDROOT
BRANCH   1   2
ATOM      2  C   UNL A   1      35.784  31.494  28.718  1.00  0.00     0.188 C 
BRANCH   2   3
ATOM      3  C   UNL A   1      36.062  30.229  27.884  1.00  0.00     0.188 C 
BRANCH   3   4
ATOM      4  O   UNL A   1      34.910  29.704  27.248  1.00  0.00    -0.376 OA
BRANCH   4   5
ATOM      5  C   UNL A   1      33.712  30.455  27.138  1.00  0.00     0.202 C 
BRANCH   5   6
ATOM      6  C   UNL A   1      32.324  29.861  26.837  1.00  0.00     0.261 C 
BRANCH   6   7
ATOM      7  O   UNL A   1      31.785  30.082  25.537  1.00  0.00    -0.460 OA
BRANCH   7   8
ATOM      8  C   UNL A   1      32.126  29.235  24.551  1.00  0.00     0.338 C 
ATOM      9  O   UNL A   1      33.196  29.165  23.970  1.00  0.00    -0.246 OA
BRANCH   8  10
ATOM     10  C   UNL A   1      31.024  28.253  24.415  1.00  0.00     0.063 A 
ATOM     11  C   UNL A   1      29.917  26.227  25.100  1.00  0.00     0.130 A 
ATOM     12  C   UNL A   1      28.914  26.443  24.157  1.00  0.00     0.047 A 
ATOM     13  C   UNL A   1      31.028  27.069  25.154  1.00  0.00     0.062 A 
ATOM     14  C   UNL A   1      28.961  27.576  23.343  1.00  0.00     0.005 A 
ATOM     15  C   UNL A   1      29.993  28.505  23.502  1.00  0.00     0.016 A 
BRANCH  11  16
ATOM     16  O   UNL A   1      29.748  25.192  25.990  1.00  0.00    -0.439 OA
BRANCH  16  17
ATOM     17  C   UNL A   1      30.708  24.191  26.012  1.00  0.00     0.219 A 
ATOM     18  C   UNL A   1      32.591  22.186  26.275  1.00  0.00     0.058 A 
ATOM     19  C   UNL A   1      31.939  22.350  25.058  1.00  0.00     0.021 A 
ATOM     20  C   UNL A   1      32.253  23.055  27.307  1.00  0.00     0.129 A 
ATOM     21  C   UNL A   1      31.027  23.390  24.914  1.00  0.00     0.070 A 
ATOM     22  N   UNL A   1      31.332  24.051  27.200  1.00  0.00    -0.221 NA
BRANCH  18  23
ATOM     23  C   UNL A   1      33.619  21.151  26.502  1.00  0.00     0.250 C 
ATOM     24  N   UNL A   1      33.278  19.848  26.263  1.00  0.00    -0.366 N 
ATOM     25  H   UNL A   1      33.940  19.133  26.405  1.00  0.00     0.159 HD
ATOM     26  H   UNL A   1      32.372  19.626  25.950  1.00  0.00     0.159 HD
ATOM     27  O   UNL A   1      34.753  21.450  26.850  1.00  0.00    -0.269 OA
ENDBRANCH  18  23
ENDBRANCH  16  17
ENDBRANCH  11  16
ENDBRANCH   8  10
ENDBRANCH   7   8
ENDBRANCH   6   7
ENDBRANCH   5   6
ENDBRANCH   4   5
ENDBRANCH   3   4
ENDBRANCH   2   3
ENDBRANCH   1   2
BRANCH   1  28
ATOM     28  C   UNL A   1      37.012  32.699  30.451  1.00  0.00     0.188 C 
BRANCH  28  29
ATOM     29  C   UNL A   1      38.283  33.372  31.025  1.00  0.00     0.188 C 
BRANCH  29  30
ATOM     30  O   UNL A   1      39.317  33.614  30.077  1.00  0.00    -0.376 OA
BRANCH  30  31
ATOM     31  C   UNL A   1      39.408  34.909  29.506  1.00  0.00     0.202 C 
BRANCH  31  32
ATOM     32  C   UNL A   1      40.792  35.312  28.982  1.00  0.00     0.261 C 
BRANCH  32  33
ATOM     33  O   UNL A   1      40.893  35.471  27.560  1.00  0.00    -0.460 OA
BRANCH  33  34
ATOM     34  C   UNL A   1      41.770  36.393  27.102  1.00  0.00     0.338 C 
ATOM     35  O   UNL A   1      41.598  37.594  27.023  1.00  0.00    -0.246 OA
BRANCH  34  36
ATOM     36  C   UNL A   1      43.062  35.710  26.890  1.00  0.00     0.060 A 
ATOM     37  C   UNL A   1      43.249  34.953  25.726  1.00  0.00     0.016 A 
ATOM     38  C   UNL A   1      44.084  35.825  27.835  1.00  0.00     0.016 A 
ATOM     39  C   UNL A   1      44.452  34.276  25.523  1.00  0.00     0.010 A 
ATOM     40  C   UNL A   1      45.279  35.131  27.640  1.00  0.00     0.010 A 
ATOM     41  C   UNL A   1      45.457  34.327  26.500  1.00  0.00    -0.014 A 
BRANCH  41  42
ATOM     42  C   UNL A   1      46.603  33.387  26.434  1.00  0.00     0.031 A 
ATOM     43  C   UNL A   1      47.976  33.960  26.203  1.00  0.00     0.074 A 
ATOM     44  C   UNL A   1      46.434  32.061  26.590  1.00  0.00     0.049 A 
ATOM     45  N   UNL A   1      49.115  33.344  26.030  1.00  0.00    -0.248 NA
ATOM     46  C   UNL A   1      48.076  35.430  26.163  1.00  0.00     0.031 C 
ATOM     47  C   UNL A   1      45.162  31.393  26.855  1.00  0.00     0.029 A 
ATOM     48  N   UNL A   1      47.347  31.036  26.530  1.00  0.00    -0.354 N 
ATOM     49  C   UNL A   1      50.064  34.346  25.867  1.00  0.00     0.074 A 
ATOM     50  C   UNL A   1      49.364  35.609  25.920  1.00  0.00     0.031 C 
ATOM     51  C   UNL A   1      45.370  30.066  26.912  1.00  0.00     0.029 A 
ATOM     52  C   UNL A   1      46.783  29.788  26.655  1.00  0.00     0.049 A 
ATOM     53  H   UNL A   1      48.312  31.180  26.410  1.00  0.00     0.167 HD
ATOM     54  C   UNL A   1      51.403  34.224  25.703  1.00  0.00     0.037 A 
ATOM     55  C   UNL A   1      47.341  28.565  26.540  1.00  0.00     0.037 A 
ATOM     56  C   UNL A   1      52.093  32.963  25.640  1.00  0.00     0.049 A 
ATOM     57  C   UNL A   1      48.822  28.455  26.269  1.00  0.00     0.074 A 
ATOM     58  C   UNL A   1      53.446  32.731  25.459  1.00  0.00     0.029 A 
ATOM     59  N   UNL A   1      51.487  31.722  25.756  1.00  0.00    -0.354 N 
ATOM     60  N   UNL A   1      49.712  29.410  26.127  1.00  0.00    -0.248 NA
ATOM     61  C   UNL A   1      49.380  27.099  26.149  1.00  0.00     0.031 C 
ATOM     62  C   UNL A   1      53.651  31.349  25.422  1.00  0.00     0.029 A 
ATOM     63  C   UNL A   1      52.435  30.720  25.639  1.00  0.00     0.049 A 
ATOM     64  H   UNL A   1      50.524  31.574  25.902  1.00  0.00     0.167 HD
ATOM     65  C   UNL A   1      50.934  28.769  25.935  1.00  0.00     0.074 A 
ATOM     66  C   UNL A   1      50.672  27.347  25.995  1.00  0.00     0.031 C 
ATOM     67  C   UNL A   1      52.161  29.308  25.728  1.00  0.00     0.037 A 
BRANCH  54  68
ATOM     68  C   UNL A   1      52.210  35.485  25.579  1.00  0.00     0.058 A 
ATOM     69  C   UNL A   1      52.751  36.122  26.707  1.00  0.00     0.135 A 
ATOM     70  C   UNL A   1      52.497  36.031  24.318  1.00  0.00     0.135 A 
ATOM     71  F   UNL A   1      52.489  35.656  27.938  1.00  0.00    -0.206 F 
ATOM     72  C   UNL A   1      53.541  37.260  26.590  1.00  0.00     0.059 A 
ATOM     73  C   UNL A   1      53.308  37.153  24.175  1.00  0.00     0.059 A 
ATOM     74  F   UNL A   1      51.998  35.467  23.207  1.00  0.00    -0.206 F 
ATOM     75  C   UNL A   1      53.821  37.764  25.319  1.00  0.00     0.060 A 
BRANCH  75  76
ATOM     76  S   UNL A   1      54.881  39.219  25.185  1.00  0.00     0.124 S 
ATOM     77  O   UNL A   1      56.021  38.682  24.449  1.00  0.00    -0.237 OA
ATOM     78  O   UNL A   1      54.034  40.153  24.451  1.00  0.00    -0.237 OA
ATOM     79  O   UNL A   1      55.147  39.577  26.575  1.00  0.00    -0.744 OA
ENDBRANCH  75  76
ENDBRANCH  54  68
BRANCH  55  80
ATOM     80  C   UNL A   1      46.502  27.337  26.644  1.00  0.00     0.058 A 
ATOM     81  C   UNL A   1      45.815  26.826  25.533  1.00  0.00     0.135 A 
ATOM     82  C   UNL A   1      46.329  26.679  27.873  1.00  0.00     0.135 A 
ATOM     83  F   UNL A   1      45.937  27.421  24.337  1.00  0.00    -0.206 F 
ATOM     84  C   UNL A   1      44.957  25.735  25.643  1.00  0.00     0.059 A 
ATOM     85  C   UNL A   1      45.503  25.567  28.001  1.00  0.00     0.059 A 
ATOM     86  F   UNL A   1      46.972  27.118  28.967  1.00  0.00    -0.206 F 
ATOM     87  C   UNL A   1      44.804  25.115  26.883  1.00  0.00     0.060 A 
BRANCH  87  88
ATOM     88  S   UNL A   1      43.693  23.697  27.011  1.00  0.00     0.124 S 
ATOM     89  O   UNL A   1      44.578  22.596  26.647  1.00  0.00    -0.237 OA
ATOM     90  O   UNL A   1      43.286  23.752  28.412  1.00  0.00    -0.237 OA
ATOM     91  O   UNL A   1      42.639  24.006  26.049  1.00  0.00    -0.744 OA
ENDBRANCH  87  88
ENDBRANCH  55  80
BRANCH  67  92
ATOM     92  C   UNL A   1      53.328  28.364  25.606  1.00  0.00     0.058 A 
ATOM     93  C   UNL A   1      54.007  27.871  26.730  1.00  0.00     0.135 A 
ATOM     94  C   UNL A   1      53.733  27.900  24.343  1.00  0.00     0.135 A 
ATOM     95  F   UNL A   1      53.663  28.282  27.961  1.00  0.00    -0.206 F 
ATOM     96  C   UNL A   1      55.063  26.972  26.607  1.00  0.00     0.059 A 
ATOM     97  C   UNL A   1      54.765  26.978  24.197  1.00  0.00     0.059 A 
ATOM     98  F   UNL A   1      53.110  28.328  23.233  1.00  0.00    -0.206 F 
ATOM     99  C   UNL A   1      55.432  26.530  25.335  1.00  0.00     0.060 A 
BRANCH  99 100
ATOM    100  S   UNL A   1      56.781  25.338  25.192  1.00  0.00     0.124 S 
ATOM    101  O   UNL A   1      57.270  25.607  23.844  1.00  0.00    -0.237 OA
ATOM    102  O   UNL A   1      57.668  25.737  26.280  1.00  0.00    -0.237 OA
ATOM    103  O   UNL A   1      56.118  24.050  25.373  1.00  0.00    -0.744 OA
ENDBRANCH  99 100
ENDBRANCH  67  92
ENDBRANCH  41  42
ENDBRANCH  34  36
ENDBRANCH  33  34
ENDBRANCH  32  33
ENDBRANCH  31  32
ENDBRANCH  30  31
ENDBRANCH  29  30
ENDBRANCH  28  29
ENDBRANCH   1  28
TORSDOF 26
ENDMDL
