MODEL 1
REMARK VINA RESULT:      -9.8      0.000      0.000
REMARK SMILES CC[C@](C)(NC(=O)CNC(=O)c1cccc(Cl)c1)C(=O)OCCOCCOCCOCCOC(=O)c1ccc(-c2c3nc(c(-c4c(F)cc(S(=O)(=O)[O-])cc4F)c4ccc([nH]4)c(-c4c(F)cc(S(=O)(=O)[O-])cc4F)c4nc(c(-c5c(F)cc(S(=O)(=O)[O-])cc5F)c5ccc2[nH]5)C=C4)C=C3)cc1
REMARK SMILES IDX 26 1 25 2 24 3 23 4 22 5 21 6 19 7 20 8 3 9 4 10 2 11 1 12
REMARK SMILES IDX 5 13 6 14 7 16 8 17 9 18 10 19 11 21 12 22 13 23 18 24 14 25
REMARK SMILES IDX 16 26 15 27 17 28 27 29 28 30 29 31 30 32 31 33 32 34 33 35
REMARK SMILES IDX 34 36 35 37 36 38 37 39 101 40 38 41 100 42 39 43 40 44
REMARK SMILES IDX 41 45 94 46 42 47 99 48 93 49 95 50 43 51 98 52 92 53 91 54
REMARK SMILES IDX 44 56 78 57 57 58 77 59 58 60 61 61 76 62 96 63 59 64 60 65
REMARK SMILES IDX 75 67 97 68 62 69 45 70 46 71 55 72 47 73 48 74 54 75 56 76
REMARK SMILES IDX 49 77 50 78 51 79 52 80 53 81 79 82 80 83 89 84 81 85 82 86
REMARK SMILES IDX 88 87 90 88 83 89 84 90 85 91 86 92 87 93 63 94 64 95 73 96
REMARK SMILES IDX 65 97 66 98 72 99 74 100 67 101 68 102 69 103 70 104 71 105
REMARK H PARENT 5 15 9 20 95 55 61 66
REMARK Flexibility Score: inf
ROOT
ATOM      1  C   UNL A   1      38.646  23.438  26.329  1.00  0.00     0.188 C 
ENDROOT
BRANCH   1   2
ATOM      2  C   UNL A   1      37.341  23.619  25.500  1.00  0.00     0.188 C 
BRANCH   2   3
ATOM      3  O   UNL A   1      37.229  22.565  24.516  1.00  0.00    -0.376 OA
BRANCH   3   4
ATOM      4  C   UNL A   1      36.426  22.780  23.367  1.00  0.00     0.202 C 
BRANCH   4   5
ATOM      5  C   UNL A   1      35.247  23.870  23.540  1.00  0.00     0.261 C 
BRANCH   5   6
ATOM      6  O   UNL A   1      33.723  23.515  23.991  1.00  0.00    -0.462 OA
BRANCH   6   7
ATOM      7  C   UNL A   1      32.566  23.006  24.497  1.00  0.00     0.331 C 
ATOM      8  O   UNL A   1      31.580  23.105  23.750  1.00  0.00    -0.249 OA
BRANCH   7   9
ATOM      9  C   UNL A   1      32.302  22.170  25.902  1.00  0.00     0.135 C 
ATOM     10  C   UNL A   1      33.086  22.737  27.141  1.00  0.00     0.047 C 
BRANCH   9  11
ATOM     11  C   UNL A   1      32.955  20.750  25.716  1.00  0.00     0.037 C 
ATOM     12  C   UNL A   1      32.749  20.090  24.335  1.00  0.00     0.007 C 
ENDBRANCH   9  11
BRANCH   9  13
ATOM     13  N   UNL A   1      30.928  21.943  26.320  1.00  0.00    -0.339 N 
ATOM     14  C   UNL A   1      30.186  22.893  26.931  1.00  0.00     0.240 C 
ATOM     15  H   UNL A   1      30.522  21.062  26.152  1.00  0.00     0.164 HD
ATOM     16  O   UNL A   1      29.192  22.594  27.583  1.00  0.00    -0.273 OA
BRANCH  14  17
ATOM     17  C   UNL A   1      30.581  24.298  26.560  1.00  0.00     0.216 C 
BRANCH  17  18
ATOM     18  N   UNL A   1      29.906  25.212  25.533  1.00  0.00    -0.343 N 
ATOM     19  C   UNL A   1      30.008  26.216  24.556  1.00  0.00     0.251 C 
ATOM     20  H   UNL A   1      28.948  24.992  25.581  1.00  0.00     0.164 HD
ATOM     21  O   UNL A   1      28.955  26.390  23.925  1.00  0.00    -0.269 OA
BRANCH  19  22
ATOM     22  C   UNL A   1      31.111  27.194  24.174  1.00  0.00     0.041 A 
ATOM     23  C   UNL A   1      31.192  27.994  23.012  1.00  0.00     0.014 A 
ATOM     24  C   UNL A   1      32.021  27.537  25.184  1.00  0.00     0.034 A 
ATOM     25  C   UNL A   1      32.283  28.838  22.743  1.00  0.00     0.002 A 
ATOM     26  C   UNL A   1      33.086  28.422  24.947  1.00  0.00     0.041 A 
ATOM     27  C   UNL A   1      33.252  29.032  23.709  1.00  0.00     0.020 A 
ATOM     28  Cl  UNL A   1      34.193  28.776  26.216  1.00  0.00    -0.084 Cl
ENDBRANCH  19  22
ENDBRANCH  17  18
ENDBRANCH  14  17
ENDBRANCH   9  13
ENDBRANCH   7   9
ENDBRANCH   6   7
ENDBRANCH   5   6
ENDBRANCH   4   5
ENDBRANCH   3   4
ENDBRANCH   2   3
ENDBRANCH   1   2
BRANCH   1  29
ATOM     29  O   UNL A   1      39.256  22.148  26.260  1.00  0.00    -0.377 OA
BRANCH  29  30
ATOM     30  C   UNL A   1      40.291  21.863  27.196  1.00  0.00     0.188 C 
BRANCH  30  31
ATOM     31  C   UNL A   1      41.280  20.810  26.696  1.00  0.00     0.188 C 
BRANCH  31  32
ATOM     32  O   UNL A   1      42.570  21.239  26.267  1.00  0.00    -0.376 OA
BRANCH  32  33
ATOM     33  C   UNL A   1      42.657  22.450  25.534  1.00  0.00     0.202 C 
BRANCH  33  34
ATOM     34  C   UNL A   1      43.289  23.636  26.286  1.00  0.00     0.261 C 
BRANCH  34  35
ATOM     35  O   UNL A   1      43.207  24.923  25.641  1.00  0.00    -0.460 OA
BRANCH  35  36
ATOM     36  C   UNL A   1      42.074  25.639  25.855  1.00  0.00     0.338 C 
ATOM     37  O   UNL A   1      41.101  25.697  25.130  1.00  0.00    -0.246 OA
BRANCH  36  38
ATOM     38  C   UNL A   1      42.120  26.264  27.204  1.00  0.00     0.060 A 
ATOM     39  C   UNL A   1      41.049  26.059  28.087  1.00  0.00     0.016 A 
ATOM     40  C   UNL A   1      43.159  27.126  27.563  1.00  0.00     0.016 A 
ATOM     41  C   UNL A   1      40.981  26.756  29.299  1.00  0.00     0.010 A 
ATOM     42  C   UNL A   1      43.073  27.850  28.758  1.00  0.00     0.010 A 
ATOM     43  C   UNL A   1      41.960  27.706  29.608  1.00  0.00    -0.014 A 
BRANCH  43  44
ATOM     44  C   UNL A   1      41.702  28.737  30.647  1.00  0.00     0.031 A 
ATOM     45  C   UNL A   1      42.519  28.673  31.913  1.00  0.00     0.074 A 
ATOM     46  C   UNL A   1      40.757  29.684  30.506  1.00  0.00     0.049 A 
ATOM     47  N   UNL A   1      42.381  29.343  33.027  1.00  0.00    -0.248 NA
ATOM     48  C   UNL A   1      43.640  27.716  31.924  1.00  0.00     0.031 C 
ATOM     49  C   UNL A   1      39.935  29.894  29.317  1.00  0.00     0.029 A 
ATOM     50  N   UNL A   1      40.310  30.632  31.396  1.00  0.00    -0.354 N 
ATOM     51  C   UNL A   1      43.372  28.868  33.879  1.00  0.00     0.074 A 
ATOM     52  C   UNL A   1      44.110  27.858  33.154  1.00  0.00     0.031 C 
ATOM     53  C   UNL A   1      39.054  30.880  29.566  1.00  0.00     0.029 A 
ATOM     54  C   UNL A   1      39.221  31.341  30.945  1.00  0.00     0.049 A 
ATOM     55  H   UNL A   1      40.729  30.789  32.273  1.00  0.00     0.167 HD
ATOM     56  C   UNL A   1      43.639  29.233  35.153  1.00  0.00     0.037 A 
ATOM     57  C   UNL A   1      38.422  32.221  31.588  1.00  0.00     0.037 A 
ATOM     58  C   UNL A   1      42.918  30.248  35.871  1.00  0.00     0.049 A 
ATOM     59  C   UNL A   1      38.695  32.560  33.034  1.00  0.00     0.074 A 
ATOM     60  C   UNL A   1      43.153  30.727  37.148  1.00  0.00     0.029 A 
ATOM     61  N   UNL A   1      41.814  30.928  35.383  1.00  0.00    -0.354 N 
ATOM     62  N   UNL A   1      39.659  32.134  33.815  1.00  0.00    -0.248 NA
ATOM     63  C   UNL A   1      37.761  33.489  33.692  1.00  0.00     0.031 C 
ATOM     64  C   UNL A   1      42.156  31.659  37.453  1.00  0.00     0.029 A 
ATOM     65  C   UNL A   1      41.331  31.794  36.349  1.00  0.00     0.049 A 
ATOM     66  H   UNL A   1      41.430  30.812  34.484  1.00  0.00     0.167 HD
ATOM     67  C   UNL A   1      39.457  32.755  35.046  1.00  0.00     0.074 A 
ATOM     68  C   UNL A   1      38.288  33.597  34.904  1.00  0.00     0.031 C 
ATOM     69  C   UNL A   1      40.172  32.635  36.191  1.00  0.00     0.037 A 
BRANCH  56  70
ATOM     70  C   UNL A   1      44.736  28.508  35.877  1.00  0.00     0.058 A 
ATOM     71  C   UNL A   1      46.063  28.960  35.854  1.00  0.00     0.135 A 
ATOM     72  C   UNL A   1      44.437  27.378  36.654  1.00  0.00     0.135 A 
ATOM     73  F   UNL A   1      46.404  30.022  35.109  1.00  0.00    -0.206 F 
ATOM     74  C   UNL A   1      47.061  28.311  36.575  1.00  0.00     0.059 A 
ATOM     75  C   UNL A   1      45.413  26.727  37.400  1.00  0.00     0.059 A 
ATOM     76  F   UNL A   1      43.182  26.901  36.700  1.00  0.00    -0.206 F 
ATOM     77  C   UNL A   1      46.725  27.197  37.348  1.00  0.00     0.060 A 
BRANCH  77  78
ATOM     78  S   UNL A   1      48.022  26.389  38.309  1.00  0.00     0.124 S 
ATOM     79  O   UNL A   1      47.239  25.534  39.194  1.00  0.00    -0.237 OA
ATOM     80  O   UNL A   1      48.791  25.700  37.278  1.00  0.00    -0.237 OA
ATOM     81  O   UNL A   1      48.709  27.502  38.958  1.00  0.00    -0.744 OA
ENDBRANCH  77  78
ENDBRANCH  56  70
BRANCH  57  82
ATOM     82  C   UNL A   1      37.237  32.800  30.897  1.00  0.00     0.058 A 
ATOM     83  C   UNL A   1      35.949  32.284  31.104  1.00  0.00     0.135 A 
ATOM     84  C   UNL A   1      37.378  33.856  29.984  1.00  0.00     0.135 A 
ATOM     85  F   UNL A   1      35.764  31.262  31.953  1.00  0.00    -0.206 F 
ATOM     86  C   UNL A   1      34.847  32.781  30.415  1.00  0.00     0.059 A 
ATOM     87  C   UNL A   1      36.288  34.386  29.303  1.00  0.00     0.059 A 
ATOM     88  F   UNL A   1      38.588  34.389  29.752  1.00  0.00    -0.206 F 
ATOM     89  C   UNL A   1      35.026  33.832  29.514  1.00  0.00     0.060 A 
BRANCH  89  90
ATOM     90  S   UNL A   1      33.586  34.492  28.647  1.00  0.00     0.124 S 
ATOM     91  O   UNL A   1      33.237  33.379  27.772  1.00  0.00    -0.237 OA
ATOM     92  O   UNL A   1      32.661  34.756  29.745  1.00  0.00    -0.237 OA
ATOM     93  O   UNL A   1      34.113  35.679  27.981  1.00  0.00    -0.744 OA
ENDBRANCH  89  90
ENDBRANCH  57  82
BRANCH  69  94
ATOM     94  C   UNL A   1      39.738  33.444  37.383  1.00  0.00     0.058 A 
ATOM     95  C   UNL A   1      38.716  33.002  38.236  1.00  0.00     0.135 A 
ATOM     96  C   UNL A   1      40.416  34.625  37.727  1.00  0.00     0.135 A 
ATOM     97  F   UNL A   1      38.034  31.882  37.949  1.00  0.00    -0.206 F 
ATOM     98  C   UNL A   1      38.375  33.706  39.387  1.00  0.00     0.059 A 
ATOM     99  C   UNL A   1      40.108  35.333  38.885  1.00  0.00     0.059 A 
ATOM    100  F   UNL A   1      41.410  35.085  36.951  1.00  0.00    -0.206 F 
ATOM    101  C   UNL A   1      39.082  34.867  39.707  1.00  0.00     0.060 A 
BRANCH 101 102
ATOM    102  S   UNL A   1      38.673  35.737  41.235  1.00  0.00     0.124 S 
ATOM    103  O   UNL A   1      39.889  35.546  42.018  1.00  0.00    -0.237 OA
ATOM    104  O   UNL A   1      38.427  37.098  40.766  1.00  0.00    -0.237 OA
ATOM    105  O   UNL A   1      37.494  35.028  41.724  1.00  0.00    -0.744 OA
ENDBRANCH 101 102
ENDBRANCH  69  94
ENDBRANCH  43  44
ENDBRANCH  36  38
ENDBRANCH  35  36
ENDBRANCH  34  35
ENDBRANCH  33  34
ENDBRANCH  32  33
ENDBRANCH  31  32
ENDBRANCH  30  31
ENDBRANCH  29  30
ENDBRANCH   1  29
TORSDOF 28
ENDMDL
MODEL 2
REMARK VINA RESULT:      -9.1      1.895      8.079
REMARK SMILES CC[C@](C)(NC(=O)CNC(=O)c1cccc(Cl)c1)C(=O)OCCOCCOCCOCCOC(=O)c1ccc(-c2c3nc(c(-c4c(F)cc(S(=O)(=O)[O-])cc4F)c4ccc([nH]4)c(-c4c(F)cc(S(=O)(=O)[O-])cc4F)c4nc(c(-c5c(F)cc(S(=O)(=O)[O-])cc5F)c5ccc2[nH]5)C=C4)C=C3)cc1
REMARK SMILES IDX 26 1 25 2 24 3 23 4 22 5 21 6 19 7 20 8 3 9 4 10 2 11 1 12
REMARK SMILES IDX 5 13 6 14 7 16 8 17 9 18 10 19 11 21 12 22 13 23 18 24 14 25
REMARK SMILES IDX 16 26 15 27 17 28 27 29 28 30 29 31 30 32 31 33 32 34 33 35
REMARK SMILES IDX 34 36 35 37 36 38 37 39 101 40 38 41 100 42 39 43 40 44
REMARK SMILES IDX 41 45 94 46 42 47 99 48 93 49 95 50 43 51 98 52 92 53 91 54
REMARK SMILES IDX 44 56 78 57 57 58 77 59 58 60 61 61 76 62 96 63 59 64 60 65
REMARK SMILES IDX 75 67 97 68 62 69 45 70 46 71 55 72 47 73 48 74 54 75 56 76
REMARK SMILES IDX 49 77 50 78 51 79 52 80 53 81 79 82 80 83 89 84 81 85 82 86
REMARK SMILES IDX 88 87 90 88 83 89 84 90 85 91 86 92 87 93 63 94 64 95 73 96
REMARK SMILES IDX 65 97 66 98 72 99 74 100 67 101 68 102 69 103 70 104 71 105
REMARK H PARENT 5 15 9 20 95 55 61 66
REMARK Flexibility Score: inf
ROOT
ATOM      1  C   UNL A   1      38.104  21.500  25.331  1.00  0.00     0.188 C 
ENDROOT
BRANCH   1   2
ATOM      2  C   UNL A   1      37.161  22.552  24.675  1.00  0.00     0.188 C 
BRANCH   2   3
ATOM      3  O   UNL A   1      35.944  22.674  25.448  1.00  0.00    -0.376 OA
BRANCH   3   4
ATOM      4  C   UNL A   1      35.518  21.575  26.236  1.00  0.00     0.202 C 
BRANCH   4   5
ATOM      5  C   UNL A   1      33.977  21.624  26.718  1.00  0.00     0.261 C 
BRANCH   5   6
ATOM      6  O   UNL A   1      32.828  22.554  26.035  1.00  0.00    -0.462 OA
BRANCH   6   7
ATOM      7  C   UNL A   1      31.869  23.141  25.268  1.00  0.00     0.331 C 
ATOM      8  O   UNL A   1      30.942  23.670  25.900  1.00  0.00    -0.249 OA
BRANCH   7   9
ATOM      9  C   UNL A   1      31.813  23.359  23.627  1.00  0.00     0.135 C 
ATOM     10  C   UNL A   1      30.573  24.187  23.132  1.00  0.00     0.047 C 
BRANCH   9  11
ATOM     11  C   UNL A   1      31.547  21.945  22.988  1.00  0.00     0.037 C 
ATOM     12  C   UNL A   1      32.637  20.880  23.234  1.00  0.00     0.007 C 
ENDBRANCH   9  11
BRANCH   9  13
ATOM     13  N   UNL A   1      32.991  23.897  22.963  1.00  0.00    -0.339 N 
ATOM     14  C   UNL A   1      33.241  25.223  22.886  1.00  0.00     0.240 C 
ATOM     15  H   UNL A   1      33.631  23.271  22.554  1.00  0.00     0.164 HD
ATOM     16  O   UNL A   1      34.013  25.671  22.046  1.00  0.00    -0.273 OA
BRANCH  14  17
ATOM     17  C   UNL A   1      32.658  26.015  24.028  1.00  0.00     0.216 C 
BRANCH  17  18
ATOM     18  N   UNL A   1      32.486  27.534  24.113  1.00  0.00    -0.343 N 
ATOM     19  C   UNL A   1      31.646  28.658  24.089  1.00  0.00     0.251 C 
ATOM     20  H   UNL A   1      33.394  27.890  24.247  1.00  0.00     0.164 HD
ATOM     21  O   UNL A   1      32.222  29.704  24.424  1.00  0.00    -0.269 OA
BRANCH  19  22
ATOM     22  C   UNL A   1      30.203  28.876  23.652  1.00  0.00     0.041 A 
ATOM     23  C   UNL A   1      29.186  27.904  23.512  1.00  0.00     0.014 A 
ATOM     24  C   UNL A   1      29.750  30.202  23.626  1.00  0.00     0.034 A 
ATOM     25  C   UNL A   1      27.893  28.215  23.061  1.00  0.00     0.002 A 
ATOM     26  C   UNL A   1      28.442  30.527  23.230  1.00  0.00     0.041 A 
ATOM     27  C   UNL A   1      27.526  29.537  22.893  1.00  0.00     0.020 A 
ATOM     28  Cl  UNL A   1      27.956  32.176  23.182  1.00  0.00    -0.084 Cl
ENDBRANCH  19  22
ENDBRANCH  17  18
ENDBRANCH  14  17
ENDBRANCH   9  13
ENDBRANCH   7   9
ENDBRANCH   6   7
ENDBRANCH   5   6
ENDBRANCH   4   5
ENDBRANCH   3   4
ENDBRANCH   2   3
ENDBRANCH   1   2
BRANCH   1  29
ATOM     29  O   UNL A   1      39.239  22.023  26.023  1.00  0.00    -0.377 OA
BRANCH  29  30
ATOM     30  C   UNL A   1      40.188  21.088  26.525  1.00  0.00     0.188 C 
BRANCH  30  31
ATOM     31  C   UNL A   1      41.622  21.398  26.097  1.00  0.00     0.188 C 
BRANCH  31  32
ATOM     32  O   UNL A   1      42.088  22.741  26.211  1.00  0.00    -0.376 OA
BRANCH  32  33
ATOM     33  C   UNL A   1      42.993  23.216  25.229  1.00  0.00     0.202 C 
BRANCH  33  34
ATOM     34  C   UNL A   1      42.909  24.722  24.922  1.00  0.00     0.261 C 
BRANCH  34  35
ATOM     35  O   UNL A   1      43.328  25.616  25.972  1.00  0.00    -0.460 OA
BRANCH  35  36
ATOM     36  C   UNL A   1      42.676  26.805  26.053  1.00  0.00     0.338 C 
ATOM     37  O   UNL A   1      41.988  27.319  25.195  1.00  0.00    -0.246 OA
BRANCH  36  38
ATOM     38  C   UNL A   1      42.810  27.360  27.427  1.00  0.00     0.060 A 
ATOM     39  C   UNL A   1      42.333  26.611  28.514  1.00  0.00     0.016 A 
ATOM     40  C   UNL A   1      43.310  28.647  27.638  1.00  0.00     0.016 A 
ATOM     41  C   UNL A   1      42.295  27.164  29.799  1.00  0.00     0.010 A 
ATOM     42  C   UNL A   1      43.239  29.213  28.917  1.00  0.00     0.010 A 
ATOM     43  C   UNL A   1      42.687  28.493  29.993  1.00  0.00    -0.014 A 
BRANCH  43  44
ATOM     44  C   UNL A   1      42.272  29.224  31.219  1.00  0.00     0.031 A 
ATOM     45  C   UNL A   1      41.004  30.036  31.153  1.00  0.00     0.074 A 
ATOM     46  C   UNL A   1      43.001  29.210  32.350  1.00  0.00     0.049 A 
ATOM     47  N   UNL A   1      40.514  30.886  32.017  1.00  0.00    -0.248 NA
ATOM     48  C   UNL A   1      40.180  29.871  29.942  1.00  0.00     0.031 C 
ATOM     49  C   UNL A   1      44.215  28.427  32.569  1.00  0.00     0.029 A 
ATOM     50  N   UNL A   1      42.834  29.907  33.524  1.00  0.00    -0.354 N 
ATOM     51  C   UNL A   1      39.347  31.379  31.443  1.00  0.00     0.074 A 
ATOM     52  C   UNL A   1      39.196  30.730  30.159  1.00  0.00     0.031 C 
ATOM     53  C   UNL A   1      44.708  28.720  33.787  1.00  0.00     0.029 A 
ATOM     54  C   UNL A   1      43.868  29.741  34.415  1.00  0.00     0.049 A 
ATOM     55  H   UNL A   1      42.048  30.471  33.708  1.00  0.00     0.167 HD
ATOM     56  C   UNL A   1      38.482  32.294  31.936  1.00  0.00     0.037 A 
ATOM     57  C   UNL A   1      44.131  30.375  35.578  1.00  0.00     0.037 A 
ATOM     58  C   UNL A   1      38.621  32.928  33.218  1.00  0.00     0.049 A 
ATOM     59  C   UNL A   1      43.190  31.448  36.074  1.00  0.00     0.074 A 
ATOM     60  C   UNL A   1      37.764  33.828  33.827  1.00  0.00     0.029 A 
ATOM     61  N   UNL A   1      39.689  32.743  34.080  1.00  0.00    -0.354 N 
ATOM     62  N   UNL A   1      42.070  31.875  35.542  1.00  0.00    -0.248 NA
ATOM     63  C   UNL A   1      43.557  32.135  37.323  1.00  0.00     0.031 C 
ATOM     64  C   UNL A   1      38.342  34.229  35.036  1.00  0.00     0.029 A 
ATOM     65  C   UNL A   1      39.535  33.544  35.199  1.00  0.00     0.049 A 
ATOM     66  H   UNL A   1      40.446  32.135  33.920  1.00  0.00     0.167 HD
ATOM     67  C   UNL A   1      41.593  32.866  36.397  1.00  0.00     0.074 A 
ATOM     68  C   UNL A   1      42.537  32.966  37.490  1.00  0.00     0.031 C 
ATOM     69  C   UNL A   1      40.476  33.627  36.286  1.00  0.00     0.037 A 
BRANCH  56  70
ATOM     70  C   UNL A   1      37.324  32.701  31.073  1.00  0.00     0.058 A 
ATOM     71  C   UNL A   1      37.414  33.767  30.166  1.00  0.00     0.135 A 
ATOM     72  C   UNL A   1      36.126  31.970  31.114  1.00  0.00     0.135 A 
ATOM     73  F   UNL A   1      38.529  34.511  30.104  1.00  0.00    -0.206 F 
ATOM     74  C   UNL A   1      36.351  34.099  29.332  1.00  0.00     0.059 A 
ATOM     75  C   UNL A   1      35.060  32.269  30.274  1.00  0.00     0.059 A 
ATOM     76  F   UNL A   1      35.989  30.947  31.973  1.00  0.00    -0.206 F 
ATOM     77  C   UNL A   1      35.180  33.341  29.390  1.00  0.00     0.060 A 
BRANCH  77  78
ATOM     78  S   UNL A   1      33.824  33.759  28.273  1.00  0.00     0.124 S 
ATOM     79  O   UNL A   1      33.461  32.445  27.753  1.00  0.00    -0.237 OA
ATOM     80  O   UNL A   1      32.855  34.374  29.175  1.00  0.00    -0.237 OA
ATOM     81  O   UNL A   1      34.443  34.665  27.311  1.00  0.00    -0.744 OA
ENDBRANCH  77  78
ENDBRANCH  56  70
BRANCH  57  82
ATOM     82  C   UNL A   1      45.379  30.072  36.332  1.00  0.00     0.058 A 
ATOM     83  C   UNL A   1      45.410  29.072  37.316  1.00  0.00     0.135 A 
ATOM     84  C   UNL A   1      46.553  30.806  36.110  1.00  0.00     0.135 A 
ATOM     85  F   UNL A   1      44.308  28.354  37.579  1.00  0.00    -0.206 F 
ATOM     86  C   UNL A   1      46.555  28.826  38.067  1.00  0.00     0.059 A 
ATOM     87  C   UNL A   1      47.718  30.561  36.830  1.00  0.00     0.059 A 
ATOM     88  F   UNL A   1      46.578  31.771  35.178  1.00  0.00    -0.206 F 
ATOM     89  C   UNL A   1      47.705  29.577  37.818  1.00  0.00     0.060 A 
BRANCH  89  90
ATOM     90  S   UNL A   1      49.196  29.231  38.776  1.00  0.00     0.124 S 
ATOM     91  O   UNL A   1      49.368  30.479  39.511  1.00  0.00    -0.237 OA
ATOM     92  O   UNL A   1      48.791  28.073  39.567  1.00  0.00    -0.237 OA
ATOM     93  O   UNL A   1      50.197  28.960  37.748  1.00  0.00    -0.744 OA
ENDBRANCH  89  90
ENDBRANCH  57  82
BRANCH  69  94
ATOM     94  C   UNL A   1      40.188  34.622  37.375  1.00  0.00     0.058 A 
ATOM     95  C   UNL A   1      39.526  34.248  38.554  1.00  0.00     0.135 A 
ATOM     96  C   UNL A   1      40.662  35.941  37.279  1.00  0.00     0.135 A 
ATOM     97  F   UNL A   1      39.049  33.000  38.694  1.00  0.00    -0.206 F 
ATOM     98  C   UNL A   1      39.338  35.148  39.599  1.00  0.00     0.059 A 
ATOM     99  C   UNL A   1      40.506  36.851  38.320  1.00  0.00     0.059 A 
ATOM    100  F   UNL A   1      41.312  36.347  36.176  1.00  0.00    -0.206 F 
ATOM    101  C   UNL A   1      39.837  36.446  39.475  1.00  0.00     0.060 A 
BRANCH 101 102
ATOM    102  S   UNL A   1      39.642  37.586  40.862  1.00  0.00     0.124 S 
ATOM    103  O   UNL A   1      41.028  37.810  41.256  1.00  0.00    -0.237 OA
ATOM    104  O   UNL A   1      38.965  38.722  40.243  1.00  0.00    -0.237 OA
ATOM    105  O   UNL A   1      38.834  36.827  41.813  1.00  0.00    -0.744 OA
ENDBRANCH 101 102
ENDBRANCH  69  94
ENDBRANCH  43  44
ENDBRANCH  36  38
ENDBRANCH  35  36
ENDBRANCH  34  35
ENDBRANCH  33  34
ENDBRANCH  32  33
ENDBRANCH  31  32
ENDBRANCH  30  31
ENDBRANCH  29  30
ENDBRANCH   1  29
TORSDOF 28
ENDMDL
MODEL 3
REMARK VINA RESULT:      -8.0      1.733      8.109
REMARK SMILES CC[C@](C)(NC(=O)CNC(=O)c1cccc(Cl)c1)C(=O)OCCOCCOCCOCCOC(=O)c1ccc(-c2c3nc(c(-c4c(F)cc(S(=O)(=O)[O-])cc4F)c4ccc([nH]4)c(-c4c(F)cc(S(=O)(=O)[O-])cc4F)c4nc(c(-c5c(F)cc(S(=O)(=O)[O-])cc5F)c5ccc2[nH]5)C=C4)C=C3)cc1
REMARK SMILES IDX 26 1 25 2 24 3 23 4 22 5 21 6 19 7 20 8 3 9 4 10 2 11 1 12
REMARK SMILES IDX 5 13 6 14 7 16 8 17 9 18 10 19 11 21 12 22 13 23 18 24 14 25
REMARK SMILES IDX 16 26 15 27 17 28 27 29 28 30 29 31 30 32 31 33 32 34 33 35
REMARK SMILES IDX 34 36 35 37 36 38 37 39 101 40 38 41 100 42 39 43 40 44
REMARK SMILES IDX 41 45 94 46 42 47 99 48 93 49 95 50 43 51 98 52 92 53 91 54
REMARK SMILES IDX 44 56 78 57 57 58 77 59 58 60 61 61 76 62 96 63 59 64 60 65
REMARK SMILES IDX 75 67 97 68 62 69 45 70 46 71 55 72 47 73 48 74 54 75 56 76
REMARK SMILES IDX 49 77 50 78 51 79 52 80 53 81 79 82 80 83 89 84 81 85 82 86
REMARK SMILES IDX 88 87 90 88 83 89 84 90 85 91 86 92 87 93 63 94 64 95 73 96
REMARK SMILES IDX 65 97 66 98 72 99 74 100 67 101 68 102 69 103 70 104 71 105
REMARK H PARENT 5 15 9 20 95 55 61 66
REMARK Flexibility Score: inf
ROOT
ATOM      1  C   UNL A   1      38.077  21.707  25.410  1.00  0.00     0.188 C 
ENDROOT
BRANCH   1   2
ATOM      2  C   UNL A   1      37.084  22.596  24.605  1.00  0.00     0.188 C 
BRANCH   2   3
ATOM      3  O   UNL A   1      35.874  22.803  25.370  1.00  0.00    -0.376 OA
BRANCH   3   4
ATOM      4  C   UNL A   1      35.642  22.001  26.517  1.00  0.00     0.202 C 
BRANCH   4   5
ATOM      5  C   UNL A   1      34.099  21.884  26.978  1.00  0.00     0.261 C 
BRANCH   5   6
ATOM      6  O   UNL A   1      32.828  22.350  26.073  1.00  0.00    -0.462 OA
BRANCH   6   7
ATOM      7  C   UNL A   1      31.858  22.551  25.139  1.00  0.00     0.331 C 
ATOM      8  O   UNL A   1      30.738  22.826  25.597  1.00  0.00    -0.249 OA
BRANCH   7   9
ATOM      9  C   UNL A   1      31.972  22.601  23.488  1.00  0.00     0.135 C 
ATOM     10  C   UNL A   1      30.688  23.157  22.773  1.00  0.00     0.047 C 
BRANCH   9  11
ATOM     11  C   UNL A   1      32.012  21.109  22.989  1.00  0.00     0.037 C 
ATOM     12  C   UNL A   1      32.591  20.081  23.985  1.00  0.00     0.007 C 
ENDBRANCH   9  11
BRANCH   9  13
ATOM     13  N   UNL A   1      33.124  23.265  22.897  1.00  0.00    -0.339 N 
ATOM     14  C   UNL A   1      33.116  24.575  22.563  1.00  0.00     0.240 C 
ATOM     15  H   UNL A   1      33.941  22.741  22.734  1.00  0.00     0.164 HD
ATOM     16  O   UNL A   1      33.929  25.026  21.764  1.00  0.00    -0.273 OA
BRANCH  14  17
ATOM     17  C   UNL A   1      32.183  25.407  23.404  1.00  0.00     0.216 C 
BRANCH  17  18
ATOM     18  N   UNL A   1      31.356  26.615  22.955  1.00  0.00    -0.343 N 
ATOM     19  C   UNL A   1      31.028  27.973  23.091  1.00  0.00     0.251 C 
ATOM     20  H   UNL A   1      30.784  26.280  22.226  1.00  0.00     0.164 HD
ATOM     21  O   UNL A   1      30.300  28.392  22.179  1.00  0.00    -0.269 OA
BRANCH  19  22
ATOM     22  C   UNL A   1      31.303  29.011  24.170  1.00  0.00     0.041 A 
ATOM     23  C   UNL A   1      30.505  30.123  24.525  1.00  0.00     0.014 A 
ATOM     24  C   UNL A   1      32.321  28.708  25.086  1.00  0.00     0.034 A 
ATOM     25  C   UNL A   1      30.879  31.043  25.518  1.00  0.00     0.002 A 
ATOM     26  C   UNL A   1      32.671  29.593  26.118  1.00  0.00     0.041 A 
ATOM     27  C   UNL A   1      31.988  30.790  26.303  1.00  0.00     0.020 A 
ATOM     28  Cl  UNL A   1      33.955  29.183  27.188  1.00  0.00    -0.084 Cl
ENDBRANCH  19  22
ENDBRANCH  17  18
ENDBRANCH  14  17
ENDBRANCH   9  13
ENDBRANCH   7   9
ENDBRANCH   6   7
ENDBRANCH   5   6
ENDBRANCH   4   5
ENDBRANCH   3   4
ENDBRANCH   2   3
ENDBRANCH   1   2
BRANCH   1  29
ATOM     29  O   UNL A   1      39.139  22.397  26.072  1.00  0.00    -0.377 OA
BRANCH  29  30
ATOM     30  C   UNL A   1      40.096  21.608  26.771  1.00  0.00     0.188 C 
BRANCH  30  31
ATOM     31  C   UNL A   1      41.534  21.873  26.325  1.00  0.00     0.188 C 
BRANCH  31  32
ATOM     32  O   UNL A   1      41.984  23.224  26.254  1.00  0.00    -0.376 OA
BRANCH  32  33
ATOM     33  C   UNL A   1      42.863  23.576  25.198  1.00  0.00     0.202 C 
BRANCH  33  34
ATOM     34  C   UNL A   1      43.098  25.086  25.007  1.00  0.00     0.261 C 
BRANCH  34  35
ATOM     35  O   UNL A   1      43.781  25.770  26.077  1.00  0.00    -0.460 OA
BRANCH  35  36
ATOM     36  C   UNL A   1      43.682  27.124  26.092  1.00  0.00     0.338 C 
ATOM     37  O   UNL A   1      43.490  27.852  25.139  1.00  0.00    -0.246 OA
BRANCH  36  38
ATOM     38  C   UNL A   1      43.709  27.615  27.496  1.00  0.00     0.060 A 
ATOM     39  C   UNL A   1      43.089  26.852  28.497  1.00  0.00     0.016 A 
ATOM     40  C   UNL A   1      44.253  28.863  27.812  1.00  0.00     0.016 A 
ATOM     41  C   UNL A   1      42.954  27.355  29.797  1.00  0.00     0.010 A 
ATOM     42  C   UNL A   1      44.086  29.380  29.103  1.00  0.00     0.010 A 
ATOM     43  C   UNL A   1      43.394  28.650  30.087  1.00  0.00    -0.014 A 
BRANCH  43  44
ATOM     44  C   UNL A   1      42.900  29.355  31.300  1.00  0.00     0.031 A 
ATOM     45  C   UNL A   1      41.600  30.111  31.188  1.00  0.00     0.074 A 
ATOM     46  C   UNL A   1      43.585  29.365  32.458  1.00  0.00     0.049 A 
ATOM     47  N   UNL A   1      41.040  30.932  32.036  1.00  0.00    -0.248 NA
ATOM     48  C   UNL A   1      40.833  29.916  29.944  1.00  0.00     0.031 C 
ATOM     49  C   UNL A   1      44.822  28.636  32.720  1.00  0.00     0.029 A 
ATOM     50  N   UNL A   1      43.341  30.047  33.627  1.00  0.00    -0.354 N 
ATOM     51  C   UNL A   1      39.875  31.376  31.419  1.00  0.00     0.074 A 
ATOM     52  C   UNL A   1      39.803  30.730  30.128  1.00  0.00     0.031 C 
ATOM     53  C   UNL A   1      45.254  28.942  33.958  1.00  0.00     0.029 A 
ATOM     54  C   UNL A   1      44.346  29.921  34.558  1.00  0.00     0.049 A 
ATOM     55  H   UNL A   1      42.524  30.574  33.783  1.00  0.00     0.167 HD
ATOM     56  C   UNL A   1      38.952  32.249  31.882  1.00  0.00     0.037 A 
ATOM     57  C   UNL A   1      44.535  30.559  35.733  1.00  0.00     0.037 A 
ATOM     58  C   UNL A   1      39.013  32.881  33.172  1.00  0.00     0.049 A 
ATOM     59  C   UNL A   1      43.529  31.585  36.197  1.00  0.00     0.074 A 
ATOM     60  C   UNL A   1      38.093  33.738  33.751  1.00  0.00     0.029 A 
ATOM     61  N   UNL A   1      40.054  32.738  34.074  1.00  0.00    -0.354 N 
ATOM     62  N   UNL A   1      42.413  31.966  35.623  1.00  0.00    -0.248 NA
ATOM     63  C   UNL A   1      43.816  32.281  37.463  1.00  0.00     0.031 C 
ATOM     64  C   UNL A   1      38.606  34.156  34.983  1.00  0.00     0.029 A 
ATOM     65  C   UNL A   1      39.821  33.523  35.190  1.00  0.00     0.049 A 
ATOM     66  H   UNL A   1      40.843  32.164  33.941  1.00  0.00     0.167 HD
ATOM     67  C   UNL A   1      41.859  32.929  36.464  1.00  0.00     0.074 A 
ATOM     68  C   UNL A   1      42.754  33.064  37.593  1.00  0.00     0.031 C 
ATOM     69  C   UNL A   1      40.715  33.641  36.313  1.00  0.00     0.037 A 
BRANCH  56  70
ATOM     70  C   UNL A   1      37.811  32.610  30.977  1.00  0.00     0.058 A 
ATOM     71  C   UNL A   1      36.653  31.823  30.895  1.00  0.00     0.135 A 
ATOM     72  C   UNL A   1      37.856  33.797  30.229  1.00  0.00     0.135 A 
ATOM     73  F   UNL A   1      36.570  30.668  31.573  1.00  0.00    -0.206 F 
ATOM     74  C   UNL A   1      35.579  32.198  30.095  1.00  0.00     0.059 A 
ATOM     75  C   UNL A   1      36.785  34.203  29.440  1.00  0.00     0.059 A 
ATOM     76  F   UNL A   1      38.946  34.580  30.267  1.00  0.00    -0.206 F 
ATOM     77  C   UNL A   1      35.652  33.392  29.375  1.00  0.00     0.060 A 
BRANCH  77  78
ATOM     78  S   UNL A   1      34.234  33.885  28.372  1.00  0.00     0.124 S 
ATOM     79  O   UNL A   1      33.523  34.769  29.289  1.00  0.00    -0.237 OA
ATOM     80  O   UNL A   1      34.870  34.535  27.230  1.00  0.00    -0.237 OA
ATOM     81  O   UNL A   1      33.569  32.620  28.077  1.00  0.00    -0.744 OA
ENDBRANCH  77  78
ENDBRANCH  56  70
BRANCH  57  82
ATOM     82  C   UNL A   1      45.765  30.306  36.534  1.00  0.00     0.058 A 
ATOM     83  C   UNL A   1      46.949  31.019  36.294  1.00  0.00     0.135 A 
ATOM     84  C   UNL A   1      45.788  29.316  37.528  1.00  0.00     0.135 A 
ATOM     85  F   UNL A   1      46.984  31.963  35.342  1.00  0.00    -0.206 F 
ATOM     86  C   UNL A   1      48.119  30.744  36.997  1.00  0.00     0.059 A 
ATOM     87  C   UNL A   1      46.938  29.041  38.261  1.00  0.00     0.059 A 
ATOM     88  F   UNL A   1      44.681  28.608  37.799  1.00  0.00    -0.206 F 
ATOM     89  C   UNL A   1      48.104  29.752  37.979  1.00  0.00     0.060 A 
BRANCH  89  90
ATOM     90  S   UNL A   1      49.617  29.422  38.908  1.00  0.00     0.124 S 
ATOM     91  O   UNL A   1      50.206  28.337  38.132  1.00  0.00    -0.237 OA
ATOM     92  O   UNL A   1      50.306  30.707  38.837  1.00  0.00    -0.237 OA
ATOM     93  O   UNL A   1      49.122  29.056  40.232  1.00  0.00    -0.744 OA
ENDBRANCH  89  90
ENDBRANCH  57  82
BRANCH  69  94
ATOM     94  C   UNL A   1      40.340  34.615  37.395  1.00  0.00     0.058 A 
ATOM     95  C   UNL A   1      39.565  34.225  38.497  1.00  0.00     0.135 A 
ATOM     96  C   UNL A   1      40.841  35.927  37.376  1.00  0.00     0.135 A 
ATOM     97  F   UNL A   1      39.057  32.984  38.560  1.00  0.00    -0.206 F 
ATOM     98  C   UNL A   1      39.293  35.104  39.541  1.00  0.00     0.059 A 
ATOM     99  C   UNL A   1      40.602  36.816  38.420  1.00  0.00     0.059 A 
ATOM    100  F   UNL A   1      41.598  36.348  36.350  1.00  0.00    -0.206 F 
ATOM    101  C   UNL A   1      39.821  36.396  39.497  1.00  0.00     0.060 A 
BRANCH 101 102
ATOM    102  S   UNL A   1      39.514  37.506  40.888  1.00  0.00     0.124 S 
ATOM    103  O   UNL A   1      39.116  36.567  41.931  1.00  0.00    -0.237 OA
ATOM    104  O   UNL A   1      40.813  38.147  41.071  1.00  0.00    -0.237 OA
ATOM    105  O   UNL A   1      38.454  38.382  40.395  1.00  0.00    -0.744 OA
ENDBRANCH 101 102
ENDBRANCH  69  94
ENDBRANCH  43  44
ENDBRANCH  36  38
ENDBRANCH  35  36
ENDBRANCH  34  35
ENDBRANCH  33  34
ENDBRANCH  32  33
ENDBRANCH  31  32
ENDBRANCH  30  31
ENDBRANCH  29  30
ENDBRANCH   1  29
TORSDOF 28
ENDMDL
