MODEL 1
REMARK VINA RESULT:      -9.5      0.000      0.000
REMARK SMILES NS(=O)(=O)c1ccc(C#Cc2cc(Cl)cc3c2O[C@H](C(F)(F)F)C(C(=O)OCCOCCOCCOCCOC(=O)c2ccc(-c4c5nc(c(-c6c(F)cc(S(=O)(=O)[O-])cc6F)c6ccc([nH]6)c(-c6c(F)cc(S(=O)(=O)[O-])cc6F)c6nc(c(-c7c(F)cc(S(=O)(=O)[O-])cc7F)c7ccc4[nH]7)C=C6)C=C5)cc2)=C3)cc1
REMARK SMILES IDX 32 1 31 2 30 3 29 4 28 5 27 6 25 7 26 8 24 9 11 10 12 11
REMARK SMILES IDX 17 12 13 13 16 14 18 15 14 16 15 17 108 18 19 19 10 20 9 21
REMARK SMILES IDX 8 22 5 23 6 24 110 25 7 26 109 27 2 28 3 29 4 30 1 31 20 34
REMARK SMILES IDX 21 35 22 36 23 37 33 38 34 39 35 40 36 41 37 42 38 43 39 44
REMARK SMILES IDX 40 45 41 46 42 47 43 48 107 49 44 50 106 51 45 52 46 53
REMARK SMILES IDX 47 54 100 55 48 56 105 57 99 58 101 59 49 60 104 61 98 62
REMARK SMILES IDX 97 63 50 65 84 66 63 67 83 68 64 69 67 70 82 71 102 72 65 73
REMARK SMILES IDX 66 74 81 76 103 77 68 78 51 79 52 80 61 81 53 82 54 83 60 84
REMARK SMILES IDX 62 85 55 86 56 87 57 88 58 89 59 90 85 91 86 92 95 93 87 94
REMARK SMILES IDX 88 95 94 96 96 97 89 98 90 99 91 100 92 101 93 102 69 103
REMARK SMILES IDX 70 104 79 105 71 106 72 107 78 108 80 109 73 110 74 111
REMARK SMILES IDX 75 112 76 113 77 114
REMARK H PARENT 1 32 1 33 101 64 67 75
REMARK Flexibility Score: inf
ROOT
ATOM      1  C   UNL A   1      33.216  20.348  25.841  1.00  0.00     0.188 C 
ENDROOT
BRANCH   1   2
ATOM      2  C   UNL A   1      32.851  19.235  24.835  1.00  0.00     0.188 C 
BRANCH   2   3
ATOM      3  O   UNL A   1      32.829  19.599  23.472  1.00  0.00    -0.376 OA
BRANCH   3   4
ATOM      4  C   UNL A   1      32.048  20.665  22.959  1.00  0.00     0.202 C 
BRANCH   4   5
ATOM      5  C   UNL A   1      32.363  22.169  23.067  1.00  0.00     0.261 C 
BRANCH   5   6
ATOM      6  O   UNL A   1      31.276  23.061  23.285  1.00  0.00    -0.460 OA
BRANCH   6   7
ATOM      7  C   UNL A   1      30.954  23.306  24.568  1.00  0.00     0.338 C 
ATOM      8  O   UNL A   1      30.784  22.483  25.452  1.00  0.00    -0.246 OA
BRANCH   7   9
ATOM      9  C   UNL A   1      31.038  24.765  24.797  1.00  0.00     0.087 C 
ATOM     10  C   UNL A   1      31.429  28.913  25.126  1.00  0.00     0.069 A 
ATOM     11  C   UNL A   1      30.715  29.731  24.242  1.00  0.00     0.041 A 
ATOM     12  C   UNL A   1      31.246  27.521  25.099  1.00  0.00     0.143 A 
ATOM     13  C   UNL A   1      29.801  29.168  23.357  1.00  0.00     0.043 A 
ATOM     14  C   UNL A   1      30.353  26.966  24.175  1.00  0.00     0.020 A 
ATOM     15  O   UNL A   1      31.964  26.758  25.979  1.00  0.00    -0.474 OA
ATOM     16  Cl  UNL A   1      28.933  30.176  22.266  1.00  0.00    -0.084 Cl
ATOM     17  C   UNL A   1      29.607  27.792  23.327  1.00  0.00     0.032 A 
ATOM     18  C   UNL A   1      30.251  25.527  24.029  1.00  0.00     0.027 C 
ATOM     19  C   UNL A   1      31.947  25.305  25.868  1.00  0.00     0.316 C 
BRANCH  10  20
ATOM     20  C   UNL A   1      32.374  29.549  26.002  1.00  0.00    -0.058 C 
ATOM     21  C   UNL A   1      33.174  30.132  26.676  1.00  0.00    -0.062 C 
BRANCH  21  22
ATOM     22  C   UNL A   1      34.152  30.848  27.443  1.00  0.00     0.025 A 
ATOM     23  C   UNL A   1      36.085  32.258  28.876  1.00  0.00     0.082 A 
ATOM     24  C   UNL A   1      36.365  30.968  28.417  1.00  0.00     0.023 A 
ATOM     25  C   UNL A   1      34.835  32.841  28.643  1.00  0.00     0.023 A 
ATOM     26  C   UNL A   1      35.396  30.265  27.697  1.00  0.00     0.018 A 
ATOM     27  C   UNL A   1      33.869  32.133  27.922  1.00  0.00     0.018 A 
BRANCH  23  28
ATOM     28  S   UNL A   1      37.316  33.159  29.768  1.00  0.00     0.238 S 
ATOM     29  O   UNL A   1      38.630  32.703  29.384  1.00  0.00    -0.207 OA
ATOM     30  O   UNL A   1      36.904  33.276  31.147  1.00  0.00    -0.207 OA
BRANCH  28  31
ATOM     31  N   UNL A   1      37.171  34.699  29.109  1.00  0.00    -0.225 NA
ATOM     32  H   UNL A   1      38.100  35.086  28.940  1.00  0.00     0.137 HD
ATOM     33  H   UNL A   1      36.664  35.301  29.758  1.00  0.00     0.137 HD
ENDBRANCH  28  31
ENDBRANCH  23  28
ENDBRANCH  21  22
ENDBRANCH  10  20
BRANCH  19  34
ATOM     34  C   UNL A   1      33.389  24.813  25.678  1.00  0.00     0.430 C 
ATOM     35  F   UNL A   1      33.660  24.565  24.375  1.00  0.00    -0.167 F 
ATOM     36  F   UNL A   1      34.290  25.726  26.106  1.00  0.00    -0.167 F 
ATOM     37  F   UNL A   1      33.611  23.668  26.366  1.00  0.00    -0.167 F 
ENDBRANCH  19  34
ENDBRANCH   7   9
ENDBRANCH   6   7
ENDBRANCH   5   6
ENDBRANCH   4   5
ENDBRANCH   3   4
ENDBRANCH   2   3
ENDBRANCH   1   2
BRANCH   1  38
ATOM     38  O   UNL A   1      34.585  20.696  25.909  1.00  0.00    -0.377 OA
BRANCH  38  39
ATOM     39  C   UNL A   1      35.487  20.205  24.919  1.00  0.00     0.188 C 
BRANCH  39  40
ATOM     40  C   UNL A   1      37.016  20.461  24.966  1.00  0.00     0.188 C 
BRANCH  40  41
ATOM     41  O   UNL A   1      37.393  21.759  25.377  1.00  0.00    -0.376 OA
BRANCH  41  42
ATOM     42  C   UNL A   1      38.633  21.989  26.010  1.00  0.00     0.202 C 
BRANCH  42  43
ATOM     43  C   UNL A   1      39.660  20.856  26.136  1.00  0.00     0.261 C 
BRANCH  43  44
ATOM     44  O   UNL A   1      40.910  21.035  25.467  1.00  0.00    -0.460 OA
BRANCH  44  45
ATOM     45  C   UNL A   1      42.037  20.703  26.142  1.00  0.00     0.338 C 
ATOM     46  O   UNL A   1      42.576  19.614  26.173  1.00  0.00    -0.246 OA
BRANCH  45  47
ATOM     47  C   UNL A   1      42.597  21.968  26.670  1.00  0.00     0.060 A 
ATOM     48  C   UNL A   1      43.018  22.039  28.001  1.00  0.00     0.016 A 
ATOM     49  C   UNL A   1      42.632  23.108  25.855  1.00  0.00     0.016 A 
ATOM     50  C   UNL A   1      43.494  23.249  28.508  1.00  0.00     0.010 A 
ATOM     51  C   UNL A   1      43.100  24.321  26.369  1.00  0.00     0.010 A 
ATOM     52  C   UNL A   1      43.557  24.395  27.693  1.00  0.00    -0.014 A 
BRANCH  52  53
ATOM     53  C   UNL A   1      44.270  25.602  28.184  1.00  0.00     0.031 A 
ATOM     54  C   UNL A   1      43.616  26.616  29.074  1.00  0.00     0.074 A 
ATOM     55  C   UNL A   1      45.554  25.762  27.808  1.00  0.00     0.049 A 
ATOM     56  N   UNL A   1      44.151  27.662  29.652  1.00  0.00    -0.248 NA
ATOM     57  C   UNL A   1      42.183  26.442  29.348  1.00  0.00     0.031 C 
ATOM     58  C   UNL A   1      46.279  24.855  26.916  1.00  0.00     0.029 A 
ATOM     59  N   UNL A   1      46.479  26.721  28.134  1.00  0.00    -0.354 N 
ATOM     60  C   UNL A   1      43.130  28.263  30.378  1.00  0.00     0.074 A 
ATOM     61  C   UNL A   1      41.930  27.491  30.123  1.00  0.00     0.031 C 
ATOM     62  C   UNL A   1      47.547  25.276  26.800  1.00  0.00     0.029 A 
ATOM     63  C   UNL A   1      47.716  26.501  27.576  1.00  0.00     0.049 A 
ATOM     64  H   UNL A   1      46.276  27.491  28.711  1.00  0.00     0.167 HD
ATOM     65  C   UNL A   1      43.199  29.344  31.196  1.00  0.00     0.037 A 
ATOM     66  C   UNL A   1      48.861  27.202  27.676  1.00  0.00     0.037 A 
ATOM     67  C   UNL A   1      44.400  30.115  31.422  1.00  0.00     0.049 A 
ATOM     68  C   UNL A   1      48.897  28.425  28.548  1.00  0.00     0.074 A 
ATOM     69  C   UNL A   1      44.575  31.205  32.259  1.00  0.00     0.029 A 
ATOM     70  N   UNL A   1      45.623  29.894  30.803  1.00  0.00    -0.354 N 
ATOM     71  N   UNL A   1      47.943  28.934  29.291  1.00  0.00    -0.248 NA
ATOM     72  C   UNL A   1      50.163  29.166  28.601  1.00  0.00     0.031 C 
ATOM     73  C   UNL A   1      45.879  31.681  32.095  1.00  0.00     0.029 A 
ATOM     74  C   UNL A   1      46.543  30.849  31.208  1.00  0.00     0.049 A 
ATOM     75  H   UNL A   1      45.810  29.165  30.167  1.00  0.00     0.167 HD
ATOM     76  C   UNL A   1      48.498  30.047  29.913  1.00  0.00     0.074 A 
ATOM     77  C   UNL A   1      49.878  30.122  29.477  1.00  0.00     0.031 C 
ATOM     78  C   UNL A   1      47.915  30.927  30.764  1.00  0.00     0.037 A 
BRANCH  65  79
ATOM     79  C   UNL A   1      41.945  29.768  31.916  1.00  0.00     0.058 A 
ATOM     80  C   UNL A   1      41.615  29.252  33.180  1.00  0.00     0.135 A 
ATOM     81  C   UNL A   1      41.104  30.756  31.377  1.00  0.00     0.135 A 
ATOM     82  F   UNL A   1      42.379  28.303  33.744  1.00  0.00    -0.206 F 
ATOM     83  C   UNL A   1      40.484  29.679  33.870  1.00  0.00     0.059 A 
ATOM     84  C   UNL A   1      39.985  31.222  32.064  1.00  0.00     0.059 A 
ATOM     85  F   UNL A   1      41.373  31.292  30.177  1.00  0.00    -0.206 F 
ATOM     86  C   UNL A   1      39.677  30.667  33.305  1.00  0.00     0.060 A 
BRANCH  86  87
ATOM     87  S   UNL A   1      38.214  31.204  34.215  1.00  0.00     0.124 S 
ATOM     88  O   UNL A   1      38.296  30.376  35.415  1.00  0.00    -0.237 OA
ATOM     89  O   UNL A   1      38.473  32.627  34.407  1.00  0.00    -0.237 OA
ATOM     90  O   UNL A   1      37.112  30.885  33.312  1.00  0.00    -0.744 OA
ENDBRANCH  86  87
ENDBRANCH  65  79
BRANCH  66  91
ATOM     91  C   UNL A   1      50.072  26.734  26.949  1.00  0.00     0.058 A 
ATOM     92  C   UNL A   1      50.280  27.069  25.603  1.00  0.00     0.135 A 
ATOM     93  C   UNL A   1      51.066  25.985  27.598  1.00  0.00     0.135 A 
ATOM     94  F   UNL A   1      49.356  27.777  24.937  1.00  0.00    -0.206 F 
ATOM     95  C   UNL A   1      51.428  26.674  24.926  1.00  0.00     0.059 A 
ATOM     96  C   UNL A   1      52.237  25.606  26.951  1.00  0.00     0.059 A 
ATOM     97  F   UNL A   1      50.922  25.653  28.891  1.00  0.00    -0.206 F 
ATOM     98  C   UNL A   1      52.407  25.952  25.612  1.00  0.00     0.060 A 
BRANCH  98  99
ATOM     99  S   UNL A   1      53.920  25.505  24.736  1.00  0.00     0.124 S 
ATOM    100  O   UNL A   1      53.717  26.150  23.446  1.00  0.00    -0.237 OA
ATOM    101  O   UNL A   1      54.948  26.092  25.591  1.00  0.00    -0.237 OA
ATOM    102  O   UNL A   1      53.884  24.046  24.725  1.00  0.00    -0.744 OA
ENDBRANCH  98  99
ENDBRANCH  66  91
BRANCH  78 103
ATOM    103  C   UNL A   1      48.762  32.056  31.290  1.00  0.00     0.058 A 
ATOM    104  C   UNL A   1      49.562  31.906  32.435  1.00  0.00     0.135 A 
ATOM    105  C   UNL A   1      48.830  33.283  30.606  1.00  0.00     0.135 A 
ATOM    106  F   UNL A   1      49.532  30.760  33.134  1.00  0.00    -0.206 F 
ATOM    107  C   UNL A   1      50.379  32.934  32.894  1.00  0.00     0.059 A 
ATOM    108  C   UNL A   1      49.667  34.312  31.027  1.00  0.00     0.059 A 
ATOM    109  F   UNL A   1      48.096  33.481  29.500  1.00  0.00    -0.206 F 
ATOM    110  C   UNL A   1      50.431  34.131  32.178  1.00  0.00     0.060 A 
BRANCH 110 111
ATOM    111  S   UNL A   1      51.527  35.439  32.768  1.00  0.00     0.124 S 
ATOM    112  O   UNL A   1      52.027  35.995  31.514  1.00  0.00    -0.237 OA
ATOM    113  O   UNL A   1      50.612  36.293  33.518  1.00  0.00    -0.237 OA
ATOM    114  O   UNL A   1      52.513  34.724  33.573  1.00  0.00    -0.744 OA
ENDBRANCH 110 111
ENDBRANCH  78 103
ENDBRANCH  52  53
ENDBRANCH  45  47
ENDBRANCH  44  45
ENDBRANCH  43  44
ENDBRANCH  42  43
ENDBRANCH  41  42
ENDBRANCH  40  41
ENDBRANCH  39  40
ENDBRANCH  38  39
ENDBRANCH   1  38
TORSDOF 28
ENDMDL
MODEL 2
REMARK VINA RESULT:      -9.4      4.357      5.819
REMARK SMILES NS(=O)(=O)c1ccc(C#Cc2cc(Cl)cc3c2O[C@H](C(F)(F)F)C(C(=O)OCCOCCOCCOCCOC(=O)c2ccc(-c4c5nc(c(-c6c(F)cc(S(=O)(=O)[O-])cc6F)c6ccc([nH]6)c(-c6c(F)cc(S(=O)(=O)[O-])cc6F)c6nc(c(-c7c(F)cc(S(=O)(=O)[O-])cc7F)c7ccc4[nH]7)C=C6)C=C5)cc2)=C3)cc1
REMARK SMILES IDX 32 1 31 2 30 3 29 4 28 5 27 6 25 7 26 8 24 9 11 10 12 11
REMARK SMILES IDX 17 12 13 13 16 14 18 15 14 16 15 17 108 18 19 19 10 20 9 21
REMARK SMILES IDX 8 22 5 23 6 24 110 25 7 26 109 27 2 28 3 29 4 30 1 31 20 34
REMARK SMILES IDX 21 35 22 36 23 37 33 38 34 39 35 40 36 41 37 42 38 43 39 44
REMARK SMILES IDX 40 45 41 46 42 47 43 48 107 49 44 50 106 51 45 52 46 53
REMARK SMILES IDX 47 54 100 55 48 56 105 57 99 58 101 59 49 60 104 61 98 62
REMARK SMILES IDX 97 63 50 65 84 66 63 67 83 68 64 69 67 70 82 71 102 72 65 73
REMARK SMILES IDX 66 74 81 76 103 77 68 78 51 79 52 80 61 81 53 82 54 83 60 84
REMARK SMILES IDX 62 85 55 86 56 87 57 88 58 89 59 90 85 91 86 92 95 93 87 94
REMARK SMILES IDX 88 95 94 96 96 97 89 98 90 99 91 100 92 101 93 102 69 103
REMARK SMILES IDX 70 104 79 105 71 106 72 107 78 108 80 109 73 110 74 111
REMARK SMILES IDX 75 112 76 113 77 114
REMARK H PARENT 1 32 1 33 101 64 67 75
REMARK Flexibility Score: inf
ROOT
ATOM      1  C   UNL A   1      32.819  19.733  25.504  1.00  0.00     0.188 C 
ENDROOT
BRANCH   1   2
ATOM      2  C   UNL A   1      32.677  18.808  24.277  1.00  0.00     0.188 C 
BRANCH   2   3
ATOM      3  O   UNL A   1      32.586  19.438  23.018  1.00  0.00    -0.376 OA
BRANCH   3   4
ATOM      4  C   UNL A   1      31.885  20.650  22.799  1.00  0.00     0.202 C 
BRANCH   4   5
ATOM      5  C   UNL A   1      32.420  22.075  23.029  1.00  0.00     0.261 C 
BRANCH   5   6
ATOM      6  O   UNL A   1      31.471  23.118  23.225  1.00  0.00    -0.460 OA
BRANCH   6   7
ATOM      7  C   UNL A   1      31.098  23.352  24.496  1.00  0.00     0.338 C 
ATOM      8  O   UNL A   1      30.875  22.521  25.361  1.00  0.00    -0.246 OA
BRANCH   7   9
ATOM      9  C   UNL A   1      31.197  24.806  24.748  1.00  0.00     0.087 C 
ATOM     10  C   UNL A   1      31.610  28.947  25.133  1.00  0.00     0.069 A 
ATOM     11  C   UNL A   1      30.833  29.782  24.320  1.00  0.00     0.041 A 
ATOM     12  C   UNL A   1      31.426  27.556  25.091  1.00  0.00     0.143 A 
ATOM     13  C   UNL A   1      29.857  29.236  23.493  1.00  0.00     0.043 A 
ATOM     14  C   UNL A   1      30.468  27.018  24.223  1.00  0.00     0.020 A 
ATOM     15  O   UNL A   1      32.207  26.777  25.900  1.00  0.00    -0.474 OA
ATOM     16  Cl  UNL A   1      28.911  30.263  22.489  1.00  0.00    -0.084 Cl
ATOM     17  C   UNL A   1      29.662  27.860  23.449  1.00  0.00     0.032 A 
ATOM     18  C   UNL A   1      30.357  25.582  24.056  1.00  0.00     0.027 C 
ATOM     19  C   UNL A   1      32.182  25.326  25.761  1.00  0.00     0.316 C 
BRANCH  10  20
ATOM     20  C   UNL A   1      32.616  29.567  25.950  1.00  0.00    -0.058 C 
ATOM     21  C   UNL A   1      33.416  30.151  26.623  1.00  0.00    -0.062 C 
BRANCH  21  22
ATOM     22  C   UNL A   1      34.363  30.891  27.406  1.00  0.00     0.025 A 
ATOM     23  C   UNL A   1      36.171  32.309  28.986  1.00  0.00     0.082 A 
ATOM     24  C   UNL A   1      34.927  32.869  28.683  1.00  0.00     0.023 A 
ATOM     25  C   UNL A   1      36.528  31.054  28.486  1.00  0.00     0.023 A 
ATOM     26  C   UNL A   1      34.022  32.156  27.894  1.00  0.00     0.018 A 
ATOM     27  C   UNL A   1      35.618  30.344  27.696  1.00  0.00     0.018 A 
BRANCH  23  28
ATOM     28  S   UNL A   1      37.310  33.200  30.003  1.00  0.00     0.238 S 
ATOM     29  O   UNL A   1      38.173  34.010  29.177  1.00  0.00    -0.207 OA
ATOM     30  O   UNL A   1      37.816  32.316  31.026  1.00  0.00    -0.207 OA
BRANCH  28  31
ATOM     31  N   UNL A   1      36.300  34.290  30.790  1.00  0.00    -0.225 NA
ATOM     32  H   UNL A   1      35.328  34.069  30.576  1.00  0.00     0.137 HD
ATOM     33  H   UNL A   1      36.511  35.238  30.474  1.00  0.00     0.137 HD
ENDBRANCH  28  31
ENDBRANCH  23  28
ENDBRANCH  21  22
ENDBRANCH  10  20
BRANCH  19  34
ATOM     34  C   UNL A   1      33.607  24.841  25.456  1.00  0.00     0.430 C 
ATOM     35  F   UNL A   1      34.532  25.596  26.093  1.00  0.00    -0.167 F 
ATOM     36  F   UNL A   1      33.796  23.562  25.850  1.00  0.00    -0.167 F 
ATOM     37  F   UNL A   1      33.872  24.903  24.129  1.00  0.00    -0.167 F 
ENDBRANCH  19  34
ENDBRANCH   7   9
ENDBRANCH   6   7
ENDBRANCH   5   6
ENDBRANCH   4   5
ENDBRANCH   3   4
ENDBRANCH   2   3
ENDBRANCH   1   2
BRANCH   1  38
ATOM     38  O   UNL A   1      34.112  20.257  25.739  1.00  0.00    -0.377 OA
BRANCH  38  39
ATOM     39  C   UNL A   1      35.228  19.722  25.029  1.00  0.00     0.188 C 
BRANCH  39  40
ATOM     40  C   UNL A   1      36.636  20.372  25.052  1.00  0.00     0.188 C 
BRANCH  40  41
ATOM     41  O   UNL A   1      36.651  21.774  24.872  1.00  0.00    -0.376 OA
BRANCH  41  42
ATOM     42  C   UNL A   1      37.684  22.565  25.417  1.00  0.00     0.202 C 
BRANCH  42  43
ATOM     43  C   UNL A   1      38.916  21.903  26.048  1.00  0.00     0.261 C 
BRANCH  43  44
ATOM     44  O   UNL A   1      40.160  22.595  25.927  1.00  0.00    -0.460 OA
BRANCH  44  45
ATOM     45  C   UNL A   1      41.287  21.928  26.271  1.00  0.00     0.338 C 
ATOM     46  O   UNL A   1      41.733  20.927  25.745  1.00  0.00    -0.246 OA
BRANCH  45  47
ATOM     47  C   UNL A   1      41.979  22.764  27.278  1.00  0.00     0.060 A 
ATOM     48  C   UNL A   1      43.315  22.506  27.596  1.00  0.00     0.016 A 
ATOM     49  C   UNL A   1      41.268  23.759  27.963  1.00  0.00     0.016 A 
ATOM     50  C   UNL A   1      43.944  23.262  28.586  1.00  0.00     0.010 A 
ATOM     51  C   UNL A   1      41.899  24.508  28.960  1.00  0.00     0.010 A 
ATOM     52  C   UNL A   1      43.250  24.281  29.263  1.00  0.00    -0.014 A 
BRANCH  52  53
ATOM     53  C   UNL A   1      43.998  25.213  30.146  1.00  0.00     0.031 A 
ATOM     54  C   UNL A   1      44.536  24.798  31.483  1.00  0.00     0.074 A 
ATOM     55  C   UNL A   1      44.194  26.469  29.700  1.00  0.00     0.049 A 
ATOM     56  N   UNL A   1      45.287  25.480  32.309  1.00  0.00    -0.248 NA
ATOM     57  C   UNL A   1      44.184  23.452  31.958  1.00  0.00     0.031 C 
ATOM     58  C   UNL A   1      43.685  26.991  28.430  1.00  0.00     0.029 A 
ATOM     59  N   UNL A   1      44.879  27.525  30.244  1.00  0.00    -0.354 N 
ATOM     60  C   UNL A   1      45.521  24.645  33.395  1.00  0.00     0.074 A 
ATOM     61  C   UNL A   1      44.785  23.422  33.142  1.00  0.00     0.031 C 
ATOM     62  C   UNL A   1      44.111  28.252  28.272  1.00  0.00     0.029 A 
ATOM     63  C   UNL A   1      44.890  28.642  29.444  1.00  0.00     0.049 A 
ATOM     64  H   UNL A   1      45.321  27.486  31.123  1.00  0.00     0.167 HD
ATOM     65  C   UNL A   1      46.295  24.874  34.485  1.00  0.00     0.037 A 
ATOM     66  C   UNL A   1      45.462  29.847  29.626  1.00  0.00     0.037 A 
ATOM     67  C   UNL A   1      47.006  26.108  34.730  1.00  0.00     0.049 A 
ATOM     68  C   UNL A   1      46.273  30.093  30.868  1.00  0.00     0.074 A 
ATOM     69  C   UNL A   1      47.842  26.420  35.790  1.00  0.00     0.029 A 
ATOM     70  N   UNL A   1      46.955  27.237  33.923  1.00  0.00    -0.354 N 
ATOM     71  N   UNL A   1      46.550  29.264  31.846  1.00  0.00    -0.248 NA
ATOM     72  C   UNL A   1      46.852  31.432  31.029  1.00  0.00     0.031 C 
ATOM     73  C   UNL A   1      48.241  27.754  35.658  1.00  0.00     0.029 A 
ATOM     74  C   UNL A   1      47.711  28.257  34.481  1.00  0.00     0.049 A 
ATOM     75  H   UNL A   1      46.454  27.303  33.079  1.00  0.00     0.167 HD
ATOM     76  C   UNL A   1      47.350  29.977  32.732  1.00  0.00     0.074 A 
ATOM     77  C   UNL A   1      47.532  31.296  32.160  1.00  0.00     0.031 C 
ATOM     78  C   UNL A   1      47.881  29.574  33.914  1.00  0.00     0.037 A 
BRANCH  65  79
ATOM     79  C   UNL A   1      46.426  23.772  35.505  1.00  0.00     0.058 A 
ATOM     80  C   UNL A   1      47.448  22.812  35.421  1.00  0.00     0.135 A 
ATOM     81  C   UNL A   1      45.573  23.718  36.620  1.00  0.00     0.135 A 
ATOM     82  F   UNL A   1      48.291  22.811  34.376  1.00  0.00    -0.206 F 
ATOM     83  C   UNL A   1      47.602  21.824  36.389  1.00  0.00     0.059 A 
ATOM     84  C   UNL A   1      45.728  22.758  37.617  1.00  0.00     0.059 A 
ATOM     85  F   UNL A   1      44.583  24.614  36.759  1.00  0.00    -0.206 F 
ATOM     86  C   UNL A   1      46.739  21.807  37.485  1.00  0.00     0.060 A 
BRANCH  86  87
ATOM     87  S   UNL A   1      46.954  20.514  38.726  1.00  0.00     0.124 S 
ATOM     88  O   UNL A   1      48.302  20.042  38.425  1.00  0.00    -0.237 OA
ATOM     89  O   UNL A   1      46.806  21.256  39.974  1.00  0.00    -0.237 OA
ATOM     90  O   UNL A   1      45.881  19.570  38.429  1.00  0.00    -0.744 OA
ENDBRANCH  86  87
ENDBRANCH  65  79
BRANCH  66  91
ATOM     91  C   UNL A   1      45.307  30.897  28.583  1.00  0.00     0.058 A 
ATOM     92  C   UNL A   1      46.254  31.044  27.560  1.00  0.00     0.135 A 
ATOM     93  C   UNL A   1      44.184  31.739  28.562  1.00  0.00     0.135 A 
ATOM     94  F   UNL A   1      47.348  30.268  27.540  1.00  0.00    -0.206 F 
ATOM     95  C   UNL A   1      46.096  31.993  26.555  1.00  0.00     0.059 A 
ATOM     96  C   UNL A   1      43.988  32.673  27.551  1.00  0.00     0.059 A 
ATOM     97  F   UNL A   1      43.239  31.627  29.510  1.00  0.00    -0.206 F 
ATOM     98  C   UNL A   1      44.954  32.795  26.553  1.00  0.00     0.060 A 
BRANCH  98  99
ATOM     99  S   UNL A   1      44.733  33.976  25.206  1.00  0.00     0.124 S 
ATOM    100  O   UNL A   1      44.149  33.134  24.168  1.00  0.00    -0.237 OA
ATOM    101  O   UNL A   1      43.838  34.959  25.810  1.00  0.00    -0.237 OA
ATOM    102  O   UNL A   1      46.089  34.449  24.945  1.00  0.00    -0.744 OA
ENDBRANCH  98  99
ENDBRANCH  66  91
BRANCH  78 103
ATOM    103  C   UNL A   1      48.717  30.567  34.679  1.00  0.00     0.058 A 
ATOM    104  C   UNL A   1      50.110  30.641  34.512  1.00  0.00     0.135 A 
ATOM    105  C   UNL A   1      48.114  31.503  35.538  1.00  0.00     0.135 A 
ATOM    106  F   UNL A   1      50.741  29.769  33.711  1.00  0.00    -0.206 F 
ATOM    107  C   UNL A   1      50.875  31.589  35.184  1.00  0.00     0.059 A 
ATOM    108  C   UNL A   1      48.856  32.481  36.193  1.00  0.00     0.059 A 
ATOM    109  F   UNL A   1      46.786  31.486  35.729  1.00  0.00    -0.206 F 
ATOM    110  C   UNL A   1      50.238  32.510  36.016  1.00  0.00     0.060 A 
BRANCH 110 111
ATOM    111  S   UNL A   1      51.244  33.757  36.849  1.00  0.00     0.124 S 
ATOM    112  O   UNL A   1      51.241  33.269  38.225  1.00  0.00    -0.237 OA
ATOM    113  O   UNL A   1      52.517  33.648  36.143  1.00  0.00    -0.237 OA
ATOM    114  O   UNL A   1      50.511  34.998  36.623  1.00  0.00    -0.744 OA
ENDBRANCH 110 111
ENDBRANCH  78 103
ENDBRANCH  52  53
ENDBRANCH  45  47
ENDBRANCH  44  45
ENDBRANCH  43  44
ENDBRANCH  42  43
ENDBRANCH  41  42
ENDBRANCH  40  41
ENDBRANCH  39  40
ENDBRANCH  38  39
ENDBRANCH   1  38
TORSDOF 28
ENDMDL
MODEL 3
REMARK VINA RESULT:      -9.4      1.712      2.408
REMARK SMILES NS(=O)(=O)c1ccc(C#Cc2cc(Cl)cc3c2O[C@H](C(F)(F)F)C(C(=O)OCCOCCOCCOCCOC(=O)c2ccc(-c4c5nc(c(-c6c(F)cc(S(=O)(=O)[O-])cc6F)c6ccc([nH]6)c(-c6c(F)cc(S(=O)(=O)[O-])cc6F)c6nc(c(-c7c(F)cc(S(=O)(=O)[O-])cc7F)c7ccc4[nH]7)C=C6)C=C5)cc2)=C3)cc1
REMARK SMILES IDX 32 1 31 2 30 3 29 4 28 5 27 6 25 7 26 8 24 9 11 10 12 11
REMARK SMILES IDX 17 12 13 13 16 14 18 15 14 16 15 17 108 18 19 19 10 20 9 21
REMARK SMILES IDX 8 22 5 23 6 24 110 25 7 26 109 27 2 28 3 29 4 30 1 31 20 34
REMARK SMILES IDX 21 35 22 36 23 37 33 38 34 39 35 40 36 41 37 42 38 43 39 44
REMARK SMILES IDX 40 45 41 46 42 47 43 48 107 49 44 50 106 51 45 52 46 53
REMARK SMILES IDX 47 54 100 55 48 56 105 57 99 58 101 59 49 60 104 61 98 62
REMARK SMILES IDX 97 63 50 65 84 66 63 67 83 68 64 69 67 70 82 71 102 72 65 73
REMARK SMILES IDX 66 74 81 76 103 77 68 78 51 79 52 80 61 81 53 82 54 83 60 84
REMARK SMILES IDX 62 85 55 86 56 87 57 88 58 89 59 90 85 91 86 92 95 93 87 94
REMARK SMILES IDX 88 95 94 96 96 97 89 98 90 99 91 100 92 101 93 102 69 103
REMARK SMILES IDX 70 104 79 105 71 106 72 107 78 108 80 109 73 110 74 111
REMARK SMILES IDX 75 112 76 113 77 114
REMARK H PARENT 1 32 1 33 101 64 67 75
REMARK Flexibility Score: inf
ROOT
ATOM      1  C   UNL A   1      33.636  20.849  25.687  1.00  0.00     0.188 C 
ENDROOT
BRANCH   1   2
ATOM      2  C   UNL A   1      33.768  20.555  24.177  1.00  0.00     0.188 C 
BRANCH   2   3
ATOM      3  O   UNL A   1      32.585  20.195  23.498  1.00  0.00    -0.376 OA
BRANCH   3   4
ATOM      4  C   UNL A   1      31.822  21.101  22.721  1.00  0.00     0.202 C 
BRANCH   4   5
ATOM      5  C   UNL A   1      32.177  22.565  22.405  1.00  0.00     0.261 C 
BRANCH   5   6
ATOM      6  O   UNL A   1      32.498  23.422  23.496  1.00  0.00    -0.460 OA
BRANCH   6   7
ATOM      7  C   UNL A   1      31.520  23.632  24.395  1.00  0.00     0.338 C 
ATOM      8  O   UNL A   1      30.991  22.799  25.111  1.00  0.00    -0.246 OA
BRANCH   7   9
ATOM      9  C   UNL A   1      31.319  25.091  24.529  1.00  0.00     0.087 C 
ATOM     10  C   UNL A   1      30.921  29.251  24.600  1.00  0.00     0.069 A 
ATOM     11  C   UNL A   1      30.127  29.870  23.626  1.00  0.00     0.041 A 
ATOM     12  C   UNL A   1      30.999  27.850  24.656  1.00  0.00     0.143 A 
ATOM     13  C   UNL A   1      29.391  29.097  22.734  1.00  0.00     0.043 A 
ATOM     14  C   UNL A   1      30.284  27.087  23.726  1.00  0.00     0.020 A 
ATOM     15  O   UNL A   1      31.787  27.285  25.623  1.00  0.00    -0.474 OA
ATOM     16  Cl  UNL A   1      28.424  29.861  21.534  1.00  0.00    -0.084 Cl
ATOM     17  C   UNL A   1      29.455  27.709  22.786  1.00  0.00     0.032 A 
ATOM     18  C   UNL A   1      30.458  25.648  23.672  1.00  0.00     0.027 C 
ATOM     19  C   UNL A   1      32.044  25.851  25.608  1.00  0.00     0.316 C 
BRANCH  10  20
ATOM     20  C   UNL A   1      31.675  30.100  25.479  1.00  0.00    -0.058 C 
ATOM     21  C   UNL A   1      32.241  30.811  26.259  1.00  0.00    -0.062 C 
BRANCH  21  22
ATOM     22  C   UNL A   1      32.876  31.680  27.208  1.00  0.00     0.025 A 
ATOM     23  C   UNL A   1      34.061  33.355  29.096  1.00  0.00     0.082 A 
ATOM     24  C   UNL A   1      33.018  33.836  28.300  1.00  0.00     0.023 A 
ATOM     25  C   UNL A   1      34.533  32.049  28.939  1.00  0.00     0.023 A 
ATOM     26  C   UNL A   1      32.425  32.993  27.357  1.00  0.00     0.018 A 
ATOM     27  C   UNL A   1      33.935  31.210  27.994  1.00  0.00     0.018 A 
BRANCH  23  28
ATOM     28  S   UNL A   1      34.800  34.412  30.306  1.00  0.00     0.238 S 
ATOM     29  O   UNL A   1      34.009  35.610  30.457  1.00  0.00    -0.207 OA
ATOM     30  O   UNL A   1      36.228  34.443  30.092  1.00  0.00    -0.207 OA
BRANCH  28  31
ATOM     31  N   UNL A   1      34.562  33.541  31.724  1.00  0.00    -0.225 NA
ATOM     32  H   UNL A   1      34.003  32.712  31.525  1.00  0.00     0.137 HD
ATOM     33  H   UNL A   1      34.075  34.125  32.404  1.00  0.00     0.137 HD
ENDBRANCH  28  31
ENDBRANCH  23  28
ENDBRANCH  21  22
ENDBRANCH  10  20
BRANCH  19  34
ATOM     34  C   UNL A   1      33.561  25.628  25.528  1.00  0.00     0.430 C 
ATOM     35  F   UNL A   1      33.917  24.449  26.088  1.00  0.00    -0.167 F 
ATOM     36  F   UNL A   1      33.998  25.611  24.249  1.00  0.00    -0.167 F 
ATOM     37  F   UNL A   1      34.235  26.608  26.175  1.00  0.00    -0.167 F 
ENDBRANCH  19  34
ENDBRANCH   7   9
ENDBRANCH   6   7
ENDBRANCH   5   6
ENDBRANCH   4   5
ENDBRANCH   3   4
ENDBRANCH   2   3
ENDBRANCH   1   2
BRANCH   1  38
ATOM     38  O   UNL A   1      34.769  21.425  26.307  1.00  0.00    -0.377 OA
BRANCH  38  39
ATOM     39  C   UNL A   1      35.802  21.990  25.502  1.00  0.00     0.188 C 
BRANCH  39  40
ATOM     40  C   UNL A   1      37.220  21.373  25.387  1.00  0.00     0.188 C 
BRANCH  40  41
ATOM     41  O   UNL A   1      38.286  22.287  25.539  1.00  0.00    -0.376 OA
BRANCH  41  42
ATOM     42  C   UNL A   1      39.504  21.893  26.131  1.00  0.00     0.202 C 
BRANCH  42  43
ATOM     43  C   UNL A   1      39.922  20.417  26.130  1.00  0.00     0.261 C 
BRANCH  43  44
ATOM     44  O   UNL A   1      41.120  20.080  26.833  1.00  0.00    -0.460 OA
BRANCH  44  45
ATOM     45  C   UNL A   1      42.287  20.134  26.149  1.00  0.00     0.338 C 
ATOM     46  O   UNL A   1      42.704  19.320  25.349  1.00  0.00    -0.246 OA
BRANCH  45  47
ATOM     47  C   UNL A   1      42.866  21.472  26.411  1.00  0.00     0.060 A 
ATOM     48  C   UNL A   1      43.087  22.353  25.350  1.00  0.00     0.016 A 
ATOM     49  C   UNL A   1      43.258  21.817  27.712  1.00  0.00     0.016 A 
ATOM     50  C   UNL A   1      43.684  23.590  25.596  1.00  0.00     0.010 A 
ATOM     51  C   UNL A   1      43.864  23.054  27.954  1.00  0.00     0.010 A 
ATOM     52  C   UNL A   1      44.060  23.960  26.901  1.00  0.00    -0.014 A 
BRANCH  52  53
ATOM     53  C   UNL A   1      44.483  25.358  27.171  1.00  0.00     0.031 A 
ATOM     54  C   UNL A   1      43.607  26.338  27.893  1.00  0.00     0.074 A 
ATOM     55  C   UNL A   1      45.707  25.731  26.748  1.00  0.00     0.049 A 
ATOM     56  N   UNL A   1      43.889  27.557  28.278  1.00  0.00    -0.248 NA
ATOM     57  C   UNL A   1      42.242  25.904  28.220  1.00  0.00     0.031 C 
ATOM     58  C   UNL A   1      46.628  24.869  26.005  1.00  0.00     0.029 A 
ATOM     59  N   UNL A   1      46.393  26.909  26.892  1.00  0.00    -0.354 N 
ATOM     60  C   UNL A   1      42.750  28.033  28.914  1.00  0.00     0.074 A 
ATOM     61  C   UNL A   1      41.752  26.985  28.815  1.00  0.00     0.031 C 
ATOM     62  C   UNL A   1      47.775  25.531  25.796  1.00  0.00     0.029 A 
ATOM     63  C   UNL A   1      47.658  26.875  26.354  1.00  0.00     0.049 A 
ATOM     64  H   UNL A   1      46.017  27.701  27.337  1.00  0.00     0.167 HD
ATOM     65  C   UNL A   1      42.566  29.223  29.539  1.00  0.00     0.037 A 
ATOM     66  C   UNL A   1      48.620  27.816  26.314  1.00  0.00     0.037 A 
ATOM     67  C   UNL A   1      43.565  30.265  29.610  1.00  0.00     0.049 A 
ATOM     68  C   UNL A   1      48.372  29.145  26.970  1.00  0.00     0.074 A 
ATOM     69  C   UNL A   1      43.482  31.491  30.251  1.00  0.00     0.029 A 
ATOM     70  N   UNL A   1      44.817  30.217  29.013  1.00  0.00    -0.354 N 
ATOM     71  N   UNL A   1      47.317  29.550  27.637  1.00  0.00    -0.248 NA
ATOM     72  C   UNL A   1      49.444  30.144  26.873  1.00  0.00     0.031 C 
ATOM     73  C   UNL A   1      44.654  32.207  29.985  1.00  0.00     0.029 A 
ATOM     74  C   UNL A   1      45.498  31.404  29.236  1.00  0.00     0.049 A 
ATOM     75  H   UNL A   1      45.170  29.451  28.504  1.00  0.00     0.167 HD
ATOM     76  C   UNL A   1      47.605  30.844  28.053  1.00  0.00     0.074 A 
ATOM     77  C   UNL A   1      48.942  31.146  27.584  1.00  0.00     0.031 C 
ATOM     78  C   UNL A   1      46.828  31.705  28.757  1.00  0.00     0.037 A 
BRANCH  65  79
ATOM     79  C   UNL A   1      41.237  29.477  30.203  1.00  0.00     0.058 A 
ATOM     80  C   UNL A   1      41.087  29.397  31.598  1.00  0.00     0.135 A 
ATOM     81  C   UNL A   1      40.121  29.879  29.451  1.00  0.00     0.135 A 
ATOM     82  F   UNL A   1      42.118  29.014  32.369  1.00  0.00    -0.206 F 
ATOM     83  C   UNL A   1      39.874  29.680  32.218  1.00  0.00     0.059 A 
ATOM     84  C   UNL A   1      38.906  30.198  30.054  1.00  0.00     0.059 A 
ATOM     85  F   UNL A   1      40.206  29.981  28.116  1.00  0.00    -0.206 F 
ATOM     86  C   UNL A   1      38.790  30.082  31.438  1.00  0.00     0.060 A 
BRANCH  86  87
ATOM     87  S   UNL A   1      37.225  30.441  32.263  1.00  0.00     0.124 S 
ATOM     88  O   UNL A   1      36.583  31.328  31.298  1.00  0.00    -0.237 OA
ATOM     89  O   UNL A   1      36.633  29.113  32.395  1.00  0.00    -0.237 OA
ATOM     90  O   UNL A   1      37.633  31.071  33.514  1.00  0.00    -0.744 OA
ENDBRANCH  86  87
ENDBRANCH  65  79
BRANCH  66  91
ATOM     91  C   UNL A   1      49.916  27.510  25.651  1.00  0.00     0.058 A 
ATOM     92  C   UNL A   1      51.045  27.151  26.402  1.00  0.00     0.135 A 
ATOM     93  C   UNL A   1      50.037  27.522  24.252  1.00  0.00     0.135 A 
ATOM     94  F   UNL A   1      50.981  27.130  27.741  1.00  0.00    -0.206 F 
ATOM     95  C   UNL A   1      52.249  26.820  25.790  1.00  0.00     0.059 A 
ATOM     96  C   UNL A   1      51.221  27.165  23.617  1.00  0.00     0.059 A 
ATOM     97  F   UNL A   1      48.981  27.843  23.488  1.00  0.00    -0.206 F 
ATOM     98  C   UNL A   1      52.324  26.819  24.396  1.00  0.00     0.060 A 
BRANCH  98  99
ATOM     99  S   UNL A   1      53.875  26.324  23.617  1.00  0.00     0.124 S 
ATOM    100  O   UNL A   1      53.472  26.173  22.224  1.00  0.00    -0.237 OA
ATOM    101  O   UNL A   1      54.739  27.463  23.913  1.00  0.00    -0.237 OA
ATOM    102  O   UNL A   1      54.221  25.087  24.310  1.00  0.00    -0.744 OA
ENDBRANCH  98  99
ENDBRANCH  66  91
BRANCH  78 103
ATOM    103  C   UNL A   1      47.398  33.064  29.072  1.00  0.00     0.058 A 
ATOM    104  C   UNL A   1      47.213  34.158  28.211  1.00  0.00     0.135 A 
ATOM    105  C   UNL A   1      48.081  33.294  30.279  1.00  0.00     0.135 A 
ATOM    106  F   UNL A   1      46.576  33.996  27.040  1.00  0.00    -0.206 F 
ATOM    107  C   UNL A   1      47.700  35.423  28.524  1.00  0.00     0.059 A 
ATOM    108  C   UNL A   1      48.546  34.559  30.629  1.00  0.00     0.059 A 
ATOM    109  F   UNL A   1      48.279  32.289  31.145  1.00  0.00    -0.206 F 
ATOM    110  C   UNL A   1      48.359  35.615  29.740  1.00  0.00     0.060 A 
BRANCH 110 111
ATOM    111  S   UNL A   1      48.950  37.272  30.145  1.00  0.00     0.124 S 
ATOM    112  O   UNL A   1      49.111  37.862  28.819  1.00  0.00    -0.237 OA
ATOM    113  O   UNL A   1      47.850  37.805  30.944  1.00  0.00    -0.237 OA
ATOM    114  O   UNL A   1      50.189  37.026  30.875  1.00  0.00    -0.744 OA
ENDBRANCH 110 111
ENDBRANCH  78 103
ENDBRANCH  52  53
ENDBRANCH  45  47
ENDBRANCH  44  45
ENDBRANCH  43  44
ENDBRANCH  42  43
ENDBRANCH  41  42
ENDBRANCH  40  41
ENDBRANCH  39  40
ENDBRANCH  38  39
ENDBRANCH   1  38
TORSDOF 28
ENDMDL
