MODEL 1
REMARK VINA RESULT:      -9.1      0.000      0.000
REMARK SMILES CC(C)(C)OC(=O)N[C@@H](CC(=O)OCCOCCOCCOCCOC(=O)c1ccc(-c2c3nc(c(-c4c(F)cc(S(=O)(=O)[O-])cc4F)c4ccc([nH]4)c(-c4c(F)cc(S(=O)(=O)[O-])cc4F)c4nc(c(-c5c(F)cc(S(=O)(=O)[O-])cc5F)c5ccc2[nH]5)C=C4)C=C3)cc1)c1cccnc1
REMARK SMILES IDX 18 1 17 2 16 3 15 4 14 5 13 6 11 7 12 8 10 9 9 10 8 11 6 12
REMARK SMILES IDX 7 13 5 15 2 16 1 17 3 18 4 19 94 20 95 21 99 22 96 23 98 24
REMARK SMILES IDX 97 25 19 26 20 27 21 28 22 29 23 30 24 31 25 32 26 33 27 34
REMARK SMILES IDX 28 35 29 36 93 37 30 38 92 39 31 40 32 41 33 42 86 43 34 44
REMARK SMILES IDX 91 45 85 46 87 47 35 48 90 49 84 50 83 51 36 53 70 54 49 55
REMARK SMILES IDX 69 56 50 57 53 58 68 59 88 60 51 61 52 62 67 64 89 65 54 66
REMARK SMILES IDX 37 67 38 68 47 69 39 70 40 71 46 72 48 73 41 74 42 75 43 76
REMARK SMILES IDX 44 77 45 78 71 79 72 80 81 81 73 82 74 83 80 84 82 85 75 86
REMARK SMILES IDX 76 87 77 88 78 89 79 90 55 91 56 92 65 93 57 94 58 95 64 96
REMARK SMILES IDX 66 97 59 98 60 99 61 100 62 101 63 102
REMARK H PARENT 8 14 87 52 53 63
REMARK Flexibility Score: inf
ROOT
ATOM      1  C   UNL A   1      42.378  18.888  26.066  1.00  0.00     0.188 C 
ENDROOT
BRANCH   1   2
ATOM      2  C   UNL A   1      41.428  19.943  26.629  1.00  0.00     0.188 C 
BRANCH   2   3
ATOM      3  O   UNL A   1      40.142  19.955  26.057  1.00  0.00    -0.376 OA
BRANCH   3   4
ATOM      4  C   UNL A   1      39.444  21.188  25.922  1.00  0.00     0.202 C 
BRANCH   4   5
ATOM      5  C   UNL A   1      37.980  21.341  25.443  1.00  0.00     0.261 C 
BRANCH   5   6
ATOM      6  O   UNL A   1      37.582  22.589  24.832  1.00  0.00    -0.463 OA
BRANCH   6   7
ATOM      7  C   UNL A   1      36.870  23.425  25.623  1.00  0.00     0.308 C 
ATOM      8  O   UNL A   1      37.330  24.454  26.118  1.00  0.00    -0.252 OA
BRANCH   7   9
ATOM      9  C   UNL A   1      35.408  23.102  25.837  1.00  0.00     0.152 C 
BRANCH   9  10
ATOM     10  C   UNL A   1      34.224  23.983  25.405  1.00  0.00     0.128 C 
BRANCH  10  11
ATOM     11  N   UNL A   1      34.444  25.396  25.631  1.00  0.00    -0.314 N 
ATOM     12  C   UNL A   1      33.725  26.420  25.079  1.00  0.00     0.408 C 
ATOM     13  O   UNL A   1      33.963  27.583  25.351  1.00  0.00    -0.225 OA
ATOM     14  H   UNL A   1      35.180  25.641  26.237  1.00  0.00     0.167 HD
BRANCH  12  15
ATOM     15  O   UNL A   1      32.767  25.977  24.231  1.00  0.00    -0.444 OA
BRANCH  15  16
ATOM     16  C   UNL A   1      32.852  26.205  22.803  1.00  0.00     0.106 C 
ATOM     17  C   UNL A   1      31.406  26.507  22.374  1.00  0.00     0.056 C 
ATOM     18  C   UNL A   1      33.323  24.939  22.084  1.00  0.00     0.056 C 
ATOM     19  C   UNL A   1      33.721  27.421  22.467  1.00  0.00     0.056 C 
ENDBRANCH  15  16
ENDBRANCH  12  15
ENDBRANCH  10  11
BRANCH  10  20
ATOM     20  C   UNL A   1      32.826  23.501  25.774  1.00  0.00    -0.007 A 
ATOM     21  C   UNL A   1      32.092  22.680  24.903  1.00  0.00     0.009 A 
ATOM     22  C   UNL A   1      32.155  23.916  26.923  1.00  0.00     0.116 A 
ATOM     23  C   UNL A   1      30.806  22.254  25.239  1.00  0.00     0.020 A 
ATOM     24  N   UNL A   1      30.896  23.535  27.265  1.00  0.00    -0.264 NA
ATOM     25  C   UNL A   1      30.260  22.695  26.427  1.00  0.00     0.111 A 
ENDBRANCH  10  20
ENDBRANCH   9  10
ENDBRANCH   7   9
ENDBRANCH   6   7
ENDBRANCH   5   6
ENDBRANCH   4   5
ENDBRANCH   3   4
ENDBRANCH   2   3
ENDBRANCH   1   2
BRANCH   1  26
ATOM     26  O   UNL A   1      43.060  19.218  24.866  1.00  0.00    -0.377 OA
BRANCH  26  27
ATOM     27  C   UNL A   1      44.487  19.244  24.846  1.00  0.00     0.188 C 
BRANCH  27  28
ATOM     28  C   UNL A   1      45.217  20.594  24.770  1.00  0.00     0.188 C 
BRANCH  28  29
ATOM     29  O   UNL A   1      44.905  21.613  25.725  1.00  0.00    -0.376 OA
BRANCH  29  30
ATOM     30  C   UNL A   1      43.828  22.502  25.444  1.00  0.00     0.202 C 
BRANCH  30  31
ATOM     31  C   UNL A   1      43.500  23.477  26.565  1.00  0.00     0.261 C 
BRANCH  31  32
ATOM     32  O   UNL A   1      42.209  24.062  26.350  1.00  0.00    -0.460 OA
BRANCH  32  33
ATOM     33  C   UNL A   1      42.234  25.345  25.930  1.00  0.00     0.338 C 
ATOM     34  O   UNL A   1      42.469  25.753  24.805  1.00  0.00    -0.246 OA
BRANCH  33  35
ATOM     35  C   UNL A   1      41.761  26.211  27.022  1.00  0.00     0.060 A 
ATOM     36  C   UNL A   1      42.298  27.501  27.094  1.00  0.00     0.016 A 
ATOM     37  C   UNL A   1      40.848  25.758  27.980  1.00  0.00     0.016 A 
ATOM     38  C   UNL A   1      41.965  28.328  28.156  1.00  0.00     0.010 A 
ATOM     39  C   UNL A   1      40.523  26.587  29.053  1.00  0.00     0.010 A 
ATOM     40  C   UNL A   1      41.115  27.855  29.162  1.00  0.00    -0.014 A 
BRANCH  40  41
ATOM     41  C   UNL A   1      40.992  28.631  30.412  1.00  0.00     0.031 A 
ATOM     42  C   UNL A   1      39.919  29.679  30.499  1.00  0.00     0.074 A 
ATOM     43  C   UNL A   1      41.793  28.360  31.455  1.00  0.00     0.049 A 
ATOM     44  N   UNL A   1      39.632  30.490  31.480  1.00  0.00    -0.248 NA
ATOM     45  C   UNL A   1      39.052  29.831  29.318  1.00  0.00     0.031 C 
ATOM     46  C   UNL A   1      42.831  27.328  31.473  1.00  0.00     0.029 A 
ATOM     47  N   UNL A   1      41.862  28.931  32.697  1.00  0.00    -0.354 N 
ATOM     48  C   UNL A   1      38.559  31.252  31.037  1.00  0.00     0.074 A 
ATOM     49  C   UNL A   1      38.262  30.828  29.687  1.00  0.00     0.031 C 
ATOM     50  C   UNL A   1      43.443  27.350  32.669  1.00  0.00     0.029 A 
ATOM     51  C   UNL A   1      42.867  28.418  33.481  1.00  0.00     0.049 A 
ATOM     52  H   UNL A   1      41.251  29.642  32.999  1.00  0.00     0.167 HD
ATOM     53  C   UNL A   1      37.883  32.216  31.703  1.00  0.00     0.037 A 
ATOM     54  C   UNL A   1      43.289  28.797  34.703  1.00  0.00     0.037 A 
ATOM     55  C   UNL A   1      38.204  32.624  33.046  1.00  0.00     0.049 A 
ATOM     56  C   UNL A   1      42.572  29.927  35.394  1.00  0.00     0.074 A 
ATOM     57  C   UNL A   1      37.579  33.573  33.832  1.00  0.00     0.029 A 
ATOM     58  N   UNL A   1      39.257  32.113  33.796  1.00  0.00    -0.354 N 
ATOM     59  N   UNL A   1      41.535  30.620  34.982  1.00  0.00    -0.248 NA
ATOM     60  C   UNL A   1      43.079  30.328  36.711  1.00  0.00     0.031 C 
ATOM     61  C   UNL A   1      38.290  33.683  35.031  1.00  0.00     0.029 A 
ATOM     62  C   UNL A   1      39.323  32.757  35.019  1.00  0.00     0.049 A 
ATOM     63  H   UNL A   1      39.865  31.398  33.500  1.00  0.00     0.167 HD
ATOM     64  C   UNL A   1      41.259  31.533  35.993  1.00  0.00     0.074 A 
ATOM     65  C   UNL A   1      42.223  31.283  37.048  1.00  0.00     0.031 C 
ATOM     66  C   UNL A   1      40.301  32.492  36.047  1.00  0.00     0.037 A 
BRANCH  53  67
ATOM     67  C   UNL A   1      36.764  32.917  30.981  1.00  0.00     0.058 A 
ATOM     68  C   UNL A   1      35.419  32.752  31.351  1.00  0.00     0.135 A 
ATOM     69  C   UNL A   1      37.044  33.787  29.915  1.00  0.00     0.135 A 
ATOM     70  F   UNL A   1      35.089  31.916  32.350  1.00  0.00    -0.206 F 
ATOM     71  C   UNL A   1      34.391  33.404  30.677  1.00  0.00     0.059 A 
ATOM     72  C   UNL A   1      36.036  34.473  29.245  1.00  0.00     0.059 A 
ATOM     73  F   UNL A   1      38.310  33.977  29.513  1.00  0.00    -0.206 F 
ATOM     74  C   UNL A   1      34.711  34.265  29.624  1.00  0.00     0.060 A 
BRANCH  74  75
ATOM     75  S   UNL A   1      33.367  35.113  28.766  1.00  0.00     0.124 S 
ATOM     76  O   UNL A   1      32.955  34.101  27.797  1.00  0.00    -0.237 OA
ATOM     77  O   UNL A   1      32.424  35.376  29.848  1.00  0.00    -0.237 OA
ATOM     78  O   UNL A   1      34.014  36.294  28.201  1.00  0.00    -0.744 OA
ENDBRANCH  74  75
ENDBRANCH  53  67
BRANCH  54  79
ATOM     79  C   UNL A   1      44.457  28.120  35.327  1.00  0.00     0.058 A 
ATOM     80  C   UNL A   1      45.767  28.538  35.061  1.00  0.00     0.135 A 
ATOM     81  C   UNL A   1      44.280  27.052  36.223  1.00  0.00     0.135 A 
ATOM     82  F   UNL A   1      45.991  29.546  34.206  1.00  0.00    -0.206 F 
ATOM     83  C   UNL A   1      46.864  27.919  35.655  1.00  0.00     0.059 A 
ATOM     84  C   UNL A   1      45.358  26.436  36.851  1.00  0.00     0.059 A 
ATOM     85  F   UNL A   1      43.045  26.618  36.517  1.00  0.00    -0.206 F 
ATOM     86  C   UNL A   1      46.648  26.873  36.554  1.00  0.00     0.060 A 
BRANCH  86  87
ATOM     87  S   UNL A   1      48.076  26.117  37.361  1.00  0.00     0.124 S 
ATOM     88  O   UNL A   1      49.168  26.949  36.868  1.00  0.00    -0.237 OA
ATOM     89  O   UNL A   1      47.743  26.269  38.774  1.00  0.00    -0.237 OA
ATOM     90  O   UNL A   1      48.056  24.743  36.865  1.00  0.00    -0.744 OA
ENDBRANCH  86  87
ENDBRANCH  54  79
BRANCH  66  91
ATOM     91  C   UNL A   1      40.245  33.339  37.289  1.00  0.00     0.058 A 
ATOM     92  C   UNL A   1      41.079  34.456  37.453  1.00  0.00     0.135 A 
ATOM     93  C   UNL A   1      39.304  33.069  38.296  1.00  0.00     0.135 A 
ATOM     94  F   UNL A   1      42.000  34.754  36.523  1.00  0.00    -0.206 F 
ATOM     95  C   UNL A   1      40.997  35.264  38.582  1.00  0.00     0.059 A 
ATOM     96  C   UNL A   1      39.182  33.881  39.418  1.00  0.00     0.059 A 
ATOM     97  F   UNL A   1      38.476  32.018  38.184  1.00  0.00    -0.206 F 
ATOM     98  C   UNL A   1      40.041  34.971  39.557  1.00  0.00     0.060 A 
BRANCH  98  99
ATOM     99  S   UNL A   1      39.916  36.056  40.994  1.00  0.00     0.124 S 
ATOM    100  O   UNL A   1      39.344  35.157  41.991  1.00  0.00    -0.237 OA
ATOM    101  O   UNL A   1      41.306  36.443  41.212  1.00  0.00    -0.237 OA
ATOM    102  O   UNL A   1      39.036  37.128  40.537  1.00  0.00    -0.744 OA
ENDBRANCH  98  99
ENDBRANCH  66  91
ENDBRANCH  40  41
ENDBRANCH  33  35
ENDBRANCH  32  33
ENDBRANCH  31  32
ENDBRANCH  30  31
ENDBRANCH  29  30
ENDBRANCH  28  29
ENDBRANCH  27  28
ENDBRANCH  26  27
ENDBRANCH   1  26
TORSDOF 28
ENDMDL
MODEL 2
REMARK VINA RESULT:      -9.0      1.544      8.607
REMARK SMILES CC(C)(C)OC(=O)N[C@@H](CC(=O)OCCOCCOCCOCCOC(=O)c1ccc(-c2c3nc(c(-c4c(F)cc(S(=O)(=O)[O-])cc4F)c4ccc([nH]4)c(-c4c(F)cc(S(=O)(=O)[O-])cc4F)c4nc(c(-c5c(F)cc(S(=O)(=O)[O-])cc5F)c5ccc2[nH]5)C=C4)C=C3)cc1)c1cccnc1
REMARK SMILES IDX 18 1 17 2 16 3 15 4 14 5 13 6 11 7 12 8 10 9 9 10 8 11 6 12
REMARK SMILES IDX 7 13 5 15 2 16 1 17 3 18 4 19 94 20 95 21 99 22 96 23 98 24
REMARK SMILES IDX 97 25 19 26 20 27 21 28 22 29 23 30 24 31 25 32 26 33 27 34
REMARK SMILES IDX 28 35 29 36 93 37 30 38 92 39 31 40 32 41 33 42 86 43 34 44
REMARK SMILES IDX 91 45 85 46 87 47 35 48 90 49 84 50 83 51 36 53 70 54 49 55
REMARK SMILES IDX 69 56 50 57 53 58 68 59 88 60 51 61 52 62 67 64 89 65 54 66
REMARK SMILES IDX 37 67 38 68 47 69 39 70 40 71 46 72 48 73 41 74 42 75 43 76
REMARK SMILES IDX 44 77 45 78 71 79 72 80 81 81 73 82 74 83 80 84 82 85 75 86
REMARK SMILES IDX 76 87 77 88 78 89 79 90 55 91 56 92 65 93 57 94 58 95 64 96
REMARK SMILES IDX 66 97 59 98 60 99 61 100 62 101 63 102
REMARK H PARENT 8 14 87 52 53 63
REMARK Flexibility Score: inf
ROOT
ATOM      1  C   UNL A   1      34.438  20.390  24.692  1.00  0.00     0.188 C 
ENDROOT
BRANCH   1   2
ATOM      2  C   UNL A   1      33.091  21.035  24.373  1.00  0.00     0.188 C 
BRANCH   2   3
ATOM      3  O   UNL A   1      32.263  21.270  25.487  1.00  0.00    -0.376 OA
BRANCH   3   4
ATOM      4  C   UNL A   1      31.107  22.087  25.343  1.00  0.00     0.202 C 
BRANCH   4   5
ATOM      5  C   UNL A   1      30.835  23.401  26.116  1.00  0.00     0.261 C 
BRANCH   5   6
ATOM      6  O   UNL A   1      31.622  23.683  27.295  1.00  0.00    -0.463 OA
BRANCH   6   7
ATOM      7  C   UNL A   1      32.962  23.570  27.142  1.00  0.00     0.308 C 
ATOM      8  O   UNL A   1      33.643  22.708  27.699  1.00  0.00    -0.252 OA
BRANCH   7   9
ATOM      9  C   UNL A   1      33.633  24.513  26.169  1.00  0.00     0.152 C 
BRANCH   9  10
ATOM     10  C   UNL A   1      33.038  25.830  25.643  1.00  0.00     0.128 C 
BRANCH  10  11
ATOM     11  N   UNL A   1      31.995  26.369  26.490  1.00  0.00    -0.314 N 
ATOM     12  C   UNL A   1      32.085  27.496  27.259  1.00  0.00     0.408 C 
ATOM     13  O   UNL A   1      31.142  27.893  27.919  1.00  0.00    -0.225 OA
ATOM     14  H   UNL A   1      31.142  25.879  26.513  1.00  0.00     0.167 HD
BRANCH  12  15
ATOM     15  O   UNL A   1      33.310  28.070  27.188  1.00  0.00    -0.444 OA
BRANCH  15  16
ATOM     16  C   UNL A   1      33.494  29.403  26.651  1.00  0.00     0.106 C 
ATOM     17  C   UNL A   1      33.935  29.174  25.195  1.00  0.00     0.056 C 
ATOM     18  C   UNL A   1      34.616  30.131  27.394  1.00  0.00     0.056 C 
ATOM     19  C   UNL A   1      32.188  30.203  26.642  1.00  0.00     0.056 C 
ENDBRANCH  15  16
ENDBRANCH  12  15
ENDBRANCH  10  11
BRANCH  10  20
ATOM     20  C   UNL A   1      32.738  25.913  24.151  1.00  0.00    -0.007 A 
ATOM     21  C   UNL A   1      31.594  26.578  23.681  1.00  0.00     0.009 A 
ATOM     22  C   UNL A   1      33.499  25.263  23.183  1.00  0.00     0.116 A 
ATOM     23  C   UNL A   1      31.315  26.638  22.315  1.00  0.00     0.020 A 
ATOM     24  N   UNL A   1      33.240  25.286  21.848  1.00  0.00    -0.264 NA
ATOM     25  C   UNL A   1      32.169  25.992  21.444  1.00  0.00     0.111 A 
ENDBRANCH  10  20
ENDBRANCH   9  10
ENDBRANCH   7   9
ENDBRANCH   6   7
ENDBRANCH   5   6
ENDBRANCH   4   5
ENDBRANCH   3   4
ENDBRANCH   2   3
ENDBRANCH   1   2
BRANCH   1  26
ATOM     26  O   UNL A   1      35.597  21.162  24.416  1.00  0.00    -0.377 OA
BRANCH  26  27
ATOM     27  C   UNL A   1      36.325  21.756  25.490  1.00  0.00     0.188 C 
BRANCH  27  28
ATOM     28  C   UNL A   1      37.854  21.874  25.392  1.00  0.00     0.188 C 
BRANCH  28  29
ATOM     29  O   UNL A   1      38.602  22.259  26.549  1.00  0.00    -0.376 OA
BRANCH  29  30
ATOM     30  C   UNL A   1      40.021  22.337  26.447  1.00  0.00     0.202 C 
BRANCH  30  31
ATOM     31  C   UNL A   1      40.700  23.087  27.584  1.00  0.00     0.261 C 
BRANCH  31  32
ATOM     32  O   UNL A   1      42.037  23.442  27.213  1.00  0.00    -0.460 OA
BRANCH  32  33
ATOM     33  C   UNL A   1      42.150  24.623  26.568  1.00  0.00     0.338 C 
ATOM     34  O   UNL A   1      42.448  24.806  25.401  1.00  0.00    -0.246 OA
BRANCH  33  35
ATOM     35  C   UNL A   1      41.688  25.697  27.463  1.00  0.00     0.060 A 
ATOM     36  C   UNL A   1      42.475  26.852  27.536  1.00  0.00     0.016 A 
ATOM     37  C   UNL A   1      40.537  25.562  28.245  1.00  0.00     0.016 A 
ATOM     38  C   UNL A   1      42.145  27.856  28.434  1.00  0.00     0.010 A 
ATOM     39  C   UNL A   1      40.212  26.568  29.155  1.00  0.00     0.010 A 
ATOM     40  C   UNL A   1      41.041  27.695  29.278  1.00  0.00    -0.014 A 
BRANCH  40  41
ATOM     41  C   UNL A   1      40.865  28.631  30.406  1.00  0.00     0.031 A 
ATOM     42  C   UNL A   1      41.769  28.490  31.597  1.00  0.00     0.074 A 
ATOM     43  C   UNL A   1      39.952  29.612  30.331  1.00  0.00     0.049 A 
ATOM     44  N   UNL A   1      41.792  29.181  32.704  1.00  0.00    -0.248 NA
ATOM     45  C   UNL A   1      42.784  27.424  31.530  1.00  0.00     0.031 C 
ATOM     46  C   UNL A   1      39.064  29.851  29.192  1.00  0.00     0.029 A 
ATOM     47  N   UNL A   1      39.616  30.587  31.231  1.00  0.00    -0.354 N 
ATOM     48  C   UNL A   1      42.816  28.633  33.467  1.00  0.00     0.074 A 
ATOM     49  C   UNL A   1      43.373  27.535  32.711  1.00  0.00     0.031 C 
ATOM     50  C   UNL A   1      38.274  30.901  29.470  1.00  0.00     0.029 A 
ATOM     51  C   UNL A   1      38.574  31.380  30.817  1.00  0.00     0.049 A 
ATOM     52  H   UNL A   1      40.077  30.707  32.094  1.00  0.00     0.167 HD
ATOM     53  C   UNL A   1      43.251  29.021  34.689  1.00  0.00     0.037 A 
ATOM     54  C   UNL A   1      37.921  32.360  31.470  1.00  0.00     0.037 A 
ATOM     55  C   UNL A   1      42.673  30.116  35.423  1.00  0.00     0.049 A 
ATOM     56  C   UNL A   1      38.371  32.722  32.862  1.00  0.00     0.074 A 
ATOM     57  C   UNL A   1      43.041  30.615  36.659  1.00  0.00     0.029 A 
ATOM     58  N   UNL A   1      41.590  30.872  34.992  1.00  0.00    -0.354 N 
ATOM     59  N   UNL A   1      39.362  32.222  33.563  1.00  0.00    -0.248 NA
ATOM     60  C   UNL A   1      37.616  33.775  33.551  1.00  0.00     0.031 C 
ATOM     61  C   UNL A   1      42.142  31.629  37.003  1.00  0.00     0.029 A 
ATOM     62  C   UNL A   1      41.251  31.806  35.956  1.00  0.00     0.049 A 
ATOM     63  H   UNL A   1      41.131  30.760  34.129  1.00  0.00     0.167 HD
ATOM     64  C   UNL A   1      39.358  32.908  34.773  1.00  0.00     0.074 A 
ATOM     65  C   UNL A   1      38.280  33.875  34.695  1.00  0.00     0.031 C 
ATOM     66  C   UNL A   1      40.165  32.752  35.852  1.00  0.00     0.037 A 
BRANCH  53  67
ATOM     67  C   UNL A   1      44.371  28.237  35.317  1.00  0.00     0.058 A 
ATOM     68  C   UNL A   1      45.720  28.573  35.118  1.00  0.00     0.135 A 
ATOM     69  C   UNL A   1      44.089  27.144  36.153  1.00  0.00     0.135 A 
ATOM     70  F   UNL A   1      46.051  29.596  34.313  1.00  0.00    -0.206 F 
ATOM     71  C   UNL A   1      46.748  27.842  35.705  1.00  0.00     0.059 A 
ATOM     72  C   UNL A   1      45.099  26.416  36.773  1.00  0.00     0.059 A 
ATOM     73  F   UNL A   1      42.818  26.772  36.373  1.00  0.00    -0.206 F 
ATOM     74  C   UNL A   1      46.427  26.764  36.533  1.00  0.00     0.060 A 
BRANCH  74  75
ATOM     75  S   UNL A   1      47.772  25.831  37.295  1.00  0.00     0.124 S 
ATOM     76  O   UNL A   1      48.660  26.904  37.732  1.00  0.00    -0.237 OA
ATOM     77  O   UNL A   1      47.084  25.105  38.358  1.00  0.00    -0.237 OA
ATOM     78  O   UNL A   1      48.277  25.006  36.202  1.00  0.00    -0.744 OA
ENDBRANCH  74  75
ENDBRANCH  53  67
BRANCH  54  79
ATOM     79  C   UNL A   1      36.765  33.039  30.825  1.00  0.00     0.058 A 
ATOM     80  C   UNL A   1      35.449  32.755  31.209  1.00  0.00     0.135 A 
ATOM     81  C   UNL A   1      36.961  34.007  29.826  1.00  0.00     0.135 A 
ATOM     82  F   UNL A   1      35.207  31.832  32.151  1.00  0.00    -0.206 F 
ATOM     83  C   UNL A   1      34.364  33.399  30.620  1.00  0.00     0.059 A 
ATOM     84  C   UNL A   1      35.895  34.685  29.244  1.00  0.00     0.059 A 
ATOM     85  F   UNL A   1      38.203  34.322  29.428  1.00  0.00    -0.206 F 
ATOM     86  C   UNL A   1      34.598  34.368  29.643  1.00  0.00     0.060 A 
BRANCH  86  87
ATOM     87  S   UNL A   1      33.184  35.236  28.930  1.00  0.00     0.124 S 
ATOM     88  O   UNL A   1      33.839  36.303  28.182  1.00  0.00    -0.237 OA
ATOM     89  O   UNL A   1      32.554  34.189  28.132  1.00  0.00    -0.237 OA
ATOM     90  O   UNL A   1      32.424  35.662  30.102  1.00  0.00    -0.744 OA
ENDBRANCH  86  87
ENDBRANCH  54  79
BRANCH  66  91
ATOM     91  C   UNL A   1      39.916  33.650  37.033  1.00  0.00     0.058 A 
ATOM     92  C   UNL A   1      40.579  34.879  37.172  1.00  0.00     0.135 A 
ATOM     93  C   UNL A   1      38.957  33.308  38.000  1.00  0.00     0.135 A 
ATOM     94  F   UNL A   1      41.510  35.249  36.279  1.00  0.00    -0.206 F 
ATOM     95  C   UNL A   1      40.316  35.729  38.241  1.00  0.00     0.059 A 
ATOM     96  C   UNL A   1      38.654  34.157  39.060  1.00  0.00     0.059 A 
ATOM     97  F   UNL A   1      38.286  32.149  37.908  1.00  0.00    -0.206 F 
ATOM     98  C   UNL A   1      39.348  35.361  39.177  1.00  0.00     0.060 A 
BRANCH  98  99
ATOM     99  S   UNL A   1      38.986  36.495  40.534  1.00  0.00     0.124 S 
ATOM    100  O   UNL A   1      37.921  35.786  41.234  1.00  0.00    -0.237 OA
ATOM    101  O   UNL A   1      40.266  36.565  41.231  1.00  0.00    -0.237 OA
ATOM    102  O   UNL A   1      38.581  37.722  39.854  1.00  0.00    -0.744 OA
ENDBRANCH  98  99
ENDBRANCH  66  91
ENDBRANCH  40  41
ENDBRANCH  33  35
ENDBRANCH  32  33
ENDBRANCH  31  32
ENDBRANCH  30  31
ENDBRANCH  29  30
ENDBRANCH  28  29
ENDBRANCH  27  28
ENDBRANCH  26  27
ENDBRANCH   1  26
TORSDOF 28
ENDMDL
MODEL 3
REMARK VINA RESULT:      -8.6      6.411      8.704
REMARK SMILES CC(C)(C)OC(=O)N[C@@H](CC(=O)OCCOCCOCCOCCOC(=O)c1ccc(-c2c3nc(c(-c4c(F)cc(S(=O)(=O)[O-])cc4F)c4ccc([nH]4)c(-c4c(F)cc(S(=O)(=O)[O-])cc4F)c4nc(c(-c5c(F)cc(S(=O)(=O)[O-])cc5F)c5ccc2[nH]5)C=C4)C=C3)cc1)c1cccnc1
REMARK SMILES IDX 18 1 17 2 16 3 15 4 14 5 13 6 11 7 12 8 10 9 9 10 8 11 6 12
REMARK SMILES IDX 7 13 5 15 2 16 1 17 3 18 4 19 94 20 95 21 99 22 96 23 98 24
REMARK SMILES IDX 97 25 19 26 20 27 21 28 22 29 23 30 24 31 25 32 26 33 27 34
REMARK SMILES IDX 28 35 29 36 93 37 30 38 92 39 31 40 32 41 33 42 86 43 34 44
REMARK SMILES IDX 91 45 85 46 87 47 35 48 90 49 84 50 83 51 36 53 70 54 49 55
REMARK SMILES IDX 69 56 50 57 53 58 68 59 88 60 51 61 52 62 67 64 89 65 54 66
REMARK SMILES IDX 37 67 38 68 47 69 39 70 40 71 46 72 48 73 41 74 42 75 43 76
REMARK SMILES IDX 44 77 45 78 71 79 72 80 81 81 73 82 74 83 80 84 82 85 75 86
REMARK SMILES IDX 76 87 77 88 78 89 79 90 55 91 56 92 65 93 57 94 58 95 64 96
REMARK SMILES IDX 66 97 59 98 60 99 61 100 62 101 63 102
REMARK H PARENT 8 14 87 52 53 63
REMARK Flexibility Score: inf
ROOT
ATOM      1  C   UNL A   1      44.782  19.313  24.787  1.00  0.00     0.188 C 
ENDROOT
BRANCH   1   2
ATOM      2  C   UNL A   1      43.625  19.097  25.759  1.00  0.00     0.188 C 
BRANCH   2   3
ATOM      3  O   UNL A   1      42.349  19.395  25.246  1.00  0.00    -0.376 OA
BRANCH   3   4
ATOM      4  C   UNL A   1      41.224  19.404  26.117  1.00  0.00     0.202 C 
BRANCH   4   5
ATOM      5  C   UNL A   1      40.279  20.609  26.349  1.00  0.00     0.261 C 
BRANCH   5   6
ATOM      6  O   UNL A   1      39.499  21.097  25.235  1.00  0.00    -0.463 OA
BRANCH   6   7
ATOM      7  C   UNL A   1      38.217  21.425  25.520  1.00  0.00     0.308 C 
ATOM      8  O   UNL A   1      37.887  22.489  26.046  1.00  0.00    -0.252 OA
BRANCH   7   9
ATOM      9  C   UNL A   1      37.139  20.455  25.093  1.00  0.00     0.152 C 
BRANCH   9  10
ATOM     10  C   UNL A   1      35.625  20.695  25.203  1.00  0.00     0.128 C 
BRANCH  10  11
ATOM     11  N   UNL A   1      35.222  21.262  26.473  1.00  0.00    -0.314 N 
ATOM     12  C   UNL A   1      34.757  22.531  26.676  1.00  0.00     0.408 C 
ATOM     13  O   UNL A   1      34.411  22.914  27.779  1.00  0.00    -0.225 OA
ATOM     14  H   UNL A   1      35.289  20.679  27.263  1.00  0.00     0.167 HD
BRANCH  12  15
ATOM     15  O   UNL A   1      34.742  23.261  25.536  1.00  0.00    -0.444 OA
BRANCH  15  16
ATOM     16  C   UNL A   1      33.543  23.936  25.081  1.00  0.00     0.106 C 
ATOM     17  C   UNL A   1      33.717  24.043  23.556  1.00  0.00     0.056 C 
ATOM     18  C   UNL A   1      33.466  25.348  25.666  1.00  0.00     0.056 C 
ATOM     19  C   UNL A   1      32.281  23.118  25.368  1.00  0.00     0.056 C 
ENDBRANCH  15  16
ENDBRANCH  12  15
ENDBRANCH  10  11
BRANCH  10  20
ATOM     20  C   UNL A   1      34.705  19.592  24.691  1.00  0.00    -0.007 A 
ATOM     21  C   UNL A   1      33.338  19.834  24.476  1.00  0.00     0.009 A 
ATOM     22  C   UNL A   1      35.123  18.276  24.506  1.00  0.00     0.116 A 
ATOM     23  C   UNL A   1      32.498  18.817  24.022  1.00  0.00     0.020 A 
ATOM     24  N   UNL A   1      34.322  17.261  24.085  1.00  0.00    -0.264 NA
ATOM     25  C   UNL A   1      33.035  17.560  23.830  1.00  0.00     0.111 A 
ENDBRANCH  10  20
ENDBRANCH   9  10
ENDBRANCH   7   9
ENDBRANCH   6   7
ENDBRANCH   5   6
ENDBRANCH   4   5
ENDBRANCH   3   4
ENDBRANCH   2   3
ENDBRANCH   1   2
BRANCH   1  26
ATOM     26  O   UNL A   1      44.649  20.384  23.865  1.00  0.00    -0.377 OA
BRANCH  26  27
ATOM     27  C   UNL A   1      45.117  21.686  24.218  1.00  0.00     0.188 C 
BRANCH  27  28
ATOM     28  C   UNL A   1      44.124  22.857  24.265  1.00  0.00     0.188 C 
BRANCH  28  29
ATOM     29  O   UNL A   1      42.841  22.664  24.868  1.00  0.00    -0.376 OA
BRANCH  29  30
ATOM     30  C   UNL A   1      42.402  23.598  25.849  1.00  0.00     0.202 C 
BRANCH  30  31
ATOM     31  C   UNL A   1      43.517  24.386  26.521  1.00  0.00     0.261 C 
BRANCH  31  32
ATOM     32  O   UNL A   1      43.114  25.747  26.715  1.00  0.00    -0.460 OA
BRANCH  32  33
ATOM     33  C   UNL A   1      42.796  26.065  27.988  1.00  0.00     0.338 C 
ATOM     34  O   UNL A   1      42.380  25.319  28.858  1.00  0.00    -0.246 OA
BRANCH  33  35
ATOM     35  C   UNL A   1      43.186  27.462  28.239  1.00  0.00     0.060 A 
ATOM     36  C   UNL A   1      44.141  27.690  29.236  1.00  0.00     0.016 A 
ATOM     37  C   UNL A   1      42.599  28.527  27.549  1.00  0.00     0.016 A 
ATOM     38  C   UNL A   1      44.477  28.989  29.586  1.00  0.00     0.010 A 
ATOM     39  C   UNL A   1      42.929  29.834  27.910  1.00  0.00     0.010 A 
ATOM     40  C   UNL A   1      43.836  30.063  28.957  1.00  0.00    -0.014 A 
BRANCH  40  41
ATOM     41  C   UNL A   1      43.994  31.416  29.525  1.00  0.00     0.031 A 
ATOM     42  C   UNL A   1      45.069  32.304  28.965  1.00  0.00     0.074 A 
ATOM     43  C   UNL A   1      43.156  31.848  30.481  1.00  0.00     0.049 A 
ATOM     44  N   UNL A   1      45.405  33.516  29.312  1.00  0.00    -0.248 NA
ATOM     45  C   UNL A   1      45.875  31.747  27.864  1.00  0.00     0.031 C 
ATOM     46  C   UNL A   1      42.055  31.069  31.049  1.00  0.00     0.029 A 
ATOM     47  N   UNL A   1      43.103  33.044  31.145  1.00  0.00    -0.354 N 
ATOM     48  C   UNL A   1      46.461  33.866  28.480  1.00  0.00     0.074 A 
ATOM     49  C   UNL A   1      46.731  32.729  27.630  1.00  0.00     0.031 C 
ATOM     50  C   UNL A   1      41.442  31.807  31.989  1.00  0.00     0.029 A 
ATOM     51  C   UNL A   1      42.130  33.089  32.114  1.00  0.00     0.049 A 
ATOM     52  H   UNL A   1      43.706  33.798  30.949  1.00  0.00     0.167 HD
ATOM     53  C   UNL A   1      47.139  35.037  28.432  1.00  0.00     0.037 A 
ATOM     54  C   UNL A   1      41.854  34.050  33.016  1.00  0.00     0.037 A 
ATOM     55  C   UNL A   1      46.852  36.153  29.297  1.00  0.00     0.049 A 
ATOM     56  C   UNL A   1      42.674  35.314  32.997  1.00  0.00     0.074 A 
ATOM     57  C   UNL A   1      47.456  37.396  29.328  1.00  0.00     0.029 A 
ATOM     58  N   UNL A   1      45.887  36.150  30.296  1.00  0.00    -0.354 N 
ATOM     59  N   UNL A   1      43.649  35.651  32.185  1.00  0.00    -0.248 NA
ATOM     60  C   UNL A   1      42.360  36.324  34.014  1.00  0.00     0.031 C 
ATOM     61  C   UNL A   1      46.901  38.122  30.386  1.00  0.00     0.029 A 
ATOM     62  C   UNL A   1      45.907  37.355  30.976  1.00  0.00     0.049 A 
ATOM     63  H   UNL A   1      45.279  35.401  30.492  1.00  0.00     0.167 HD
ATOM     64  C   UNL A   1      44.059  36.918  32.585  1.00  0.00     0.074 A 
ATOM     65  C   UNL A   1      43.206  37.295  33.696  1.00  0.00     0.031 C 
ATOM     66  C   UNL A   1      45.050  37.698  32.086  1.00  0.00     0.037 A 
BRANCH  53  67
ATOM     67  C   UNL A   1      48.270  35.154  27.448  1.00  0.00     0.058 A 
ATOM     68  C   UNL A   1      48.089  35.690  26.162  1.00  0.00     0.135 A 
ATOM     69  C   UNL A   1      49.565  34.744  27.805  1.00  0.00     0.135 A 
ATOM     70  F   UNL A   1      46.868  36.080  25.758  1.00  0.00    -0.206 F 
ATOM     71  C   UNL A   1      49.142  35.795  25.260  1.00  0.00     0.059 A 
ATOM     72  C   UNL A   1      50.640  34.865  26.930  1.00  0.00     0.059 A 
ATOM     73  F   UNL A   1      49.797  34.217  29.017  1.00  0.00    -0.206 F 
ATOM     74  C   UNL A   1      50.417  35.380  25.654  1.00  0.00     0.060 A 
BRANCH  74  75
ATOM     75  S   UNL A   1      51.775  35.531  24.475  1.00  0.00     0.124 S 
ATOM     76  O   UNL A   1      51.368  36.705  23.708  1.00  0.00    -0.237 OA
ATOM     77  O   UNL A   1      52.928  35.716  25.351  1.00  0.00    -0.237 OA
ATOM     78  O   UNL A   1      51.740  34.265  23.748  1.00  0.00    -0.744 OA
ENDBRANCH  74  75
ENDBRANCH  53  67
BRANCH  54  79
ATOM     79  C   UNL A   1      40.777  33.837  34.019  1.00  0.00     0.058 A 
ATOM     80  C   UNL A   1      39.462  34.256  33.776  1.00  0.00     0.135 A 
ATOM     81  C   UNL A   1      41.040  33.186  35.236  1.00  0.00     0.135 A 
ATOM     82  F   UNL A   1      39.160  34.892  32.634  1.00  0.00    -0.206 F 
ATOM     83  C   UNL A   1      38.447  34.045  34.704  1.00  0.00     0.059 A 
ATOM     84  C   UNL A   1      40.036  32.937  36.167  1.00  0.00     0.059 A 
ATOM     85  F   UNL A   1      42.280  32.757  35.515  1.00  0.00    -0.206 F 
ATOM     86  C   UNL A   1      38.743  33.378  35.894  1.00  0.00     0.060 A 
BRANCH  86  87
ATOM     87  S   UNL A   1      37.404  33.060  37.063  1.00  0.00     0.124 S 
ATOM     88  O   UNL A   1      37.426  31.605  37.149  1.00  0.00    -0.237 OA
ATOM     89  O   UNL A   1      37.858  33.778  38.250  1.00  0.00    -0.237 OA
ATOM     90  O   UNL A   1      36.235  33.635  36.402  1.00  0.00    -0.744 OA
ENDBRANCH  86  87
ENDBRANCH  54  79
BRANCH  66  91
ATOM     91  C   UNL A   1      45.262  39.039  32.735  1.00  0.00     0.058 A 
ATOM     92  C   UNL A   1      46.212  39.219  33.751  1.00  0.00     0.135 A 
ATOM     93  C   UNL A   1      44.554  40.167  32.289  1.00  0.00     0.135 A 
ATOM     94  F   UNL A   1      46.910  38.172  34.218  1.00  0.00    -0.206 F 
ATOM     95  C   UNL A   1      46.438  40.468  34.320  1.00  0.00     0.059 A 
ATOM     96  C   UNL A   1      44.787  41.431  32.821  1.00  0.00     0.059 A 
ATOM     97  F   UNL A   1      43.641  40.051  31.312  1.00  0.00    -0.206 F 
ATOM     98  C   UNL A   1      45.724  41.570  33.844  1.00  0.00     0.060 A 
BRANCH  98  99
ATOM     99  S   UNL A   1      46.062  43.191  34.561  1.00  0.00     0.124 S 
ATOM    100  O   UNL A   1      46.474  43.952  33.387  1.00  0.00    -0.237 OA
ATOM    101  O   UNL A   1      44.768  43.555  35.130  1.00  0.00    -0.237 OA
ATOM    102  O   UNL A   1      47.115  42.920  35.535  1.00  0.00    -0.744 OA
ENDBRANCH  98  99
ENDBRANCH  66  91
ENDBRANCH  40  41
ENDBRANCH  33  35
ENDBRANCH  32  33
ENDBRANCH  31  32
ENDBRANCH  30  31
ENDBRANCH  29  30
ENDBRANCH  28  29
ENDBRANCH  27  28
ENDBRANCH  26  27
ENDBRANCH   1  26
TORSDOF 28
ENDMDL
