MODEL 1
REMARK VINA RESULT:      -9.6      0.000      0.000
REMARK SMILES O=C(OCCOCCOCCOCCOC(=O)[C@]1(CCc2cccnc2)CCC[NH2+]C1)c1ccc(-c2c3nc(c(-c4c(F)cc(S(=O)(=O)[O-])cc4F)c4ccc([nH]4)c(-c4c(F)cc(S(=O)(=O)[O-])cc4F)c4nc(c(-c5c(F)cc(S(=O)(=O)[O-])cc5F)c5ccc2[nH]5)C=C4)C=C3)cc1
REMARK SMILES IDX 9 1 8 2 7 3 6 4 5 5 4 6 3 7 2 8 1 9 32 10 33 11 97 12 34 13
REMARK SMILES IDX 96 14 35 15 36 16 37 17 90 18 38 19 95 20 89 21 91 22 39 23
REMARK SMILES IDX 94 24 88 25 87 26 40 28 74 29 53 30 73 31 54 32 57 33 72 34
REMARK SMILES IDX 92 35 55 36 56 37 71 39 93 40 58 41 41 42 42 43 51 44 43 45
REMARK SMILES IDX 44 46 50 47 52 48 45 49 46 50 47 51 48 52 49 53 75 54 76 55
REMARK SMILES IDX 85 56 77 57 78 58 84 59 86 60 79 61 80 62 81 63 82 64 83 65
REMARK SMILES IDX 59 66 60 67 69 68 61 69 62 70 68 71 70 72 63 73 64 74 65 75
REMARK SMILES IDX 66 76 67 77 10 78 11 79 12 80 13 81 14 82 15 83 16 84 17 85
REMARK SMILES IDX 18 86 27 87 31 88 28 89 30 90 29 91 19 94 20 95 21 96 22 97
REMARK SMILES IDX 26 98 23 99 25 100 24 101
REMARK H PARENT 91 27 57 38 30 92 30 93
REMARK Flexibility Score: inf
ROOT
ATOM      1  O   UNL A   1      36.301  23.742  25.890  1.00  0.00    -0.377 OA
ENDROOT
BRANCH   1   2
ATOM      2  C   UNL A   1      37.687  23.445  25.730  1.00  0.00     0.188 C 
BRANCH   2   3
ATOM      3  C   UNL A   1      37.860  21.933  25.708  1.00  0.00     0.188 C 
BRANCH   3   4
ATOM      4  O   UNL A   1      39.232  21.547  25.871  1.00  0.00    -0.376 OA
BRANCH   4   5
ATOM      5  C   UNL A   1      39.997  22.440  26.686  1.00  0.00     0.202 C 
BRANCH   5   6
ATOM      6  C   UNL A   1      41.533  22.311  26.656  1.00  0.00     0.261 C 
BRANCH   6   7
ATOM      7  O   UNL A   1      42.257  23.550  26.822  1.00  0.00    -0.460 OA
BRANCH   7   8
ATOM      8  C   UNL A   1      41.944  24.846  26.594  1.00  0.00     0.338 C 
ATOM      9  O   UNL A   1      41.880  25.231  25.428  1.00  0.00    -0.246 OA
BRANCH   8  10
ATOM     10  C   UNL A   1      41.731  25.854  27.671  1.00  0.00     0.060 A 
ATOM     11  C   UNL A   1      42.591  26.910  27.933  1.00  0.00     0.016 A 
ATOM     12  C   UNL A   1      40.536  25.787  28.412  1.00  0.00     0.016 A 
ATOM     13  C   UNL A   1      42.320  27.833  28.933  1.00  0.00     0.010 A 
ATOM     14  C   UNL A   1      40.242  26.734  29.405  1.00  0.00     0.010 A 
ATOM     15  C   UNL A   1      41.151  27.757  29.681  1.00  0.00    -0.014 A 
BRANCH  15  16
ATOM     16  C   UNL A   1      41.059  28.641  30.862  1.00  0.00     0.031 A 
ATOM     17  C   UNL A   1      39.961  29.663  30.873  1.00  0.00     0.074 A 
ATOM     18  C   UNL A   1      41.787  28.400  31.969  1.00  0.00     0.049 A 
ATOM     19  N   UNL A   1      39.697  30.589  31.753  1.00  0.00    -0.248 NA
ATOM     20  C   UNL A   1      39.011  29.614  29.745  1.00  0.00     0.031 C 
ATOM     21  C   UNL A   1      42.747  27.305  32.131  1.00  0.00     0.029 A 
ATOM     22  N   UNL A   1      41.808  29.038  33.185  1.00  0.00    -0.354 N 
ATOM     23  C   UNL A   1      38.579  31.256  31.268  1.00  0.00     0.074 A 
ATOM     24  C   UNL A   1      38.206  30.627  30.022  1.00  0.00     0.031 C 
ATOM     25  C   UNL A   1      43.258  27.346  33.374  1.00  0.00     0.029 A 
ATOM     26  C   UNL A   1      42.718  28.507  34.072  1.00  0.00     0.049 A 
ATOM     27  H   UNL A   1      41.227  29.802  33.403  1.00  0.00     0.167 HD
ATOM     28  C   UNL A   1      37.931  32.307  31.816  1.00  0.00     0.037 A 
ATOM     29  C   UNL A   1      43.099  28.947  35.290  1.00  0.00     0.037 A 
ATOM     30  C   UNL A   1      38.322  32.908  33.061  1.00  0.00     0.049 A 
ATOM     31  C   UNL A   1      42.443  30.198  35.824  1.00  0.00     0.074 A 
ATOM     32  C   UNL A   1      37.817  34.042  33.670  1.00  0.00     0.029 A 
ATOM     33  N   UNL A   1      39.314  32.410  33.894  1.00  0.00    -0.354 N 
ATOM     34  N   UNL A   1      41.465  30.906  35.303  1.00  0.00    -0.248 NA
ATOM     35  C   UNL A   1      42.951  30.726  37.097  1.00  0.00     0.031 C 
ATOM     36  C   UNL A   1      38.534  34.252  34.853  1.00  0.00     0.029 A 
ATOM     37  C   UNL A   1      39.446  33.217  35.009  1.00  0.00     0.049 A 
ATOM     38  H   UNL A   1      39.846  31.601  33.718  1.00  0.00     0.167 HD
ATOM     39  C   UNL A   1      41.237  31.954  36.189  1.00  0.00     0.074 A 
ATOM     40  C   UNL A   1      42.153  31.765  37.297  1.00  0.00     0.031 C 
ATOM     41  C   UNL A   1      40.364  32.989  36.096  1.00  0.00     0.037 A 
BRANCH  28  42
ATOM     42  C   UNL A   1      36.802  32.908  31.030  1.00  0.00     0.058 A 
ATOM     43  C   UNL A   1      37.022  33.728  29.913  1.00  0.00     0.135 A 
ATOM     44  C   UNL A   1      35.474  32.662  31.414  1.00  0.00     0.135 A 
ATOM     45  F   UNL A   1      38.273  34.029  29.530  1.00  0.00    -0.206 F 
ATOM     46  C   UNL A   1      35.963  34.292  29.208  1.00  0.00     0.059 A 
ATOM     47  C   UNL A   1      34.400  33.195  30.709  1.00  0.00     0.059 A 
ATOM     48  F   UNL A   1      35.210  31.903  32.489  1.00  0.00    -0.206 F 
ATOM     49  C   UNL A   1      34.655  34.015  29.612  1.00  0.00     0.060 A 
BRANCH  49  50
ATOM     50  S   UNL A   1      33.292  34.737  28.674  1.00  0.00     0.124 S 
ATOM     51  O   UNL A   1      32.439  35.247  29.743  1.00  0.00    -0.237 OA
ATOM     52  O   UNL A   1      33.972  35.747  27.869  1.00  0.00    -0.237 OA
ATOM     53  O   UNL A   1      32.752  33.604  27.929  1.00  0.00    -0.744 OA
ENDBRANCH  49  50
ENDBRANCH  28  42
BRANCH  29  54
ATOM     54  C   UNL A   1      44.199  28.278  36.047  1.00  0.00     0.058 A 
ATOM     55  C   UNL A   1      45.544  28.637  35.870  1.00  0.00     0.135 A 
ATOM     56  C   UNL A   1      43.929  27.206  36.916  1.00  0.00     0.135 A 
ATOM     57  F   UNL A   1      45.867  29.643  35.043  1.00  0.00    -0.206 F 
ATOM     58  C   UNL A   1      46.580  27.936  36.489  1.00  0.00     0.059 A 
ATOM     59  C   UNL A   1      44.943  26.515  37.574  1.00  0.00     0.059 A 
ATOM     60  F   UNL A   1      42.665  26.810  37.127  1.00  0.00    -0.206 F 
ATOM     61  C   UNL A   1      46.267  26.870  37.335  1.00  0.00     0.060 A 
BRANCH  61  62
ATOM     62  S   UNL A   1      47.615  25.946  38.108  1.00  0.00     0.124 S 
ATOM     63  O   UNL A   1      46.984  25.446  39.309  1.00  0.00    -0.237 OA
ATOM     64  O   UNL A   1      47.934  24.950  37.082  1.00  0.00    -0.237 OA
ATOM     65  O   UNL A   1      48.647  26.970  38.310  1.00  0.00    -0.744 OA
ENDBRANCH  61  62
ENDBRANCH  29  54
BRANCH  41  66
ATOM     66  C   UNL A   1      40.341  33.969  37.235  1.00  0.00     0.058 A 
ATOM     67  C   UNL A   1      41.177  35.097  37.253  1.00  0.00     0.135 A 
ATOM     68  C   UNL A   1      39.440  33.800  38.298  1.00  0.00     0.135 A 
ATOM     69  F   UNL A   1      42.057  35.304  36.261  1.00  0.00    -0.206 F 
ATOM     70  C   UNL A   1      41.145  36.004  38.306  1.00  0.00     0.059 A 
ATOM     71  C   UNL A   1      39.368  34.712  39.344  1.00  0.00     0.059 A 
ATOM     72  F   UNL A   1      38.608  32.747  38.319  1.00  0.00    -0.206 F 
ATOM     73  C   UNL A   1      40.237  35.802  39.347  1.00  0.00     0.060 A 
BRANCH  73  74
ATOM     74  S   UNL A   1      40.193  36.997  40.699  1.00  0.00     0.124 S 
ATOM     75  O   UNL A   1      41.438  37.727  40.485  1.00  0.00    -0.237 OA
ATOM     76  O   UNL A   1      38.967  37.738  40.423  1.00  0.00    -0.237 OA
ATOM     77  O   UNL A   1      40.155  36.157  41.892  1.00  0.00    -0.744 OA
ENDBRANCH  73  74
ENDBRANCH  41  66
ENDBRANCH  15  16
ENDBRANCH   8  10
ENDBRANCH   7   8
ENDBRANCH   6   7
ENDBRANCH   5   6
ENDBRANCH   4   5
ENDBRANCH   3   4
ENDBRANCH   2   3
ENDBRANCH   1   2
BRANCH   1  78
ATOM     78  C   UNL A   1      35.510  22.573  25.878  1.00  0.00     0.188 C 
BRANCH  78  79
ATOM     79  C   UNL A   1      34.036  22.861  26.249  1.00  0.00     0.188 C 
BRANCH  79  80
ATOM     80  O   UNL A   1      33.526  24.181  26.257  1.00  0.00    -0.376 OA
BRANCH  80  81
ATOM     81  C   UNL A   1      32.201  24.363  25.827  1.00  0.00     0.202 C 
BRANCH  81  82
ATOM     82  C   UNL A   1      31.647  25.783  26.034  1.00  0.00     0.261 C 
BRANCH  82  83
ATOM     83  O   UNL A   1      32.481  26.708  26.791  1.00  0.00    -0.463 OA
BRANCH  83  84
ATOM     84  C   UNL A   1      31.987  27.968  26.993  1.00  0.00     0.317 C 
ATOM     85  O   UNL A   1      31.248  28.227  27.938  1.00  0.00    -0.251 OA
BRANCH  84  86
ATOM     86  C   UNL A   1      32.418  29.038  25.908  1.00  0.00     0.117 C 
ATOM     87  C   UNL A   1      33.889  28.746  25.533  1.00  0.00     0.030 C 
ATOM     88  C   UNL A   1      32.424  30.409  26.669  1.00  0.00     0.279 C 
ATOM     89  C   UNL A   1      34.855  28.846  26.726  1.00  0.00     0.063 C 
ATOM     90  N   UNL A   1      33.246  30.404  27.879  1.00  0.00    -0.345 N 
ATOM     91  C   UNL A   1      34.644  30.078  27.608  1.00  0.00     0.260 C 
ATOM     92  H   UNL A   1      33.205  31.330  28.306  1.00  0.00     0.346 HD
ATOM     93  H   UNL A   1      32.877  29.685  28.500  1.00  0.00     0.346 HD
BRANCH  86  94
ATOM     94  C   UNL A   1      31.552  29.260  24.547  1.00  0.00     0.029 C 
BRANCH  94  95
ATOM     95  C   UNL A   1      30.199  30.093  24.314  1.00  0.00     0.038 C 
BRANCH  95  96
ATOM     96  C   UNL A   1      29.362  30.486  23.095  1.00  0.00    -0.030 A 
ATOM     97  C   UNL A   1      28.878  31.802  22.986  1.00  0.00     0.007 A 
ATOM     98  C   UNL A   1      28.818  29.669  22.127  1.00  0.00     0.114 A 
ATOM     99  C   UNL A   1      28.157  32.248  21.864  1.00  0.00     0.020 A 
ATOM    100  N   UNL A   1      28.167  30.054  20.997  1.00  0.00    -0.264 NA
ATOM    101  C   UNL A   1      27.906  31.357  20.849  1.00  0.00     0.111 A 
ENDBRANCH  95  96
ENDBRANCH  94  95
ENDBRANCH  86  94
ENDBRANCH  84  86
ENDBRANCH  83  84
ENDBRANCH  82  83
ENDBRANCH  81  82
ENDBRANCH  80  81
ENDBRANCH  79  80
ENDBRANCH  78  79
ENDBRANCH   1  78
TORSDOF 26
ENDMDL
MODEL 2
REMARK VINA RESULT:      -9.1      6.340      8.977
REMARK SMILES O=C(OCCOCCOCCOCCOC(=O)[C@]1(CCc2cccnc2)CCC[NH2+]C1)c1ccc(-c2c3nc(c(-c4c(F)cc(S(=O)(=O)[O-])cc4F)c4ccc([nH]4)c(-c4c(F)cc(S(=O)(=O)[O-])cc4F)c4nc(c(-c5c(F)cc(S(=O)(=O)[O-])cc5F)c5ccc2[nH]5)C=C4)C=C3)cc1
REMARK SMILES IDX 9 1 8 2 7 3 6 4 5 5 4 6 3 7 2 8 1 9 32 10 33 11 97 12 34 13
REMARK SMILES IDX 96 14 35 15 36 16 37 17 90 18 38 19 95 20 89 21 91 22 39 23
REMARK SMILES IDX 94 24 88 25 87 26 40 28 74 29 53 30 73 31 54 32 57 33 72 34
REMARK SMILES IDX 92 35 55 36 56 37 71 39 93 40 58 41 41 42 42 43 51 44 43 45
REMARK SMILES IDX 44 46 50 47 52 48 45 49 46 50 47 51 48 52 49 53 75 54 76 55
REMARK SMILES IDX 85 56 77 57 78 58 84 59 86 60 79 61 80 62 81 63 82 64 83 65
REMARK SMILES IDX 59 66 60 67 69 68 61 69 62 70 68 71 70 72 63 73 64 74 65 75
REMARK SMILES IDX 66 76 67 77 10 78 11 79 12 80 13 81 14 82 15 83 16 84 17 85
REMARK SMILES IDX 18 86 27 87 31 88 28 89 30 90 29 91 19 94 20 95 21 96 22 97
REMARK SMILES IDX 26 98 23 99 25 100 24 101
REMARK H PARENT 91 27 57 38 30 92 30 93
REMARK Flexibility Score: inf
ROOT
ATOM      1  O   UNL A   1      34.879  23.269  26.916  1.00  0.00    -0.377 OA
ENDROOT
BRANCH   1   2
ATOM      2  C   UNL A   1      36.089  22.755  26.364  1.00  0.00     0.188 C 
BRANCH   2   3
ATOM      3  C   UNL A   1      35.777  21.453  25.639  1.00  0.00     0.188 C 
BRANCH   3   4
ATOM      4  O   UNL A   1      36.811  21.094  24.710  1.00  0.00    -0.376 OA
BRANCH   4   5
ATOM      5  C   UNL A   1      38.135  21.209  25.238  1.00  0.00     0.202 C 
BRANCH   5   6
ATOM      6  C   UNL A   1      39.006  19.938  25.289  1.00  0.00     0.261 C 
BRANCH   6   7
ATOM      7  O   UNL A   1      39.941  19.876  26.389  1.00  0.00    -0.460 OA
BRANCH   7   8
ATOM      8  C   UNL A   1      41.290  19.935  26.465  1.00  0.00     0.338 C 
ATOM      9  O   UNL A   1      41.919  18.879  26.437  1.00  0.00    -0.246 OA
BRANCH   8  10
ATOM     10  C   UNL A   1      42.061  21.197  26.642  1.00  0.00     0.060 A 
ATOM     11  C   UNL A   1      42.633  21.601  27.840  1.00  0.00     0.016 A 
ATOM     12  C   UNL A   1      42.305  21.988  25.504  1.00  0.00     0.016 A 
ATOM     13  C   UNL A   1      43.365  22.776  27.932  1.00  0.00     0.010 A 
ATOM     14  C   UNL A   1      43.070  23.163  25.584  1.00  0.00     0.010 A 
ATOM     15  C   UNL A   1      43.590  23.570  26.815  1.00  0.00    -0.014 A 
BRANCH  15  16
ATOM     16  C   UNL A   1      44.183  24.903  27.054  1.00  0.00     0.031 A 
ATOM     17  C   UNL A   1      43.286  25.965  27.617  1.00  0.00     0.074 A 
ATOM     18  C   UNL A   1      45.514  25.096  26.975  1.00  0.00     0.049 A 
ATOM     19  N   UNL A   1      43.537  27.221  27.863  1.00  0.00    -0.248 NA
ATOM     20  C   UNL A   1      41.919  25.542  27.977  1.00  0.00     0.031 C 
ATOM     21  C   UNL A   1      46.500  24.071  26.624  1.00  0.00     0.029 A 
ATOM     22  N   UNL A   1      46.274  26.213  27.221  1.00  0.00    -0.354 N 
ATOM     23  C   UNL A   1      42.355  27.746  28.369  1.00  0.00     0.074 A 
ATOM     24  C   UNL A   1      41.386  26.675  28.405  1.00  0.00     0.031 C 
ATOM     25  C   UNL A   1      47.732  24.606  26.682  1.00  0.00     0.029 A 
ATOM     26  C   UNL A   1      47.621  26.024  27.003  1.00  0.00     0.049 A 
ATOM     27  H   UNL A   1      45.892  27.068  27.525  1.00  0.00     0.167 HD
ATOM     28  C   UNL A   1      42.105  29.015  28.759  1.00  0.00     0.037 A 
ATOM     29  C   UNL A   1      48.634  26.915  27.018  1.00  0.00     0.037 A 
ATOM     30  C   UNL A   1      43.093  30.058  28.719  1.00  0.00     0.049 A 
ATOM     31  C   UNL A   1      48.303  28.354  27.338  1.00  0.00     0.074 A 
ATOM     32  C   UNL A   1      42.937  31.406  28.985  1.00  0.00     0.029 A 
ATOM     33  N   UNL A   1      44.429  29.860  28.399  1.00  0.00    -0.354 N 
ATOM     34  N   UNL A   1      47.151  28.877  27.697  1.00  0.00    -0.248 NA
ATOM     35  C   UNL A   1      49.397  29.328  27.236  1.00  0.00     0.031 C 
ATOM     36  C   UNL A   1      44.174  32.030  28.784  1.00  0.00     0.029 A 
ATOM     37  C   UNL A   1      45.111  31.062  28.450  1.00  0.00     0.049 A 
ATOM     38  H   UNL A   1      44.832  28.992  28.170  1.00  0.00     0.167 HD
ATOM     39  C   UNL A   1      47.387  30.237  27.872  1.00  0.00     0.074 A 
ATOM     40  C   UNL A   1      48.798  30.448  27.616  1.00  0.00     0.031 C 
ATOM     41  C   UNL A   1      46.520  31.228  28.199  1.00  0.00     0.037 A 
BRANCH  28  42
ATOM     42  C   UNL A   1      40.702  29.345  29.177  1.00  0.00     0.058 A 
ATOM     43  C   UNL A   1      39.673  29.546  28.245  1.00  0.00     0.135 A 
ATOM     44  C   UNL A   1      40.388  29.471  30.540  1.00  0.00     0.135 A 
ATOM     45  F   UNL A   1      39.928  29.479  26.929  1.00  0.00    -0.206 F 
ATOM     46  C   UNL A   1      38.381  29.870  28.650  1.00  0.00     0.059 A 
ATOM     47  C   UNL A   1      39.100  29.769  30.969  1.00  0.00     0.059 A 
ATOM     48  F   UNL A   1      41.342  29.311  31.471  1.00  0.00    -0.206 F 
ATOM     49  C   UNL A   1      38.104  29.974  30.015  1.00  0.00     0.060 A 
BRANCH  49  50
ATOM     50  S   UNL A   1      36.419  30.374  30.524  1.00  0.00     0.124 S 
ATOM     51  O   UNL A   1      36.514  31.814  30.744  1.00  0.00    -0.237 OA
ATOM     52  O   UNL A   1      35.639  29.960  29.363  1.00  0.00    -0.237 OA
ATOM     53  O   UNL A   1      36.225  29.569  31.726  1.00  0.00    -0.744 OA
ENDBRANCH  49  50
ENDBRANCH  28  42
BRANCH  29  54
ATOM     54  C   UNL A   1      50.022  26.516  26.638  1.00  0.00     0.058 A 
ATOM     55  C   UNL A   1      50.410  26.373  25.296  1.00  0.00     0.135 A 
ATOM     56  C   UNL A   1      50.977  26.198  27.620  1.00  0.00     0.135 A 
ATOM     57  F   UNL A   1      49.539  26.649  24.313  1.00  0.00    -0.206 F 
ATOM     58  C   UNL A   1      51.670  25.889  24.943  1.00  0.00     0.059 A 
ATOM     59  C   UNL A   1      52.253  25.749  27.292  1.00  0.00     0.059 A 
ATOM     60  F   UNL A   1      50.669  26.311  28.921  1.00  0.00    -0.206 F 
ATOM     61  C   UNL A   1      52.584  25.574  25.951  1.00  0.00     0.060 A 
BRANCH  61  62
ATOM     62  S   UNL A   1      54.202  24.918  25.487  1.00  0.00     0.124 S 
ATOM     63  O   UNL A   1      54.885  24.880  26.762  1.00  0.00    -0.237 OA
ATOM     64  O   UNL A   1      53.854  23.622  24.902  1.00  0.00    -0.237 OA
ATOM     65  O   UNL A   1      54.701  25.910  24.528  1.00  0.00    -0.744 OA
ENDBRANCH  61  62
ENDBRANCH  29  54
BRANCH  41  66
ATOM     66  C   UNL A   1      47.084  32.616  28.327  1.00  0.00     0.058 A 
ATOM     67  C   UNL A   1      47.067  33.520  27.254  1.00  0.00     0.135 A 
ATOM     68  C   UNL A   1      47.606  33.057  29.553  1.00  0.00     0.135 A 
ATOM     69  F   UNL A   1      46.580  33.146  26.061  1.00  0.00    -0.206 F 
ATOM     70  C   UNL A   1      47.584  34.804  27.383  1.00  0.00     0.059 A 
ATOM     71  C   UNL A   1      48.097  34.348  29.713  1.00  0.00     0.059 A 
ATOM     72  F   UNL A   1      47.629  32.236  30.615  1.00  0.00    -0.206 F 
ATOM     73  C   UNL A   1      48.096  35.208  28.617  1.00  0.00     0.060 A 
BRANCH  73  74
ATOM     74  S   UNL A   1      48.747  36.884  28.775  1.00  0.00     0.124 S 
ATOM     75  O   UNL A   1      49.575  36.991  27.579  1.00  0.00    -0.237 OA
ATOM     76  O   UNL A   1      47.532  37.692  28.780  1.00  0.00    -0.237 OA
ATOM     77  O   UNL A   1      49.474  36.848  30.040  1.00  0.00    -0.744 OA
ENDBRANCH  73  74
ENDBRANCH  41  66
ENDBRANCH  15  16
ENDBRANCH   8  10
ENDBRANCH   7   8
ENDBRANCH   6   7
ENDBRANCH   5   6
ENDBRANCH   4   5
ENDBRANCH   3   4
ENDBRANCH   2   3
ENDBRANCH   1   2
BRANCH   1  78
ATOM     78  C   UNL A   1      34.075  22.244  27.460  1.00  0.00     0.188 C 
BRANCH  78  79
ATOM     79  C   UNL A   1      32.582  22.645  27.523  1.00  0.00     0.188 C 
BRANCH  79  80
ATOM     80  O   UNL A   1      32.095  23.776  26.826  1.00  0.00    -0.376 OA
BRANCH  80  81
ATOM     81  C   UNL A   1      30.701  23.924  26.730  1.00  0.00     0.202 C 
BRANCH  81  82
ATOM     82  C   UNL A   1      30.209  24.534  25.407  1.00  0.00     0.261 C 
BRANCH  82  83
ATOM     83  O   UNL A   1      31.036  25.581  24.820  1.00  0.00    -0.463 OA
BRANCH  83  84
ATOM     84  C   UNL A   1      31.165  25.582  23.458  1.00  0.00     0.317 C 
ATOM     85  O   UNL A   1      30.310  26.077  22.729  1.00  0.00    -0.251 OA
BRANCH  84  86
ATOM     86  C   UNL A   1      32.471  24.877  22.909  1.00  0.00     0.117 C 
ATOM     87  C   UNL A   1      33.662  25.398  23.746  1.00  0.00     0.030 C 
ATOM     88  C   UNL A   1      32.668  25.452  21.463  1.00  0.00     0.279 C 
ATOM     89  C   UNL A   1      33.855  26.921  23.652  1.00  0.00     0.063 C 
ATOM     90  N   UNL A   1      32.699  26.913  21.414  1.00  0.00    -0.345 N 
ATOM     91  C   UNL A   1      33.768  27.482  22.232  1.00  0.00     0.260 C 
ATOM     92  H   UNL A   1      32.839  27.205  20.446  1.00  0.00     0.346 HD
ATOM     93  H   UNL A   1      31.813  27.254  21.786  1.00  0.00     0.346 HD
BRANCH  86  94
ATOM     94  C   UNL A   1      32.571  23.256  22.787  1.00  0.00     0.029 C 
BRANCH  94  95
ATOM     95  C   UNL A   1      32.498  22.132  23.932  1.00  0.00     0.038 C 
BRANCH  95  96
ATOM     96  C   UNL A   1      32.489  20.602  23.952  1.00  0.00    -0.030 A 
ATOM     97  C   UNL A   1      32.245  19.899  22.759  1.00  0.00     0.007 A 
ATOM     98  C   UNL A   1      32.496  19.758  25.041  1.00  0.00     0.114 A 
ATOM     99  C   UNL A   1      32.284  18.494  22.692  1.00  0.00     0.020 A 
ATOM    100  N   UNL A   1      32.593  18.401  25.030  1.00  0.00    -0.264 NA
ATOM    101  C   UNL A   1      32.556  17.790  23.841  1.00  0.00     0.111 A 
ENDBRANCH  95  96
ENDBRANCH  94  95
ENDBRANCH  86  94
ENDBRANCH  84  86
ENDBRANCH  83  84
ENDBRANCH  82  83
ENDBRANCH  81  82
ENDBRANCH  80  81
ENDBRANCH  79  80
ENDBRANCH  78  79
ENDBRANCH   1  78
TORSDOF 26
ENDMDL
MODEL 3
REMARK VINA RESULT:      -8.0      6.033      8.386
REMARK SMILES O=C(OCCOCCOCCOCCOC(=O)[C@]1(CCc2cccnc2)CCC[NH2+]C1)c1ccc(-c2c3nc(c(-c4c(F)cc(S(=O)(=O)[O-])cc4F)c4ccc([nH]4)c(-c4c(F)cc(S(=O)(=O)[O-])cc4F)c4nc(c(-c5c(F)cc(S(=O)(=O)[O-])cc5F)c5ccc2[nH]5)C=C4)C=C3)cc1
REMARK SMILES IDX 9 1 8 2 7 3 6 4 5 5 4 6 3 7 2 8 1 9 32 10 33 11 97 12 34 13
REMARK SMILES IDX 96 14 35 15 36 16 37 17 90 18 38 19 95 20 89 21 91 22 39 23
REMARK SMILES IDX 94 24 88 25 87 26 40 28 74 29 53 30 73 31 54 32 57 33 72 34
REMARK SMILES IDX 92 35 55 36 56 37 71 39 93 40 58 41 41 42 42 43 51 44 43 45
REMARK SMILES IDX 44 46 50 47 52 48 45 49 46 50 47 51 48 52 49 53 75 54 76 55
REMARK SMILES IDX 85 56 77 57 78 58 84 59 86 60 79 61 80 62 81 63 82 64 83 65
REMARK SMILES IDX 59 66 60 67 69 68 61 69 62 70 68 71 70 72 63 73 64 74 65 75
REMARK SMILES IDX 66 76 67 77 10 78 11 79 12 80 13 81 14 82 15 83 16 84 17 85
REMARK SMILES IDX 18 86 27 87 31 88 28 89 30 90 29 91 19 94 20 95 21 96 22 97
REMARK SMILES IDX 26 98 23 99 25 100 24 101
REMARK H PARENT 91 27 57 38 30 92 30 93
REMARK Flexibility Score: inf
ROOT
ATOM      1  O   UNL A   1      34.151  22.968  27.281  1.00  0.00    -0.377 OA
ENDROOT
BRANCH   1   2
ATOM      2  C   UNL A   1      35.493  22.653  26.917  1.00  0.00     0.188 C 
BRANCH   2   3
ATOM      3  C   UNL A   1      35.501  22.140  25.484  1.00  0.00     0.188 C 
BRANCH   3   4
ATOM      4  O   UNL A   1      36.720  22.471  24.802  1.00  0.00    -0.376 OA
BRANCH   4   5
ATOM      5  C   UNL A   1      37.877  22.476  25.642  1.00  0.00     0.202 C 
BRANCH   5   6
ATOM      6  C   UNL A   1      38.854  21.288  25.534  1.00  0.00     0.261 C 
BRANCH   6   7
ATOM      7  O   UNL A   1      39.521  20.927  26.763  1.00  0.00    -0.460 OA
BRANCH   7   8
ATOM      8  C   UNL A   1      40.822  20.848  27.126  1.00  0.00     0.338 C 
ATOM      9  O   UNL A   1      41.293  19.737  27.361  1.00  0.00    -0.246 OA
BRANCH   8  10
ATOM     10  C   UNL A   1      41.707  22.032  27.318  1.00  0.00     0.060 A 
ATOM     11  C   UNL A   1      42.430  22.287  28.474  1.00  0.00     0.016 A 
ATOM     12  C   UNL A   1      41.895  22.900  26.226  1.00  0.00     0.016 A 
ATOM     13  C   UNL A   1      43.260  23.393  28.578  1.00  0.00     0.010 A 
ATOM     14  C   UNL A   1      42.756  24.005  26.316  1.00  0.00     0.010 A 
ATOM     15  C   UNL A   1      43.432  24.264  27.510  1.00  0.00    -0.014 A 
BRANCH  15  16
ATOM     16  C   UNL A   1      44.152  25.525  27.789  1.00  0.00     0.031 A 
ATOM     17  C   UNL A   1      43.399  26.605  28.508  1.00  0.00     0.074 A 
ATOM     18  C   UNL A   1      45.483  25.622  27.600  1.00  0.00     0.049 A 
ATOM     19  N   UNL A   1      43.774  27.814  28.820  1.00  0.00    -0.248 NA
ATOM     20  C   UNL A   1      42.038  26.260  28.963  1.00  0.00     0.031 C 
ATOM     21  C   UNL A   1      46.346  24.555  27.086  1.00  0.00     0.029 A 
ATOM     22  N   UNL A   1      46.351  26.655  27.854  1.00  0.00    -0.354 N 
ATOM     23  C   UNL A   1      42.688  28.385  29.470  1.00  0.00     0.074 A 
ATOM     24  C   UNL A   1      41.640  27.393  29.519  1.00  0.00     0.031 C 
ATOM     25  C   UNL A   1      47.618  24.989  27.067  1.00  0.00     0.029 A 
ATOM     26  C   UNL A   1      47.654  26.382  27.499  1.00  0.00     0.049 A 
ATOM     27  H   UNL A   1      46.070  27.510  28.253  1.00  0.00     0.167 HD
ATOM     28  C   UNL A   1      42.580  29.635  29.972  1.00  0.00     0.037 A 
ATOM     29  C   UNL A   1      48.735  27.189  27.483  1.00  0.00     0.037 A 
ATOM     30  C   UNL A   1      43.643  30.600  29.916  1.00  0.00     0.049 A 
ATOM     31  C   UNL A   1      48.553  28.619  27.936  1.00  0.00     0.074 A 
ATOM     32  C   UNL A   1      43.624  31.930  30.291  1.00  0.00     0.029 A 
ATOM     33  N   UNL A   1      44.925  30.327  29.459  1.00  0.00    -0.354 N 
ATOM     34  N   UNL A   1      47.485  29.198  28.437  1.00  0.00    -0.248 NA
ATOM     35  C   UNL A   1      49.712  29.511  27.802  1.00  0.00     0.031 C 
ATOM     36  C   UNL A   1      44.886  32.472  30.021  1.00  0.00     0.029 A 
ATOM     37  C   UNL A   1      45.706  31.465  29.533  1.00  0.00     0.049 A 
ATOM     38  H   UNL A   1      45.233  29.451  29.131  1.00  0.00     0.167 HD
ATOM     39  C   UNL A   1      47.847  30.518  28.687  1.00  0.00     0.074 A 
ATOM     40  C   UNL A   1      49.243  30.640  28.316  1.00  0.00     0.031 C 
ATOM     41  C   UNL A   1      47.097  31.543  29.163  1.00  0.00     0.037 A 
BRANCH  28  42
ATOM     42  C   UNL A   1      41.251  30.036  30.542  1.00  0.00     0.058 A 
ATOM     43  C   UNL A   1      41.043  30.187  31.922  1.00  0.00     0.135 A 
ATOM     44  C   UNL A   1      40.161  30.264  29.685  1.00  0.00     0.135 A 
ATOM     45  F   UNL A   1      42.039  29.939  32.787  1.00  0.00    -0.206 F 
ATOM     46  C   UNL A   1      39.798  30.541  32.433  1.00  0.00     0.059 A 
ATOM     47  C   UNL A   1      38.915  30.643  30.172  1.00  0.00     0.059 A 
ATOM     48  F   UNL A   1      40.301  30.111  28.359  1.00  0.00    -0.206 F 
ATOM     49  C   UNL A   1      38.742  30.771  31.549  1.00  0.00     0.060 A 
BRANCH  49  50
ATOM     50  S   UNL A   1      37.139  31.250  32.227  1.00  0.00     0.124 S 
ATOM     51  O   UNL A   1      37.232  30.733  33.590  1.00  0.00    -0.237 OA
ATOM     52  O   UNL A   1      37.171  32.703  32.098  1.00  0.00    -0.237 OA
ATOM     53  O   UNL A   1      36.183  30.567  31.362  1.00  0.00    -0.744 OA
ENDBRANCH  49  50
ENDBRANCH  28  42
BRANCH  29  54
ATOM     54  C   UNL A   1      50.046  26.717  26.947  1.00  0.00     0.058 A 
ATOM     55  C   UNL A   1      50.287  26.607  25.569  1.00  0.00     0.135 A 
ATOM     56  C   UNL A   1      51.070  26.293  27.813  1.00  0.00     0.135 A 
ATOM     57  F   UNL A   1      49.343  26.983  24.691  1.00  0.00    -0.206 F 
ATOM     58  C   UNL A   1      51.469  26.058  25.070  1.00  0.00     0.059 A 
ATOM     59  C   UNL A   1      52.273  25.777  27.340  1.00  0.00     0.059 A 
ATOM     60  F   UNL A   1      50.903  26.369  29.142  1.00  0.00    -0.206 F 
ATOM     61  C   UNL A   1      52.454  25.639  25.966  1.00  0.00     0.060 A 
BRANCH  61  62
ATOM     62  S   UNL A   1      53.969  24.900  25.314  1.00  0.00     0.124 S 
ATOM     63  O   UNL A   1      54.802  24.837  26.494  1.00  0.00    -0.237 OA
ATOM     64  O   UNL A   1      53.487  23.618  24.794  1.00  0.00    -0.237 OA
ATOM     65  O   UNL A   1      54.391  25.859  24.286  1.00  0.00    -0.744 OA
ENDBRANCH  61  62
ENDBRANCH  29  54
BRANCH  41  66
ATOM     66  C   UNL A   1      47.784  32.869  29.339  1.00  0.00     0.058 A 
ATOM     67  C   UNL A   1      47.925  33.772  28.273  1.00  0.00     0.135 A 
ATOM     68  C   UNL A   1      48.265  33.257  30.599  1.00  0.00     0.135 A 
ATOM     69  F   UNL A   1      47.482  33.448  27.048  1.00  0.00    -0.206 F 
ATOM     70  C   UNL A   1      48.554  34.999  28.444  1.00  0.00     0.059 A 
ATOM     71  C   UNL A   1      48.867  34.493  30.800  1.00  0.00     0.059 A 
ATOM     72  F   UNL A   1      48.139  32.436  31.654  1.00  0.00    -0.206 F 
ATOM     73  C   UNL A   1      49.021  35.351  29.712  1.00  0.00     0.060 A 
BRANCH  73  74
ATOM     74  S   UNL A   1      49.820  36.955  29.924  1.00  0.00     0.124 S 
ATOM     75  O   UNL A   1      51.215  36.567  30.096  1.00  0.00    -0.237 OA
ATOM     76  O   UNL A   1      49.499  37.632  28.672  1.00  0.00    -0.237 OA
ATOM     77  O   UNL A   1      49.170  37.503  31.110  1.00  0.00    -0.744 OA
ENDBRANCH  73  74
ENDBRANCH  41  66
ENDBRANCH  15  16
ENDBRANCH   8  10
ENDBRANCH   7   8
ENDBRANCH   6   7
ENDBRANCH   5   6
ENDBRANCH   4   5
ENDBRANCH   3   4
ENDBRANCH   2   3
ENDBRANCH   1   2
BRANCH   1  78
ATOM     78  C   UNL A   1      33.248  21.966  26.865  1.00  0.00     0.188 C 
BRANCH  78  79
ATOM     79  C   UNL A   1      31.791  22.484  26.800  1.00  0.00     0.188 C 
BRANCH  79  80
ATOM     80  O   UNL A   1      31.458  23.792  27.223  1.00  0.00    -0.376 OA
BRANCH  80  81
ATOM     81  C   UNL A   1      30.377  24.422  26.582  1.00  0.00     0.202 C 
BRANCH  81  82
ATOM     82  C   UNL A   1      30.705  25.791  25.964  1.00  0.00     0.261 C 
BRANCH  82  83
ATOM     83  O   UNL A   1      31.469  26.717  26.791  1.00  0.00    -0.463 OA
BRANCH  83  84
ATOM     84  C   UNL A   1      32.662  27.161  26.289  1.00  0.00     0.317 C 
ATOM     85  O   UNL A   1      33.580  26.389  26.030  1.00  0.00    -0.251 OA
BRANCH  84  86
ATOM     86  C   UNL A   1      32.768  28.729  26.101  1.00  0.00     0.117 C 
ATOM     87  C   UNL A   1      31.520  29.183  25.310  1.00  0.00     0.030 C 
ATOM     88  C   UNL A   1      33.993  28.944  25.146  1.00  0.00     0.279 C 
ATOM     89  C   UNL A   1      31.407  28.532  23.920  1.00  0.00     0.063 C 
ATOM     90  N   UNL A   1      33.902  28.186  23.898  1.00  0.00    -0.345 N 
ATOM     91  C   UNL A   1      32.712  28.522  23.121  1.00  0.00     0.260 C 
ATOM     92  H   UNL A   1      34.728  28.387  23.333  1.00  0.00     0.346 HD
ATOM     93  H   UNL A   1      33.843  27.197  24.141  1.00  0.00     0.346 HD
BRANCH  86  94
ATOM     94  C   UNL A   1      32.985  29.722  27.373  1.00  0.00     0.029 C 
BRANCH  94  95
ATOM     95  C   UNL A   1      33.907  31.030  27.511  1.00  0.00     0.038 C 
BRANCH  95  96
ATOM     96  C   UNL A   1      33.860  32.308  28.352  1.00  0.00    -0.030 A 
ATOM     97  C   UNL A   1      33.249  33.458  27.821  1.00  0.00     0.007 A 
ATOM     98  C   UNL A   1      34.517  32.586  29.530  1.00  0.00     0.114 A 
ATOM     99  C   UNL A   1      33.114  34.647  28.561  1.00  0.00     0.020 A 
ATOM    100  N   UNL A   1      34.376  33.690  30.310  1.00  0.00    -0.264 NA
ATOM    101  C   UNL A   1      33.614  34.684  29.841  1.00  0.00     0.111 A 
ENDBRANCH  95  96
ENDBRANCH  94  95
ENDBRANCH  86  94
ENDBRANCH  84  86
ENDBRANCH  83  84
ENDBRANCH  82  83
ENDBRANCH  81  82
ENDBRANCH  80  81
ENDBRANCH  79  80
ENDBRANCH  78  79
ENDBRANCH   1  78
TORSDOF 26
ENDMDL
