MODEL 1
REMARK VINA RESULT:      -8.9      0.000      0.000
REMARK SMILES CCOC(=O)c1cc(C[NH2+]CC(=O)OCCOCCOCCOCCOC(=O)c2ccc(-c3c4nc(c(-c5c(F)cc(S(=O)(=O)[O-])cc5F)c5ccc([nH]5)c(-c5c(F)cc(S(=O)(=O)[O-])cc5F)c5nc(c(-c6c(F)cc(S(=O)(=O)[O-])cc6F)c6ccc3[nH]6)C=C5)C=C4)cc2)c(C)o1
REMARK SMILES IDX 18 1 17 2 16 3 15 4 14 5 12 6 13 7 11 8 10 9 9 12 8 13 6 14
REMARK SMILES IDX 7 15 97 16 95 17 96 18 4 19 5 20 3 21 2 22 1 23 19 24 20 25
REMARK SMILES IDX 21 26 22 27 23 28 24 29 25 30 26 31 27 32 28 33 29 34 30 35
REMARK SMILES IDX 94 36 31 37 93 38 32 39 33 40 34 41 87 42 35 43 92 44 86 45
REMARK SMILES IDX 88 46 36 47 91 48 85 49 84 50 37 52 71 53 50 54 70 55 51 56
REMARK SMILES IDX 54 57 69 58 89 59 52 60 53 61 68 63 90 64 55 65 38 66 39 67
REMARK SMILES IDX 48 68 40 69 41 70 47 71 49 72 42 73 43 74 44 75 45 76 46 77
REMARK SMILES IDX 72 78 73 79 82 80 74 81 75 82 81 83 83 84 76 85 77 86 78 87
REMARK SMILES IDX 79 88 80 89 56 90 57 91 66 92 58 93 59 94 65 95 67 96 60 97
REMARK SMILES IDX 61 98 62 99 63 100 64 101
REMARK H PARENT 10 10 10 11 88 51 54 62
REMARK Flexibility Score: inf
ROOT
ATOM      1  C   UNL A   1      36.346  21.478  24.667  1.00  0.00     0.188 C 
ENDROOT
BRANCH   1   2
ATOM      2  O   UNL A   1      35.096  20.823  24.817  1.00  0.00    -0.376 OA
BRANCH   2   3
ATOM      3  C   UNL A   1      34.287  21.062  25.959  1.00  0.00     0.202 C 
BRANCH   3   4
ATOM      4  C   UNL A   1      33.320  22.258  26.046  1.00  0.00     0.261 C 
BRANCH   4   5
ATOM      5  O   UNL A   1      33.897  23.546  26.336  1.00  0.00    -0.459 OA
BRANCH   5   6
ATOM      6  C   UNL A   1      33.584  24.554  25.492  1.00  0.00     0.361 C 
ATOM      7  O   UNL A   1      34.217  25.608  25.428  1.00  0.00    -0.245 OA
BRANCH   6   8
ATOM      8  C   UNL A   1      32.348  24.340  24.614  1.00  0.00     0.385 C 
BRANCH   8   9
ATOM      9  N   UNL A   1      31.790  25.424  23.790  1.00  0.00    -0.333 N 
ATOM     10  H   UNL A   1      32.548  25.814  23.231  1.00  0.00     0.347 HD
ATOM     11  H   UNL A   1      31.044  24.994  23.241  1.00  0.00     0.347 HD
BRANCH   9  12
ATOM     12  C   UNL A   1      31.164  26.513  24.513  1.00  0.00     0.301 C 
BRANCH  12  13
ATOM     13  C   UNL A   1      30.953  27.660  23.572  1.00  0.00     0.048 A 
ATOM     14  C   UNL A   1      29.874  29.225  22.347  1.00  0.00     0.212 A 
ATOM     15  C   UNL A   1      29.749  27.955  22.875  1.00  0.00     0.068 A 
ATOM     16  O   UNL A   1      31.170  29.635  22.498  1.00  0.00    -0.454 OA
ATOM     17  C   UNL A   1      31.819  28.683  23.226  1.00  0.00     0.110 A 
ATOM     18  C   UNL A   1      33.241  28.960  23.504  1.00  0.00     0.088 C 
BRANCH  14  19
ATOM     19  C   UNL A   1      28.914  30.134  21.765  1.00  0.00     0.374 C 
ATOM     20  O   UNL A   1      27.880  29.840  21.176  1.00  0.00    -0.242 OA
BRANCH  19  21
ATOM     21  O   UNL A   1      29.292  31.430  21.972  1.00  0.00    -0.460 OA
BRANCH  21  22
ATOM     22  C   UNL A   1      28.562  32.083  23.024  1.00  0.00     0.230 C 
ATOM     23  C   UNL A   1      29.050  33.516  23.165  1.00  0.00     0.049 C 
ENDBRANCH  21  22
ENDBRANCH  19  21
ENDBRANCH  14  19
ENDBRANCH  12  13
ENDBRANCH   9  12
ENDBRANCH   8   9
ENDBRANCH   6   8
ENDBRANCH   5   6
ENDBRANCH   4   5
ENDBRANCH   3   4
ENDBRANCH   2   3
ENDBRANCH   1   2
BRANCH   1  24
ATOM     24  C   UNL A   1      37.399  21.423  25.784  1.00  0.00     0.188 C 
BRANCH  24  25
ATOM     25  O   UNL A   1      38.689  21.869  25.418  1.00  0.00    -0.377 OA
BRANCH  25  26
ATOM     26  C   UNL A   1      39.795  21.281  26.093  1.00  0.00     0.188 C 
BRANCH  26  27
ATOM     27  C   UNL A   1      41.033  22.155  26.374  1.00  0.00     0.188 C 
BRANCH  27  28
ATOM     28  O   UNL A   1      42.125  21.928  25.490  1.00  0.00    -0.376 OA
BRANCH  28  29
ATOM     29  C   UNL A   1      43.394  22.471  25.835  1.00  0.00     0.202 C 
BRANCH  29  30
ATOM     30  C   UNL A   1      43.406  23.709  26.746  1.00  0.00     0.261 C 
BRANCH  30  31
ATOM     31  O   UNL A   1      43.412  24.987  26.088  1.00  0.00    -0.460 OA
BRANCH  31  32
ATOM     32  C   UNL A   1      42.253  25.674  26.009  1.00  0.00     0.338 C 
ATOM     33  O   UNL A   1      41.411  25.606  25.134  1.00  0.00    -0.246 OA
BRANCH  32  34
ATOM     34  C   UNL A   1      42.090  26.409  27.277  1.00  0.00     0.060 A 
ATOM     35  C   UNL A   1      41.027  26.095  28.134  1.00  0.00     0.016 A 
ATOM     36  C   UNL A   1      42.989  27.420  27.606  1.00  0.00     0.016 A 
ATOM     37  C   UNL A   1      40.844  26.817  29.318  1.00  0.00     0.010 A 
ATOM     38  C   UNL A   1      42.795  28.144  28.784  1.00  0.00     0.010 A 
ATOM     39  C   UNL A   1      41.707  27.872  29.636  1.00  0.00    -0.014 A 
BRANCH  39  40
ATOM     40  C   UNL A   1      41.372  28.834  30.723  1.00  0.00     0.031 A 
ATOM     41  C   UNL A   1      42.197  28.776  31.986  1.00  0.00     0.074 A 
ATOM     42  C   UNL A   1      40.372  29.731  30.617  1.00  0.00     0.049 A 
ATOM     43  N   UNL A   1      42.047  29.425  33.110  1.00  0.00    -0.248 NA
ATOM     44  C   UNL A   1      43.325  27.828  31.988  1.00  0.00     0.031 C 
ATOM     45  C   UNL A   1      39.502  29.908  29.455  1.00  0.00     0.029 A 
ATOM     46  N   UNL A   1      39.911  30.661  31.518  1.00  0.00    -0.354 N 
ATOM     47  C   UNL A   1      43.039  28.942  33.956  1.00  0.00     0.074 A 
ATOM     48  C   UNL A   1      43.735  27.897  33.242  1.00  0.00     0.031 C 
ATOM     49  C   UNL A   1      38.612  30.882  29.715  1.00  0.00     0.029 A 
ATOM     50  C   UNL A   1      38.832  31.389  31.069  1.00  0.00     0.049 A 
ATOM     51  H   UNL A   1      40.318  30.796  32.405  1.00  0.00     0.167 HD
ATOM     52  C   UNL A   1      43.371  29.351  35.202  1.00  0.00     0.037 A 
ATOM     53  C   UNL A   1      38.105  32.346  31.682  1.00  0.00     0.037 A 
ATOM     54  C   UNL A   1      42.714  30.426  35.894  1.00  0.00     0.049 A 
ATOM     55  C   UNL A   1      38.481  32.780  33.080  1.00  0.00     0.074 A 
ATOM     56  C   UNL A   1      43.005  30.950  37.140  1.00  0.00     0.029 A 
ATOM     57  N   UNL A   1      41.640  31.146  35.395  1.00  0.00    -0.354 N 
ATOM     58  N   UNL A   1      39.446  32.337  33.852  1.00  0.00    -0.248 NA
ATOM     59  C   UNL A   1      37.679  33.854  33.684  1.00  0.00     0.031 C 
ATOM     60  C   UNL A   1      42.075  31.957  37.417  1.00  0.00     0.029 A 
ATOM     61  C   UNL A   1      41.246  32.102  36.317  1.00  0.00     0.049 A 
ATOM     62  H   UNL A   1      41.220  31.000  34.517  1.00  0.00     0.167 HD
ATOM     63  C   UNL A   1      39.392  33.107  35.011  1.00  0.00     0.074 A 
ATOM     64  C   UNL A   1      38.306  34.047  34.837  1.00  0.00     0.031 C 
ATOM     65  C   UNL A   1      40.173  33.046  36.119  1.00  0.00     0.037 A 
BRANCH  52  66
ATOM     66  C   UNL A   1      44.499  28.630  35.890  1.00  0.00     0.058 A 
ATOM     67  C   UNL A   1      44.287  27.450  36.622  1.00  0.00     0.135 A 
ATOM     68  C   UNL A   1      45.809  29.126  35.813  1.00  0.00     0.135 A 
ATOM     69  F   UNL A   1      43.048  26.945  36.748  1.00  0.00    -0.206 F 
ATOM     70  C   UNL A   1      45.327  26.811  37.286  1.00  0.00     0.059 A 
ATOM     71  C   UNL A   1      46.872  28.481  36.439  1.00  0.00     0.059 A 
ATOM     72  F   UNL A   1      46.069  30.251  35.130  1.00  0.00    -0.206 F 
ATOM     73  C   UNL A   1      46.616  27.333  37.188  1.00  0.00     0.060 A 
BRANCH  73  74
ATOM     74  S   UNL A   1      47.954  26.486  38.052  1.00  0.00     0.124 S 
ATOM     75  O   UNL A   1      48.174  25.331  37.185  1.00  0.00    -0.237 OA
ATOM     76  O   UNL A   1      49.012  27.490  38.048  1.00  0.00    -0.237 OA
ATOM     77  O   UNL A   1      47.380  26.187  39.360  1.00  0.00    -0.744 OA
ENDBRANCH  73  74
ENDBRANCH  52  66
BRANCH  53  78
ATOM     78  C   UNL A   1      36.956  32.988  30.981  1.00  0.00     0.058 A 
ATOM     79  C   UNL A   1      35.634  32.593  31.242  1.00  0.00     0.135 A 
ATOM     80  C   UNL A   1      37.157  33.990  30.019  1.00  0.00     0.135 A 
ATOM     81  F   UNL A   1      35.388  31.630  32.142  1.00  0.00    -0.206 F 
ATOM     82  C   UNL A   1      34.556  33.152  30.562  1.00  0.00     0.059 A 
ATOM     83  C   UNL A   1      36.092  34.584  29.345  1.00  0.00     0.059 A 
ATOM     84  F   UNL A   1      38.399  34.413  29.736  1.00  0.00    -0.206 F 
ATOM     85  C   UNL A   1      34.794  34.150  29.617  1.00  0.00     0.060 A 
BRANCH  85  86
ATOM     86  S   UNL A   1      33.382  34.903  28.778  1.00  0.00     0.124 S 
ATOM     87  O   UNL A   1      33.068  33.897  27.769  1.00  0.00    -0.237 OA
ATOM     88  O   UNL A   1      32.420  35.038  29.866  1.00  0.00    -0.237 OA
ATOM     89  O   UNL A   1      33.925  36.160  28.270  1.00  0.00    -0.744 OA
ENDBRANCH  85  86
ENDBRANCH  53  78
BRANCH  65  90
ATOM     90  C   UNL A   1      39.931  34.058  37.208  1.00  0.00     0.058 A 
ATOM     91  C   UNL A   1      38.976  33.856  38.215  1.00  0.00     0.135 A 
ATOM     92  C   UNL A   1      40.713  35.224  37.273  1.00  0.00     0.135 A 
ATOM     93  F   UNL A   1      38.201  32.759  38.202  1.00  0.00    -0.206 F 
ATOM     94  C   UNL A   1      38.782  34.788  39.231  1.00  0.00     0.059 A 
ATOM     95  C   UNL A   1      40.560  36.152  38.297  1.00  0.00     0.059 A 
ATOM     96  F   UNL A   1      41.654  35.461  36.345  1.00  0.00    -0.206 F 
ATOM     97  C   UNL A   1      39.581  35.934  39.263  1.00  0.00     0.060 A 
BRANCH  97  98
ATOM     98  S   UNL A   1      39.334  37.124  40.597  1.00  0.00     0.124 S 
ATOM     99  O   UNL A   1      38.186  37.880  40.107  1.00  0.00    -0.237 OA
ATOM    100  O   UNL A   1      39.078  36.258  41.745  1.00  0.00    -0.237 OA
ATOM    101  O   UNL A   1      40.596  37.855  40.640  1.00  0.00    -0.744 OA
ENDBRANCH  97  98
ENDBRANCH  65  90
ENDBRANCH  39  40
ENDBRANCH  32  34
ENDBRANCH  31  32
ENDBRANCH  30  31
ENDBRANCH  29  30
ENDBRANCH  28  29
ENDBRANCH  27  28
ENDBRANCH  26  27
ENDBRANCH  25  26
ENDBRANCH  24  25
ENDBRANCH   1  24
TORSDOF 29
ENDMDL
MODEL 2
REMARK VINA RESULT:      -8.8      1.162      2.442
REMARK SMILES CCOC(=O)c1cc(C[NH2+]CC(=O)OCCOCCOCCOCCOC(=O)c2ccc(-c3c4nc(c(-c5c(F)cc(S(=O)(=O)[O-])cc5F)c5ccc([nH]5)c(-c5c(F)cc(S(=O)(=O)[O-])cc5F)c5nc(c(-c6c(F)cc(S(=O)(=O)[O-])cc6F)c6ccc3[nH]6)C=C5)C=C4)cc2)c(C)o1
REMARK SMILES IDX 18 1 17 2 16 3 15 4 14 5 12 6 13 7 11 8 10 9 9 12 8 13 6 14
REMARK SMILES IDX 7 15 97 16 95 17 96 18 4 19 5 20 3 21 2 22 1 23 19 24 20 25
REMARK SMILES IDX 21 26 22 27 23 28 24 29 25 30 26 31 27 32 28 33 29 34 30 35
REMARK SMILES IDX 94 36 31 37 93 38 32 39 33 40 34 41 87 42 35 43 92 44 86 45
REMARK SMILES IDX 88 46 36 47 91 48 85 49 84 50 37 52 71 53 50 54 70 55 51 56
REMARK SMILES IDX 54 57 69 58 89 59 52 60 53 61 68 63 90 64 55 65 38 66 39 67
REMARK SMILES IDX 48 68 40 69 41 70 47 71 49 72 42 73 43 74 44 75 45 76 46 77
REMARK SMILES IDX 72 78 73 79 82 80 74 81 75 82 81 83 83 84 76 85 77 86 78 87
REMARK SMILES IDX 79 88 80 89 56 90 57 91 66 92 58 93 59 94 65 95 67 96 60 97
REMARK SMILES IDX 61 98 62 99 63 100 64 101
REMARK H PARENT 10 10 10 11 88 51 54 62
REMARK Flexibility Score: inf
ROOT
ATOM      1  C   UNL A   1      35.988  22.865  24.979  1.00  0.00     0.188 C 
ENDROOT
BRANCH   1   2
ATOM      2  O   UNL A   1      34.612  22.647  25.250  1.00  0.00    -0.376 OA
BRANCH   2   3
ATOM      3  C   UNL A   1      33.720  23.744  25.382  1.00  0.00     0.202 C 
BRANCH   3   4
ATOM      4  C   UNL A   1      33.263  24.583  24.174  1.00  0.00     0.261 C 
BRANCH   4   5
ATOM      5  O   UNL A   1      34.102  25.688  23.789  1.00  0.00    -0.459 OA
BRANCH   5   6
ATOM      6  C   UNL A   1      33.527  26.655  23.039  1.00  0.00     0.361 C 
ATOM      7  O   UNL A   1      34.087  27.711  22.746  1.00  0.00    -0.245 OA
BRANCH   6   8
ATOM      8  C   UNL A   1      32.089  26.389  22.585  1.00  0.00     0.385 C 
BRANCH   8   9
ATOM      9  N   UNL A   1      31.273  27.440  21.956  1.00  0.00    -0.333 N 
ATOM     10  H   UNL A   1      31.838  28.288  21.908  1.00  0.00     0.347 HD
ATOM     11  H   UNL A   1      31.001  27.068  21.046  1.00  0.00     0.347 HD
BRANCH   9  12
ATOM     12  C   UNL A   1      30.033  27.770  22.630  1.00  0.00     0.301 C 
BRANCH  12  13
ATOM     13  C   UNL A   1      30.322  28.752  23.724  1.00  0.00     0.048 A 
ATOM     14  C   UNL A   1      31.364  29.719  25.483  1.00  0.00     0.212 A 
ATOM     15  C   UNL A   1      31.113  28.501  24.880  1.00  0.00     0.068 A 
ATOM     16  O   UNL A   1      30.590  30.673  24.882  1.00  0.00    -0.454 OA
ATOM     17  C   UNL A   1      29.954  30.081  23.831  1.00  0.00     0.110 A 
ATOM     18  C   UNL A   1      29.073  30.967  23.046  1.00  0.00     0.088 C 
BRANCH  14  19
ATOM     19  C   UNL A   1      32.288  30.117  26.520  1.00  0.00     0.374 C 
ATOM     20  O   UNL A   1      32.410  31.233  27.013  1.00  0.00    -0.242 OA
BRANCH  19  21
ATOM     21  O   UNL A   1      33.039  29.052  26.928  1.00  0.00    -0.460 OA
BRANCH  21  22
ATOM     22  C   UNL A   1      34.399  29.095  26.464  1.00  0.00     0.230 C 
ATOM     23  C   UNL A   1      35.317  29.462  27.620  1.00  0.00     0.049 C 
ENDBRANCH  21  22
ENDBRANCH  19  21
ENDBRANCH  14  19
ENDBRANCH  12  13
ENDBRANCH   9  12
ENDBRANCH   8   9
ENDBRANCH   6   8
ENDBRANCH   5   6
ENDBRANCH   4   5
ENDBRANCH   3   4
ENDBRANCH   2   3
ENDBRANCH   1   2
BRANCH   1  24
ATOM     24  C   UNL A   1      37.055  22.555  26.041  1.00  0.00     0.188 C 
BRANCH  24  25
ATOM     25  O   UNL A   1      38.393  22.707  25.614  1.00  0.00    -0.377 OA
BRANCH  25  26
ATOM     26  C   UNL A   1      39.291  21.643  25.906  1.00  0.00     0.188 C 
BRANCH  26  27
ATOM     27  C   UNL A   1      40.669  21.990  26.505  1.00  0.00     0.188 C 
BRANCH  27  28
ATOM     28  O   UNL A   1      41.749  21.904  25.583  1.00  0.00    -0.376 OA
BRANCH  28  29
ATOM     29  C   UNL A   1      43.020  22.399  25.987  1.00  0.00     0.202 C 
BRANCH  29  30
ATOM     30  C   UNL A   1      43.038  23.672  26.849  1.00  0.00     0.261 C 
BRANCH  30  31
ATOM     31  O   UNL A   1      43.022  24.923  26.142  1.00  0.00    -0.460 OA
BRANCH  31  32
ATOM     32  C   UNL A   1      41.863  25.611  26.080  1.00  0.00     0.338 C 
ATOM     33  O   UNL A   1      41.000  25.533  25.226  1.00  0.00    -0.246 OA
BRANCH  32  34
ATOM     34  C   UNL A   1      41.731  26.364  27.341  1.00  0.00     0.060 A 
ATOM     35  C   UNL A   1      40.677  26.078  28.219  1.00  0.00     0.016 A 
ATOM     36  C   UNL A   1      42.650  27.365  27.644  1.00  0.00     0.016 A 
ATOM     37  C   UNL A   1      40.524  26.816  29.396  1.00  0.00     0.010 A 
ATOM     38  C   UNL A   1      42.486  28.106  28.815  1.00  0.00     0.010 A 
ATOM     39  C   UNL A   1      41.408  27.862  29.688  1.00  0.00    -0.014 A 
BRANCH  39  40
ATOM     40  C   UNL A   1      41.105  28.842  30.768  1.00  0.00     0.031 A 
ATOM     41  C   UNL A   1      41.948  28.786  32.018  1.00  0.00     0.074 A 
ATOM     42  C   UNL A   1      40.117  29.753  30.666  1.00  0.00     0.049 A 
ATOM     43  N   UNL A   1      41.826  29.452  33.136  1.00  0.00    -0.248 NA
ATOM     44  C   UNL A   1      43.061  27.821  32.015  1.00  0.00     0.031 C 
ATOM     45  C   UNL A   1      39.232  29.929  29.515  1.00  0.00     0.029 A 
ATOM     46  N   UNL A   1      39.685  30.702  31.562  1.00  0.00    -0.354 N 
ATOM     47  C   UNL A   1      42.823  28.963  33.973  1.00  0.00     0.074 A 
ATOM     48  C   UNL A   1      43.492  27.899  33.262  1.00  0.00     0.031 C 
ATOM     49  C   UNL A   1      38.361  30.921  29.777  1.00  0.00     0.029 A 
ATOM     50  C   UNL A   1      38.610  31.440  31.121  1.00  0.00     0.049 A 
ATOM     51  H   UNL A   1      40.107  30.841  32.441  1.00  0.00     0.167 HD
ATOM     52  C   UNL A   1      43.181  29.383  35.208  1.00  0.00     0.037 A 
ATOM     53  C   UNL A   1      37.908  32.416  31.733  1.00  0.00     0.037 A 
ATOM     54  C   UNL A   1      42.552  30.476  35.897  1.00  0.00     0.049 A 
ATOM     55  C   UNL A   1      38.312  32.861  33.119  1.00  0.00     0.074 A 
ATOM     56  C   UNL A   1      42.870  31.011  37.132  1.00  0.00     0.029 A 
ATOM     57  N   UNL A   1      41.481  31.207  35.406  1.00  0.00    -0.354 N 
ATOM     58  N   UNL A   1      39.282  32.413  33.881  1.00  0.00    -0.248 NA
ATOM     59  C   UNL A   1      37.536  33.955  33.722  1.00  0.00     0.031 C 
ATOM     60  C   UNL A   1      41.960  32.036  37.410  1.00  0.00     0.029 A 
ATOM     61  C   UNL A   1      41.116  32.180  36.322  1.00  0.00     0.049 A 
ATOM     62  H   UNL A   1      41.045  31.057  34.536  1.00  0.00     0.167 HD
ATOM     63  C   UNL A   1      39.258  33.198  35.032  1.00  0.00     0.074 A 
ATOM     64  C   UNL A   1      38.183  34.152  34.863  1.00  0.00     0.031 C 
ATOM     65  C   UNL A   1      40.055  33.138  36.129  1.00  0.00     0.037 A 
BRANCH  52  66
ATOM     66  C   UNL A   1      44.308  28.653  35.888  1.00  0.00     0.058 A 
ATOM     67  C   UNL A   1      45.650  29.027  35.707  1.00  0.00     0.135 A 
ATOM     68  C   UNL A   1      44.040  27.565  36.733  1.00  0.00     0.135 A 
ATOM     69  F   UNL A   1      45.964  30.046  34.890  1.00  0.00    -0.206 F 
ATOM     70  C   UNL A   1      46.687  28.324  36.308  1.00  0.00     0.059 A 
ATOM     71  C   UNL A   1      45.061  26.870  37.375  1.00  0.00     0.059 A 
ATOM     72  F   UNL A   1      42.777  27.162  36.939  1.00  0.00    -0.206 F 
ATOM     73  C   UNL A   1      46.383  27.247  37.141  1.00  0.00     0.060 A 
BRANCH  73  74
ATOM     74  S   UNL A   1      47.742  26.351  37.918  1.00  0.00     0.124 S 
ATOM     75  O   UNL A   1      47.084  25.785  39.092  1.00  0.00    -0.237 OA
ATOM     76  O   UNL A   1      48.117  25.396  36.880  1.00  0.00    -0.237 OA
ATOM     77  O   UNL A   1      48.726  27.395  38.192  1.00  0.00    -0.744 OA
ENDBRANCH  73  74
ENDBRANCH  52  66
BRANCH  53  78
ATOM     78  C   UNL A   1      36.758  33.067  31.042  1.00  0.00     0.058 A 
ATOM     79  C   UNL A   1      36.963  34.020  30.031  1.00  0.00     0.135 A 
ATOM     80  C   UNL A   1      35.431  32.769  31.393  1.00  0.00     0.135 A 
ATOM     81  F   UNL A   1      38.211  34.351  29.667  1.00  0.00    -0.206 F 
ATOM     82  C   UNL A   1      35.901  34.668  29.409  1.00  0.00     0.059 A 
ATOM     83  C   UNL A   1      34.351  33.384  30.766  1.00  0.00     0.059 A 
ATOM     84  F   UNL A   1      35.176  31.859  32.346  1.00  0.00    -0.206 F 
ATOM     85  C   UNL A   1      34.596  34.341  29.781  1.00  0.00     0.060 A 
BRANCH  85  86
ATOM     86  S   UNL A   1      33.224  35.153  28.930  1.00  0.00     0.124 S 
ATOM     87  O   UNL A   1      32.357  35.513  30.045  1.00  0.00    -0.237 OA
ATOM     88  O   UNL A   1      33.897  36.261  28.259  1.00  0.00    -0.237 OA
ATOM     89  O   UNL A   1      32.715  34.110  28.044  1.00  0.00    -0.744 OA
ENDBRANCH  85  86
ENDBRANCH  53  78
BRANCH  65  90
ATOM     90  C   UNL A   1      39.846  34.167  37.208  1.00  0.00     0.058 A 
ATOM     91  C   UNL A   1      38.959  33.958  38.275  1.00  0.00     0.135 A 
ATOM     92  C   UNL A   1      40.592  35.358  37.202  1.00  0.00     0.135 A 
ATOM     93  F   UNL A   1      38.221  32.839  38.333  1.00  0.00    -0.206 F 
ATOM     94  C   UNL A   1      38.797  34.908  39.281  1.00  0.00     0.059 A 
ATOM     95  C   UNL A   1      40.471  36.304  38.213  1.00  0.00     0.059 A 
ATOM     96  F   UNL A   1      41.468  35.603  36.213  1.00  0.00    -0.206 F 
ATOM     97  C   UNL A   1      39.558  36.078  39.240  1.00  0.00     0.060 A 
BRANCH  97  98
ATOM     98  S   UNL A   1      39.353  37.290  40.562  1.00  0.00     0.124 S 
ATOM     99  O   UNL A   1      38.241  38.090  40.056  1.00  0.00    -0.237 OA
ATOM    100  O   UNL A   1      39.053  36.447  41.715  1.00  0.00    -0.237 OA
ATOM    101  O   UNL A   1      40.644  37.968  40.606  1.00  0.00    -0.744 OA
ENDBRANCH  97  98
ENDBRANCH  65  90
ENDBRANCH  39  40
ENDBRANCH  32  34
ENDBRANCH  31  32
ENDBRANCH  30  31
ENDBRANCH  29  30
ENDBRANCH  28  29
ENDBRANCH  27  28
ENDBRANCH  26  27
ENDBRANCH  25  26
ENDBRANCH  24  25
ENDBRANCH   1  24
TORSDOF 29
ENDMDL
MODEL 3
REMARK VINA RESULT:      -8.4      1.284      2.851
REMARK SMILES CCOC(=O)c1cc(C[NH2+]CC(=O)OCCOCCOCCOCCOC(=O)c2ccc(-c3c4nc(c(-c5c(F)cc(S(=O)(=O)[O-])cc5F)c5ccc([nH]5)c(-c5c(F)cc(S(=O)(=O)[O-])cc5F)c5nc(c(-c6c(F)cc(S(=O)(=O)[O-])cc6F)c6ccc3[nH]6)C=C5)C=C4)cc2)c(C)o1
REMARK SMILES IDX 18 1 17 2 16 3 15 4 14 5 12 6 13 7 11 8 10 9 9 12 8 13 6 14
REMARK SMILES IDX 7 15 97 16 95 17 96 18 4 19 5 20 3 21 2 22 1 23 19 24 20 25
REMARK SMILES IDX 21 26 22 27 23 28 24 29 25 30 26 31 27 32 28 33 29 34 30 35
REMARK SMILES IDX 94 36 31 37 93 38 32 39 33 40 34 41 87 42 35 43 92 44 86 45
REMARK SMILES IDX 88 46 36 47 91 48 85 49 84 50 37 52 71 53 50 54 70 55 51 56
REMARK SMILES IDX 54 57 69 58 89 59 52 60 53 61 68 63 90 64 55 65 38 66 39 67
REMARK SMILES IDX 48 68 40 69 41 70 47 71 49 72 42 73 43 74 44 75 45 76 46 77
REMARK SMILES IDX 72 78 73 79 82 80 74 81 75 82 81 83 83 84 76 85 77 86 78 87
REMARK SMILES IDX 79 88 80 89 56 90 57 91 66 92 58 93 59 94 65 95 67 96 60 97
REMARK SMILES IDX 61 98 62 99 63 100 64 101
REMARK H PARENT 10 10 10 11 88 51 54 62
REMARK Flexibility Score: inf
ROOT
ATOM      1  C   UNL A   1      35.916  23.448  24.987  1.00  0.00     0.188 C 
ENDROOT
BRANCH   1   2
ATOM      2  O   UNL A   1      34.510  23.346  25.148  1.00  0.00    -0.376 OA
BRANCH   2   3
ATOM      3  C   UNL A   1      33.787  24.351  25.844  1.00  0.00     0.202 C 
BRANCH   3   4
ATOM      4  C   UNL A   1      33.900  25.844  25.484  1.00  0.00     0.261 C 
BRANCH   4   5
ATOM      5  O   UNL A   1      34.352  26.735  26.522  1.00  0.00    -0.459 OA
BRANCH   5   6
ATOM      6  C   UNL A   1      33.945  28.022  26.436  1.00  0.00     0.361 C 
ATOM      7  O   UNL A   1      33.831  28.764  27.411  1.00  0.00    -0.245 OA
BRANCH   6   8
ATOM      8  C   UNL A   1      33.588  28.524  25.035  1.00  0.00     0.385 C 
BRANCH   8   9
ATOM      9  N   UNL A   1      32.931  29.824  24.826  1.00  0.00    -0.333 N 
ATOM     10  H   UNL A   1      33.067  30.381  25.669  1.00  0.00     0.347 HD
ATOM     11  H   UNL A   1      33.364  30.218  23.990  1.00  0.00     0.347 HD
BRANCH   9  12
ATOM     12  C   UNL A   1      31.510  29.780  24.546  1.00  0.00     0.301 C 
BRANCH  12  13
ATOM     13  C   UNL A   1      31.264  28.807  23.434  1.00  0.00     0.048 A 
ATOM     14  C   UNL A   1      31.587  27.055  22.041  1.00  0.00     0.212 A 
ATOM     15  C   UNL A   1      32.250  27.998  22.802  1.00  0.00     0.068 A 
ATOM     16  O   UNL A   1      30.259  27.380  22.000  1.00  0.00    -0.454 OA
ATOM     17  C   UNL A   1      30.073  28.444  22.831  1.00  0.00     0.110 A 
ATOM     18  C   UNL A   1      28.685  28.935  22.928  1.00  0.00     0.088 C 
BRANCH  14  19
ATOM     19  C   UNL A   1      32.033  25.845  21.389  1.00  0.00     0.374 C 
ATOM     20  O   UNL A   1      32.418  25.728  20.230  1.00  0.00    -0.242 OA
BRANCH  19  21
ATOM     21  O   UNL A   1      31.998  24.791  22.256  1.00  0.00    -0.460 OA
BRANCH  21  22
ATOM     22  C   UNL A   1      33.129  23.911  22.141  1.00  0.00     0.230 C 
ATOM     23  C   UNL A   1      32.685  22.480  22.396  1.00  0.00     0.049 C 
ENDBRANCH  21  22
ENDBRANCH  19  21
ENDBRANCH  14  19
ENDBRANCH  12  13
ENDBRANCH   9  12
ENDBRANCH   8   9
ENDBRANCH   6   8
ENDBRANCH   5   6
ENDBRANCH   4   5
ENDBRANCH   3   4
ENDBRANCH   2   3
ENDBRANCH   1   2
BRANCH   1  24
ATOM     24  C   UNL A   1      36.871  22.846  26.029  1.00  0.00     0.188 C 
BRANCH  24  25
ATOM     25  O   UNL A   1      38.242  22.904  25.694  1.00  0.00    -0.377 OA
BRANCH  25  26
ATOM     26  C   UNL A   1      39.017  21.733  25.928  1.00  0.00     0.188 C 
BRANCH  26  27
ATOM     27  C   UNL A   1      40.408  21.891  26.572  1.00  0.00     0.188 C 
BRANCH  27  28
ATOM     28  O   UNL A   1      41.495  21.745  25.664  1.00  0.00    -0.376 OA
BRANCH  28  29
ATOM     29  C   UNL A   1      42.770  22.240  26.057  1.00  0.00     0.202 C 
BRANCH  29  30
ATOM     30  C   UNL A   1      42.801  23.563  26.839  1.00  0.00     0.261 C 
BRANCH  30  31
ATOM     31  O   UNL A   1      42.692  24.768  26.063  1.00  0.00    -0.460 OA
BRANCH  31  32
ATOM     32  C   UNL A   1      41.513  25.424  26.059  1.00  0.00     0.338 C 
ATOM     33  O   UNL A   1      40.599  25.301  25.265  1.00  0.00    -0.246 OA
BRANCH  32  34
ATOM     34  C   UNL A   1      41.442  26.208  27.306  1.00  0.00     0.060 A 
ATOM     35  C   UNL A   1      40.392  25.993  28.207  1.00  0.00     0.016 A 
ATOM     36  C   UNL A   1      42.416  27.167  27.571  1.00  0.00     0.016 A 
ATOM     37  C   UNL A   1      40.297  26.762  29.371  1.00  0.00     0.010 A 
ATOM     38  C   UNL A   1      42.311  27.940  28.730  1.00  0.00     0.010 A 
ATOM     39  C   UNL A   1      41.238  27.767  29.626  1.00  0.00    -0.014 A 
BRANCH  39  40
ATOM     40  C   UNL A   1      41.004  28.783  30.689  1.00  0.00     0.031 A 
ATOM     41  C   UNL A   1      41.901  28.743  31.903  1.00  0.00     0.074 A 
ATOM     42  C   UNL A   1      40.032  29.713  30.606  1.00  0.00     0.049 A 
ATOM     43  N   UNL A   1      41.843  29.441  33.006  1.00  0.00    -0.248 NA
ATOM     44  C   UNL A   1      42.993  27.754  31.877  1.00  0.00     0.031 C 
ATOM     45  C   UNL A   1      39.100  29.877  29.491  1.00  0.00     0.029 A 
ATOM     46  N   UNL A   1      39.660  30.695  31.493  1.00  0.00    -0.354 N 
ATOM     47  C   UNL A   1      42.867  28.954  33.811  1.00  0.00     0.074 A 
ATOM     48  C   UNL A   1      43.480  27.856  33.101  1.00  0.00     0.031 C 
ATOM     49  C   UNL A   1      38.263  30.894  29.763  1.00  0.00     0.029 A 
ATOM     50  C   UNL A   1      38.583  31.445  31.079  1.00  0.00     0.049 A 
ATOM     51  H   UNL A   1      40.125  30.848  32.348  1.00  0.00     0.167 HD
ATOM     52  C   UNL A   1      43.289  29.399  35.017  1.00  0.00     0.037 A 
ATOM     53  C   UNL A   1      37.929  32.452  31.695  1.00  0.00     0.037 A 
ATOM     54  C   UNL A   1      42.714  30.524  35.701  1.00  0.00     0.049 A 
ATOM     55  C   UNL A   1      38.405  32.926  33.048  1.00  0.00     0.074 A 
ATOM     56  C   UNL A   1      43.099  31.085  36.905  1.00  0.00     0.029 A 
ATOM     57  N   UNL A   1      41.637  31.265  35.238  1.00  0.00    -0.354 N 
ATOM     58  N   UNL A   1      39.398  32.477  33.779  1.00  0.00    -0.248 NA
ATOM     59  C   UNL A   1      37.680  34.053  33.654  1.00  0.00     0.031 C 
ATOM     60  C   UNL A   1      42.224  32.137  37.195  1.00  0.00     0.029 A 
ATOM     61  C   UNL A   1      41.335  32.271  36.141  1.00  0.00     0.049 A 
ATOM     62  H   UNL A   1      41.160  31.101  34.393  1.00  0.00     0.167 HD
ATOM     63  C   UNL A   1      39.442  33.294  34.907  1.00  0.00     0.074 A 
ATOM     64  C   UNL A   1      38.382  34.267  34.758  1.00  0.00     0.031 C 
ATOM     65  C   UNL A   1      40.287  33.246  35.968  1.00  0.00     0.037 A 
BRANCH  52  66
ATOM     66  C   UNL A   1      44.429  28.663  35.666  1.00  0.00     0.058 A 
ATOM     67  C   UNL A   1      45.769  29.004  35.418  1.00  0.00     0.135 A 
ATOM     68  C   UNL A   1      44.177  27.602  36.550  1.00  0.00     0.135 A 
ATOM     69  F   UNL A   1      46.068  29.995  34.562  1.00  0.00    -0.206 F 
ATOM     70  C   UNL A   1      46.818  28.295  35.992  1.00  0.00     0.059 A 
ATOM     71  C   UNL A   1      45.211  26.903  37.166  1.00  0.00     0.059 A 
ATOM     72  F   UNL A   1      42.916  27.232  36.821  1.00  0.00    -0.206 F 
ATOM     73  C   UNL A   1      46.529  27.246  36.865  1.00  0.00     0.060 A 
BRANCH  73  74
ATOM     74  S   UNL A   1      47.903  26.342  37.606  1.00  0.00     0.124 S 
ATOM     75  O   UNL A   1      47.198  25.310  38.362  1.00  0.00    -0.237 OA
ATOM     76  O   UNL A   1      48.636  25.876  36.433  1.00  0.00    -0.237 OA
ATOM     77  O   UNL A   1      48.583  27.353  38.408  1.00  0.00    -0.744 OA
ENDBRANCH  73  74
ENDBRANCH  52  66
BRANCH  53  78
ATOM     78  C   UNL A   1      36.763  33.110  31.036  1.00  0.00     0.058 A 
ATOM     79  C   UNL A   1      36.941  34.004  29.969  1.00  0.00     0.135 A 
ATOM     80  C   UNL A   1      35.450  32.877  31.476  1.00  0.00     0.135 A 
ATOM     81  F   UNL A   1      38.176  34.272  29.519  1.00  0.00    -0.206 F 
ATOM     82  C   UNL A   1      35.866  34.659  29.375  1.00  0.00     0.059 A 
ATOM     83  C   UNL A   1      34.356  33.499  30.880  1.00  0.00     0.059 A 
ATOM     84  F   UNL A   1      35.220  32.024  32.486  1.00  0.00    -0.206 F 
ATOM     85  C   UNL A   1      34.575  34.397  29.836  1.00  0.00     0.060 A 
BRANCH  85  86
ATOM     86  S   UNL A   1      33.184  35.215  29.023  1.00  0.00     0.124 S 
ATOM     87  O   UNL A   1      32.317  35.517  30.156  1.00  0.00    -0.237 OA
ATOM     88  O   UNL A   1      33.833  36.359  28.391  1.00  0.00    -0.237 OA
ATOM     89  O   UNL A   1      32.688  34.197  28.102  1.00  0.00    -0.744 OA
ENDBRANCH  85  86
ENDBRANCH  53  78
BRANCH  65  90
ATOM     90  C   UNL A   1      40.148  34.308  37.026  1.00  0.00     0.058 A 
ATOM     91  C   UNL A   1      40.903  35.490  37.001  1.00  0.00     0.135 A 
ATOM     92  C   UNL A   1      39.198  34.162  38.052  1.00  0.00     0.135 A 
ATOM     93  F   UNL A   1      41.825  35.683  36.044  1.00  0.00    -0.206 F 
ATOM     94  C   UNL A   1      40.744  36.476  37.971  1.00  0.00     0.059 A 
ATOM     95  C   UNL A   1      38.998  35.148  39.011  1.00  0.00     0.059 A 
ATOM     96  F   UNL A   1      38.436  33.058  38.116  1.00  0.00    -0.206 F 
ATOM     97  C   UNL A   1      39.787  36.295  38.973  1.00  0.00     0.060 A 
BRANCH  97  98
ATOM     98  S   UNL A   1      39.576  37.590  40.212  1.00  0.00     0.124 S 
ATOM     99  O   UNL A   1      39.841  36.860  41.448  1.00  0.00    -0.237 OA
ATOM    100  O   UNL A   1      40.592  38.564  39.822  1.00  0.00    -0.237 OA
ATOM    101  O   UNL A   1      38.195  38.023  40.022  1.00  0.00    -0.744 OA
ENDBRANCH  97  98
ENDBRANCH  65  90
ENDBRANCH  39  40
ENDBRANCH  32  34
ENDBRANCH  31  32
ENDBRANCH  30  31
ENDBRANCH  29  30
ENDBRANCH  28  29
ENDBRANCH  27  28
ENDBRANCH  26  27
ENDBRANCH  25  26
ENDBRANCH  24  25
ENDBRANCH   1  24
TORSDOF 29
ENDMDL
