MODEL 1
REMARK VINA RESULT:      -8.4      0.000      0.000
REMARK SMILES Cc1c(C(=O)OCCOCCOCCOCCOC(=O)c2ccc(-c3c4nc(c(-c5c(F)cc(S(=O)(=O)[O-])cc5F)c5ccc([nH]5)c(-c5c(F)cc(S(=O)(=O)[O-])cc5F)c5nc(c(-c6c(F)cc(S(=O)(=O)[O-])cc6F)c6ccc3[nH]6)C=C5)C=C4)cc2)oc2c1/C(=N/NC(=O)C(c1ccccc1)c1ccccc1)CCC2
REMARK SMILES IDX 12 1 11 2 10 3 9 4 8 5 7 6 6 7 4 8 5 9 3 10 1 11 2 12 89 13
REMARK SMILES IDX 87 14 88 15 90 16 110 17 91 18 108 19 109 20 92 21 93 22
REMARK SMILES IDX 94 24 95 25 96 26 97 27 101 28 98 29 100 30 99 31 102 32
REMARK SMILES IDX 103 33 107 34 104 35 106 36 105 37 13 38 14 39 15 40 16 41
REMARK SMILES IDX 17 42 18 43 19 44 20 45 21 46 22 47 86 48 23 49 85 50 24 51
REMARK SMILES IDX 25 52 26 53 79 54 27 55 84 56 78 57 80 58 28 59 83 60 77 61
REMARK SMILES IDX 76 62 29 64 63 65 42 66 62 67 43 68 46 69 61 70 81 71 44 72
REMARK SMILES IDX 45 73 60 75 82 76 47 77 30 78 31 79 40 80 32 81 33 82 39 83
REMARK SMILES IDX 41 84 34 85 35 86 36 87 37 88 38 89 64 90 65 91 74 92 66 93
REMARK SMILES IDX 67 94 73 95 75 96 68 97 69 98 70 99 71 100 72 101 48 102
REMARK SMILES IDX 49 103 58 104 50 105 51 106 57 107 59 108 52 109 53 110
REMARK SMILES IDX 54 111 55 112 56 113
REMARK H PARENT 92 23 80 63 46 74
REMARK Flexibility Score: inf
ROOT
ATOM      1  O   UNL A   1      35.503  24.358  25.561  1.00  0.00    -0.377 OA
ENDROOT
BRANCH   1   2
ATOM      2  C   UNL A   1      35.634  23.487  24.438  1.00  0.00     0.188 C 
BRANCH   2   3
ATOM      3  C   UNL A   1      36.861  22.573  24.214  1.00  0.00     0.188 C 
BRANCH   3   4
ATOM      4  O   UNL A   1      37.318  21.951  25.402  1.00  0.00    -0.376 OA
BRANCH   4   5
ATOM      5  C   UNL A   1      38.621  22.223  25.866  1.00  0.00     0.202 C 
BRANCH   5   6
ATOM      6  C   UNL A   1      39.427  20.943  26.065  1.00  0.00     0.261 C 
BRANCH   6   7
ATOM      7  O   UNL A   1      40.271  20.931  27.222  1.00  0.00    -0.457 OA
BRANCH   7   8
ATOM      8  C   UNL A   1      41.554  20.481  27.138  1.00  0.00     0.374 C 
ATOM      9  O   UNL A   1      41.946  19.384  27.516  1.00  0.00    -0.242 OA
BRANCH   8  10
ATOM     10  C   UNL A   1      42.287  21.443  26.346  1.00  0.00     0.215 A 
ATOM     11  C   UNL A   1      41.863  23.750  27.435  1.00  0.00     0.049 C 
ATOM     12  C   UNL A   1      42.461  22.830  26.431  1.00  0.00     0.012 A 
ATOM     13  C   UNL A   1      43.513  23.136  25.510  1.00  0.00     0.043 A 
ATOM     14  O   UNL A   1      43.156  20.920  25.427  1.00  0.00    -0.453 OA
ATOM     15  C   UNL A   1      43.922  21.927  25.003  1.00  0.00     0.114 A 
ATOM     16  C   UNL A   1      44.290  24.313  25.174  1.00  0.00     0.072 C 
ATOM     17  C   UNL A   1      45.132  21.621  24.228  1.00  0.00     0.076 C 
ATOM     18  N   UNL A   1      43.685  25.465  25.134  1.00  0.00    -0.177 NA
ATOM     19  C   UNL A   1      45.747  24.053  24.837  1.00  0.00     0.059 C 
ATOM     20  C   UNL A   1      46.222  22.596  24.686  1.00  0.00     0.014 C 
BRANCH  18  21
ATOM     21  N   UNL A   1      44.384  26.632  24.911  1.00  0.00    -0.246 N 
ATOM     22  C   UNL A   1      44.969  27.486  25.833  1.00  0.00     0.252 C 
ATOM     23  H   UNL A   1      44.481  26.895  23.966  1.00  0.00     0.193 HD
ATOM     24  O   UNL A   1      46.074  27.966  25.526  1.00  0.00    -0.272 OA
BRANCH  22  25
ATOM     25  C   UNL A   1      44.259  27.986  27.134  1.00  0.00     0.140 C 
BRANCH  25  26
ATOM     26  C   UNL A   1      42.720  27.981  26.929  1.00  0.00    -0.031 A 
ATOM     27  C   UNL A   1      41.929  27.091  27.699  1.00  0.00     0.005 A 
ATOM     28  C   UNL A   1      42.026  28.858  26.080  1.00  0.00     0.005 A 
ATOM     29  C   UNL A   1      40.543  27.232  27.804  1.00  0.00     0.000 A 
ATOM     30  C   UNL A   1      40.632  29.005  26.191  1.00  0.00     0.000 A 
ATOM     31  C   UNL A   1      39.899  28.224  27.084  1.00  0.00     0.000 A 
ENDBRANCH  25  26
BRANCH  25  32
ATOM     32  C   UNL A   1      44.994  27.363  28.334  1.00  0.00    -0.031 A 
ATOM     33  C   UNL A   1      45.175  26.000  28.588  1.00  0.00     0.005 A 
ATOM     34  C   UNL A   1      45.675  28.268  29.184  1.00  0.00     0.005 A 
ATOM     35  C   UNL A   1      46.085  25.562  29.563  1.00  0.00     0.000 A 
ATOM     36  C   UNL A   1      46.588  27.834  30.145  1.00  0.00     0.000 A 
ATOM     37  C   UNL A   1      46.813  26.476  30.317  1.00  0.00     0.000 A 
ENDBRANCH  25  32
ENDBRANCH  22  25
ENDBRANCH  18  21
ENDBRANCH   8  10
ENDBRANCH   7   8
ENDBRANCH   6   7
ENDBRANCH   5   6
ENDBRANCH   4   5
ENDBRANCH   3   4
ENDBRANCH   2   3
ENDBRANCH   1   2
BRANCH   1  38
ATOM     38  C   UNL A   1      34.218  24.784  25.993  1.00  0.00     0.188 C 
BRANCH  38  39
ATOM     39  C   UNL A   1      33.685  26.131  25.446  1.00  0.00     0.188 C 
BRANCH  39  40
ATOM     40  O   UNL A   1      33.496  27.137  26.434  1.00  0.00    -0.376 OA
BRANCH  40  41
ATOM     41  C   UNL A   1      34.154  28.386  26.336  1.00  0.00     0.202 C 
BRANCH  41  42
ATOM     42  C   UNL A   1      34.381  29.158  27.629  1.00  0.00     0.261 C 
BRANCH  42  43
ATOM     43  O   UNL A   1      35.595  29.878  27.654  1.00  0.00    -0.460 OA
BRANCH  43  44
ATOM     44  C   UNL A   1      35.986  30.291  28.871  1.00  0.00     0.338 C 
ATOM     45  O   UNL A   1      35.348  30.955  29.669  1.00  0.00    -0.246 OA
BRANCH  44  46
ATOM     46  C   UNL A   1      37.382  29.894  29.045  1.00  0.00     0.060 A 
ATOM     47  C   UNL A   1      37.607  28.891  29.984  1.00  0.00     0.016 A 
ATOM     48  C   UNL A   1      38.381  30.780  28.612  1.00  0.00     0.016 A 
ATOM     49  C   UNL A   1      38.755  28.980  30.726  1.00  0.00     0.010 A 
ATOM     50  C   UNL A   1      39.511  30.886  29.374  1.00  0.00     0.010 A 
ATOM     51  C   UNL A   1      39.620  30.053  30.480  1.00  0.00    -0.014 A 
BRANCH  51  52
ATOM     52  C   UNL A   1      40.682  30.264  31.428  1.00  0.00     0.031 A 
ATOM     53  C   UNL A   1      40.405  31.400  32.315  1.00  0.00     0.074 A 
ATOM     54  C   UNL A   1      41.744  29.443  31.496  1.00  0.00     0.049 A 
ATOM     55  N   UNL A   1      40.950  32.568  32.294  1.00  0.00    -0.248 NA
ATOM     56  C   UNL A   1      39.223  31.295  33.186  1.00  0.00     0.031 C 
ATOM     57  C   UNL A   1      41.886  28.128  30.859  1.00  0.00     0.029 A 
ATOM     58  N   UNL A   1      42.874  29.552  32.245  1.00  0.00    -0.354 N 
ATOM     59  C   UNL A   1      40.365  33.239  33.359  1.00  0.00     0.074 A 
ATOM     60  C   UNL A   1      39.158  32.529  33.683  1.00  0.00     0.031 C 
ATOM     61  C   UNL A   1      42.916  27.471  31.435  1.00  0.00     0.029 A 
ATOM     62  C   UNL A   1      43.579  28.365  32.370  1.00  0.00     0.049 A 
ATOM     63  H   UNL A   1      43.163  30.395  32.661  1.00  0.00     0.167 HD
ATOM     64  C   UNL A   1      41.112  34.079  34.122  1.00  0.00     0.037 A 
ATOM     65  C   UNL A   1      44.579  28.119  33.249  1.00  0.00     0.037 A 
ATOM     66  C   UNL A   1      42.339  34.435  33.457  1.00  0.00     0.049 A 
ATOM     67  C   UNL A   1      45.147  29.426  33.669  1.00  0.00     0.074 A 
ATOM     68  C   UNL A   1      42.699  35.238  32.399  1.00  0.00     0.029 A 
ATOM     69  N   UNL A   1      43.385  33.579  33.700  1.00  0.00    -0.354 N 
ATOM     70  N   UNL A   1      45.753  30.250  32.854  1.00  0.00    -0.248 NA
ATOM     71  C   UNL A   1      44.736  30.012  34.942  1.00  0.00     0.031 C 
ATOM     72  C   UNL A   1      43.938  34.729  31.914  1.00  0.00     0.029 A 
ATOM     73  C   UNL A   1      44.313  33.637  32.693  1.00  0.00     0.049 A 
ATOM     74  H   UNL A   1      43.457  32.999  34.492  1.00  0.00     0.167 HD
ATOM     75  C   UNL A   1      45.431  31.510  33.325  1.00  0.00     0.074 A 
ATOM     76  C   UNL A   1      44.959  31.304  34.686  1.00  0.00     0.031 C 
ATOM     77  C   UNL A   1      45.262  32.562  32.474  1.00  0.00     0.037 A 
BRANCH  64  78
ATOM     78  C   UNL A   1      40.989  34.166  35.627  1.00  0.00     0.058 A 
ATOM     79  C   UNL A   1      41.340  33.042  36.399  1.00  0.00     0.135 A 
ATOM     80  C   UNL A   1      40.264  35.172  36.307  1.00  0.00     0.135 A 
ATOM     81  F   UNL A   1      42.016  32.021  35.848  1.00  0.00    -0.206 F 
ATOM     82  C   UNL A   1      40.943  32.900  37.729  1.00  0.00     0.059 A 
ATOM     83  C   UNL A   1      39.912  35.078  37.645  1.00  0.00     0.059 A 
ATOM     84  F   UNL A   1      39.766  36.250  35.691  1.00  0.00    -0.206 F 
ATOM     85  C   UNL A   1      40.216  33.920  38.337  1.00  0.00     0.060 A 
BRANCH  85  86
ATOM     86  S   UNL A   1      39.608  33.704  40.016  1.00  0.00     0.124 S 
ATOM     87  O   UNL A   1      38.195  34.022  39.854  1.00  0.00    -0.237 OA
ATOM     88  O   UNL A   1      39.927  32.303  40.275  1.00  0.00    -0.237 OA
ATOM     89  O   UNL A   1      40.391  34.670  40.781  1.00  0.00    -0.744 OA
ENDBRANCH  85  86
ENDBRANCH  64  78
BRANCH  65  90
ATOM     90  C   UNL A   1      44.837  26.844  33.964  1.00  0.00     0.058 A 
ATOM     91  C   UNL A   1      43.786  26.056  34.460  1.00  0.00     0.135 A 
ATOM     92  C   UNL A   1      46.115  26.246  33.959  1.00  0.00     0.135 A 
ATOM     93  F   UNL A   1      42.533  26.535  34.473  1.00  0.00    -0.206 F 
ATOM     94  C   UNL A   1      43.985  24.742  34.899  1.00  0.00     0.059 A 
ATOM     95  C   UNL A   1      46.341  24.946  34.405  1.00  0.00     0.059 A 
ATOM     96  F   UNL A   1      47.176  26.881  33.439  1.00  0.00    -0.206 F 
ATOM     97  C   UNL A   1      45.267  24.191  34.854  1.00  0.00     0.060 A 
BRANCH  97  98
ATOM     98  S   UNL A   1      45.505  22.453  35.287  1.00  0.00     0.124 S 
ATOM     99  O   UNL A   1      45.501  22.503  36.745  1.00  0.00    -0.237 OA
ATOM    100  O   UNL A   1      44.346  21.820  34.666  1.00  0.00    -0.237 OA
ATOM    101  O   UNL A   1      46.792  22.125  34.679  1.00  0.00    -0.744 OA
ENDBRANCH  97  98
ENDBRANCH  65  90
BRANCH  77 102
ATOM    102  C   UNL A   1      45.981  32.525  31.157  1.00  0.00     0.058 A 
ATOM    103  C   UNL A   1      47.333  32.855  30.969  1.00  0.00     0.135 A 
ATOM    104  C   UNL A   1      45.280  32.014  30.054  1.00  0.00     0.135 A 
ATOM    105  F   UNL A   1      48.087  33.278  31.994  1.00  0.00    -0.206 F 
ATOM    106  C   UNL A   1      47.953  32.699  29.728  1.00  0.00     0.059 A 
ATOM    107  C   UNL A   1      45.886  31.822  28.817  1.00  0.00     0.059 A 
ATOM    108  F   UNL A   1      43.996  31.640  30.187  1.00  0.00    -0.206 F 
ATOM    109  C   UNL A   1      47.224  32.174  28.659  1.00  0.00     0.060 A 
BRANCH 109 110
ATOM    110  S   UNL A   1      48.051  31.876  27.082  1.00  0.00     0.124 S 
ATOM    111  O   UNL A   1      49.392  32.390  27.337  1.00  0.00    -0.237 OA
ATOM    112  O   UNL A   1      47.944  30.426  26.936  1.00  0.00    -0.237 OA
ATOM    113  O   UNL A   1      47.258  32.648  26.128  1.00  0.00    -0.744 OA
ENDBRANCH 109 110
ENDBRANCH  77 102
ENDBRANCH  51  52
ENDBRANCH  44  46
ENDBRANCH  43  44
ENDBRANCH  42  43
ENDBRANCH  41  42
ENDBRANCH  40  41
ENDBRANCH  39  40
ENDBRANCH  38  39
ENDBRANCH   1  38
TORSDOF 27
ENDMDL
MODEL 2
REMARK VINA RESULT:      -7.9      1.708      2.198
REMARK SMILES Cc1c(C(=O)OCCOCCOCCOCCOC(=O)c2ccc(-c3c4nc(c(-c5c(F)cc(S(=O)(=O)[O-])cc5F)c5ccc([nH]5)c(-c5c(F)cc(S(=O)(=O)[O-])cc5F)c5nc(c(-c6c(F)cc(S(=O)(=O)[O-])cc6F)c6ccc3[nH]6)C=C5)C=C4)cc2)oc2c1/C(=N/NC(=O)C(c1ccccc1)c1ccccc1)CCC2
REMARK SMILES IDX 12 1 11 2 10 3 9 4 8 5 7 6 6 7 4 8 5 9 3 10 1 11 2 12 89 13
REMARK SMILES IDX 87 14 88 15 90 16 110 17 91 18 108 19 109 20 92 21 93 22
REMARK SMILES IDX 94 24 95 25 96 26 97 27 101 28 98 29 100 30 99 31 102 32
REMARK SMILES IDX 103 33 107 34 104 35 106 36 105 37 13 38 14 39 15 40 16 41
REMARK SMILES IDX 17 42 18 43 19 44 20 45 21 46 22 47 86 48 23 49 85 50 24 51
REMARK SMILES IDX 25 52 26 53 79 54 27 55 84 56 78 57 80 58 28 59 83 60 77 61
REMARK SMILES IDX 76 62 29 64 63 65 42 66 62 67 43 68 46 69 61 70 81 71 44 72
REMARK SMILES IDX 45 73 60 75 82 76 47 77 30 78 31 79 40 80 32 81 33 82 39 83
REMARK SMILES IDX 41 84 34 85 35 86 36 87 37 88 38 89 64 90 65 91 74 92 66 93
REMARK SMILES IDX 67 94 73 95 75 96 68 97 69 98 70 99 71 100 72 101 48 102
REMARK SMILES IDX 49 103 58 104 50 105 51 106 57 107 59 108 52 109 53 110
REMARK SMILES IDX 54 111 55 112 56 113
REMARK H PARENT 92 23 80 63 46 74
REMARK Flexibility Score: inf
ROOT
ATOM      1  O   UNL A   1      35.175  23.895  25.604  1.00  0.00    -0.377 OA
ENDROOT
BRANCH   1   2
ATOM      2  C   UNL A   1      35.345  22.676  24.881  1.00  0.00     0.188 C 
BRANCH   2   3
ATOM      3  C   UNL A   1      36.506  21.689  25.146  1.00  0.00     0.188 C 
BRANCH   3   4
ATOM      4  O   UNL A   1      37.423  22.155  26.119  1.00  0.00    -0.376 OA
BRANCH   4   5
ATOM      5  C   UNL A   1      38.795  22.208  25.803  1.00  0.00     0.202 C 
BRANCH   5   6
ATOM      6  C   UNL A   1      39.471  20.853  25.996  1.00  0.00     0.261 C 
BRANCH   6   7
ATOM      7  O   UNL A   1      40.339  20.764  27.132  1.00  0.00    -0.457 OA
BRANCH   7   8
ATOM      8  C   UNL A   1      41.643  20.401  26.980  1.00  0.00     0.374 C 
ATOM      9  O   UNL A   1      42.108  19.302  27.257  1.00  0.00    -0.242 OA
BRANCH   8  10
ATOM     10  C   UNL A   1      42.295  21.466  26.252  1.00  0.00     0.215 A 
ATOM     11  C   UNL A   1      41.851  23.634  27.589  1.00  0.00     0.049 C 
ATOM     12  C   UNL A   1      42.424  22.843  26.467  1.00  0.00     0.012 A 
ATOM     13  C   UNL A   1      43.411  23.282  25.528  1.00  0.00     0.043 A 
ATOM     14  O   UNL A   1      43.129  21.072  25.240  1.00  0.00    -0.453 OA
ATOM     15  C   UNL A   1      43.833  22.147  24.880  1.00  0.00     0.114 A 
ATOM     16  C   UNL A   1      44.125  24.517  25.272  1.00  0.00     0.072 C 
ATOM     17  C   UNL A   1      45.007  21.969  24.015  1.00  0.00     0.076 C 
ATOM     18  N   UNL A   1      43.478  25.641  25.381  1.00  0.00    -0.177 NA
ATOM     19  C   UNL A   1      45.569  24.352  24.834  1.00  0.00     0.059 C 
ATOM     20  C   UNL A   1      46.086  22.937  24.511  1.00  0.00     0.014 C 
BRANCH  18  21
ATOM     21  N   UNL A   1      44.122  26.853  25.240  1.00  0.00    -0.246 N 
ATOM     22  C   UNL A   1      44.666  27.668  26.220  1.00  0.00     0.252 C 
ATOM     23  H   UNL A   1      44.206  27.184  24.316  1.00  0.00     0.193 HD
ATOM     24  O   UNL A   1      45.747  28.219  25.951  1.00  0.00    -0.272 OA
BRANCH  22  25
ATOM     25  C   UNL A   1      43.933  28.044  27.550  1.00  0.00     0.140 C 
BRANCH  25  26
ATOM     26  C   UNL A   1      42.397  28.045  27.323  1.00  0.00    -0.031 A 
ATOM     27  C   UNL A   1      41.582  27.226  28.146  1.00  0.00     0.005 A 
ATOM     28  C   UNL A   1      41.728  28.864  26.400  1.00  0.00     0.005 A 
ATOM     29  C   UNL A   1      40.197  27.394  28.220  1.00  0.00     0.000 A 
ATOM     30  C   UNL A   1      40.335  29.038  26.478  1.00  0.00     0.000 A 
ATOM     31  C   UNL A   1      39.578  28.337  27.416  1.00  0.00     0.000 A 
ENDBRANCH  25  26
BRANCH  25  32
ATOM     32  C   UNL A   1      44.657  27.322  28.700  1.00  0.00    -0.031 A 
ATOM     33  C   UNL A   1      45.349  27.920  29.758  1.00  0.00     0.005 A 
ATOM     34  C   UNL A   1      44.480  25.919  28.764  1.00  0.00     0.005 A 
ATOM     35  C   UNL A   1      45.736  27.174  30.881  1.00  0.00     0.000 A 
ATOM     36  C   UNL A   1      44.854  25.177  29.885  1.00  0.00     0.000 A 
ATOM     37  C   UNL A   1      45.461  25.813  30.959  1.00  0.00     0.000 A 
ENDBRANCH  25  32
ENDBRANCH  22  25
ENDBRANCH  18  21
ENDBRANCH   8  10
ENDBRANCH   7   8
ENDBRANCH   6   7
ENDBRANCH   5   6
ENDBRANCH   4   5
ENDBRANCH   3   4
ENDBRANCH   2   3
ENDBRANCH   1   2
BRANCH   1  38
ATOM     38  C   UNL A   1      33.940  24.596  25.550  1.00  0.00     0.188 C 
BRANCH  38  39
ATOM     39  C   UNL A   1      33.970  26.069  25.073  1.00  0.00     0.188 C 
BRANCH  39  40
ATOM     40  O   UNL A   1      33.622  27.020  26.073  1.00  0.00    -0.376 OA
BRANCH  40  41
ATOM     41  C   UNL A   1      33.953  28.388  25.920  1.00  0.00     0.202 C 
BRANCH  41  42
ATOM     42  C   UNL A   1      34.121  29.210  27.192  1.00  0.00     0.261 C 
BRANCH  42  43
ATOM     43  O   UNL A   1      35.290  30.002  27.205  1.00  0.00    -0.460 OA
BRANCH  43  44
ATOM     44  C   UNL A   1      35.506  30.678  28.345  1.00  0.00     0.338 C 
ATOM     45  O   UNL A   1      34.756  31.466  28.894  1.00  0.00    -0.246 OA
BRANCH  44  46
ATOM     46  C   UNL A   1      36.870  30.387  28.780  1.00  0.00     0.060 A 
ATOM     47  C   UNL A   1      37.015  29.268  29.597  1.00  0.00     0.016 A 
ATOM     48  C   UNL A   1      37.820  31.419  28.717  1.00  0.00     0.016 A 
ATOM     49  C   UNL A   1      37.956  29.339  30.589  1.00  0.00     0.010 A 
ATOM     50  C   UNL A   1      38.738  31.502  29.726  1.00  0.00     0.010 A 
ATOM     51  C   UNL A   1      38.711  30.512  30.701  1.00  0.00    -0.014 A 
BRANCH  51  52
ATOM     52  C   UNL A   1      39.511  30.662  31.888  1.00  0.00     0.031 A 
ATOM     53  C   UNL A   1      38.841  31.490  32.898  1.00  0.00     0.074 A 
ATOM     54  C   UNL A   1      40.691  30.034  32.031  1.00  0.00     0.049 A 
ATOM     55  N   UNL A   1      39.121  32.702  33.235  1.00  0.00    -0.248 NA
ATOM     56  C   UNL A   1      37.567  30.986  33.437  1.00  0.00     0.031 C 
ATOM     57  C   UNL A   1      41.223  28.952  31.193  1.00  0.00     0.029 A 
ATOM     58  N   UNL A   1      41.614  30.145  33.024  1.00  0.00    -0.354 N 
ATOM     59  C   UNL A   1      38.221  32.993  34.251  1.00  0.00     0.074 A 
ATOM     60  C   UNL A   1      37.153  32.037  34.143  1.00  0.00     0.031 C 
ATOM     61  C   UNL A   1      42.244  28.355  31.845  1.00  0.00     0.029 A 
ATOM     62  C   UNL A   1      42.519  29.096  33.066  1.00  0.00     0.049 A 
ATOM     63  H   UNL A   1      41.636  30.900  33.655  1.00  0.00     0.167 HD
ATOM     64  C   UNL A   1      38.619  33.736  35.316  1.00  0.00     0.037 A 
ATOM     65  C   UNL A   1      43.368  28.813  34.082  1.00  0.00     0.037 A 
ATOM     66  C   UNL A   1      39.845  34.438  35.033  1.00  0.00     0.049 A 
ATOM     67  C   UNL A   1      43.559  30.057  34.873  1.00  0.00     0.074 A 
ATOM     68  C   UNL A   1      40.215  35.519  34.267  1.00  0.00     0.029 A 
ATOM     69  N   UNL A   1      40.984  33.733  35.331  1.00  0.00    -0.354 N 
ATOM     70  N   UNL A   1      44.117  31.141  34.399  1.00  0.00    -0.248 NA
ATOM     71  C   UNL A   1      42.805  30.244  36.109  1.00  0.00     0.031 C 
ATOM     72  C   UNL A   1      41.602  35.353  33.985  1.00  0.00     0.029 A 
ATOM     73  C   UNL A   1      42.049  34.182  34.595  1.00  0.00     0.049 A 
ATOM     74  H   UNL A   1      41.029  33.000  35.987  1.00  0.00     0.167 HD
ATOM     75  C   UNL A   1      43.455  32.180  35.027  1.00  0.00     0.074 A 
ATOM     76  C   UNL A   1      42.793  31.579  36.174  1.00  0.00     0.031 C 
ATOM     77  C   UNL A   1      43.228  33.363  34.387  1.00  0.00     0.037 A 
BRANCH  64  78
ATOM     78  C   UNL A   1      38.204  33.438  36.739  1.00  0.00     0.058 A 
ATOM     79  C   UNL A   1      39.068  32.678  37.550  1.00  0.00     0.135 A 
ATOM     80  C   UNL A   1      36.888  33.598  37.233  1.00  0.00     0.135 A 
ATOM     81  F   UNL A   1      40.336  32.451  37.169  1.00  0.00    -0.206 F 
ATOM     82  C   UNL A   1      38.638  32.067  38.728  1.00  0.00     0.059 A 
ATOM     83  C   UNL A   1      36.457  33.050  38.432  1.00  0.00     0.059 A 
ATOM     84  F   UNL A   1      35.920  34.201  36.534  1.00  0.00    -0.206 F 
ATOM     85  C   UNL A   1      37.324  32.249  39.151  1.00  0.00     0.060 A 
BRANCH  85  86
ATOM     86  S   UNL A   1      36.728  31.383  40.611  1.00  0.00     0.124 S 
ATOM     87  O   UNL A   1      36.592  32.479  41.561  1.00  0.00    -0.237 OA
ATOM     88  O   UNL A   1      35.485  30.793  40.126  1.00  0.00    -0.237 OA
ATOM     89  O   UNL A   1      37.798  30.430  40.893  1.00  0.00    -0.744 OA
ENDBRANCH  85  86
ENDBRANCH  64  78
BRANCH  65  90
ATOM     90  C   UNL A   1      43.752  27.464  34.567  1.00  0.00     0.058 A 
ATOM     91  C   UNL A   1      42.797  26.453  34.758  1.00  0.00     0.135 A 
ATOM     92  C   UNL A   1      45.104  27.062  34.619  1.00  0.00     0.135 A 
ATOM     93  F   UNL A   1      41.488  26.743  34.694  1.00  0.00    -0.206 F 
ATOM     94  C   UNL A   1      43.159  25.116  34.959  1.00  0.00     0.059 A 
ATOM     95  C   UNL A   1      45.489  25.741  34.834  1.00  0.00     0.059 A 
ATOM     96  F   UNL A   1      46.097  27.931  34.378  1.00  0.00    -0.206 F 
ATOM     97  C   UNL A   1      44.510  24.768  34.982  1.00  0.00     0.060 A 
BRANCH  97  98
ATOM     98  S   UNL A   1      44.980  23.028  35.101  1.00  0.00     0.124 S 
ATOM     99  O   UNL A   1      43.923  22.378  34.334  1.00  0.00    -0.237 OA
ATOM    100  O   UNL A   1      46.305  23.025  34.492  1.00  0.00    -0.237 OA
ATOM    101  O   UNL A   1      44.956  22.767  36.538  1.00  0.00    -0.744 OA
ENDBRANCH  97  98
ENDBRANCH  65  90
BRANCH  77 102
ATOM    102  C   UNL A   1      44.169  33.762  33.289  1.00  0.00     0.058 A 
ATOM    103  C   UNL A   1      45.451  34.299  33.483  1.00  0.00     0.135 A 
ATOM    104  C   UNL A   1      43.783  33.469  31.971  1.00  0.00     0.135 A 
ATOM    105  F   UNL A   1      45.918  34.534  34.718  1.00  0.00    -0.206 F 
ATOM    106  C   UNL A   1      46.305  34.552  32.408  1.00  0.00     0.059 A 
ATOM    107  C   UNL A   1      44.628  33.684  30.888  1.00  0.00     0.059 A 
ATOM    108  F   UNL A   1      42.584  32.912  31.729  1.00  0.00    -0.206 F 
ATOM    109  C   UNL A   1      45.887  34.234  31.114  1.00  0.00     0.060 A 
BRANCH 109 110
ATOM    110  S   UNL A   1      47.028  34.465  29.733  1.00  0.00     0.124 S 
ATOM    111  O   UNL A   1      46.653  33.374  28.840  1.00  0.00    -0.237 OA
ATOM    112  O   UNL A   1      46.696  35.809  29.268  1.00  0.00    -0.237 OA
ATOM    113  O   UNL A   1      48.345  34.339  30.352  1.00  0.00    -0.744 OA
ENDBRANCH 109 110
ENDBRANCH  77 102
ENDBRANCH  51  52
ENDBRANCH  44  46
ENDBRANCH  43  44
ENDBRANCH  42  43
ENDBRANCH  41  42
ENDBRANCH  40  41
ENDBRANCH  39  40
ENDBRANCH  38  39
ENDBRANCH   1  38
TORSDOF 27
ENDMDL
MODEL 3
REMARK VINA RESULT:      -7.5      5.346     11.968
REMARK SMILES Cc1c(C(=O)OCCOCCOCCOCCOC(=O)c2ccc(-c3c4nc(c(-c5c(F)cc(S(=O)(=O)[O-])cc5F)c5ccc([nH]5)c(-c5c(F)cc(S(=O)(=O)[O-])cc5F)c5nc(c(-c6c(F)cc(S(=O)(=O)[O-])cc6F)c6ccc3[nH]6)C=C5)C=C4)cc2)oc2c1/C(=N/NC(=O)C(c1ccccc1)c1ccccc1)CCC2
REMARK SMILES IDX 12 1 11 2 10 3 9 4 8 5 7 6 6 7 4 8 5 9 3 10 1 11 2 12 89 13
REMARK SMILES IDX 87 14 88 15 90 16 110 17 91 18 108 19 109 20 92 21 93 22
REMARK SMILES IDX 94 24 95 25 96 26 97 27 101 28 98 29 100 30 99 31 102 32
REMARK SMILES IDX 103 33 107 34 104 35 106 36 105 37 13 38 14 39 15 40 16 41
REMARK SMILES IDX 17 42 18 43 19 44 20 45 21 46 22 47 86 48 23 49 85 50 24 51
REMARK SMILES IDX 25 52 26 53 79 54 27 55 84 56 78 57 80 58 28 59 83 60 77 61
REMARK SMILES IDX 76 62 29 64 63 65 42 66 62 67 43 68 46 69 61 70 81 71 44 72
REMARK SMILES IDX 45 73 60 75 82 76 47 77 30 78 31 79 40 80 32 81 33 82 39 83
REMARK SMILES IDX 41 84 34 85 35 86 36 87 37 88 38 89 64 90 65 91 74 92 66 93
REMARK SMILES IDX 67 94 73 95 75 96 68 97 69 98 70 99 71 100 72 101 48 102
REMARK SMILES IDX 49 103 58 104 50 105 51 106 57 107 59 108 52 109 53 110
REMARK SMILES IDX 54 111 55 112 56 113
REMARK H PARENT 92 23 80 63 46 74
REMARK Flexibility Score: inf
ROOT
ATOM      1  O   UNL A   1      46.936  38.345  27.756  1.00  0.00    -0.377 OA
ENDROOT
BRANCH   1   2
ATOM      2  C   UNL A   1      47.285  38.000  26.416  1.00  0.00     0.188 C 
BRANCH   2   3
ATOM      3  C   UNL A   1      47.154  36.567  25.850  1.00  0.00     0.188 C 
BRANCH   3   4
ATOM      4  O   UNL A   1      48.022  35.639  26.476  1.00  0.00    -0.376 OA
BRANCH   4   5
ATOM      5  C   UNL A   1      48.167  34.350  25.925  1.00  0.00     0.202 C 
BRANCH   5   6
ATOM      6  C   UNL A   1      47.406  33.303  26.733  1.00  0.00     0.261 C 
BRANCH   6   7
ATOM      7  O   UNL A   1      46.720  32.316  25.953  1.00  0.00    -0.457 OA
BRANCH   7   8
ATOM      8  C   UNL A   1      45.447  31.948  26.267  1.00  0.00     0.374 C 
ATOM      9  O   UNL A   1      45.018  30.800  26.254  1.00  0.00    -0.242 OA
BRANCH   8  10
ATOM     10  C   UNL A   1      44.791  33.118  26.805  1.00  0.00     0.215 A 
ATOM     11  C   UNL A   1      43.825  34.402  24.779  1.00  0.00     0.049 C 
ATOM     12  C   UNL A   1      44.083  34.179  26.227  1.00  0.00     0.012 A 
ATOM     13  C   UNL A   1      43.463  34.862  27.321  1.00  0.00     0.043 A 
ATOM     14  O   UNL A   1      44.639  33.144  28.166  1.00  0.00    -0.453 OA
ATOM     15  C   UNL A   1      43.789  34.136  28.440  1.00  0.00     0.114 A 
ATOM     16  C   UNL A   1      42.505  35.940  27.465  1.00  0.00     0.072 C 
ATOM     17  C   UNL A   1      43.213  34.223  29.789  1.00  0.00     0.076 C 
ATOM     18  N   UNL A   1      42.585  36.953  26.652  1.00  0.00    -0.177 NA
ATOM     19  C   UNL A   1      41.528  35.789  28.617  1.00  0.00     0.059 C 
ATOM     20  C   UNL A   1      41.750  34.650  29.629  1.00  0.00     0.014 C 
BRANCH  18  21
ATOM     21  N   UNL A   1      41.649  37.966  26.677  1.00  0.00    -0.246 N 
ATOM     22  C   UNL A   1      41.827  39.320  26.441  1.00  0.00     0.252 C 
ATOM     23  H   UNL A   1      40.729  37.688  26.892  1.00  0.00     0.193 HD
ATOM     24  O   UNL A   1      40.934  39.896  25.794  1.00  0.00    -0.272 OA
BRANCH  22  25
ATOM     25  C   UNL A   1      42.982  40.171  27.063  1.00  0.00     0.140 C 
BRANCH  25  26
ATOM     26  C   UNL A   1      43.556  41.142  25.996  1.00  0.00    -0.031 A 
ATOM     27  C   UNL A   1      44.963  41.247  25.850  1.00  0.00     0.005 A 
ATOM     28  C   UNL A   1      42.777  41.885  25.094  1.00  0.00     0.005 A 
ATOM     29  C   UNL A   1      45.550  41.847  24.734  1.00  0.00     0.000 A 
ATOM     30  C   UNL A   1      43.367  42.483  23.966  1.00  0.00     0.000 A 
ATOM     31  C   UNL A   1      44.746  42.425  23.765  1.00  0.00     0.000 A 
ENDBRANCH  25  26
BRANCH  25  32
ATOM     32  C   UNL A   1      42.551  40.573  28.484  1.00  0.00    -0.031 A 
ATOM     33  C   UNL A   1      43.345  41.189  29.457  1.00  0.00     0.005 A 
ATOM     34  C   UNL A   1      41.173  40.430  28.780  1.00  0.00     0.005 A 
ATOM     35  C   UNL A   1      42.772  41.745  30.611  1.00  0.00     0.000 A 
ATOM     36  C   UNL A   1      40.600  40.992  29.921  1.00  0.00     0.000 A 
ATOM     37  C   UNL A   1      41.400  41.674  30.827  1.00  0.00     0.000 A 
ENDBRANCH  25  32
ENDBRANCH  22  25
ENDBRANCH  18  21
ENDBRANCH   8  10
ENDBRANCH   7   8
ENDBRANCH   6   7
ENDBRANCH   5   6
ENDBRANCH   4   5
ENDBRANCH   3   4
ENDBRANCH   2   3
ENDBRANCH   1   2
BRANCH   1  38
ATOM     38  C   UNL A   1      47.763  39.221  28.511  1.00  0.00     0.188 C 
BRANCH  38  39
ATOM     39  C   UNL A   1      47.109  40.003  29.675  1.00  0.00     0.188 C 
BRANCH  39  40
ATOM     40  O   UNL A   1      47.619  39.679  30.964  1.00  0.00    -0.376 OA
BRANCH  40  41
ATOM     41  C   UNL A   1      46.750  39.313  32.019  1.00  0.00     0.202 C 
BRANCH  41  42
ATOM     42  C   UNL A   1      45.480  40.136  32.193  1.00  0.00     0.261 C 
BRANCH  42  43
ATOM     43  O   UNL A   1      44.938  40.073  33.495  1.00  0.00    -0.460 OA
BRANCH  43  44
ATOM     44  C   UNL A   1      43.700  39.556  33.571  1.00  0.00     0.338 C 
ATOM     45  O   UNL A   1      42.646  40.163  33.645  1.00  0.00    -0.246 OA
BRANCH  44  46
ATOM     46  C   UNL A   1      43.832  38.103  33.660  1.00  0.00     0.060 A 
ATOM     47  C   UNL A   1      43.341  37.388  32.571  1.00  0.00     0.016 A 
ATOM     48  C   UNL A   1      44.031  37.533  34.928  1.00  0.00     0.016 A 
ATOM     49  C   UNL A   1      42.747  36.183  32.836  1.00  0.00     0.010 A 
ATOM     50  C   UNL A   1      43.410  36.345  35.195  1.00  0.00     0.010 A 
ATOM     51  C   UNL A   1      42.690  35.751  34.166  1.00  0.00    -0.014 A 
BRANCH  51  52
ATOM     52  C   UNL A   1      41.852  34.615  34.448  1.00  0.00     0.031 A 
ATOM     53  C   UNL A   1      42.325  33.405  33.765  1.00  0.00     0.074 A 
ATOM     54  C   UNL A   1      40.816  34.694  35.300  1.00  0.00     0.049 A 
ATOM     55  N   UNL A   1      41.805  32.825  32.739  1.00  0.00    -0.248 NA
ATOM     56  C   UNL A   1      43.661  32.909  34.134  1.00  0.00     0.031 C 
ATOM     57  C   UNL A   1      40.525  35.785  36.238  1.00  0.00     0.029 A 
ATOM     58  N   UNL A   1      39.869  33.764  35.597  1.00  0.00    -0.354 N 
ATOM     59  C   UNL A   1      42.609  31.712  32.529  1.00  0.00     0.074 A 
ATOM     60  C   UNL A   1      43.846  31.961  33.216  1.00  0.00     0.031 C 
ATOM     61  C   UNL A   1      39.628  35.351  37.150  1.00  0.00     0.029 A 
ATOM     62  C   UNL A   1      39.188  34.016  36.778  1.00  0.00     0.049 A 
ATOM     63  H   UNL A   1      39.686  32.983  35.027  1.00  0.00     0.167 HD
ATOM     64  C   UNL A   1      42.050  30.537  32.140  1.00  0.00     0.037 A 
ATOM     65  C   UNL A   1      38.390  33.147  37.441  1.00  0.00     0.037 A 
ATOM     66  C   UNL A   1      40.716  30.736  31.634  1.00  0.00     0.049 A 
ATOM     67  C   UNL A   1      37.941  32.112  36.473  1.00  0.00     0.074 A 
ATOM     68  C   UNL A   1      40.156  31.263  30.493  1.00  0.00     0.029 A 
ATOM     69  N   UNL A   1      39.732  30.677  32.589  1.00  0.00    -0.354 N 
ATOM     70  N   UNL A   1      37.191  32.368  35.433  1.00  0.00    -0.248 NA
ATOM     71  C   UNL A   1      38.618  30.818  36.440  1.00  0.00     0.031 C 
ATOM     72  C   UNL A   1      38.835  31.665  30.846  1.00  0.00     0.029 A 
ATOM     73  C   UNL A   1      38.615  31.362  32.188  1.00  0.00     0.049 A 
ATOM     74  H   UNL A   1      39.818  30.206  33.449  1.00  0.00     0.167 HD
ATOM     75  C   UNL A   1      37.623  31.482  34.463  1.00  0.00     0.074 A 
ATOM     76  C   UNL A   1      38.366  30.456  35.179  1.00  0.00     0.031 C 
ATOM     77  C   UNL A   1      37.625  31.825  33.143  1.00  0.00     0.037 A 
BRANCH  64  78
ATOM     78  C   UNL A   1      42.486  29.192  32.677  1.00  0.00     0.058 A 
ATOM     79  C   UNL A   1      42.408  28.961  34.064  1.00  0.00     0.135 A 
ATOM     80  C   UNL A   1      43.250  28.254  31.945  1.00  0.00     0.135 A 
ATOM     81  F   UNL A   1      41.720  29.799  34.857  1.00  0.00    -0.206 F 
ATOM     82  C   UNL A   1      43.092  27.915  34.683  1.00  0.00     0.059 A 
ATOM     83  C   UNL A   1      43.889  27.173  32.532  1.00  0.00     0.059 A 
ATOM     84  F   UNL A   1      43.509  28.391  30.639  1.00  0.00    -0.206 F 
ATOM     85  C   UNL A   1      43.843  27.036  33.908  1.00  0.00     0.060 A 
BRANCH  85  86
ATOM     86  S   UNL A   1      44.814  25.748  34.705  1.00  0.00     0.124 S 
ATOM     87  O   UNL A   1      45.033  24.826  33.597  1.00  0.00    -0.237 OA
ATOM     88  O   UNL A   1      45.982  26.491  35.165  1.00  0.00    -0.237 OA
ATOM     89  O   UNL A   1      43.928  25.268  35.762  1.00  0.00    -0.744 OA
ENDBRANCH  85  86
ENDBRANCH  64  78
BRANCH  65  90
ATOM     90  C   UNL A   1      38.269  33.001  38.913  1.00  0.00     0.058 A 
ATOM     91  C   UNL A   1      37.023  32.810  39.532  1.00  0.00     0.135 A 
ATOM     92  C   UNL A   1      39.406  32.798  39.725  1.00  0.00     0.135 A 
ATOM     93  F   UNL A   1      35.892  32.952  38.826  1.00  0.00    -0.206 F 
ATOM     94  C   UNL A   1      36.910  32.413  40.870  1.00  0.00     0.059 A 
ATOM     95  C   UNL A   1      39.319  32.417  41.062  1.00  0.00     0.059 A 
ATOM     96  F   UNL A   1      40.645  32.881  39.218  1.00  0.00    -0.206 F 
ATOM     97  C   UNL A   1      38.067  32.206  41.623  1.00  0.00     0.060 A 
BRANCH  97  98
ATOM     98  S   UNL A   1      37.931  31.559  43.305  1.00  0.00     0.124 S 
ATOM     99  O   UNL A   1      38.503  32.646  44.092  1.00  0.00    -0.237 OA
ATOM    100  O   UNL A   1      36.492  31.360  43.442  1.00  0.00    -0.237 OA
ATOM    101  O   UNL A   1      38.726  30.335  43.263  1.00  0.00    -0.744 OA
ENDBRANCH  97  98
ENDBRANCH  65  90
BRANCH  77 102
ATOM    102  C   UNL A   1      36.647  32.865  32.683  1.00  0.00     0.058 A 
ATOM    103  C   UNL A   1      36.898  34.246  32.649  1.00  0.00     0.135 A 
ATOM    104  C   UNL A   1      35.434  32.415  32.140  1.00  0.00     0.135 A 
ATOM    105  F   UNL A   1      38.066  34.745  33.080  1.00  0.00    -0.206 F 
ATOM    106  C   UNL A   1      35.969  35.141  32.113  1.00  0.00     0.059 A 
ATOM    107  C   UNL A   1      34.508  33.284  31.574  1.00  0.00     0.059 A 
ATOM    108  F   UNL A   1      35.159  31.099  32.106  1.00  0.00    -0.206 F 
ATOM    109  C   UNL A   1      34.780  34.650  31.571  1.00  0.00     0.060 A 
BRANCH 109 110
ATOM    110  S   UNL A   1      33.624  35.794  30.786  1.00  0.00     0.124 S 
ATOM    111  O   UNL A   1      34.261  36.036  29.496  1.00  0.00    -0.237 OA
ATOM    112  O   UNL A   1      32.386  35.019  30.748  1.00  0.00    -0.237 OA
ATOM    113  O   UNL A   1      33.603  36.937  31.696  1.00  0.00    -0.744 OA
ENDBRANCH 109 110
ENDBRANCH  77 102
ENDBRANCH  51  52
ENDBRANCH  44  46
ENDBRANCH  43  44
ENDBRANCH  42  43
ENDBRANCH  41  42
ENDBRANCH  40  41
ENDBRANCH  39  40
ENDBRANCH  38  39
ENDBRANCH   1  38
TORSDOF 27
ENDMDL
