MODEL 1
REMARK VINA RESULT:      -9.2      0.000      0.000
REMARK SMILES O=C(OCCOCCOCCOCCOC(=O)c1cccnc1C(=O)Nc1ccc([N+](=O)[O-])cc1)c1ccc(-c2c3nc(c(-c4c(F)cc(S(=O)(=O)[O-])cc4F)c4ccc([nH]4)c(-c4c(F)cc(S(=O)(=O)[O-])cc4F)c4nc(c(-c5c(F)cc(S(=O)(=O)[O-])cc5F)c5ccc2[nH]5)C=C4)C=C3)cc1
REMARK SMILES IDX 9 1 8 2 7 3 6 4 5 5 4 6 3 7 2 8 1 9 36 10 37 11 101 12 38 13
REMARK SMILES IDX 100 14 39 15 40 16 41 17 94 18 42 19 99 20 93 21 95 22 43 23
REMARK SMILES IDX 98 24 92 25 91 26 44 28 78 29 57 30 77 31 58 32 61 33 76 34
REMARK SMILES IDX 96 35 59 36 60 37 75 39 97 40 62 41 45 42 46 43 55 44 47 45
REMARK SMILES IDX 48 46 54 47 56 48 49 49 50 50 51 51 52 52 53 53 79 54 80 55
REMARK SMILES IDX 89 56 81 57 82 58 88 59 90 60 83 61 84 62 85 63 86 64 87 65
REMARK SMILES IDX 63 66 64 67 73 68 65 69 66 70 72 71 74 72 67 73 68 74 69 75
REMARK SMILES IDX 70 76 71 77 10 78 11 79 12 80 13 81 14 82 15 83 16 84 17 85
REMARK SMILES IDX 18 86 19 87 23 88 20 89 22 90 21 91 24 92 25 93 26 94 27 96
REMARK SMILES IDX 28 97 35 98 29 99 34 100 30 101 31 102 32 103 33 104
REMARK H PARENT 95 27 61 38 26 95
REMARK Flexibility Score: inf
ROOT
ATOM      1  O   UNL A   1      43.518  24.776  27.905  1.00  0.00    -0.377 OA
ENDROOT
BRANCH   1   2
ATOM      2  C   UNL A   1      44.742  25.497  28.070  1.00  0.00     0.188 C 
BRANCH   2   3
ATOM      3  C   UNL A   1      45.670  24.878  29.110  1.00  0.00     0.188 C 
BRANCH   3   4
ATOM      4  O   UNL A   1      45.622  25.707  30.257  1.00  0.00    -0.376 OA
BRANCH   4   5
ATOM      5  C   UNL A   1      45.029  26.988  30.130  1.00  0.00     0.202 C 
BRANCH   5   6
ATOM      6  C   UNL A   1      45.999  28.098  30.512  1.00  0.00     0.261 C 
BRANCH   6   7
ATOM      7  O   UNL A   1      46.060  28.150  31.946  1.00  0.00    -0.460 OA
BRANCH   7   8
ATOM      8  C   UNL A   1      47.036  28.932  32.479  1.00  0.00     0.338 C 
ATOM      9  O   UNL A   1      48.200  29.016  32.140  1.00  0.00    -0.246 OA
BRANCH   8  10
ATOM     10  C   UNL A   1      46.430  29.554  33.667  1.00  0.00     0.060 A 
ATOM     11  C   UNL A   1      45.672  28.730  34.499  1.00  0.00     0.016 A 
ATOM     12  C   UNL A   1      46.476  30.925  33.888  1.00  0.00     0.016 A 
ATOM     13  C   UNL A   1      44.824  29.258  35.444  1.00  0.00     0.010 A 
ATOM     14  C   UNL A   1      45.673  31.463  34.897  1.00  0.00     0.010 A 
ATOM     15  C   UNL A   1      44.805  30.632  35.637  1.00  0.00    -0.014 A 
BRANCH  15  16
ATOM     16  C   UNL A   1      43.743  31.188  36.492  1.00  0.00     0.031 A 
ATOM     17  C   UNL A   1      44.042  31.363  37.949  1.00  0.00     0.074 A 
ATOM     18  C   UNL A   1      42.591  31.627  35.950  1.00  0.00     0.049 A 
ATOM     19  N   UNL A   1      43.221  31.580  38.937  1.00  0.00    -0.248 NA
ATOM     20  C   UNL A   1      45.460  31.280  38.350  1.00  0.00     0.031 C 
ATOM     21  C   UNL A   1      42.285  31.665  34.515  1.00  0.00     0.029 A 
ATOM     22  N   UNL A   1      41.463  32.128  36.542  1.00  0.00    -0.354 N 
ATOM     23  C   UNL A   1      44.008  31.570  40.082  1.00  0.00     0.074 A 
ATOM     24  C   UNL A   1      45.377  31.371  39.668  1.00  0.00     0.031 C 
ATOM     25  C   UNL A   1      41.048  32.154  34.341  1.00  0.00     0.029 A 
ATOM     26  C   UNL A   1      40.439  32.350  35.650  1.00  0.00     0.049 A 
ATOM     27  H   UNL A   1      41.391  32.309  37.505  1.00  0.00     0.167 HD
ATOM     28  C   UNL A   1      43.593  31.683  41.363  1.00  0.00     0.037 A 
ATOM     29  C   UNL A   1      39.135  32.588  35.880  1.00  0.00     0.037 A 
ATOM     30  C   UNL A   1      42.221  31.927  41.712  1.00  0.00     0.049 A 
ATOM     31  C   UNL A   1      38.678  32.619  37.315  1.00  0.00     0.074 A 
ATOM     32  C   UNL A   1      41.654  32.039  42.967  1.00  0.00     0.029 A 
ATOM     33  N   UNL A   1      41.199  32.101  40.787  1.00  0.00    -0.354 N 
ATOM     34  N   UNL A   1      39.399  32.519  38.410  1.00  0.00    -0.248 NA
ATOM     35  C   UNL A   1      37.238  32.754  37.552  1.00  0.00     0.031 C 
ATOM     36  C   UNL A   1      40.279  32.233  42.798  1.00  0.00     0.029 A 
ATOM     37  C   UNL A   1      39.998  32.289  41.440  1.00  0.00     0.049 A 
ATOM     38  H   UNL A   1      41.316  32.091  39.810  1.00  0.00     0.167 HD
ATOM     39  C   UNL A   1      38.498  32.579  39.465  1.00  0.00     0.074 A 
ATOM     40  C   UNL A   1      37.185  32.758  38.877  1.00  0.00     0.031 C 
ATOM     41  C   UNL A   1      38.721  32.481  40.799  1.00  0.00     0.037 A 
BRANCH  28  42
ATOM     42  C   UNL A   1      44.599  31.457  42.453  1.00  0.00     0.058 A 
ATOM     43  C   UNL A   1      44.851  30.191  43.000  1.00  0.00     0.135 A 
ATOM     44  C   UNL A   1      45.346  32.543  42.940  1.00  0.00     0.135 A 
ATOM     45  F   UNL A   1      44.139  29.127  42.598  1.00  0.00    -0.206 F 
ATOM     46  C   UNL A   1      45.809  30.009  43.993  1.00  0.00     0.059 A 
ATOM     47  C   UNL A   1      46.323  32.381  43.916  1.00  0.00     0.059 A 
ATOM     48  F   UNL A   1      45.127  33.779  42.466  1.00  0.00    -0.206 F 
ATOM     49  C   UNL A   1      46.546  31.109  44.440  1.00  0.00     0.060 A 
BRANCH  49  50
ATOM     50  S   UNL A   1      47.814  30.850  45.700  1.00  0.00     0.124 S 
ATOM     51  O   UNL A   1      48.590  32.081  45.590  1.00  0.00    -0.237 OA
ATOM     52  O   UNL A   1      47.019  30.709  46.915  1.00  0.00    -0.237 OA
ATOM     53  O   UNL A   1      48.495  29.638  45.254  1.00  0.00    -0.744 OA
ENDBRANCH  49  50
ENDBRANCH  28  42
BRANCH  29  54
ATOM     54  C   UNL A   1      38.163  32.674  34.754  1.00  0.00     0.058 A 
ATOM     55  C   UNL A   1      37.599  31.521  34.191  1.00  0.00     0.135 A 
ATOM     56  C   UNL A   1      37.806  33.912  34.193  1.00  0.00     0.135 A 
ATOM     57  F   UNL A   1      37.906  30.313  34.686  1.00  0.00    -0.206 F 
ATOM     58  C   UNL A   1      36.749  31.588  33.090  1.00  0.00     0.059 A 
ATOM     59  C   UNL A   1      36.931  34.008  33.116  1.00  0.00     0.059 A 
ATOM     60  F   UNL A   1      38.304  35.052  34.697  1.00  0.00    -0.206 F 
ATOM     61  C   UNL A   1      36.427  32.838  32.556  1.00  0.00     0.060 A 
BRANCH  61  62
ATOM     62  S   UNL A   1      35.335  32.915  31.120  1.00  0.00     0.124 S 
ATOM     63  O   UNL A   1      34.021  32.868  31.752  1.00  0.00    -0.237 OA
ATOM     64  O   UNL A   1      35.709  34.191  30.519  1.00  0.00    -0.237 OA
ATOM     65  O   UNL A   1      35.709  31.733  30.350  1.00  0.00    -0.744 OA
ENDBRANCH  61  62
ENDBRANCH  29  54
BRANCH  41  66
ATOM     66  C   UNL A   1      37.526  32.584  41.696  1.00  0.00     0.058 A 
ATOM     67  C   UNL A   1      36.959  33.826  42.014  1.00  0.00     0.135 A 
ATOM     68  C   UNL A   1      36.895  31.423  42.169  1.00  0.00     0.135 A 
ATOM     69  F   UNL A   1      37.538  34.962  41.591  1.00  0.00    -0.206 F 
ATOM     70  C   UNL A   1      35.805  33.916  42.781  1.00  0.00     0.059 A 
ATOM     71  C   UNL A   1      35.725  31.489  42.914  1.00  0.00     0.059 A 
ATOM     72  F   UNL A   1      37.399  30.213  41.880  1.00  0.00    -0.206 F 
ATOM     73  C   UNL A   1      35.192  32.740  43.219  1.00  0.00     0.060 A 
BRANCH  73  74
ATOM     74  S   UNL A   1      33.656  32.869  44.155  1.00  0.00     0.124 S 
ATOM     75  O   UNL A   1      33.531  31.520  44.698  1.00  0.00    -0.237 OA
ATOM     76  O   UNL A   1      33.967  33.917  45.124  1.00  0.00    -0.237 OA
ATOM     77  O   UNL A   1      32.670  33.233  43.142  1.00  0.00    -0.744 OA
ENDBRANCH  73  74
ENDBRANCH  41  66
ENDBRANCH  15  16
ENDBRANCH   8  10
ENDBRANCH   7   8
ENDBRANCH   6   7
ENDBRANCH   5   6
ENDBRANCH   4   5
ENDBRANCH   3   4
ENDBRANCH   2   3
ENDBRANCH   1   2
BRANCH   1  78
ATOM     78  C   UNL A   1      42.513  25.342  27.053  1.00  0.00     0.188 C 
BRANCH  78  79
ATOM     79  C   UNL A   1      41.034  25.272  27.493  1.00  0.00     0.188 C 
BRANCH  79  80
ATOM     80  O   UNL A   1      40.186  24.528  26.629  1.00  0.00    -0.376 OA
BRANCH  80  81
ATOM     81  C   UNL A   1      38.876  24.227  27.122  1.00  0.00     0.202 C 
BRANCH  81  82
ATOM     82  C   UNL A   1      37.793  24.028  25.902  1.00  0.00     0.261 C 
BRANCH  82  83
ATOM     83  O   UNL A   1      35.800  23.756  25.982  1.00  0.00    -0.460 OA
BRANCH  83  84
ATOM     84  C   UNL A   1      34.484  23.230  26.267  1.00  0.00     0.340 C 
ATOM     85  O   UNL A   1      34.263  22.691  27.349  1.00  0.00    -0.246 OA
BRANCH  84  86
ATOM     86  C   UNL A   1      33.378  23.146  25.231  1.00  0.00     0.091 A 
ATOM     87  C   UNL A   1      33.799  22.695  23.967  1.00  0.00     0.020 A 
ATOM     88  C   UNL A   1      32.025  23.517  25.342  1.00  0.00     0.142 A 
ATOM     89  C   UNL A   1      32.917  22.666  22.885  1.00  0.00     0.021 A 
ATOM     90  N   UNL A   1      31.156  23.486  24.279  1.00  0.00    -0.250 NA
ATOM     91  C   UNL A   1      31.615  23.074  23.086  1.00  0.00     0.112 A 
BRANCH  88  92
ATOM     92  C   UNL A   1      31.333  24.030  26.574  1.00  0.00     0.275 C 
ATOM     93  O   UNL A   1      31.198  23.318  27.569  1.00  0.00    -0.267 OA
ATOM     94  N   UNL A   1      30.864  25.313  26.620  1.00  0.00    -0.321 N 
ATOM     95  H   UNL A   1      30.502  25.643  27.474  1.00  0.00     0.170 HD
BRANCH  94  96
ATOM     96  C   UNL A   1      30.866  26.175  25.538  1.00  0.00     0.042 A 
ATOM     97  C   UNL A   1      29.378  26.071  24.511  1.00  0.00     0.033 A 
ATOM     98  C   UNL A   1      31.904  27.676  25.507  1.00  0.00     0.033 A 
ATOM     99  C   UNL A   1      28.908  27.469  23.501  1.00  0.00     0.088 A 
ATOM    100  C   UNL A   1      31.387  29.091  24.508  1.00  0.00     0.088 A 
ATOM    101  C   UNL A   1      29.903  28.964  23.520  1.00  0.00     0.269 A 
BRANCH 101 102
ATOM    102  N   UNL A   1      29.625  30.002  22.555  1.00  0.00     0.062 N 
ATOM    103  O   UNL A   1      29.181  31.071  22.985  1.00  0.00    -0.258 OA
ATOM    104  O   UNL A   1      29.795  29.719  21.362  1.00  0.00    -0.258 OA
ENDBRANCH 101 102
ENDBRANCH  94  96
ENDBRANCH  88  92
ENDBRANCH  84  86
ENDBRANCH  83  84
ENDBRANCH  82  83
ENDBRANCH  81  82
ENDBRANCH  80  81
ENDBRANCH  79  80
ENDBRANCH  78  79
ENDBRANCH   1  78
TORSDOF 26
ENDMDL
MODEL 2
REMARK VINA RESULT:      -9.1      5.777     14.915
REMARK SMILES O=C(OCCOCCOCCOCCOC(=O)c1cccnc1C(=O)Nc1ccc([N+](=O)[O-])cc1)c1ccc(-c2c3nc(c(-c4c(F)cc(S(=O)(=O)[O-])cc4F)c4ccc([nH]4)c(-c4c(F)cc(S(=O)(=O)[O-])cc4F)c4nc(c(-c5c(F)cc(S(=O)(=O)[O-])cc5F)c5ccc2[nH]5)C=C4)C=C3)cc1
REMARK SMILES IDX 9 1 8 2 7 3 6 4 5 5 4 6 3 7 2 8 1 9 36 10 37 11 101 12 38 13
REMARK SMILES IDX 100 14 39 15 40 16 41 17 94 18 42 19 99 20 93 21 95 22 43 23
REMARK SMILES IDX 98 24 92 25 91 26 44 28 78 29 57 30 77 31 58 32 61 33 76 34
REMARK SMILES IDX 96 35 59 36 60 37 75 39 97 40 62 41 45 42 46 43 55 44 47 45
REMARK SMILES IDX 48 46 54 47 56 48 49 49 50 50 51 51 52 52 53 53 79 54 80 55
REMARK SMILES IDX 89 56 81 57 82 58 88 59 90 60 83 61 84 62 85 63 86 64 87 65
REMARK SMILES IDX 63 66 64 67 73 68 65 69 66 70 72 71 74 72 67 73 68 74 69 75
REMARK SMILES IDX 70 76 71 77 10 78 11 79 12 80 13 81 14 82 15 83 16 84 17 85
REMARK SMILES IDX 18 86 19 87 23 88 20 89 22 90 21 91 24 92 25 93 26 94 27 96
REMARK SMILES IDX 28 97 35 98 29 99 34 100 30 101 31 102 32 103 33 104
REMARK H PARENT 95 27 61 38 26 95
REMARK Flexibility Score: inf
ROOT
ATOM      1  O   UNL A   1      36.472  35.006  33.302  1.00  0.00    -0.377 OA
ENDROOT
BRANCH   1   2
ATOM      2  C   UNL A   1      35.183  35.334  33.823  1.00  0.00     0.188 C 
BRANCH   2   3
ATOM      3  C   UNL A   1      34.034  34.773  32.989  1.00  0.00     0.188 C 
BRANCH   3   4
ATOM      4  O   UNL A   1      34.539  33.652  32.288  1.00  0.00    -0.376 OA
BRANCH   4   5
ATOM      5  C   UNL A   1      34.570  33.707  30.872  1.00  0.00     0.202 C 
BRANCH   5   6
ATOM      6  C   UNL A   1      34.727  32.323  30.258  1.00  0.00     0.261 C 
BRANCH   6   7
ATOM      7  O   UNL A   1      34.637  32.465  28.832  1.00  0.00    -0.460 OA
BRANCH   7   8
ATOM      8  C   UNL A   1      34.632  31.313  28.111  1.00  0.00     0.338 C 
ATOM      9  O   UNL A   1      33.687  30.766  27.576  1.00  0.00    -0.246 OA
BRANCH   8  10
ATOM     10  C   UNL A   1      35.993  30.768  28.238  1.00  0.00     0.060 A 
ATOM     11  C   UNL A   1      36.112  29.459  28.705  1.00  0.00     0.016 A 
ATOM     12  C   UNL A   1      37.123  31.552  28.048  1.00  0.00     0.016 A 
ATOM     13  C   UNL A   1      37.316  28.968  29.148  1.00  0.00     0.010 A 
ATOM     14  C   UNL A   1      38.364  31.032  28.426  1.00  0.00     0.010 A 
ATOM     15  C   UNL A   1      38.451  29.759  29.029  1.00  0.00    -0.014 A 
BRANCH  15  16
ATOM     16  C   UNL A   1      39.678  29.303  29.702  1.00  0.00     0.031 A 
ATOM     17  C   UNL A   1      40.138  30.065  30.906  1.00  0.00     0.074 A 
ATOM     18  C   UNL A   1      40.291  28.170  29.307  1.00  0.00     0.049 A 
ATOM     19  N   UNL A   1      41.292  30.035  31.509  1.00  0.00    -0.248 NA
ATOM     20  C   UNL A   1      39.164  30.994  31.514  1.00  0.00     0.031 C 
ATOM     21  C   UNL A   1      39.809  27.263  28.259  1.00  0.00     0.029 A 
ATOM     22  N   UNL A   1      41.450  27.587  29.743  1.00  0.00    -0.354 N 
ATOM     23  C   UNL A   1      41.215  30.998  32.507  1.00  0.00     0.074 A 
ATOM     24  C   UNL A   1      39.890  31.568  32.462  1.00  0.00     0.031 C 
ATOM     25  C   UNL A   1      40.672  26.243  28.130  1.00  0.00     0.029 A 
ATOM     26  C   UNL A   1      41.816  26.490  28.997  1.00  0.00     0.049 A 
ATOM     27  H   UNL A   1      41.969  27.918  30.510  1.00  0.00     0.167 HD
ATOM     28  C   UNL A   1      42.196  31.380  33.354  1.00  0.00     0.037 A 
ATOM     29  C   UNL A   1      42.986  25.828  28.959  1.00  0.00     0.037 A 
ATOM     30  C   UNL A   1      43.484  30.744  33.383  1.00  0.00     0.049 A 
ATOM     31  C   UNL A   1      44.096  26.330  29.846  1.00  0.00     0.074 A 
ATOM     32  C   UNL A   1      44.579  31.043  34.169  1.00  0.00     0.029 A 
ATOM     33  N   UNL A   1      43.840  29.666  32.583  1.00  0.00    -0.354 N 
ATOM     34  N   UNL A   1      44.067  27.302  30.731  1.00  0.00    -0.248 NA
ATOM     35  C   UNL A   1      45.403  25.682  29.706  1.00  0.00     0.031 C 
ATOM     36  C   UNL A   1      45.615  30.174  33.807  1.00  0.00     0.029 A 
ATOM     37  C   UNL A   1      45.149  29.305  32.831  1.00  0.00     0.049 A 
ATOM     38  H   UNL A   1      43.246  29.225  31.933  1.00  0.00     0.167 HD
ATOM     39  C   UNL A   1      45.351  27.379  31.253  1.00  0.00     0.074 A 
ATOM     40  C   UNL A   1      46.122  26.335  30.609  1.00  0.00     0.031 C 
ATOM     41  C   UNL A   1      45.860  28.241  32.168  1.00  0.00     0.037 A 
BRANCH  28  42
ATOM     42  C   UNL A   1      41.948  32.573  34.229  1.00  0.00     0.058 A 
ATOM     43  C   UNL A   1      42.249  33.882  33.828  1.00  0.00     0.135 A 
ATOM     44  C   UNL A   1      41.366  32.392  35.495  1.00  0.00     0.135 A 
ATOM     45  F   UNL A   1      42.839  34.109  32.644  1.00  0.00    -0.206 F 
ATOM     46  C   UNL A   1      41.981  34.972  34.653  1.00  0.00     0.059 A 
ATOM     47  C   UNL A   1      41.071  33.467  36.327  1.00  0.00     0.059 A 
ATOM     48  F   UNL A   1      41.080  31.157  35.936  1.00  0.00    -0.206 F 
ATOM     49  C   UNL A   1      41.386  34.755  35.898  1.00  0.00     0.060 A 
BRANCH  49  50
ATOM     50  S   UNL A   1      41.009  36.181  36.940  1.00  0.00     0.124 S 
ATOM     51  O   UNL A   1      39.737  36.624  36.379  1.00  0.00    -0.237 OA
ATOM     52  O   UNL A   1      40.943  35.584  38.270  1.00  0.00    -0.237 OA
ATOM     53  O   UNL A   1      42.139  37.077  36.713  1.00  0.00    -0.744 OA
ENDBRANCH  49  50
ENDBRANCH  28  42
BRANCH  29  54
ATOM     54  C   UNL A   1      43.214  24.734  27.975  1.00  0.00     0.058 A 
ATOM     55  C   UNL A   1      42.942  23.397  28.297  1.00  0.00     0.135 A 
ATOM     56  C   UNL A   1      43.748  24.999  26.702  1.00  0.00     0.135 A 
ATOM     57  F   UNL A   1      42.435  23.086  29.499  1.00  0.00    -0.206 F 
ATOM     58  C   UNL A   1      43.224  22.361  27.409  1.00  0.00     0.059 A 
ATOM     59  C   UNL A   1      44.004  23.985  25.784  1.00  0.00     0.059 A 
ATOM     60  F   UNL A   1      44.017  26.261  26.332  1.00  0.00    -0.206 F 
ATOM     61  C   UNL A   1      43.762  22.667  26.157  1.00  0.00     0.060 A 
BRANCH  61  62
ATOM     62  S   UNL A   1      44.137  21.317  25.019  1.00  0.00     0.124 S 
ATOM     63  O   UNL A   1      44.056  21.994  23.729  1.00  0.00    -0.237 OA
ATOM     64  O   UNL A   1      45.473  20.917  25.448  1.00  0.00    -0.237 OA
ATOM     65  O   UNL A   1      43.080  20.346  25.291  1.00  0.00    -0.744 OA
ENDBRANCH  61  62
ENDBRANCH  29  54
BRANCH  41  66
ATOM     66  C   UNL A   1      47.304  28.069  32.530  1.00  0.00     0.058 A 
ATOM     67  C   UNL A   1      48.311  28.783  31.865  1.00  0.00     0.135 A 
ATOM     68  C   UNL A   1      47.670  27.248  33.608  1.00  0.00     0.135 A 
ATOM     69  F   UNL A   1      48.006  29.571  30.822  1.00  0.00    -0.206 F 
ATOM     70  C   UNL A   1      49.641  28.683  32.253  1.00  0.00     0.059 A 
ATOM     71  C   UNL A   1      48.989  27.154  34.030  1.00  0.00     0.059 A 
ATOM     72  F   UNL A   1      46.736  26.554  34.278  1.00  0.00    -0.206 F 
ATOM     73  C   UNL A   1      49.968  27.872  33.343  1.00  0.00     0.060 A 
BRANCH  73  74
ATOM     74  S   UNL A   1      51.687  27.804  33.879  1.00  0.00     0.124 S 
ATOM     75  O   UNL A   1      52.304  28.802  33.011  1.00  0.00    -0.237 OA
ATOM     76  O   UNL A   1      51.589  28.165  35.291  1.00  0.00    -0.237 OA
ATOM     77  O   UNL A   1      52.071  26.420  33.618  1.00  0.00    -0.744 OA
ENDBRANCH  73  74
ENDBRANCH  41  66
ENDBRANCH  15  16
ENDBRANCH   8  10
ENDBRANCH   7   8
ENDBRANCH   6   7
ENDBRANCH   5   6
ENDBRANCH   4   5
ENDBRANCH   3   4
ENDBRANCH   2   3
ENDBRANCH   1   2
BRANCH   1  78
ATOM     78  C   UNL A   1      37.437  34.439  34.198  1.00  0.00     0.188 C 
BRANCH  78  79
ATOM     79  C   UNL A   1      37.030  33.227  35.065  1.00  0.00     0.188 C 
BRANCH  79  80
ATOM     80  O   UNL A   1      36.620  33.547  36.388  1.00  0.00    -0.376 OA
BRANCH  80  81
ATOM     81  C   UNL A   1      37.254  32.821  37.447  1.00  0.00     0.202 C 
BRANCH  81  82
ATOM     82  C   UNL A   1      38.226  33.786  38.356  1.00  0.00     0.261 C 
BRANCH  82  83
ATOM     83  O   UNL A   1      38.069  34.313  40.291  1.00  0.00    -0.460 OA
BRANCH  83  84
ATOM     84  C   UNL A   1      37.776  34.316  41.707  1.00  0.00     0.340 C 
ATOM     85  O   UNL A   1      37.489  35.371  42.269  1.00  0.00    -0.246 OA
BRANCH  84  86
ATOM     86  C   UNL A   1      37.968  33.104  42.600  1.00  0.00     0.091 A 
ATOM     87  C   UNL A   1      38.892  33.293  43.645  1.00  0.00     0.020 A 
ATOM     88  C   UNL A   1      37.409  31.818  42.487  1.00  0.00     0.142 A 
ATOM     89  C   UNL A   1      39.252  32.237  44.484  1.00  0.00     0.021 A 
ATOM     90  N   UNL A   1      37.760  30.779  43.314  1.00  0.00    -0.250 NA
ATOM     91  C   UNL A   1      38.668  31.005  44.278  1.00  0.00     0.112 A 
BRANCH  88  92
ATOM     92  C   UNL A   1      36.408  31.361  41.462  1.00  0.00     0.275 C 
ATOM     93  O   UNL A   1      36.772  30.930  40.368  1.00  0.00    -0.267 OA
ATOM     94  N   UNL A   1      35.071  31.391  41.740  1.00  0.00    -0.321 N 
ATOM     95  H   UNL A   1      34.453  30.997  41.083  1.00  0.00     0.170 HD
BRANCH  94  96
ATOM     96  C   UNL A   1      34.533  31.943  42.889  1.00  0.00     0.042 A 
ATOM     97  C   UNL A   1      33.527  33.419  42.595  1.00  0.00     0.033 A 
ATOM     98  C   UNL A   1      34.308  30.963  44.413  1.00  0.00     0.033 A 
ATOM     99  C   UNL A   1      32.278  33.883  43.787  1.00  0.00     0.088 A 
ATOM    100  C   UNL A   1      33.012  31.429  45.583  1.00  0.00     0.088 A 
ATOM    101  C   UNL A   1      32.023  32.882  45.255  1.00  0.00     0.269 A 
BRANCH 101 102
ATOM    102  N   UNL A   1      31.155  33.376  46.298  1.00  0.00     0.062 N 
ATOM    103  O   UNL A   1      29.976  33.011  46.274  1.00  0.00    -0.258 OA
ATOM    104  O   UNL A   1      31.647  34.179  47.103  1.00  0.00    -0.258 OA
ENDBRANCH 101 102
ENDBRANCH  94  96
ENDBRANCH  88  92
ENDBRANCH  84  86
ENDBRANCH  83  84
ENDBRANCH  82  83
ENDBRANCH  81  82
ENDBRANCH  80  81
ENDBRANCH  79  80
ENDBRANCH  78  79
ENDBRANCH   1  78
TORSDOF 26
ENDMDL
MODEL 3
REMARK VINA RESULT:      -9.1      7.175     13.337
REMARK SMILES O=C(OCCOCCOCCOCCOC(=O)c1cccnc1C(=O)Nc1ccc([N+](=O)[O-])cc1)c1ccc(-c2c3nc(c(-c4c(F)cc(S(=O)(=O)[O-])cc4F)c4ccc([nH]4)c(-c4c(F)cc(S(=O)(=O)[O-])cc4F)c4nc(c(-c5c(F)cc(S(=O)(=O)[O-])cc5F)c5ccc2[nH]5)C=C4)C=C3)cc1
REMARK SMILES IDX 9 1 8 2 7 3 6 4 5 5 4 6 3 7 2 8 1 9 36 10 37 11 101 12 38 13
REMARK SMILES IDX 100 14 39 15 40 16 41 17 94 18 42 19 99 20 93 21 95 22 43 23
REMARK SMILES IDX 98 24 92 25 91 26 44 28 78 29 57 30 77 31 58 32 61 33 76 34
REMARK SMILES IDX 96 35 59 36 60 37 75 39 97 40 62 41 45 42 46 43 55 44 47 45
REMARK SMILES IDX 48 46 54 47 56 48 49 49 50 50 51 51 52 52 53 53 79 54 80 55
REMARK SMILES IDX 89 56 81 57 82 58 88 59 90 60 83 61 84 62 85 63 86 64 87 65
REMARK SMILES IDX 63 66 64 67 73 68 65 69 66 70 72 71 74 72 67 73 68 74 69 75
REMARK SMILES IDX 70 76 71 77 10 78 11 79 12 80 13 81 14 82 15 83 16 84 17 85
REMARK SMILES IDX 18 86 19 87 23 88 20 89 22 90 21 91 24 92 25 93 26 94 27 96
REMARK SMILES IDX 28 97 35 98 29 99 34 100 30 101 31 102 32 103 33 104
REMARK H PARENT 95 27 61 38 26 95
REMARK Flexibility Score: inf
ROOT
ATOM      1  O   UNL A   1      43.757  39.644  29.135  1.00  0.00    -0.377 OA
ENDROOT
BRANCH   1   2
ATOM      2  C   UNL A   1      42.957  40.457  29.995  1.00  0.00     0.188 C 
BRANCH   2   3
ATOM      3  C   UNL A   1      43.516  41.865  30.185  1.00  0.00     0.188 C 
BRANCH   3   4
ATOM      4  O   UNL A   1      43.196  42.263  31.506  1.00  0.00    -0.376 OA
BRANCH   4   5
ATOM      5  C   UNL A   1      43.873  43.384  32.048  1.00  0.00     0.202 C 
BRANCH   5   6
ATOM      6  C   UNL A   1      44.726  43.000  33.249  1.00  0.00     0.261 C 
BRANCH   6   7
ATOM      7  O   UNL A   1      45.980  42.504  32.754  1.00  0.00    -0.460 OA
BRANCH   7   8
ATOM      8  C   UNL A   1      46.777  41.875  33.657  1.00  0.00     0.338 C 
ATOM      9  O   UNL A   1      47.297  42.340  34.653  1.00  0.00    -0.246 OA
BRANCH   8  10
ATOM     10  C   UNL A   1      47.015  40.534  33.100  1.00  0.00     0.060 A 
ATOM     11  C   UNL A   1      46.443  40.252  31.858  1.00  0.00     0.016 A 
ATOM     12  C   UNL A   1      47.649  39.534  33.825  1.00  0.00     0.016 A 
ATOM     13  C   UNL A   1      46.341  38.961  31.398  1.00  0.00     0.010 A 
ATOM     14  C   UNL A   1      47.616  38.228  33.327  1.00  0.00     0.010 A 
ATOM     15  C   UNL A   1      46.912  37.935  32.140  1.00  0.00    -0.014 A 
BRANCH  15  16
ATOM     16  C   UNL A   1      46.605  36.551  31.743  1.00  0.00     0.031 A 
ATOM     17  C   UNL A   1      47.446  35.932  30.669  1.00  0.00     0.074 A 
ATOM     18  C   UNL A   1      45.675  35.841  32.409  1.00  0.00     0.049 A 
ATOM     19  N   UNL A   1      47.228  34.854  29.972  1.00  0.00    -0.248 NA
ATOM     20  C   UNL A   1      48.706  36.624  30.332  1.00  0.00     0.031 C 
ATOM     21  C   UNL A   1      44.934  36.303  33.589  1.00  0.00     0.029 A 
ATOM     22  N   UNL A   1      45.196  34.577  32.192  1.00  0.00    -0.354 N 
ATOM     23  C   UNL A   1      48.271  34.785  29.057  1.00  0.00     0.074 A 
ATOM     24  C   UNL A   1      49.148  35.903  29.312  1.00  0.00     0.031 C 
ATOM     25  C   UNL A   1      44.089  35.339  33.983  1.00  0.00     0.029 A 
ATOM     26  C   UNL A   1      44.147  34.248  33.019  1.00  0.00     0.049 A 
ATOM     27  H   UNL A   1      45.562  33.967  31.513  1.00  0.00     0.167 HD
ATOM     28  C   UNL A   1      48.440  33.875  28.073  1.00  0.00     0.037 A 
ATOM     29  C   UNL A   1      43.275  33.226  32.938  1.00  0.00     0.037 A 
ATOM     30  C   UNL A   1      47.557  32.755  27.896  1.00  0.00     0.049 A 
ATOM     31  C   UNL A   1      43.427  32.276  31.779  1.00  0.00     0.074 A 
ATOM     32  C   UNL A   1      47.593  31.770  26.929  1.00  0.00     0.029 A 
ATOM     33  N   UNL A   1      46.476  32.475  28.722  1.00  0.00    -0.354 N 
ATOM     34  N   UNL A   1      44.357  32.253  30.850  1.00  0.00    -0.248 NA
ATOM     35  C   UNL A   1      42.399  31.242  31.628  1.00  0.00     0.031 C 
ATOM     36  C   UNL A   1      46.501  30.922  27.143  1.00  0.00     0.029 A 
ATOM     37  C   UNL A   1      45.816  31.351  28.271  1.00  0.00     0.049 A 
ATOM     38  H   UNL A   1      46.219  33.002  29.513  1.00  0.00     0.167 HD
ATOM     39  C   UNL A   1      44.025  31.202  30.006  1.00  0.00     0.074 A 
ATOM     40  C   UNL A   1      42.829  30.594  30.554  1.00  0.00     0.031 C 
ATOM     41  C   UNL A   1      44.636  30.780  28.871  1.00  0.00     0.037 A 
BRANCH  28  42
ATOM     42  C   UNL A   1      49.542  34.104  27.081  1.00  0.00     0.058 A 
ATOM     43  C   UNL A   1      49.334  34.745  25.852  1.00  0.00     0.135 A 
ATOM     44  C   UNL A   1      50.848  33.690  27.392  1.00  0.00     0.135 A 
ATOM     45  F   UNL A   1      48.100  35.129  25.489  1.00  0.00    -0.206 F 
ATOM     46  C   UNL A   1      50.383  34.967  24.965  1.00  0.00     0.059 A 
ATOM     47  C   UNL A   1      51.915  33.918  26.530  1.00  0.00     0.059 A 
ATOM     48  F   UNL A   1      51.096  33.050  28.546  1.00  0.00    -0.206 F 
ATOM     49  C   UNL A   1      51.672  34.556  25.315  1.00  0.00     0.060 A 
BRANCH  49  50
ATOM     50  S   UNL A   1      53.029  34.886  24.170  1.00  0.00     0.124 S 
ATOM     51  O   UNL A   1      54.173  34.376  24.919  1.00  0.00    -0.237 OA
ATOM     52  O   UNL A   1      52.642  34.109  22.998  1.00  0.00    -0.237 OA
ATOM     53  O   UNL A   1      52.987  36.335  24.001  1.00  0.00    -0.744 OA
ENDBRANCH  49  50
ENDBRANCH  28  42
BRANCH  29  54
ATOM     54  C   UNL A   1      42.123  33.128  33.877  1.00  0.00     0.058 A 
ATOM     55  C   UNL A   1      42.170  32.291  35.001  1.00  0.00     0.135 A 
ATOM     56  C   UNL A   1      40.933  33.840  33.647  1.00  0.00     0.135 A 
ATOM     57  F   UNL A   1      43.279  31.586  35.267  1.00  0.00    -0.206 F 
ATOM     58  C   UNL A   1      41.070  32.135  35.840  1.00  0.00     0.059 A 
ATOM     59  C   UNL A   1      39.833  33.729  34.492  1.00  0.00     0.059 A 
ATOM     60  F   UNL A   1      40.833  34.666  32.594  1.00  0.00    -0.206 F 
ATOM     61  C   UNL A   1      39.903  32.855  35.572  1.00  0.00     0.060 A 
BRANCH  61  62
ATOM     62  S   UNL A   1      38.478  32.637  36.658  1.00  0.00     0.124 S 
ATOM     63  O   UNL A   1      37.757  31.565  35.979  1.00  0.00    -0.237 OA
ATOM     64  O   UNL A   1      39.109  32.280  37.924  1.00  0.00    -0.237 OA
ATOM     65  O   UNL A   1      37.834  33.947  36.633  1.00  0.00    -0.744 OA
ENDBRANCH  61  62
ENDBRANCH  29  54
BRANCH  41  66
ATOM     66  C   UNL A   1      44.028  29.603  28.172  1.00  0.00     0.058 A 
ATOM     67  C   UNL A   1      44.159  28.304  28.685  1.00  0.00     0.135 A 
ATOM     68  C   UNL A   1      43.237  29.790  27.028  1.00  0.00     0.135 A 
ATOM     69  F   UNL A   1      44.915  28.079  29.771  1.00  0.00    -0.206 F 
ATOM     70  C   UNL A   1      43.529  27.224  28.080  1.00  0.00     0.059 A 
ATOM     71  C   UNL A   1      42.576  28.730  26.424  1.00  0.00     0.059 A 
ATOM     72  F   UNL A   1      43.077  31.019  26.510  1.00  0.00    -0.206 F 
ATOM     73  C   UNL A   1      42.733  27.449  26.954  1.00  0.00     0.060 A 
BRANCH  73  74
ATOM     74  S   UNL A   1      41.866  26.050  26.220  1.00  0.00     0.124 S 
ATOM     75  O   UNL A   1      42.386  26.066  24.856  1.00  0.00    -0.237 OA
ATOM     76  O   UNL A   1      42.309  24.935  27.054  1.00  0.00    -0.237 OA
ATOM     77  O   UNL A   1      40.459  26.410  26.361  1.00  0.00    -0.744 OA
ENDBRANCH  73  74
ENDBRANCH  41  66
ENDBRANCH  15  16
ENDBRANCH   8  10
ENDBRANCH   7   8
ENDBRANCH   6   7
ENDBRANCH   5   6
ENDBRANCH   4   5
ENDBRANCH   3   4
ENDBRANCH   2   3
ENDBRANCH   1   2
BRANCH   1  78
ATOM     78  C   UNL A   1      43.350  38.285  28.922  1.00  0.00     0.188 C 
BRANCH  78  79
ATOM     79  C   UNL A   1      43.552  37.258  30.058  1.00  0.00     0.188 C 
BRANCH  79  80
ATOM     80  O   UNL A   1      43.305  35.906  29.695  1.00  0.00    -0.376 OA
BRANCH  80  81
ATOM     81  C   UNL A   1      41.992  35.605  29.207  1.00  0.00     0.202 C 
BRANCH  81  82
ATOM     82  C   UNL A   1      41.647  34.003  29.326  1.00  0.00     0.261 C 
BRANCH  82  83
ATOM     83  O   UNL A   1      39.917  33.091  29.802  1.00  0.00    -0.460 OA
BRANCH  83  84
ATOM     84  C   UNL A   1      38.550  32.619  29.790  1.00  0.00     0.340 C 
ATOM     85  O   UNL A   1      37.731  33.140  29.036  1.00  0.00    -0.246 OA
BRANCH  84  86
ATOM     86  C   UNL A   1      38.007  31.614  30.789  1.00  0.00     0.091 A 
ATOM     87  C   UNL A   1      38.800  31.453  31.940  1.00  0.00     0.020 A 
ATOM     88  C   UNL A   1      36.874  30.786  30.692  1.00  0.00     0.142 A 
ATOM     89  C   UNL A   1      38.485  30.488  32.899  1.00  0.00     0.021 A 
ATOM     90  N   UNL A   1      36.561  29.839  31.636  1.00  0.00    -0.250 NA
ATOM     91  C   UNL A   1      37.367  29.705  32.702  1.00  0.00     0.112 A 
BRANCH  88  92
ATOM     92  C   UNL A   1      35.874  30.760  29.568  1.00  0.00     0.275 C 
ATOM     93  O   UNL A   1      35.898  29.871  28.718  1.00  0.00    -0.267 OA
ATOM     94  N   UNL A   1      34.900  31.715  29.488  1.00  0.00    -0.321 N 
ATOM     95  H   UNL A   1      34.208  31.612  28.795  1.00  0.00     0.170 HD
BRANCH  94  96
ATOM     96  C   UNL A   1      34.828  32.817  30.321  1.00  0.00     0.042 A 
ATOM     97  C   UNL A   1      34.305  34.336  29.487  1.00  0.00     0.033 A 
ATOM     98  C   UNL A   1      34.639  32.646  32.128  1.00  0.00     0.033 A 
ATOM     99  C   UNL A   1      33.558  35.650  30.441  1.00  0.00     0.088 A 
ATOM    100  C   UNL A   1      33.845  33.972  33.066  1.00  0.00     0.088 A 
ATOM    101  C   UNL A   1      33.322  35.452  32.210  1.00  0.00     0.269 A 
BRANCH 101 102
ATOM    102  N   UNL A   1      32.904  36.592  32.993  1.00  0.00     0.062 N 
ATOM    103  O   UNL A   1      31.696  36.842  33.029  1.00  0.00    -0.258 OA
ATOM    104  O   UNL A   1      33.798  37.268  33.520  1.00  0.00    -0.258 OA
ENDBRANCH 101 102
ENDBRANCH  94  96
ENDBRANCH  88  92
ENDBRANCH  84  86
ENDBRANCH  83  84
ENDBRANCH  82  83
ENDBRANCH  81  82
ENDBRANCH  80  81
ENDBRANCH  79  80
ENDBRANCH  78  79
ENDBRANCH   1  78
TORSDOF 26
ENDMDL
