MODEL 1
REMARK VINA RESULT:      -9.1      0.000      0.000
REMARK SMILES C/C=C/c1cncc(-c2ccc([C@@H](C)C(=O)OCCOCCOCCOCCOC(=O)c3ccc(-c4c5nc(c(-c6c(F)cc(S(=O)(=O)[O-])cc6F)c6ccc([nH]6)c(-c6c(F)cc(S(=O)(=O)[O-])cc6F)c6nc(c(-c7c(F)cc(S(=O)(=O)[O-])cc7F)c7ccc4[nH]7)C=C6)C=C5)cc3)cc2)c1
REMARK SMILES IDX 23 1 22 2 21 3 20 4 19 5 18 6 17 7 15 8 16 9 13 10 14 11
REMARK SMILES IDX 12 12 9 13 10 14 99 15 11 16 98 17 8 18 4 19 5 20 100 21
REMARK SMILES IDX 6 22 7 23 3 24 1 25 2 26 24 27 25 28 26 29 27 30 28 31 29 32
REMARK SMILES IDX 30 33 31 34 32 35 33 36 97 37 34 38 96 39 35 40 36 41 37 42
REMARK SMILES IDX 90 43 38 44 95 45 89 46 91 47 39 48 94 49 88 50 87 51 40 53
REMARK SMILES IDX 74 54 53 55 73 56 54 57 57 58 72 59 92 60 55 61 56 62 71 64
REMARK SMILES IDX 93 65 58 66 41 67 42 68 51 69 43 70 44 71 50 72 52 73 45 74
REMARK SMILES IDX 46 75 47 76 48 77 49 78 75 79 76 80 85 81 77 82 78 83 84 84
REMARK SMILES IDX 86 85 79 86 80 87 81 88 82 89 83 90 59 91 60 92 69 93 61 94
REMARK SMILES IDX 62 95 68 96 70 97 63 98 64 99 65 100 66 101 67 102
REMARK H PARENT 91 52 57 63
REMARK Flexibility Score: inf
ROOT
ATOM      1  O   UNL A   1      37.141  23.876  25.579  1.00  0.00    -0.377 OA
ENDROOT
BRANCH   1   2
ATOM      2  C   UNL A   1      36.283  22.763  25.721  1.00  0.00     0.188 C 
BRANCH   2   3
ATOM      3  C   UNL A   1      35.768  22.162  24.406  1.00  0.00     0.188 C 
BRANCH   3   4
ATOM      4  O   UNL A   1      34.694  22.758  23.693  1.00  0.00    -0.376 OA
BRANCH   4   5
ATOM      5  C   UNL A   1      33.365  22.698  24.197  1.00  0.00     0.202 C 
BRANCH   5   6
ATOM      6  C   UNL A   1      32.772  23.847  25.036  1.00  0.00     0.261 C 
BRANCH   6   7
ATOM      7  O   UNL A   1      31.334  23.931  25.111  1.00  0.00    -0.463 OA
BRANCH   7   8
ATOM      8  C   UNL A   1      30.738  24.813  24.277  1.00  0.00     0.313 C 
ATOM      9  O   UNL A   1      30.550  24.592  23.081  1.00  0.00    -0.252 OA
BRANCH   8  10
ATOM     10  C   UNL A   1      30.313  26.144  24.898  1.00  0.00     0.126 C 
ATOM     11  C   UNL A   1      29.342  26.828  23.940  1.00  0.00     0.025 C 
BRANCH  10  12
ATOM     12  C   UNL A   1      31.339  27.137  25.449  1.00  0.00    -0.034 A 
ATOM     13  C   UNL A   1      33.206  28.994  26.595  1.00  0.00    -0.017 A 
ATOM     14  C   UNL A   1      33.166  28.737  25.212  1.00  0.00     0.009 A 
ATOM     15  C   UNL A   1      32.303  28.288  27.401  1.00  0.00     0.009 A 
ATOM     16  C   UNL A   1      32.249  27.830  24.646  1.00  0.00     0.005 A 
ATOM     17  C   UNL A   1      31.381  27.388  26.838  1.00  0.00     0.005 A 
BRANCH  13  18
ATOM     18  C   UNL A   1      34.088  30.038  27.157  1.00  0.00     0.001 A 
ATOM     19  C   UNL A   1      34.602  32.317  27.879  1.00  0.00    -0.007 A 
ATOM     20  C   UNL A   1      35.900  31.878  28.133  1.00  0.00     0.119 A 
ATOM     21  C   UNL A   1      33.691  31.372  27.375  1.00  0.00     0.020 A 
ATOM     22  N   UNL A   1      36.333  30.615  27.935  1.00  0.00    -0.263 NA
ATOM     23  C   UNL A   1      35.420  29.736  27.461  1.00  0.00     0.119 A 
BRANCH  19  24
ATOM     24  C   UNL A   1      34.300  33.742  28.083  1.00  0.00     0.005 C 
ATOM     25  C   UNL A   1      33.214  35.702  29.180  1.00  0.00     0.035 C 
ATOM     26  C   UNL A   1      33.429  34.234  28.976  1.00  0.00    -0.030 C 
ENDBRANCH  19  24
ENDBRANCH  13  18
ENDBRANCH  10  12
ENDBRANCH   8  10
ENDBRANCH   7   8
ENDBRANCH   6   7
ENDBRANCH   5   6
ENDBRANCH   4   5
ENDBRANCH   3   4
ENDBRANCH   2   3
ENDBRANCH   1   2
BRANCH   1  27
ATOM     27  C   UNL A   1      38.088  24.092  26.611  1.00  0.00     0.188 C 
BRANCH  27  28
ATOM     28  C   UNL A   1      39.572  24.139  26.204  1.00  0.00     0.188 C 
BRANCH  28  29
ATOM     29  O   UNL A   1      40.354  23.080  26.744  1.00  0.00    -0.376 OA
BRANCH  29  30
ATOM     30  C   UNL A   1      39.744  21.813  26.944  1.00  0.00     0.202 C 
BRANCH  30  31
ATOM     31  C   UNL A   1      40.198  20.627  26.072  1.00  0.00     0.261 C 
BRANCH  31  32
ATOM     32  O   UNL A   1      41.343  19.882  26.515  1.00  0.00    -0.460 OA
BRANCH  32  33
ATOM     33  C   UNL A   1      42.468  19.935  25.774  1.00  0.00     0.338 C 
ATOM     34  O   UNL A   1      42.808  19.144  24.908  1.00  0.00    -0.246 OA
BRANCH  33  35
ATOM     35  C   UNL A   1      43.132  21.230  26.041  1.00  0.00     0.060 A 
ATOM     36  C   UNL A   1      43.628  21.484  27.326  1.00  0.00     0.016 A 
ATOM     37  C   UNL A   1      43.268  22.187  25.032  1.00  0.00     0.016 A 
ATOM     38  C   UNL A   1      44.222  22.713  27.620  1.00  0.00     0.010 A 
ATOM     39  C   UNL A   1      43.838  23.428  25.335  1.00  0.00     0.010 A 
ATOM     40  C   UNL A   1      44.283  23.711  26.639  1.00  0.00    -0.014 A 
BRANCH  40  41
ATOM     41  C   UNL A   1      44.608  25.106  27.028  1.00  0.00     0.031 A 
ATOM     42  C   UNL A   1      45.958  25.653  26.642  1.00  0.00     0.074 A 
ATOM     43  C   UNL A   1      43.728  25.881  27.688  1.00  0.00     0.049 A 
ATOM     44  N   UNL A   1      46.498  26.810  26.919  1.00  0.00    -0.248 NA
ATOM     45  C   UNL A   1      46.815  24.768  25.834  1.00  0.00     0.031 C 
ATOM     46  C   UNL A   1      42.373  25.486  28.071  1.00  0.00     0.029 A 
ATOM     47  N   UNL A   1      43.852  27.164  28.163  1.00  0.00    -0.354 N 
ATOM     48  C   UNL A   1      47.759  26.788  26.336  1.00  0.00     0.074 A 
ATOM     49  C   UNL A   1      47.916  25.494  25.709  1.00  0.00     0.031 C 
ATOM     50  C   UNL A   1      41.795  26.504  28.735  1.00  0.00     0.029 A 
ATOM     51  C   UNL A   1      42.751  27.605  28.857  1.00  0.00     0.049 A 
ATOM     52  H   UNL A   1      44.654  27.717  28.018  1.00  0.00     0.167 HD
ATOM     53  C   UNL A   1      48.702  27.760  26.321  1.00  0.00     0.037 A 
ATOM     54  C   UNL A   1      42.549  28.754  29.536  1.00  0.00     0.037 A 
ATOM     55  C   UNL A   1      48.538  29.047  26.945  1.00  0.00     0.049 A 
ATOM     56  C   UNL A   1      43.646  29.793  29.571  1.00  0.00     0.074 A 
ATOM     57  C   UNL A   1      49.425  30.109  26.965  1.00  0.00     0.029 A 
ATOM     58  N   UNL A   1      47.422  29.444  27.665  1.00  0.00    -0.354 N 
ATOM     59  N   UNL A   1      44.825  29.770  28.994  1.00  0.00    -0.248 NA
ATOM     60  C   UNL A   1      43.384  31.014  30.346  1.00  0.00     0.031 C 
ATOM     61  C   UNL A   1      48.871  31.124  27.752  1.00  0.00     0.029 A 
ATOM     62  C   UNL A   1      47.610  30.722  28.162  1.00  0.00     0.049 A 
ATOM     63  H   UNL A   1      46.615  28.897  27.803  1.00  0.00     0.167 HD
ATOM     64  C   UNL A   1      45.427  30.987  29.306  1.00  0.00     0.074 A 
ATOM     65  C   UNL A   1      44.479  31.724  30.115  1.00  0.00     0.031 C 
ATOM     66  C   UNL A   1      46.650  31.454  28.952  1.00  0.00     0.037 A 
BRANCH  53  67
ATOM     67  C   UNL A   1      50.010  27.461  25.640  1.00  0.00     0.058 A 
ATOM     68  C   UNL A   1      50.147  27.491  24.244  1.00  0.00     0.135 A 
ATOM     69  C   UNL A   1      51.157  27.188  26.404  1.00  0.00     0.135 A 
ATOM     70  F   UNL A   1      49.080  27.725  23.463  1.00  0.00    -0.206 F 
ATOM     71  C   UNL A   1      51.371  27.244  23.628  1.00  0.00     0.059 A 
ATOM     72  C   UNL A   1      52.396  26.969  25.812  1.00  0.00     0.059 A 
ATOM     73  F   UNL A   1      51.080  27.140  27.744  1.00  0.00    -0.206 F 
ATOM     74  C   UNL A   1      52.490  26.989  24.421  1.00  0.00     0.060 A 
BRANCH  74  75
ATOM     75  S   UNL A   1      54.074  26.696  23.607  1.00  0.00     0.124 S 
ATOM     76  O   UNL A   1      54.579  25.548  24.355  1.00  0.00    -0.237 OA
ATOM     77  O   UNL A   1      53.670  26.427  22.230  1.00  0.00    -0.237 OA
ATOM     78  O   UNL A   1      54.801  27.945  23.812  1.00  0.00    -0.744 OA
ENDBRANCH  74  75
ENDBRANCH  53  67
BRANCH  54  79
ATOM     79  C   UNL A   1      41.267  28.989  30.257  1.00  0.00     0.058 A 
ATOM     80  C   UNL A   1      40.144  29.506  29.592  1.00  0.00     0.135 A 
ATOM     81  C   UNL A   1      41.145  28.725  31.630  1.00  0.00     0.135 A 
ATOM     82  F   UNL A   1      40.212  29.789  28.283  1.00  0.00    -0.206 F 
ATOM     83  C   UNL A   1      38.956  29.774  30.264  1.00  0.00     0.059 A 
ATOM     84  C   UNL A   1      39.957  28.956  32.318  1.00  0.00     0.059 A 
ATOM     85  F   UNL A   1      42.184  28.224  32.316  1.00  0.00    -0.206 F 
ATOM     86  C   UNL A   1      38.871  29.492  31.629  1.00  0.00     0.060 A 
BRANCH  86  87
ATOM     87  S   UNL A   1      37.312  29.809  32.483  1.00  0.00     0.124 S 
ATOM     88  O   UNL A   1      37.173  28.608  33.299  1.00  0.00    -0.237 OA
ATOM     89  O   UNL A   1      37.606  31.042  33.206  1.00  0.00    -0.237 OA
ATOM     90  O   UNL A   1      36.352  29.945  31.391  1.00  0.00    -0.744 OA
ENDBRANCH  86  87
ENDBRANCH  54  79
BRANCH  66  91
ATOM     91  C   UNL A   1      47.023  32.848  29.384  1.00  0.00     0.058 A 
ATOM     92  C   UNL A   1      46.738  33.974  28.597  1.00  0.00     0.135 A 
ATOM     93  C   UNL A   1      47.617  33.062  30.640  1.00  0.00     0.135 A 
ATOM     94  F   UNL A   1      46.175  33.829  27.388  1.00  0.00    -0.206 F 
ATOM     95  C   UNL A   1      47.052  35.260  29.029  1.00  0.00     0.059 A 
ATOM     96  C   UNL A   1      47.908  34.340  31.105  1.00  0.00     0.059 A 
ATOM     97  F   UNL A   1      47.900  32.021  31.440  1.00  0.00    -0.206 F 
ATOM     98  C   UNL A   1      47.633  35.433  30.286  1.00  0.00     0.060 A 
BRANCH  98  99
ATOM     99  S   UNL A   1      48.000  37.109  30.848  1.00  0.00     0.124 S 
ATOM    100  O   UNL A   1      49.357  36.957  31.363  1.00  0.00    -0.237 OA
ATOM    101  O   UNL A   1      47.872  37.885  29.618  1.00  0.00    -0.237 OA
ATOM    102  O   UNL A   1      46.973  37.365  31.854  1.00  0.00    -0.744 OA
ENDBRANCH  98  99
ENDBRANCH  66  91
ENDBRANCH  40  41
ENDBRANCH  33  35
ENDBRANCH  32  33
ENDBRANCH  31  32
ENDBRANCH  30  31
ENDBRANCH  29  30
ENDBRANCH  28  29
ENDBRANCH  27  28
ENDBRANCH   1  27
TORSDOF 26
ENDMDL
MODEL 2
REMARK VINA RESULT:      -9.0      1.095      8.125
REMARK SMILES C/C=C/c1cncc(-c2ccc([C@@H](C)C(=O)OCCOCCOCCOCCOC(=O)c3ccc(-c4c5nc(c(-c6c(F)cc(S(=O)(=O)[O-])cc6F)c6ccc([nH]6)c(-c6c(F)cc(S(=O)(=O)[O-])cc6F)c6nc(c(-c7c(F)cc(S(=O)(=O)[O-])cc7F)c7ccc4[nH]7)C=C6)C=C5)cc3)cc2)c1
REMARK SMILES IDX 23 1 22 2 21 3 20 4 19 5 18 6 17 7 15 8 16 9 13 10 14 11
REMARK SMILES IDX 12 12 9 13 10 14 99 15 11 16 98 17 8 18 4 19 5 20 100 21
REMARK SMILES IDX 6 22 7 23 3 24 1 25 2 26 24 27 25 28 26 29 27 30 28 31 29 32
REMARK SMILES IDX 30 33 31 34 32 35 33 36 97 37 34 38 96 39 35 40 36 41 37 42
REMARK SMILES IDX 90 43 38 44 95 45 89 46 91 47 39 48 94 49 88 50 87 51 40 53
REMARK SMILES IDX 74 54 53 55 73 56 54 57 57 58 72 59 92 60 55 61 56 62 71 64
REMARK SMILES IDX 93 65 58 66 41 67 42 68 51 69 43 70 44 71 50 72 52 73 45 74
REMARK SMILES IDX 46 75 47 76 48 77 49 78 75 79 76 80 85 81 77 82 78 83 84 84
REMARK SMILES IDX 86 85 79 86 80 87 81 88 82 89 83 90 59 91 60 92 69 93 61 94
REMARK SMILES IDX 62 95 68 96 70 97 63 98 64 99 65 100 66 101 67 102
REMARK H PARENT 91 52 57 63
REMARK Flexibility Score: inf
ROOT
ATOM      1  O   UNL A   1      37.449  24.052  25.428  1.00  0.00    -0.377 OA
ENDROOT
BRANCH   1   2
ATOM      2  C   UNL A   1      37.044  22.776  24.979  1.00  0.00     0.188 C 
BRANCH   2   3
ATOM      3  C   UNL A   1      36.661  22.697  23.494  1.00  0.00     0.188 C 
BRANCH   3   4
ATOM      4  O   UNL A   1      35.569  23.442  22.974  1.00  0.00    -0.376 OA
BRANCH   4   5
ATOM      5  C   UNL A   1      34.375  23.606  23.729  1.00  0.00     0.202 C 
BRANCH   5   6
ATOM      6  C   UNL A   1      34.118  24.882  24.556  1.00  0.00     0.261 C 
BRANCH   6   7
ATOM      7  O   UNL A   1      32.745  25.298  24.711  1.00  0.00    -0.463 OA
BRANCH   7   8
ATOM      8  C   UNL A   1      32.395  26.456  24.107  1.00  0.00     0.313 C 
ATOM      9  O   UNL A   1      32.630  26.701  22.924  1.00  0.00    -0.252 OA
BRANCH   8  10
ATOM     10  C   UNL A   1      31.693  27.489  24.990  1.00  0.00     0.126 C 
ATOM     11  C   UNL A   1      30.566  28.120  24.179  1.00  0.00     0.025 C 
BRANCH  10  12
ATOM     12  C   UNL A   1      32.477  28.548  25.766  1.00  0.00    -0.034 A 
ATOM     13  C   UNL A   1      33.855  30.619  27.205  1.00  0.00    -0.017 A 
ATOM     14  C   UNL A   1      34.489  29.415  26.843  1.00  0.00     0.009 A 
ATOM     15  C   UNL A   1      32.508  30.760  26.849  1.00  0.00     0.009 A 
ATOM     16  C   UNL A   1      33.818  28.400  26.133  1.00  0.00     0.005 A 
ATOM     17  C   UNL A   1      31.837  29.752  26.133  1.00  0.00     0.005 A 
BRANCH  13  18
ATOM     18  C   UNL A   1      34.606  31.722  27.838  1.00  0.00     0.001 A 
ATOM     19  C   UNL A   1      36.627  32.763  28.739  1.00  0.00    -0.007 A 
ATOM     20  C   UNL A   1      35.830  33.843  29.113  1.00  0.00     0.119 A 
ATOM     21  C   UNL A   1      35.991  31.686  28.098  1.00  0.00     0.020 A 
ATOM     22  N   UNL A   1      34.501  33.924  28.894  1.00  0.00    -0.263 NA
ATOM     23  C   UNL A   1      33.931  32.871  28.263  1.00  0.00     0.119 A 
BRANCH  19  24
ATOM     24  C   UNL A   1      38.051  32.792  29.106  1.00  0.00     0.005 C 
ATOM     25  C   UNL A   1      39.995  32.930  30.664  1.00  0.00     0.035 C 
ATOM     26  C   UNL A   1      38.533  32.978  30.343  1.00  0.00    -0.030 C 
ENDBRANCH  19  24
ENDBRANCH  13  18
ENDBRANCH  10  12
ENDBRANCH   8  10
ENDBRANCH   7   8
ENDBRANCH   6   7
ENDBRANCH   5   6
ENDBRANCH   4   5
ENDBRANCH   3   4
ENDBRANCH   2   3
ENDBRANCH   1   2
BRANCH   1  27
ATOM     27  C   UNL A   1      38.169  24.104  26.648  1.00  0.00     0.188 C 
BRANCH  27  28
ATOM     28  C   UNL A   1      39.675  24.412  26.562  1.00  0.00     0.188 C 
BRANCH  28  29
ATOM     29  O   UNL A   1      40.511  23.300  26.865  1.00  0.00    -0.376 OA
BRANCH  29  30
ATOM     30  C   UNL A   1      39.907  22.038  27.112  1.00  0.00     0.202 C 
BRANCH  30  31
ATOM     31  C   UNL A   1      40.344  20.830  26.262  1.00  0.00     0.261 C 
BRANCH  31  32
ATOM     32  O   UNL A   1      41.557  20.161  26.639  1.00  0.00    -0.460 OA
BRANCH  32  33
ATOM     33  C   UNL A   1      42.582  20.150  25.764  1.00  0.00     0.338 C 
ATOM     34  O   UNL A   1      42.760  19.348  24.861  1.00  0.00    -0.246 OA
BRANCH  33  35
ATOM     35  C   UNL A   1      43.356  21.397  25.949  1.00  0.00     0.060 A 
ATOM     36  C   UNL A   1      44.196  21.514  27.064  1.00  0.00     0.016 A 
ATOM     37  C   UNL A   1      43.259  22.444  25.029  1.00  0.00     0.016 A 
ATOM     38  C   UNL A   1      44.907  22.694  27.288  1.00  0.00     0.010 A 
ATOM     39  C   UNL A   1      43.950  23.636  25.269  1.00  0.00     0.010 A 
ATOM     40  C   UNL A   1      44.747  23.781  26.419  1.00  0.00    -0.014 A 
BRANCH  40  41
ATOM     41  C   UNL A   1      45.234  25.124  26.823  1.00  0.00     0.031 A 
ATOM     42  C   UNL A   1      44.315  25.993  27.643  1.00  0.00     0.074 A 
ATOM     43  C   UNL A   1      46.462  25.562  26.492  1.00  0.00     0.049 A 
ATOM     44  N   UNL A   1      44.482  27.219  28.061  1.00  0.00    -0.248 NA
ATOM     45  C   UNL A   1      43.031  25.392  28.043  1.00  0.00     0.031 C 
ATOM     46  C   UNL A   1      47.462  24.797  25.748  1.00  0.00     0.029 A 
ATOM     47  N   UNL A   1      47.073  26.768  26.734  1.00  0.00    -0.354 N 
ATOM     48  C   UNL A   1      43.324  27.543  28.757  1.00  0.00     0.074 A 
ATOM     49  C   UNL A   1      42.450  26.393  28.686  1.00  0.00     0.031 C 
ATOM     50  C   UNL A   1      48.558  25.559  25.583  1.00  0.00     0.029 A 
ATOM     51  C   UNL A   1      48.324  26.876  26.175  1.00  0.00     0.049 A 
ATOM     52  H   UNL A   1      46.655  27.487  27.261  1.00  0.00     0.167 HD
ATOM     53  C   UNL A   1      43.017  28.694  29.400  1.00  0.00     0.037 A 
ATOM     54  C   UNL A   1      49.169  27.927  26.123  1.00  0.00     0.037 A 
ATOM     55  C   UNL A   1      43.893  29.834  29.470  1.00  0.00     0.049 A 
ATOM     56  C   UNL A   1      48.772  29.227  26.782  1.00  0.00     0.074 A 
ATOM     57  C   UNL A   1      43.684  31.038  30.119  1.00  0.00     0.029 A 
ATOM     58  N   UNL A   1      45.138  29.917  28.864  1.00  0.00    -0.354 N 
ATOM     59  N   UNL A   1      47.683  29.513  27.459  1.00  0.00    -0.248 NA
ATOM     60  C   UNL A   1      49.718  30.347  26.674  1.00  0.00     0.031 C 
ATOM     61  C   UNL A   1      44.774  31.872  29.850  1.00  0.00     0.029 A 
ATOM     62  C   UNL A   1      45.695  31.162  29.095  1.00  0.00     0.049 A 
ATOM     63  H   UNL A   1      45.563  29.195  28.346  1.00  0.00     0.167 HD
ATOM     64  C   UNL A   1      47.833  30.830  27.886  1.00  0.00     0.074 A 
ATOM     65  C   UNL A   1      49.119  31.282  27.399  1.00  0.00     0.031 C 
ATOM     66  C   UNL A   1      46.986  31.595  28.620  1.00  0.00     0.037 A 
BRANCH  53  67
ATOM     67  C   UNL A   1      41.664  28.796  30.051  1.00  0.00     0.058 A 
ATOM     68  C   UNL A   1      41.467  28.500  31.409  1.00  0.00     0.135 A 
ATOM     69  C   UNL A   1      40.557  29.246  29.313  1.00  0.00     0.135 A 
ATOM     70  F   UNL A   1      42.484  28.045  32.158  1.00  0.00    -0.206 F 
ATOM     71  C   UNL A   1      40.217  28.631  32.007  1.00  0.00     0.059 A 
ATOM     72  C   UNL A   1      39.306  29.413  29.897  1.00  0.00     0.059 A 
ATOM     73  F   UNL A   1      40.689  29.537  28.009  1.00  0.00    -0.206 F 
ATOM     74  C   UNL A   1      39.144  29.092  31.243  1.00  0.00     0.060 A 
BRANCH  74  75
ATOM     75  S   UNL A   1      37.536  29.279  32.041  1.00  0.00     0.124 S 
ATOM     76  O   UNL A   1      37.650  30.615  32.618  1.00  0.00    -0.237 OA
ATOM     77  O   UNL A   1      36.614  29.152  30.916  1.00  0.00    -0.237 OA
ATOM     78  O   UNL A   1      37.501  28.182  33.003  1.00  0.00    -0.744 OA
ENDBRANCH  74  75
ENDBRANCH  53  67
BRANCH  54  79
ATOM     79  C   UNL A   1      50.472  27.812  25.410  1.00  0.00     0.058 A 
ATOM     80  C   UNL A   1      51.681  27.722  26.117  1.00  0.00     0.135 A 
ATOM     81  C   UNL A   1      50.538  27.816  24.008  1.00  0.00     0.135 A 
ATOM     82  F   UNL A   1      51.675  27.729  27.458  1.00  0.00    -0.206 F 
ATOM     83  C   UNL A   1      52.908  27.663  25.463  1.00  0.00     0.059 A 
ATOM     84  C   UNL A   1      51.751  27.726  23.330  1.00  0.00     0.059 A 
ATOM     85  F   UNL A   1      49.412  27.894  23.281  1.00  0.00    -0.206 F 
ATOM     86  C   UNL A   1      52.932  27.662  24.067  1.00  0.00     0.060 A 
BRANCH  86  87
ATOM     87  S   UNL A   1      54.527  27.546  23.229  1.00  0.00     0.124 S 
ATOM     88  O   UNL A   1      54.748  28.930  22.824  1.00  0.00    -0.237 OA
ATOM     89  O   UNL A   1      55.393  27.045  24.292  1.00  0.00    -0.237 OA
ATOM     90  O   UNL A   1      54.269  26.604  22.144  1.00  0.00    -0.744 OA
ENDBRANCH  86  87
ENDBRANCH  54  79
BRANCH  66  91
ATOM     91  C   UNL A   1      47.436  32.983  28.993  1.00  0.00     0.058 A 
ATOM     92  C   UNL A   1      48.193  33.236  30.147  1.00  0.00     0.135 A 
ATOM     93  C   UNL A   1      47.159  34.067  28.143  1.00  0.00     0.135 A 
ATOM     94  F   UNL A   1      48.485  32.239  30.997  1.00  0.00    -0.206 F 
ATOM     95  C   UNL A   1      48.637  34.518  30.458  1.00  0.00     0.059 A 
ATOM     96  C   UNL A   1      47.621  35.350  28.416  1.00  0.00     0.059 A 
ATOM     97  F   UNL A   1      46.449  33.880  27.018  1.00  0.00    -0.206 F 
ATOM     98  C   UNL A   1      48.349  35.568  29.584  1.00  0.00     0.060 A 
BRANCH  98  99
ATOM     99  S   UNL A   1      48.964  37.219  29.981  1.00  0.00     0.124 S 
ATOM    100  O   UNL A   1      47.747  37.886  30.431  1.00  0.00    -0.237 OA
ATOM    101  O   UNL A   1      49.955  36.941  31.017  1.00  0.00    -0.237 OA
ATOM    102  O   UNL A   1      49.508  37.696  28.713  1.00  0.00    -0.744 OA
ENDBRANCH  98  99
ENDBRANCH  66  91
ENDBRANCH  40  41
ENDBRANCH  33  35
ENDBRANCH  32  33
ENDBRANCH  31  32
ENDBRANCH  30  31
ENDBRANCH  29  30
ENDBRANCH  28  29
ENDBRANCH  27  28
ENDBRANCH   1  27
TORSDOF 26
ENDMDL
MODEL 3
REMARK VINA RESULT:      -8.5      4.662     10.941
REMARK SMILES C/C=C/c1cncc(-c2ccc([C@@H](C)C(=O)OCCOCCOCCOCCOC(=O)c3ccc(-c4c5nc(c(-c6c(F)cc(S(=O)(=O)[O-])cc6F)c6ccc([nH]6)c(-c6c(F)cc(S(=O)(=O)[O-])cc6F)c6nc(c(-c7c(F)cc(S(=O)(=O)[O-])cc7F)c7ccc4[nH]7)C=C6)C=C5)cc3)cc2)c1
REMARK SMILES IDX 23 1 22 2 21 3 20 4 19 5 18 6 17 7 15 8 16 9 13 10 14 11
REMARK SMILES IDX 12 12 9 13 10 14 99 15 11 16 98 17 8 18 4 19 5 20 100 21
REMARK SMILES IDX 6 22 7 23 3 24 1 25 2 26 24 27 25 28 26 29 27 30 28 31 29 32
REMARK SMILES IDX 30 33 31 34 32 35 33 36 97 37 34 38 96 39 35 40 36 41 37 42
REMARK SMILES IDX 90 43 38 44 95 45 89 46 91 47 39 48 94 49 88 50 87 51 40 53
REMARK SMILES IDX 74 54 53 55 73 56 54 57 57 58 72 59 92 60 55 61 56 62 71 64
REMARK SMILES IDX 93 65 58 66 41 67 42 68 51 69 43 70 44 71 50 72 52 73 45 74
REMARK SMILES IDX 46 75 47 76 48 77 49 78 75 79 76 80 85 81 77 82 78 83 84 84
REMARK SMILES IDX 86 85 79 86 80 87 81 88 82 89 83 90 59 91 60 92 69 93 61 94
REMARK SMILES IDX 62 95 68 96 70 97 63 98 64 99 65 100 66 101 67 102
REMARK H PARENT 91 52 57 63
REMARK Flexibility Score: inf
ROOT
ATOM      1  O   UNL A   1      36.364  30.564  27.688  1.00  0.00    -0.377 OA
ENDROOT
BRANCH   1   2
ATOM      2  C   UNL A   1      36.664  29.481  28.542  1.00  0.00     0.188 C 
BRANCH   2   3
ATOM      3  C   UNL A   1      38.129  29.023  28.527  1.00  0.00     0.188 C 
BRANCH   3   4
ATOM      4  O   UNL A   1      38.997  29.361  27.455  1.00  0.00    -0.376 OA
BRANCH   4   5
ATOM      5  C   UNL A   1      40.075  28.506  27.095  1.00  0.00     0.202 C 
BRANCH   5   6
ATOM      6  C   UNL A   1      41.268  29.025  26.268  1.00  0.00     0.261 C 
BRANCH   6   7
ATOM      7  O   UNL A   1      42.324  29.697  26.988  1.00  0.00    -0.463 OA
BRANCH   7   8
ATOM      8  C   UNL A   1      42.457  29.381  28.295  1.00  0.00     0.313 C 
ATOM      9  O   UNL A   1      41.860  29.969  29.197  1.00  0.00    -0.252 OA
BRANCH   8  10
ATOM     10  C   UNL A   1      43.424  28.242  28.617  1.00  0.00     0.126 C 
ATOM     11  C   UNL A   1      44.819  28.658  28.161  1.00  0.00     0.025 C 
BRANCH  10  12
ATOM     12  C   UNL A   1      43.121  26.795  28.220  1.00  0.00    -0.034 A 
ATOM     13  C   UNL A   1      42.466  24.076  27.567  1.00  0.00    -0.017 A 
ATOM     14  C   UNL A   1      43.577  24.729  27.003  1.00  0.00     0.009 A 
ATOM     15  C   UNL A   1      41.674  24.817  28.453  1.00  0.00     0.009 A 
ATOM     16  C   UNL A   1      43.904  26.061  27.324  1.00  0.00     0.005 A 
ATOM     17  C   UNL A   1      42.002  26.144  28.783  1.00  0.00     0.005 A 
BRANCH  13  18
ATOM     18  C   UNL A   1      42.209  22.643  27.315  1.00  0.00     0.001 A 
ATOM     19  C   UNL A   1      42.673  20.485  26.261  1.00  0.00    -0.007 A 
ATOM     20  C   UNL A   1      41.526  20.002  26.889  1.00  0.00     0.119 A 
ATOM     21  C   UNL A   1      43.005  21.834  26.480  1.00  0.00     0.020 A 
ATOM     22  N   UNL A   1      40.727  20.735  27.691  1.00  0.00    -0.263 NA
ATOM     23  C   UNL A   1      41.091  22.024  27.884  1.00  0.00     0.119 A 
BRANCH  19  24
ATOM     24  C   UNL A   1      43.405  19.581  25.362  1.00  0.00     0.005 C 
ATOM     25  C   UNL A   1      45.236  18.917  23.802  1.00  0.00     0.035 C 
ATOM     26  C   UNL A   1      44.495  19.904  24.651  1.00  0.00    -0.030 C 
ENDBRANCH  19  24
ENDBRANCH  13  18
ENDBRANCH  10  12
ENDBRANCH   8  10
ENDBRANCH   7   8
ENDBRANCH   6   7
ENDBRANCH   5   6
ENDBRANCH   4   5
ENDBRANCH   3   4
ENDBRANCH   2   3
ENDBRANCH   1   2
BRANCH   1  27
ATOM     27  C   UNL A   1      35.143  31.246  27.921  1.00  0.00     0.188 C 
BRANCH  27  28
ATOM     28  C   UNL A   1      35.190  32.784  27.943  1.00  0.00     0.188 C 
BRANCH  28  29
ATOM     29  O   UNL A   1      34.250  33.379  28.830  1.00  0.00    -0.376 OA
BRANCH  29  30
ATOM     30  C   UNL A   1      34.609  34.576  29.505  1.00  0.00     0.202 C 
BRANCH  30  31
ATOM     31  C   UNL A   1      33.984  34.863  30.884  1.00  0.00     0.261 C 
BRANCH  31  32
ATOM     32  O   UNL A   1      34.774  34.554  32.044  1.00  0.00    -0.460 OA
BRANCH  32  33
ATOM     33  C   UNL A   1      34.845  33.270  32.448  1.00  0.00     0.338 C 
ATOM     34  O   UNL A   1      33.905  32.532  32.697  1.00  0.00    -0.246 OA
BRANCH  33  35
ATOM     35  C   UNL A   1      36.255  32.834  32.343  1.00  0.00     0.060 A 
ATOM     36  C   UNL A   1      37.169  33.259  33.316  1.00  0.00     0.016 A 
ATOM     37  C   UNL A   1      36.675  32.010  31.296  1.00  0.00     0.016 A 
ATOM     38  C   UNL A   1      38.514  32.899  33.222  1.00  0.00     0.010 A 
ATOM     39  C   UNL A   1      38.028  31.673  31.188  1.00  0.00     0.010 A 
ATOM     40  C   UNL A   1      38.960  32.146  32.128  1.00  0.00    -0.014 A 
BRANCH  40  41
ATOM     41  C   UNL A   1      40.415  32.040  31.852  1.00  0.00     0.031 A 
ATOM     42  C   UNL A   1      41.071  33.150  31.073  1.00  0.00     0.074 A 
ATOM     43  C   UNL A   1      41.146  31.000  32.293  1.00  0.00     0.049 A 
ATOM     44  N   UNL A   1      42.303  33.258  30.653  1.00  0.00    -0.248 NA
ATOM     45  C   UNL A   1      40.214  34.296  30.719  1.00  0.00     0.031 C 
ATOM     46  C   UNL A   1      40.639  29.890  33.100  1.00  0.00     0.029 A 
ATOM     47  N   UNL A   1      42.475  30.704  32.111  1.00  0.00    -0.354 N 
ATOM     48  C   UNL A   1      42.368  34.468  29.974  1.00  0.00     0.074 A 
ATOM     49  C   UNL A   1      41.045  35.051  30.017  1.00  0.00     0.031 C 
ATOM     50  C   UNL A   1      41.645  29.027  33.332  1.00  0.00     0.029 A 
ATOM     51  C   UNL A   1      42.854  29.502  32.660  1.00  0.00     0.049 A 
ATOM     52  H   UNL A   1      43.098  31.299  31.634  1.00  0.00     0.167 HD
ATOM     53  C   UNL A   1      43.435  35.045  29.372  1.00  0.00     0.037 A 
ATOM     54  C   UNL A   1      44.033  28.850  32.602  1.00  0.00     0.037 A 
ATOM     55  C   UNL A   1      44.750  34.461  29.336  1.00  0.00     0.049 A 
ATOM     56  C   UNL A   1      45.189  29.477  31.857  1.00  0.00     0.074 A 
ATOM     57  C   UNL A   1      45.903  34.978  28.772  1.00  0.00     0.029 A 
ATOM     58  N   UNL A   1      45.086  33.228  29.875  1.00  0.00    -0.354 N 
ATOM     59  N   UNL A   1      45.243  30.635  31.240  1.00  0.00    -0.248 NA
ATOM     60  C   UNL A   1      46.442  28.712  31.803  1.00  0.00     0.031 C 
ATOM     61  C   UNL A   1      46.920  34.029  28.913  1.00  0.00     0.029 A 
ATOM     62  C   UNL A   1      46.420  32.953  29.629  1.00  0.00     0.049 A 
ATOM     63  H   UNL A   1      44.467  32.637  30.362  1.00  0.00     0.167 HD
ATOM     64  C   UNL A   1      46.546  30.750  30.760  1.00  0.00     0.074 A 
ATOM     65  C   UNL A   1      47.247  29.550  31.164  1.00  0.00     0.031 C 
ATOM     66  C   UNL A   1      47.112  31.760  30.052  1.00  0.00     0.037 A 
BRANCH  53  67
ATOM     67  C   UNL A   1      43.221  36.359  28.670  1.00  0.00     0.058 A 
ATOM     68  C   UNL A   1      43.418  37.589  29.317  1.00  0.00     0.135 A 
ATOM     69  C   UNL A   1      42.861  36.384  27.313  1.00  0.00     0.135 A 
ATOM     70  F   UNL A   1      43.741  37.626  30.619  1.00  0.00    -0.206 F 
ATOM     71  C   UNL A   1      43.248  38.797  28.646  1.00  0.00     0.059 A 
ATOM     72  C   UNL A   1      42.715  37.578  26.615  1.00  0.00     0.059 A 
ATOM     73  F   UNL A   1      42.654  35.236  26.648  1.00  0.00    -0.206 F 
ATOM     74  C   UNL A   1      42.901  38.781  27.295  1.00  0.00     0.060 A 
BRANCH  74  75
ATOM     75  S   UNL A   1      42.710  40.357  26.435  1.00  0.00     0.124 S 
ATOM     76  O   UNL A   1      43.816  40.306  25.484  1.00  0.00    -0.237 OA
ATOM     77  O   UNL A   1      41.374  40.236  25.859  1.00  0.00    -0.237 OA
ATOM     78  O   UNL A   1      42.844  41.346  27.500  1.00  0.00    -0.744 OA
ENDBRANCH  74  75
ENDBRANCH  53  67
BRANCH  54  79
ATOM     79  C   UNL A   1      44.191  27.517  33.250  1.00  0.00     0.058 A 
ATOM     80  C   UNL A   1      44.164  26.334  32.494  1.00  0.00     0.135 A 
ATOM     81  C   UNL A   1      44.345  27.397  34.639  1.00  0.00     0.135 A 
ATOM     82  F   UNL A   1      44.004  26.393  31.163  1.00  0.00    -0.206 F 
ATOM     83  C   UNL A   1      44.262  25.082  33.092  1.00  0.00     0.059 A 
ATOM     84  C   UNL A   1      44.476  26.156  35.258  1.00  0.00     0.059 A 
ATOM     85  F   UNL A   1      44.383  28.495  35.411  1.00  0.00    -0.206 F 
ATOM     86  C   UNL A   1      44.421  25.004  34.477  1.00  0.00     0.060 A 
BRANCH  86  87
ATOM     87  S   UNL A   1      44.585  23.375  35.238  1.00  0.00     0.124 S 
ATOM     88  O   UNL A   1      45.745  22.837  34.536  1.00  0.00    -0.237 OA
ATOM     89  O   UNL A   1      44.790  23.715  36.643  1.00  0.00    -0.237 OA
ATOM     90  O   UNL A   1      43.310  22.732  34.936  1.00  0.00    -0.744 OA
ENDBRANCH  86  87
ENDBRANCH  54  79
BRANCH  66  91
ATOM     91  C   UNL A   1      48.575  31.647  29.713  1.00  0.00     0.058 A 
ATOM     92  C   UNL A   1      49.580  32.094  30.583  1.00  0.00     0.135 A 
ATOM     93  C   UNL A   1      48.975  31.017  28.521  1.00  0.00     0.135 A 
ATOM     94  F   UNL A   1      49.256  32.705  31.733  1.00  0.00    -0.206 F 
ATOM     95  C   UNL A   1      50.929  31.945  30.274  1.00  0.00     0.059 A 
ATOM     96  C   UNL A   1      50.317  30.828  28.207  1.00  0.00     0.059 A 
ATOM     97  F   UNL A   1      48.056  30.558  27.657  1.00  0.00    -0.206 F 
ATOM     98  C   UNL A   1      51.288  31.307  29.085  1.00  0.00     0.060 A 
BRANCH  98  99
ATOM     99  S   UNL A   1      53.041  31.087  28.714  1.00  0.00     0.124 S 
ATOM    100  O   UNL A   1      53.612  30.961  30.051  1.00  0.00    -0.237 OA
ATOM    101  O   UNL A   1      53.038  29.869  27.909  1.00  0.00    -0.237 OA
ATOM    102  O   UNL A   1      53.394  32.307  27.994  1.00  0.00    -0.744 OA
ENDBRANCH  98  99
ENDBRANCH  66  91
ENDBRANCH  40  41
ENDBRANCH  33  35
ENDBRANCH  32  33
ENDBRANCH  31  32
ENDBRANCH  30  31
ENDBRANCH  29  30
ENDBRANCH  28  29
ENDBRANCH  27  28
ENDBRANCH   1  27
TORSDOF 26
ENDMDL
