MODEL 1
REMARK VINA RESULT:      -9.8      0.000      0.000
REMARK SMILES Cc1cc(Cl)cc2c1O[C@H](C(F)(F)F)C(C(=O)OCCOCCOCCOCCOC(=O)c1ccc(-c3c4nc(c(-c5c(F)cc(S(=O)(=O)[O-])cc5F)c5ccc([nH]5)c(-c5c(F)cc(S(=O)(=O)[O-])cc5F)c5nc(c(-c6c(F)cc(S(=O)(=O)[O-])cc6F)c6ccc3[nH]6)C=C5)C=C4)cc1)=C2
REMARK SMILES IDX 25 1 24 2 23 3 22 4 21 5 20 6 19 7 18 8 16 9 17 10 15 11
REMARK SMILES IDX 1 12 2 13 3 14 8 15 4 16 7 17 9 18 5 19 6 20 99 21 10 22
REMARK SMILES IDX 11 23 12 24 13 25 14 26 26 27 27 28 28 29 29 30 30 31 31 32
REMARK SMILES IDX 32 33 33 34 34 35 98 36 35 37 97 38 36 39 37 40 38 41 91 42
REMARK SMILES IDX 39 43 96 44 90 45 92 46 40 47 95 48 89 49 88 50 41 52 75 53
REMARK SMILES IDX 54 54 74 55 55 56 58 57 73 58 93 59 56 60 57 61 72 63 94 64
REMARK SMILES IDX 59 65 42 66 43 67 52 68 44 69 45 70 51 71 53 72 46 73 47 74
REMARK SMILES IDX 48 75 49 76 50 77 76 78 77 79 86 80 78 81 79 82 85 83 87 84
REMARK SMILES IDX 80 85 81 86 82 87 83 88 84 89 60 90 61 91 70 92 62 93 63 94
REMARK SMILES IDX 69 95 71 96 64 97 65 98 66 99 67 100 68 101
REMARK H PARENT 92 51 58 62
REMARK Flexibility Score: inf
ROOT
ATOM      1  C   UNL A   1      32.997  28.759  27.178  1.00  0.00     0.188 C 
ENDROOT
BRANCH   1   2
ATOM      2  O   UNL A   1      31.597  28.695  26.897  1.00  0.00    -0.377 OA
BRANCH   2   3
ATOM      3  C   UNL A   1      31.134  27.671  26.034  1.00  0.00     0.188 C 
BRANCH   3   4
ATOM      4  C   UNL A   1      31.056  28.101  24.557  1.00  0.00     0.188 C 
BRANCH   4   5
ATOM      5  O   UNL A   1      30.195  27.276  23.783  1.00  0.00    -0.376 OA
BRANCH   5   6
ATOM      6  C   UNL A   1      29.946  25.948  24.224  1.00  0.00     0.202 C 
BRANCH   6   7
ATOM      7  C   UNL A   1      30.858  24.804  23.751  1.00  0.00     0.261 C 
BRANCH   7   8
ATOM      8  O   UNL A   1      32.098  24.653  24.456  1.00  0.00    -0.460 OA
BRANCH   8   9
ATOM      9  C   UNL A   1      32.130  23.829  25.518  1.00  0.00     0.338 C 
ATOM     10  O   UNL A   1      31.212  23.578  26.279  1.00  0.00    -0.246 OA
BRANCH   9  11
ATOM     11  C   UNL A   1      33.433  23.123  25.499  1.00  0.00     0.087 C 
ATOM     12  C   UNL A   1      37.267  19.768  24.889  1.00  0.00     0.048 C 
ATOM     13  C   UNL A   1      37.141  21.184  25.380  1.00  0.00    -0.007 A 
ATOM     14  C   UNL A   1      38.301  21.923  25.655  1.00  0.00     0.027 A 
ATOM     15  C   UNL A   1      35.888  21.816  25.477  1.00  0.00     0.131 A 
ATOM     16  C   UNL A   1      38.206  23.255  26.053  1.00  0.00     0.042 A 
ATOM     17  C   UNL A   1      35.803  23.166  25.831  1.00  0.00     0.019 A 
ATOM     18  O   UNL A   1      34.792  21.052  25.192  1.00  0.00    -0.475 OA
ATOM     19  Cl  UNL A   1      39.639  24.147  26.396  1.00  0.00    -0.084 Cl
ATOM     20  C   UNL A   1      36.965  23.878  26.147  1.00  0.00     0.032 A 
ATOM     21  C   UNL A   1      34.517  23.844  25.813  1.00  0.00     0.027 C 
ATOM     22  C   UNL A   1      33.464  21.642  25.222  1.00  0.00     0.316 C 
BRANCH  22  23
ATOM     23  C   UNL A   1      32.768  21.281  23.902  1.00  0.00     0.430 C 
ATOM     24  F   UNL A   1      33.183  22.085  22.894  1.00  0.00    -0.167 F 
ATOM     25  F   UNL A   1      33.019  20.009  23.523  1.00  0.00    -0.167 F 
ATOM     26  F   UNL A   1      31.425  21.417  24.002  1.00  0.00    -0.167 F 
ENDBRANCH  22  23
ENDBRANCH   9  11
ENDBRANCH   8   9
ENDBRANCH   7   8
ENDBRANCH   6   7
ENDBRANCH   5   6
ENDBRANCH   4   5
ENDBRANCH   3   4
ENDBRANCH   2   3
ENDBRANCH   1   2
BRANCH   1  27
ATOM     27  C   UNL A   1      33.905  29.882  26.620  1.00  0.00     0.188 C 
BRANCH  27  28
ATOM     28  O   UNL A   1      33.625  31.180  27.138  1.00  0.00    -0.376 OA
BRANCH  28  29
ATOM     29  C   UNL A   1      34.383  31.595  28.265  1.00  0.00     0.202 C 
BRANCH  29  30
ATOM     30  C   UNL A   1      35.535  30.652  28.634  1.00  0.00     0.261 C 
BRANCH  30  31
ATOM     31  O   UNL A   1      36.309  31.050  29.778  1.00  0.00    -0.460 OA
BRANCH  31  32
ATOM     32  C   UNL A   1      36.908  30.072  30.492  1.00  0.00     0.338 C 
ATOM     33  O   UNL A   1      36.369  29.258  31.222  1.00  0.00    -0.246 OA
BRANCH  32  34
ATOM     34  C   UNL A   1      38.324  30.025  30.076  1.00  0.00     0.060 A 
ATOM     35  C   UNL A   1      38.630  29.978  28.710  1.00  0.00     0.016 A 
ATOM     36  C   UNL A   1      39.343  30.052  31.033  1.00  0.00     0.016 A 
ATOM     37  C   UNL A   1      39.961  29.927  28.297  1.00  0.00     0.010 A 
ATOM     38  C   UNL A   1      40.673  29.975  30.619  1.00  0.00     0.010 A 
ATOM     39  C   UNL A   1      40.986  29.880  29.251  1.00  0.00    -0.014 A 
BRANCH  39  40
ATOM     40  C   UNL A   1      42.355  29.496  28.831  1.00  0.00     0.031 A 
ATOM     41  C   UNL A   1      42.601  28.056  28.473  1.00  0.00     0.074 A 
ATOM     42  C   UNL A   1      43.345  30.402  28.734  1.00  0.00     0.049 A 
ATOM     43  N   UNL A   1      43.705  27.473  28.088  1.00  0.00    -0.248 NA
ATOM     44  C   UNL A   1      41.440  27.153  28.557  1.00  0.00     0.031 C 
ATOM     45  C   UNL A   1      43.216  31.831  29.008  1.00  0.00     0.029 A 
ATOM     46  N   UNL A   1      44.661  30.243  28.374  1.00  0.00    -0.354 N 
ATOM     47  C   UNL A   1      43.370  26.143  27.872  1.00  0.00     0.074 A 
ATOM     48  C   UNL A   1      41.973  25.993  28.206  1.00  0.00     0.031 C 
ATOM     49  C   UNL A   1      44.409  32.422  28.806  1.00  0.00     0.029 A 
ATOM     50  C   UNL A   1      45.390  31.408  28.417  1.00  0.00     0.049 A 
ATOM     51  H   UNL A   1      45.046  29.377  28.110  1.00  0.00     0.167 HD
ATOM     52  C   UNL A   1      44.154  25.137  27.418  1.00  0.00     0.037 A 
ATOM     53  C   UNL A   1      46.700  31.623  28.180  1.00  0.00     0.037 A 
ATOM     54  C   UNL A   1      45.548  25.285  27.100  1.00  0.00     0.049 A 
ATOM     55  C   UNL A   1      47.580  30.464  27.779  1.00  0.00     0.074 A 
ATOM     56  C   UNL A   1      46.430  24.325  26.636  1.00  0.00     0.029 A 
ATOM     57  N   UNL A   1      46.267  26.466  27.221  1.00  0.00    -0.354 N 
ATOM     58  N   UNL A   1      47.248  29.213  27.562  1.00  0.00    -0.248 NA
ATOM     59  C   UNL A   1      49.012  30.745  27.598  1.00  0.00     0.031 C 
ATOM     60  C   UNL A   1      47.693  24.913  26.524  1.00  0.00     0.029 A 
ATOM     61  C   UNL A   1      47.588  26.251  26.870  1.00  0.00     0.049 A 
ATOM     62  H   UNL A   1      45.892  27.328  27.514  1.00  0.00     0.167 HD
ATOM     63  C   UNL A   1      48.427  28.563  27.202  1.00  0.00     0.074 A 
ATOM     64  C   UNL A   1      49.475  29.561  27.216  1.00  0.00     0.031 C 
ATOM     65  C   UNL A   1      48.621  27.257  26.891  1.00  0.00     0.037 A 
BRANCH  52  66
ATOM     66  C   UNL A   1      43.521  23.786  27.252  1.00  0.00     0.058 A 
ATOM     67  C   UNL A   1      43.183  23.285  25.984  1.00  0.00     0.135 A 
ATOM     68  C   UNL A   1      43.278  22.969  28.367  1.00  0.00     0.135 A 
ATOM     69  F   UNL A   1      43.372  24.038  24.888  1.00  0.00    -0.206 F 
ATOM     70  C   UNL A   1      42.611  22.028  25.830  1.00  0.00     0.059 A 
ATOM     71  C   UNL A   1      42.731  21.696  28.234  1.00  0.00     0.059 A 
ATOM     72  F   UNL A   1      43.573  23.405  29.602  1.00  0.00    -0.206 F 
ATOM     73  C   UNL A   1      42.392  21.239  26.961  1.00  0.00     0.060 A 
BRANCH  73  74
ATOM     74  S   UNL A   1      41.663  19.604  26.737  1.00  0.00     0.124 S 
ATOM     75  O   UNL A   1      41.728  19.451  25.287  1.00  0.00    -0.237 OA
ATOM     76  O   UNL A   1      42.567  18.754  27.505  1.00  0.00    -0.237 OA
ATOM     77  O   UNL A   1      40.321  19.750  27.292  1.00  0.00    -0.744 OA
ENDBRANCH  73  74
ENDBRANCH  52  66
BRANCH  53  78
ATOM     78  C   UNL A   1      47.268  32.992  28.317  1.00  0.00     0.058 A 
ATOM     79  C   UNL A   1      47.804  33.434  29.536  1.00  0.00     0.135 A 
ATOM     80  C   UNL A   1      47.285  33.888  27.236  1.00  0.00     0.135 A 
ATOM     81  F   UNL A   1      47.796  32.622  30.606  1.00  0.00    -0.206 F 
ATOM     82  C   UNL A   1      48.333  34.713  29.681  1.00  0.00     0.059 A 
ATOM     83  C   UNL A   1      47.830  35.163  27.349  1.00  0.00     0.059 A 
ATOM     84  F   UNL A   1      46.786  33.516  26.047  1.00  0.00    -0.206 F 
ATOM     85  C   UNL A   1      48.347  35.569  28.579  1.00  0.00     0.060 A 
BRANCH  85  86
ATOM     86  S   UNL A   1      49.088  37.205  28.767  1.00  0.00     0.124 S 
ATOM     87  O   UNL A   1      48.001  38.074  28.332  1.00  0.00    -0.237 OA
ATOM     88  O   UNL A   1      49.398  37.236  30.193  1.00  0.00    -0.237 OA
ATOM     89  O   UNL A   1      50.247  37.154  27.880  1.00  0.00    -0.744 OA
ENDBRANCH  85  86
ENDBRANCH  53  78
BRANCH  65  90
ATOM     90  C   UNL A   1      50.016  26.820  26.535  1.00  0.00     0.058 A 
ATOM     91  C   UNL A   1      50.909  26.354  27.512  1.00  0.00     0.135 A 
ATOM     92  C   UNL A   1      50.431  26.775  25.193  1.00  0.00     0.135 A 
ATOM     93  F   UNL A   1      50.565  26.379  28.809  1.00  0.00    -0.206 F 
ATOM     94  C   UNL A   1      52.168  25.868  27.173  1.00  0.00     0.059 A 
ATOM     95  C   UNL A   1      51.675  26.268  24.828  1.00  0.00     0.059 A 
ATOM     96  F   UNL A   1      49.610  27.196  24.217  1.00  0.00    -0.206 F 
ATOM     97  C   UNL A   1      52.538  25.821  25.827  1.00  0.00     0.060 A 
BRANCH  97  98
ATOM     98  S   UNL A   1      54.154  25.135  25.402  1.00  0.00     0.124 S 
ATOM     99  O   UNL A   1      53.891  23.701  25.466  1.00  0.00    -0.237 OA
ATOM    100  O   UNL A   1      54.380  25.679  24.066  1.00  0.00    -0.237 OA
ATOM    101  O   UNL A   1      55.033  25.658  26.443  1.00  0.00    -0.744 OA
ENDBRANCH  97  98
ENDBRANCH  65  90
ENDBRANCH  39  40
ENDBRANCH  32  34
ENDBRANCH  31  32
ENDBRANCH  30  31
ENDBRANCH  29  30
ENDBRANCH  28  29
ENDBRANCH  27  28
ENDBRANCH   1  27
TORSDOF 24
ENDMDL
MODEL 2
REMARK VINA RESULT:      -9.4      4.287      7.180
REMARK SMILES Cc1cc(Cl)cc2c1O[C@H](C(F)(F)F)C(C(=O)OCCOCCOCCOCCOC(=O)c1ccc(-c3c4nc(c(-c5c(F)cc(S(=O)(=O)[O-])cc5F)c5ccc([nH]5)c(-c5c(F)cc(S(=O)(=O)[O-])cc5F)c5nc(c(-c6c(F)cc(S(=O)(=O)[O-])cc6F)c6ccc3[nH]6)C=C5)C=C4)cc1)=C2
REMARK SMILES IDX 25 1 24 2 23 3 22 4 21 5 20 6 19 7 18 8 16 9 17 10 15 11
REMARK SMILES IDX 1 12 2 13 3 14 8 15 4 16 7 17 9 18 5 19 6 20 99 21 10 22
REMARK SMILES IDX 11 23 12 24 13 25 14 26 26 27 27 28 28 29 29 30 30 31 31 32
REMARK SMILES IDX 32 33 33 34 34 35 98 36 35 37 97 38 36 39 37 40 38 41 91 42
REMARK SMILES IDX 39 43 96 44 90 45 92 46 40 47 95 48 89 49 88 50 41 52 75 53
REMARK SMILES IDX 54 54 74 55 55 56 58 57 73 58 93 59 56 60 57 61 72 63 94 64
REMARK SMILES IDX 59 65 42 66 43 67 52 68 44 69 45 70 51 71 53 72 46 73 47 74
REMARK SMILES IDX 48 75 49 76 50 77 76 78 77 79 86 80 78 81 79 82 85 83 87 84
REMARK SMILES IDX 80 85 81 86 82 87 83 88 84 89 60 90 61 91 70 92 62 93 63 94
REMARK SMILES IDX 69 95 71 96 64 97 65 98 66 99 67 100 68 101
REMARK H PARENT 92 51 58 62
REMARK Flexibility Score: inf
ROOT
ATOM      1  C   UNL A   1      32.917  35.494  29.590  1.00  0.00     0.188 C 
ENDROOT
BRANCH   1   2
ATOM      2  O   UNL A   1      32.901  36.779  30.216  1.00  0.00    -0.377 OA
BRANCH   2   3
ATOM      3  C   UNL A   1      32.844  36.833  31.631  1.00  0.00     0.188 C 
BRANCH   3   4
ATOM      4  C   UNL A   1      33.098  35.475  32.309  1.00  0.00     0.188 C 
BRANCH   4   5
ATOM      5  O   UNL A   1      34.462  35.274  32.656  1.00  0.00    -0.376 OA
BRANCH   5   6
ATOM      6  C   UNL A   1      34.916  33.949  32.893  1.00  0.00     0.202 C 
BRANCH   6   7
ATOM      7  C   UNL A   1      35.807  33.655  34.111  1.00  0.00     0.261 C 
BRANCH   7   8
ATOM      8  O   UNL A   1      36.751  32.585  33.959  1.00  0.00    -0.460 OA
BRANCH   8   9
ATOM      9  C   UNL A   1      37.559  32.298  34.994  1.00  0.00     0.338 C 
ATOM     10  O   UNL A   1      37.240  32.190  36.166  1.00  0.00    -0.246 OA
BRANCH   9  11
ATOM     11  C   UNL A   1      38.888  31.946  34.442  1.00  0.00     0.087 C 
ATOM     12  C   UNL A   1      43.587  31.974  32.380  1.00  0.00     0.048 C 
ATOM     13  C   UNL A   1      42.672  30.934  32.964  1.00  0.00    -0.007 A 
ATOM     14  C   UNL A   1      43.150  29.630  33.163  1.00  0.00     0.027 A 
ATOM     15  C   UNL A   1      41.378  31.262  33.406  1.00  0.00     0.131 A 
ATOM     16  C   UNL A   1      42.337  28.668  33.758  1.00  0.00     0.042 A 
ATOM     17  C   UNL A   1      40.585  30.304  34.045  1.00  0.00     0.019 A 
ATOM     18  O   UNL A   1      40.965  32.546  33.192  1.00  0.00    -0.475 OA
ATOM     19  Cl  UNL A   1      42.935  27.069  33.989  1.00  0.00    -0.084 Cl
ATOM     20  C   UNL A   1      41.057  28.996  34.196  1.00  0.00     0.032 A 
ATOM     21  C   UNL A   1      39.297  30.681  34.606  1.00  0.00     0.027 C 
ATOM     22  C   UNL A   1      39.659  32.980  33.662  1.00  0.00     0.316 C 
BRANCH  22  23
ATOM     23  C   UNL A   1      39.861  34.278  34.456  1.00  0.00     0.430 C 
ATOM     24  F   UNL A   1      40.994  34.914  34.074  1.00  0.00    -0.167 F 
ATOM     25  F   UNL A   1      38.842  35.148  34.285  1.00  0.00    -0.167 F 
ATOM     26  F   UNL A   1      39.964  34.031  35.784  1.00  0.00    -0.167 F 
ENDBRANCH  22  23
ENDBRANCH   9  11
ENDBRANCH   8   9
ENDBRANCH   7   8
ENDBRANCH   6   7
ENDBRANCH   5   6
ENDBRANCH   4   5
ENDBRANCH   3   4
ENDBRANCH   2   3
ENDBRANCH   1   2
BRANCH   1  27
ATOM     27  C   UNL A   1      34.146  34.966  28.810  1.00  0.00     0.188 C 
BRANCH  27  28
ATOM     28  O   UNL A   1      34.981  34.081  29.553  1.00  0.00    -0.376 OA
BRANCH  28  29
ATOM     29  C   UNL A   1      36.324  33.949  29.110  1.00  0.00     0.202 C 
BRANCH  29  30
ATOM     30  C   UNL A   1      36.603  32.671  28.309  1.00  0.00     0.261 C 
BRANCH  30  31
ATOM     31  O   UNL A   1      36.116  31.457  28.904  1.00  0.00    -0.460 OA
BRANCH  31  32
ATOM     32  C   UNL A   1      36.697  31.053  30.055  1.00  0.00     0.338 C 
ATOM     33  O   UNL A   1      36.192  31.027  31.164  1.00  0.00    -0.246 OA
BRANCH  32  34
ATOM     34  C   UNL A   1      37.998  30.450  29.706  1.00  0.00     0.060 A 
ATOM     35  C   UNL A   1      39.006  30.397  30.677  1.00  0.00     0.016 A 
ATOM     36  C   UNL A   1      38.212  29.918  28.431  1.00  0.00     0.016 A 
ATOM     37  C   UNL A   1      40.244  29.837  30.365  1.00  0.00     0.010 A 
ATOM     38  C   UNL A   1      39.460  29.381  28.112  1.00  0.00     0.010 A 
ATOM     39  C   UNL A   1      40.491  29.368  29.068  1.00  0.00    -0.014 A 
BRANCH  39  40
ATOM     40  C   UNL A   1      41.884  29.084  28.648  1.00  0.00     0.031 A 
ATOM     41  C   UNL A   1      42.225  27.672  28.257  1.00  0.00     0.074 A 
ATOM     42  C   UNL A   1      42.813  30.054  28.579  1.00  0.00     0.049 A 
ATOM     43  N   UNL A   1      43.367  27.172  27.865  1.00  0.00    -0.248 NA
ATOM     44  C   UNL A   1      41.125  26.694  28.311  1.00  0.00     0.031 C 
ATOM     45  C   UNL A   1      42.591  31.465  28.887  1.00  0.00     0.029 A 
ATOM     46  N   UNL A   1      44.138  29.991  28.225  1.00  0.00    -0.354 N 
ATOM     47  C   UNL A   1      43.120  25.828  27.615  1.00  0.00     0.074 A 
ATOM     48  C   UNL A   1      41.733  25.580  27.937  1.00  0.00     0.031 C 
ATOM     49  C   UNL A   1      43.743  32.137  28.706  1.00  0.00     0.029 A 
ATOM     50  C   UNL A   1      44.790  31.199  28.300  1.00  0.00     0.049 A 
ATOM     51  H   UNL A   1      44.581  29.158  27.942  1.00  0.00     0.167 HD
ATOM     52  C   UNL A   1      43.970  24.887  27.143  1.00  0.00     0.037 A 
ATOM     53  C   UNL A   1      46.084  31.504  28.076  1.00  0.00     0.037 A 
ATOM     54  C   UNL A   1      45.353  25.133  26.837  1.00  0.00     0.049 A 
ATOM     55  C   UNL A   1      47.040  30.415  27.654  1.00  0.00     0.074 A 
ATOM     56  C   UNL A   1      46.298  24.244  26.356  1.00  0.00     0.029 A 
ATOM     57  N   UNL A   1      45.993  26.354  26.992  1.00  0.00    -0.354 N 
ATOM     58  N   UNL A   1      46.792  29.151  27.405  1.00  0.00    -0.248 NA
ATOM     59  C   UNL A   1      48.452  30.792  27.489  1.00  0.00     0.031 C 
ATOM     60  C   UNL A   1      47.521  24.915  26.267  1.00  0.00     0.029 A 
ATOM     61  C   UNL A   1      47.327  26.235  26.644  1.00  0.00     0.049 A 
ATOM     62  H   UNL A   1      45.561  27.183  27.302  1.00  0.00     0.167 HD
ATOM     63  C   UNL A   1      48.012  28.588  27.037  1.00  0.00     0.074 A 
ATOM     64  C   UNL A   1      48.992  29.651  27.082  1.00  0.00     0.031 C 
ATOM     65  C   UNL A   1      48.293  27.305  26.697  1.00  0.00     0.037 A 
BRANCH  52  66
ATOM     66  C   UNL A   1      43.427  23.502  26.940  1.00  0.00     0.058 A 
ATOM     67  C   UNL A   1      43.113  23.018  25.660  1.00  0.00     0.135 A 
ATOM     68  C   UNL A   1      43.248  22.638  28.031  1.00  0.00     0.135 A 
ATOM     69  F   UNL A   1      43.242  23.813  24.586  1.00  0.00    -0.206 F 
ATOM     70  C   UNL A   1      42.625  21.730  25.471  1.00  0.00     0.059 A 
ATOM     71  C   UNL A   1      42.786  21.336  27.863  1.00  0.00     0.059 A 
ATOM     72  F   UNL A   1      43.524  23.056  29.277  1.00  0.00    -0.206 F 
ATOM     73  C   UNL A   1      42.468  20.895  26.580  1.00  0.00     0.060 A 
BRANCH  73  74
ATOM     74  S   UNL A   1      41.848  19.222  26.312  1.00  0.00     0.124 S 
ATOM     75  O   UNL A   1      41.983  18.643  27.645  1.00  0.00    -0.237 OA
ATOM     76  O   UNL A   1      40.481  19.467  25.862  1.00  0.00    -0.237 OA
ATOM     77  O   UNL A   1      42.751  18.681  25.300  1.00  0.00    -0.744 OA
ENDBRANCH  73  74
ENDBRANCH  52  66
BRANCH  53  78
ATOM     78  C   UNL A   1      46.562  32.904  28.251  1.00  0.00     0.058 A 
ATOM     79  C   UNL A   1      46.575  33.803  27.174  1.00  0.00     0.135 A 
ATOM     80  C   UNL A   1      47.017  33.371  29.495  1.00  0.00     0.135 A 
ATOM     81  F   UNL A   1      46.168  33.401  25.960  1.00  0.00    -0.206 F 
ATOM     82  C   UNL A   1      47.025  35.112  27.320  1.00  0.00     0.059 A 
ATOM     83  C   UNL A   1      47.448  34.682  29.672  1.00  0.00     0.059 A 
ATOM     84  F   UNL A   1      47.024  32.552  30.558  1.00  0.00    -0.206 F 
ATOM     85  C   UNL A   1      47.454  35.543  28.576  1.00  0.00     0.060 A 
BRANCH  85  86
ATOM     86  S   UNL A   1      47.980  37.261  28.764  1.00  0.00     0.124 S 
ATOM     87  O   UNL A   1      46.887  37.978  28.118  1.00  0.00    -0.237 OA
ATOM     88  O   UNL A   1      48.061  37.396  30.215  1.00  0.00    -0.237 OA
ATOM     89  O   UNL A   1      49.260  37.300  28.064  1.00  0.00    -0.744 OA
ENDBRANCH  85  86
ENDBRANCH  53  78
BRANCH  65  90
ATOM     90  C   UNL A   1      49.714  26.968  26.339  1.00  0.00     0.058 A 
ATOM     91  C   UNL A   1      50.621  26.501  27.303  1.00  0.00     0.135 A 
ATOM     92  C   UNL A   1      50.148  27.020  25.003  1.00  0.00     0.135 A 
ATOM     93  F   UNL A   1      50.260  26.436  28.594  1.00  0.00    -0.206 F 
ATOM     94  C   UNL A   1      51.910  26.107  26.958  1.00  0.00     0.059 A 
ATOM     95  C   UNL A   1      51.424  26.605  24.631  1.00  0.00     0.059 A 
ATOM     96  F   UNL A   1      49.317  27.446  24.039  1.00  0.00    -0.206 F 
ATOM     97  C   UNL A   1      52.299  26.155  25.618  1.00  0.00     0.060 A 
BRANCH  97  98
ATOM     98  S   UNL A   1      53.956  25.586  25.182  1.00  0.00     0.124 S 
ATOM     99  O   UNL A   1      53.843  24.148  25.405  1.00  0.00    -0.237 OA
ATOM    100  O   UNL A   1      54.071  26.004  23.788  1.00  0.00    -0.237 OA
ATOM    101  O   UNL A   1      54.820  26.299  26.117  1.00  0.00    -0.744 OA
ENDBRANCH  97  98
ENDBRANCH  65  90
ENDBRANCH  39  40
ENDBRANCH  32  34
ENDBRANCH  31  32
ENDBRANCH  30  31
ENDBRANCH  29  30
ENDBRANCH  28  29
ENDBRANCH  27  28
ENDBRANCH   1  27
TORSDOF 24
ENDMDL
MODEL 3
REMARK VINA RESULT:      -8.5      1.839      2.660
REMARK SMILES Cc1cc(Cl)cc2c1O[C@H](C(F)(F)F)C(C(=O)OCCOCCOCCOCCOC(=O)c1ccc(-c3c4nc(c(-c5c(F)cc(S(=O)(=O)[O-])cc5F)c5ccc([nH]5)c(-c5c(F)cc(S(=O)(=O)[O-])cc5F)c5nc(c(-c6c(F)cc(S(=O)(=O)[O-])cc6F)c6ccc3[nH]6)C=C5)C=C4)cc1)=C2
REMARK SMILES IDX 25 1 24 2 23 3 22 4 21 5 20 6 19 7 18 8 16 9 17 10 15 11
REMARK SMILES IDX 1 12 2 13 3 14 8 15 4 16 7 17 9 18 5 19 6 20 99 21 10 22
REMARK SMILES IDX 11 23 12 24 13 25 14 26 26 27 27 28 28 29 29 30 30 31 31 32
REMARK SMILES IDX 32 33 33 34 34 35 98 36 35 37 97 38 36 39 37 40 38 41 91 42
REMARK SMILES IDX 39 43 96 44 90 45 92 46 40 47 95 48 89 49 88 50 41 52 75 53
REMARK SMILES IDX 54 54 74 55 55 56 58 57 73 58 93 59 56 60 57 61 72 63 94 64
REMARK SMILES IDX 59 65 42 66 43 67 52 68 44 69 45 70 51 71 53 72 46 73 47 74
REMARK SMILES IDX 48 75 49 76 50 77 76 78 77 79 86 80 78 81 79 82 85 83 87 84
REMARK SMILES IDX 80 85 81 86 82 87 83 88 84 89 60 90 61 91 70 92 62 93 63 94
REMARK SMILES IDX 69 95 71 96 64 97 65 98 66 99 67 100 68 101
REMARK H PARENT 92 51 58 62
REMARK Flexibility Score: inf
ROOT
ATOM      1  C   UNL A   1      32.904  28.254  27.354  1.00  0.00     0.188 C 
ENDROOT
BRANCH   1   2
ATOM      2  O   UNL A   1      31.564  28.518  26.932  1.00  0.00    -0.377 OA
BRANCH   2   3
ATOM      3  C   UNL A   1      31.001  27.687  25.931  1.00  0.00     0.188 C 
BRANCH   3   4
ATOM      4  C   UNL A   1      31.090  28.286  24.515  1.00  0.00     0.188 C 
BRANCH   4   5
ATOM      5  O   UNL A   1      30.149  27.719  23.613  1.00  0.00    -0.376 OA
BRANCH   5   6
ATOM      6  C   UNL A   1      29.541  26.481  23.951  1.00  0.00     0.202 C 
BRANCH   6   7
ATOM      7  C   UNL A   1      30.311  25.168  23.729  1.00  0.00     0.261 C 
BRANCH   7   8
ATOM      8  O   UNL A   1      31.564  25.280  23.041  1.00  0.00    -0.460 OA
BRANCH   8   9
ATOM      9  C   UNL A   1      32.692  25.046  23.733  1.00  0.00     0.338 C 
ATOM     10  O   UNL A   1      33.470  25.876  24.170  1.00  0.00    -0.246 OA
BRANCH   9  11
ATOM     11  C   UNL A   1      32.737  23.597  24.041  1.00  0.00     0.087 C 
ATOM     12  C   UNL A   1      32.970  18.994  26.295  1.00  0.00     0.048 C 
ATOM     13  C   UNL A   1      32.775  19.498  24.893  1.00  0.00    -0.007 A 
ATOM     14  C   UNL A   1      32.445  18.592  23.875  1.00  0.00     0.027 A 
ATOM     15  C   UNL A   1      32.822  20.872  24.597  1.00  0.00     0.131 A 
ATOM     16  C   UNL A   1      32.201  19.048  22.581  1.00  0.00     0.042 A 
ATOM     17  C   UNL A   1      32.530  21.328  23.307  1.00  0.00     0.019 A 
ATOM     18  O   UNL A   1      33.143  21.711  25.626  1.00  0.00    -0.475 OA
ATOM     19  Cl  UNL A   1      31.804  17.923  21.339  1.00  0.00    -0.084 Cl
ATOM     20  C   UNL A   1      32.246  20.409  22.291  1.00  0.00     0.032 A 
ATOM     21  C   UNL A   1      32.463  22.755  23.037  1.00  0.00     0.027 C 
ATOM     22  C   UNL A   1      33.166  23.149  25.415  1.00  0.00     0.316 C 
BRANCH  22  23
ATOM     23  C   UNL A   1      32.326  23.792  26.527  1.00  0.00     0.430 C 
ATOM     24  F   UNL A   1      31.010  23.791  26.209  1.00  0.00    -0.167 F 
ATOM     25  F   UNL A   1      32.449  23.140  27.704  1.00  0.00    -0.167 F 
ATOM     26  F   UNL A   1      32.691  25.079  26.736  1.00  0.00    -0.167 F 
ENDBRANCH  22  23
ENDBRANCH   9  11
ENDBRANCH   8   9
ENDBRANCH   7   8
ENDBRANCH   6   7
ENDBRANCH   5   6
ENDBRANCH   4   5
ENDBRANCH   3   4
ENDBRANCH   2   3
ENDBRANCH   1   2
BRANCH   1  27
ATOM     27  C   UNL A   1      34.132  28.903  26.672  1.00  0.00     0.188 C 
BRANCH  27  28
ATOM     28  O   UNL A   1      34.173  30.325  26.759  1.00  0.00    -0.376 OA
BRANCH  28  29
ATOM     29  C   UNL A   1      34.559  30.877  28.009  1.00  0.00     0.202 C 
BRANCH  29  30
ATOM     30  C   UNL A   1      35.759  30.183  28.665  1.00  0.00     0.261 C 
BRANCH  30  31
ATOM     31  O   UNL A   1      36.402  30.929  29.711  1.00  0.00    -0.460 OA
BRANCH  31  32
ATOM     32  C   UNL A   1      36.933  30.227  30.737  1.00  0.00     0.338 C 
ATOM     33  O   UNL A   1      36.332  29.690  31.650  1.00  0.00    -0.246 OA
BRANCH  32  34
ATOM     34  C   UNL A   1      38.371  30.047  30.450  1.00  0.00     0.060 A 
ATOM     35  C   UNL A   1      38.955  30.786  29.413  1.00  0.00     0.016 A 
ATOM     36  C   UNL A   1      39.140  29.169  31.218  1.00  0.00     0.016 A 
ATOM     37  C   UNL A   1      40.310  30.625  29.123  1.00  0.00     0.010 A 
ATOM     38  C   UNL A   1      40.489  28.991  30.910  1.00  0.00     0.010 A 
ATOM     39  C   UNL A   1      41.071  29.694  29.840  1.00  0.00    -0.014 A 
BRANCH  39  40
ATOM     40  C   UNL A   1      42.400  29.287  29.324  1.00  0.00     0.031 A 
ATOM     41  C   UNL A   1      42.559  27.874  28.831  1.00  0.00     0.074 A 
ATOM     42  C   UNL A   1      43.428  30.152  29.259  1.00  0.00     0.049 A 
ATOM     43  N   UNL A   1      43.615  27.279  28.346  1.00  0.00    -0.248 NA
ATOM     44  C   UNL A   1      41.359  27.021  28.892  1.00  0.00     0.031 C 
ATOM     45  C   UNL A   1      43.383  31.555  29.661  1.00  0.00     0.029 A 
ATOM     46  N   UNL A   1      44.718  29.966  28.825  1.00  0.00    -0.354 N 
ATOM     47  C   UNL A   1      43.205  25.989  28.031  1.00  0.00     0.074 A 
ATOM     48  C   UNL A   1      41.818  25.874  28.418  1.00  0.00     0.031 C 
ATOM     49  C   UNL A   1      44.593  32.107  29.454  1.00  0.00     0.029 A 
ATOM     50  C   UNL A   1      45.505  31.088  28.932  1.00  0.00     0.049 A 
ATOM     51  H   UNL A   1      45.048  29.110  28.468  1.00  0.00     0.167 HD
ATOM     52  C   UNL A   1      43.918  24.993  27.456  1.00  0.00     0.037 A 
ATOM     53  C   UNL A   1      46.812  31.264  28.653  1.00  0.00     0.037 A 
ATOM     54  C   UNL A   1      45.303  25.105  27.086  1.00  0.00     0.049 A 
ATOM     55  C   UNL A   1      47.616  30.106  28.113  1.00  0.00     0.074 A 
ATOM     56  C   UNL A   1      46.115  24.151  26.500  1.00  0.00     0.029 A 
ATOM     57  N   UNL A   1      46.083  26.236  27.274  1.00  0.00    -0.354 N 
ATOM     58  N   UNL A   1      47.214  28.895  27.804  1.00  0.00    -0.248 NA
ATOM     59  C   UNL A   1      49.051  30.336  27.888  1.00  0.00     0.031 C 
ATOM     60  C   UNL A   1      47.399  24.688  26.379  1.00  0.00     0.029 A 
ATOM     61  C   UNL A   1      47.376  25.993  26.844  1.00  0.00     0.049 A 
ATOM     62  H   UNL A   1      45.765  27.085  27.658  1.00  0.00     0.167 HD
ATOM     63  C   UNL A   1      48.342  28.226  27.334  1.00  0.00     0.074 A 
ATOM     64  C   UNL A   1      49.437  29.171  27.384  1.00  0.00     0.031 C 
ATOM     65  C   UNL A   1      48.458  26.945  26.903  1.00  0.00     0.037 A 
BRANCH  52  66
ATOM     66  C   UNL A   1      43.212  23.692  27.204  1.00  0.00     0.058 A 
ATOM     67  C   UNL A   1      43.064  22.730  28.216  1.00  0.00     0.135 A 
ATOM     68  C   UNL A   1      42.650  23.415  25.948  1.00  0.00     0.135 A 
ATOM     69  F   UNL A   1      43.606  22.935  29.428  1.00  0.00    -0.206 F 
ATOM     70  C   UNL A   1      42.397  21.532  27.986  1.00  0.00     0.059 A 
ATOM     71  C   UNL A   1      41.956  22.235  25.703  1.00  0.00     0.059 A 
ATOM     72  F   UNL A   1      42.773  24.298  24.943  1.00  0.00    -0.206 F 
ATOM     73  C   UNL A   1      41.843  21.295  26.727  1.00  0.00     0.060 A 
BRANCH  73  74
ATOM     74  S   UNL A   1      40.968  19.741  26.454  1.00  0.00     0.124 S 
ATOM     75  O   UNL A   1      41.897  19.033  25.578  1.00  0.00    -0.237 OA
ATOM     76  O   UNL A   1      40.847  19.212  27.808  1.00  0.00    -0.237 OA
ATOM     77  O   UNL A   1      39.716  20.159  25.831  1.00  0.00    -0.744 OA
ENDBRANCH  73  74
ENDBRANCH  52  66
BRANCH  53  78
ATOM     78  C   UNL A   1      47.453  32.588  28.881  1.00  0.00     0.058 A 
ATOM     79  C   UNL A   1      48.047  32.901  30.113  1.00  0.00     0.135 A 
ATOM     80  C   UNL A   1      47.483  33.568  27.875  1.00  0.00     0.135 A 
ATOM     81  F   UNL A   1      48.029  32.006  31.113  1.00  0.00    -0.206 F 
ATOM     82  C   UNL A   1      48.644  34.137  30.343  1.00  0.00     0.059 A 
ATOM     83  C   UNL A   1      48.095  34.801  28.072  1.00  0.00     0.059 A 
ATOM     84  F   UNL A   1      46.930  33.318  26.678  1.00  0.00    -0.206 F 
ATOM     85  C   UNL A   1      48.668  35.079  29.313  1.00  0.00     0.060 A 
BRANCH  85  86
ATOM     86  S   UNL A   1      49.497  36.657  29.607  1.00  0.00     0.124 S 
ATOM     87  O   UNL A   1      50.902  36.276  29.509  1.00  0.00    -0.237 OA
ATOM     88  O   UNL A   1      48.982  37.478  28.516  1.00  0.00    -0.237 OA
ATOM     89  O   UNL A   1      49.038  37.036  30.940  1.00  0.00    -0.744 OA
ENDBRANCH  85  86
ENDBRANCH  53  78
BRANCH  65  90
ATOM     90  C   UNL A   1      49.812  26.478  26.444  1.00  0.00     0.058 A 
ATOM     91  C   UNL A   1      50.264  26.718  25.137  1.00  0.00     0.135 A 
ATOM     92  C   UNL A   1      50.703  25.871  27.344  1.00  0.00     0.135 A 
ATOM     93  F   UNL A   1      49.451  27.290  24.235  1.00  0.00    -0.206 F 
ATOM     94  C   UNL A   1      51.548  26.364  24.736  1.00  0.00     0.059 A 
ATOM     95  C   UNL A   1      52.002  25.533  26.973  1.00  0.00     0.059 A 
ATOM     96  F   UNL A   1      50.326  25.631  28.610  1.00  0.00    -0.206 F 
ATOM     97  C   UNL A   1      52.413  25.779  25.664  1.00  0.00     0.060 A 
BRANCH  97  98
ATOM     98  S   UNL A   1      54.094  25.379  25.142  1.00  0.00     0.124 S 
ATOM     99  O   UNL A   1      54.862  25.717  26.336  1.00  0.00    -0.237 OA
ATOM    100  O   UNL A   1      53.993  23.955  24.835  1.00  0.00    -0.237 OA
ATOM    101  O   UNL A   1      54.311  26.248  23.990  1.00  0.00    -0.744 OA
ENDBRANCH  97  98
ENDBRANCH  65  90
ENDBRANCH  39  40
ENDBRANCH  32  34
ENDBRANCH  31  32
ENDBRANCH  30  31
ENDBRANCH  29  30
ENDBRANCH  28  29
ENDBRANCH  27  28
ENDBRANCH   1  27
TORSDOF 24
ENDMDL
