MODEL 1
REMARK VINA RESULT:     -11.2      0.000      0.000
REMARK SMILES Cc1ccccc1/C=C1\SC(=O)N(CC(=O)Nc2ccccc2C(=O)OCCOCCOCCOCCOC(=O)c2ccc(-c3c4nc(c(-c5c(F)cc(S(=O)(=O)[O-])cc5F)c5ccc([nH]5)c(-c5c(F)cc(S(=O)(=O)[O-])cc5F)c5nc(c(-c6c(F)cc(S(=O)(=O)[O-])cc6F)c6ccc3[nH]6)C=C5)C=C4)cc2)C1=O
REMARK SMILES IDX 31 1 30 2 29 3 28 4 27 5 26 6 24 7 25 8 23 9 18 10 19 11
REMARK SMILES IDX 20 12 22 13 21 14 17 15 15 16 16 17 14 19 13 20 8 21 9 22
REMARK SMILES IDX 10 23 107 24 11 25 108 26 12 27 7 28 1 29 2 30 3 31 4 32
REMARK SMILES IDX 6 33 5 34 32 35 33 36 34 37 35 38 36 39 37 40 38 41 39 42
REMARK SMILES IDX 40 43 41 44 42 45 106 46 43 47 105 48 44 49 45 50 46 51
REMARK SMILES IDX 99 52 47 53 104 54 98 55 100 56 48 57 103 58 97 59 96 60
REMARK SMILES IDX 49 62 83 63 62 64 82 65 63 66 66 67 81 68 101 69 64 70 65 71
REMARK SMILES IDX 80 73 102 74 67 75 50 76 51 77 60 78 52 79 53 80 59 81 61 82
REMARK SMILES IDX 54 83 55 84 56 85 57 86 58 87 84 88 85 89 94 90 86 91 87 92
REMARK SMILES IDX 93 93 95 94 88 95 89 96 90 97 91 98 92 99 68 100 69 101
REMARK SMILES IDX 78 102 70 103 71 104 77 105 79 106 72 107 73 108 74 109
REMARK SMILES IDX 75 110 76 111
REMARK H PARENT 17 18 100 61 66 72
REMARK Flexibility Score: inf
ROOT
ATOM      1  C   UNL A   1      47.570  25.015  25.480  1.00  0.00     0.188 C 
ENDROOT
BRANCH   1   2
ATOM      2  C   UNL A   1      46.583  23.642  25.556  1.00  0.00     0.188 C 
BRANCH   2   3
ATOM      3  O   UNL A   1      44.977  23.158  26.187  1.00  0.00    -0.376 OA
BRANCH   3   4
ATOM      4  C   UNL A   1      43.331  23.011  25.424  1.00  0.00     0.202 C 
BRANCH   4   5
ATOM      5  C   UNL A   1      41.694  22.161  26.084  1.00  0.00     0.261 C 
BRANCH   5   6
ATOM      6  O   UNL A   1      39.960  21.481  25.872  1.00  0.00    -0.460 OA
BRANCH   6   7
ATOM      7  C   UNL A   1      38.343  21.248  25.577  1.00  0.00     0.340 C 
ATOM      8  O   UNL A   1      37.915  20.223  25.012  1.00  0.00    -0.246 OA
BRANCH   7   9
ATOM      9  C   UNL A   1      36.914  22.144  25.712  1.00  0.00     0.083 A 
ATOM     10  C   UNL A   1      35.485  21.882  25.963  1.00  0.00     0.055 A 
ATOM     11  C   UNL A   1      34.600  22.968  26.200  1.00  0.00     0.027 A 
ATOM     12  C   UNL A   1      34.999  24.285  26.057  1.00  0.00     0.002 A 
ATOM     13  C   UNL A   1      37.186  23.498  25.404  1.00  0.00     0.018 A 
ATOM     14  C   UNL A   1      36.275  24.545  25.599  1.00  0.00     0.001 A 
BRANCH  10  15
ATOM     15  N   UNL A   1      34.765  20.615  25.918  1.00  0.00    -0.324 N 
ATOM     16  C   UNL A   1      34.611  19.829  24.732  1.00  0.00     0.244 C 
ATOM     17  O   UNL A   1      35.391  18.922  24.440  1.00  0.00    -0.273 OA
ATOM     18  H   UNL A   1      34.362  20.281  26.752  1.00  0.00     0.170 HD
BRANCH  16  19
ATOM     19  C   UNL A   1      33.381  20.130  23.827  1.00  0.00     0.230 C 
BRANCH  19  20
ATOM     20  N   UNL A   1      32.894  21.361  24.345  1.00  0.00    -0.259 N 
ATOM     21  C   UNL A   1      31.453  25.386  23.819  1.00  0.00     0.029 C 
ATOM     22  C   UNL A   1      31.705  23.770  23.915  1.00  0.00     0.083 C 
ATOM     23  S   UNL A   1      31.094  22.565  25.240  1.00  0.00    -0.022 SA
ATOM     24  C   UNL A   1      32.889  22.510  23.528  1.00  0.00     0.268 C 
ATOM     25  C   UNL A   1      31.981  21.181  25.285  1.00  0.00     0.294 C 
ATOM     26  O   UNL A   1      33.698  22.408  22.609  1.00  0.00    -0.268 OA
ATOM     27  O   UNL A   1      31.674  20.178  25.901  1.00  0.00    -0.261 OA
BRANCH  21  28
ATOM     28  C   UNL A   1      30.761  27.114  24.082  1.00  0.00    -0.021 A 
ATOM     29  C   UNL A   1      28.206  27.642  23.408  1.00  0.00     0.045 C 
ATOM     30  C   UNL A   1      29.718  27.944  23.445  1.00  0.00    -0.044 A 
ATOM     31  C   UNL A   1      29.801  29.371  23.279  1.00  0.00     0.004 A 
ATOM     32  C   UNL A   1      30.636  30.112  24.054  1.00  0.00     0.000 A 
ATOM     33  C   UNL A   1      31.276  27.966  25.086  1.00  0.00     0.008 A 
ATOM     34  C   UNL A   1      31.243  29.407  25.062  1.00  0.00     0.001 A 
ENDBRANCH  21  28
ENDBRANCH  19  20
ENDBRANCH  16  19
ENDBRANCH  10  15
ENDBRANCH   7   9
ENDBRANCH   6   7
ENDBRANCH   5   6
ENDBRANCH   4   5
ENDBRANCH   3   4
ENDBRANCH   2   3
ENDBRANCH   1   2
BRANCH   1  35
ATOM     35  O   UNL A   1      48.084  25.880  24.455  1.00  0.00    -0.377 OA
BRANCH  35  36
ATOM     36  C   UNL A   1      47.730  27.234  24.155  1.00  0.00     0.188 C 
BRANCH  36  37
ATOM     37  C   UNL A   1      46.362  27.674  24.566  1.00  0.00     0.188 C 
BRANCH  37  38
ATOM     38  O   UNL A   1      46.490  29.047  24.875  1.00  0.00    -0.376 OA
BRANCH  38  39
ATOM     39  C   UNL A   1      47.054  29.318  26.132  1.00  0.00     0.202 C 
BRANCH  39  40
ATOM     40  C   UNL A   1      46.107  28.785  27.190  1.00  0.00     0.261 C 
BRANCH  40  41
ATOM     41  O   UNL A   1      45.630  29.893  27.998  1.00  0.00    -0.460 OA
BRANCH  41  42
ATOM     42  C   UNL A   1      45.499  29.635  29.344  1.00  0.00     0.338 C 
ATOM     43  O   UNL A   1      46.364  29.093  30.009  1.00  0.00    -0.246 OA
BRANCH  42  44
ATOM     44  C   UNL A   1      44.144  30.029  29.831  1.00  0.00     0.060 A 
ATOM     45  C   UNL A   1      43.058  30.285  28.996  1.00  0.00     0.016 A 
ATOM     46  C   UNL A   1      43.979  30.375  31.135  1.00  0.00     0.016 A 
ATOM     47  C   UNL A   1      42.070  31.284  29.329  1.00  0.00     0.010 A 
ATOM     48  C   UNL A   1      42.928  31.248  31.438  1.00  0.00     0.010 A 
ATOM     49  C   UNL A   1      42.154  32.068  30.482  1.00  0.00    -0.014 A 
BRANCH  49  50
ATOM     50  C   UNL A   1      41.513  33.837  30.657  1.00  0.00     0.031 A 
ATOM     51  C   UNL A   1      41.962  35.324  29.323  1.00  0.00     0.074 A 
ATOM     52  C   UNL A   1      41.033  33.846  32.063  1.00  0.00     0.049 A 
ATOM     53  N   UNL A   1      43.004  36.290  29.373  1.00  0.00    -0.248 NA
ATOM     54  C   UNL A   1      41.794  35.571  27.732  1.00  0.00     0.031 C 
ATOM     55  C   UNL A   1      39.924  34.554  32.784  1.00  0.00     0.029 A 
ATOM     56  N   UNL A   1      41.837  33.557  33.287  1.00  0.00    -0.354 N 
ATOM     57  C   UNL A   1      43.179  37.359  28.331  1.00  0.00     0.074 A 
ATOM     58  C   UNL A   1      42.546  36.611  27.278  1.00  0.00     0.031 C 
ATOM     59  C   UNL A   1      40.301  34.989  34.007  1.00  0.00     0.029 A 
ATOM     60  C   UNL A   1      41.685  34.664  34.234  1.00  0.00     0.049 A 
ATOM     61  H   UNL A   1      42.384  32.752  33.434  1.00  0.00     0.167 HD
ATOM     62  C   UNL A   1      43.533  38.834  28.378  1.00  0.00     0.037 A 
ATOM     63  C   UNL A   1      42.559  35.251  35.148  1.00  0.00     0.037 A 
ATOM     64  C   UNL A   1      43.366  39.787  29.754  1.00  0.00     0.049 A 
ATOM     65  C   UNL A   1      43.178  36.853  35.161  1.00  0.00     0.074 A 
ATOM     66  C   UNL A   1      42.347  40.644  30.251  1.00  0.00     0.029 A 
ATOM     67  N   UNL A   1      44.281  40.004  30.820  1.00  0.00    -0.354 N 
ATOM     68  N   UNL A   1      43.369  37.683  34.140  1.00  0.00    -0.248 NA
ATOM     69  C   UNL A   1      43.662  37.563  36.359  1.00  0.00     0.031 C 
ATOM     70  C   UNL A   1      42.402  40.715  31.685  1.00  0.00     0.029 A 
ATOM     71  C   UNL A   1      43.587  40.132  32.112  1.00  0.00     0.049 A 
ATOM     72  H   UNL A   1      45.257  40.060  30.707  1.00  0.00     0.167 HD
ATOM     73  C   UNL A   1      43.882  38.967  34.445  1.00  0.00     0.074 A 
ATOM     74  C   UNL A   1      44.054  38.781  35.894  1.00  0.00     0.031 C 
ATOM     75  C   UNL A   1      44.212  40.022  33.525  1.00  0.00     0.037 A 
BRANCH  62  76
ATOM     76  C   UNL A   1      43.448  39.754  27.071  1.00  0.00     0.058 A 
ATOM     77  C   UNL A   1      44.631  40.260  26.457  1.00  0.00     0.135 A 
ATOM     78  C   UNL A   1      42.279  40.209  26.436  1.00  0.00     0.135 A 
ATOM     79  F   UNL A   1      45.838  39.722  26.677  1.00  0.00    -0.206 F 
ATOM     80  C   UNL A   1      44.658  41.294  25.518  1.00  0.00     0.059 A 
ATOM     81  C   UNL A   1      42.273  41.238  25.466  1.00  0.00     0.059 A 
ATOM     82  F   UNL A   1      41.099  39.613  26.659  1.00  0.00    -0.206 F 
ATOM     83  C   UNL A   1      43.469  41.812  25.049  1.00  0.00     0.060 A 
BRANCH  83  84
ATOM     84  S   UNL A   1      43.542  43.117  23.803  1.00  0.00     0.124 S 
ATOM     85  O   UNL A   1      44.224  44.191  24.519  1.00  0.00    -0.237 OA
ATOM     86  O   UNL A   1      44.307  42.488  22.730  1.00  0.00    -0.237 OA
ATOM     87  O   UNL A   1      42.137  43.370  23.495  1.00  0.00    -0.744 OA
ENDBRANCH  83  84
ENDBRANCH  62  76
BRANCH  63  88
ATOM     88  C   UNL A   1      42.900  34.119  36.116  1.00  0.00     0.058 A 
ATOM     89  C   UNL A   1      41.823  33.753  36.973  1.00  0.00     0.135 A 
ATOM     90  C   UNL A   1      43.645  33.046  35.605  1.00  0.00     0.135 A 
ATOM     91  F   UNL A   1      41.081  34.715  37.554  1.00  0.00    -0.206 F 
ATOM     92  C   UNL A   1      41.300  32.454  36.978  1.00  0.00     0.059 A 
ATOM     93  C   UNL A   1      43.157  31.736  35.612  1.00  0.00     0.059 A 
ATOM     94  F   UNL A   1      44.766  33.270  34.922  1.00  0.00    -0.206 F 
ATOM     95  C   UNL A   1      41.932  31.474  36.214  1.00  0.00     0.060 A 
BRANCH  95  96
ATOM     96  S   UNL A   1      40.988  30.001  35.744  1.00  0.00     0.124 S 
ATOM     97  O   UNL A   1      41.685  28.939  36.455  1.00  0.00    -0.237 OA
ATOM     98  O   UNL A   1      39.657  30.347  36.238  1.00  0.00    -0.237 OA
ATOM     99  O   UNL A   1      41.112  29.978  34.291  1.00  0.00    -0.744 OA
ENDBRANCH  95  96
ENDBRANCH  63  88
BRANCH  75 100
ATOM    100  C   UNL A   1      45.366  41.083  33.736  1.00  0.00     0.058 A 
ATOM    101  C   UNL A   1      45.192  42.477  33.794  1.00  0.00     0.135 A 
ATOM    102  C   UNL A   1      46.638  40.658  34.240  1.00  0.00     0.135 A 
ATOM    103  F   UNL A   1      44.085  43.076  33.349  1.00  0.00    -0.206 F 
ATOM    104  C   UNL A   1      46.118  43.338  34.411  1.00  0.00     0.059 A 
ATOM    105  C   UNL A   1      47.531  41.481  34.930  1.00  0.00     0.059 A 
ATOM    106  F   UNL A   1      47.070  39.395  34.114  1.00  0.00    -0.206 F 
ATOM    107  C   UNL A   1      47.260  42.829  35.017  1.00  0.00     0.060 A 
BRANCH 107 108
ATOM    108  S   UNL A   1      48.373  43.941  35.893  1.00  0.00     0.124 S 
ATOM    109  O   UNL A   1      47.455  44.608  36.811  1.00  0.00    -0.237 OA
ATOM    110  O   UNL A   1      49.319  43.014  36.506  1.00  0.00    -0.237 OA
ATOM    111  O   UNL A   1      48.926  44.783  34.837  1.00  0.00    -0.744 OA
ENDBRANCH 107 108
ENDBRANCH  75 100
ENDBRANCH  49  50
ENDBRANCH  42  44
ENDBRANCH  41  42
ENDBRANCH  40  41
ENDBRANCH  39  40
ENDBRANCH  38  39
ENDBRANCH  37  38
ENDBRANCH  36  37
ENDBRANCH  35  36
ENDBRANCH   1  35
TORSDOF 27
ENDMDL
MODEL 2
REMARK VINA RESULT:     -10.9      7.624     13.439
REMARK SMILES Cc1ccccc1/C=C1\SC(=O)N(CC(=O)Nc2ccccc2C(=O)OCCOCCOCCOCCOC(=O)c2ccc(-c3c4nc(c(-c5c(F)cc(S(=O)(=O)[O-])cc5F)c5ccc([nH]5)c(-c5c(F)cc(S(=O)(=O)[O-])cc5F)c5nc(c(-c6c(F)cc(S(=O)(=O)[O-])cc6F)c6ccc3[nH]6)C=C5)C=C4)cc2)C1=O
REMARK SMILES IDX 31 1 30 2 29 3 28 4 27 5 26 6 24 7 25 8 23 9 18 10 19 11
REMARK SMILES IDX 20 12 22 13 21 14 17 15 15 16 16 17 14 19 13 20 8 21 9 22
REMARK SMILES IDX 10 23 107 24 11 25 108 26 12 27 7 28 1 29 2 30 3 31 4 32
REMARK SMILES IDX 6 33 5 34 32 35 33 36 34 37 35 38 36 39 37 40 38 41 39 42
REMARK SMILES IDX 40 43 41 44 42 45 106 46 43 47 105 48 44 49 45 50 46 51
REMARK SMILES IDX 99 52 47 53 104 54 98 55 100 56 48 57 103 58 97 59 96 60
REMARK SMILES IDX 49 62 83 63 62 64 82 65 63 66 66 67 81 68 101 69 64 70 65 71
REMARK SMILES IDX 80 73 102 74 67 75 50 76 51 77 60 78 52 79 53 80 59 81 61 82
REMARK SMILES IDX 54 83 55 84 56 85 57 86 58 87 84 88 85 89 94 90 86 91 87 92
REMARK SMILES IDX 93 93 95 94 88 95 89 96 90 97 91 98 92 99 68 100 69 101
REMARK SMILES IDX 78 102 70 103 71 104 77 105 79 106 72 107 73 108 74 109
REMARK SMILES IDX 75 110 76 111
REMARK H PARENT 17 18 100 61 66 72
REMARK Flexibility Score: inf
ROOT
ATOM      1  C   UNL A   1      33.527  36.782  32.286  1.00  0.00     0.188 C 
ENDROOT
BRANCH   1   2
ATOM      2  C   UNL A   1      32.912  36.884  30.713  1.00  0.00     0.188 C 
BRANCH   2   3
ATOM      3  O   UNL A   1      32.786  35.876  29.236  1.00  0.00    -0.376 OA
BRANCH   3   4
ATOM      4  C   UNL A   1      33.438  34.236  28.789  1.00  0.00     0.202 C 
BRANCH   4   5
ATOM      5  C   UNL A   1      35.022  33.279  29.430  1.00  0.00     0.261 C 
BRANCH   5   6
ATOM      6  O   UNL A   1      35.911  31.760  30.077  1.00  0.00    -0.460 OA
BRANCH   6   7
ATOM      7  C   UNL A   1      36.463  30.469  30.961  1.00  0.00     0.340 C 
ATOM      8  O   UNL A   1      36.110  30.275  32.141  1.00  0.00    -0.246 OA
BRANCH   7   9
ATOM      9  C   UNL A   1      37.606  29.234  30.776  1.00  0.00     0.083 A 
ATOM     10  C   UNL A   1      38.429  28.374  31.645  1.00  0.00     0.055 A 
ATOM     11  C   UNL A   1      39.149  27.286  31.083  1.00  0.00     0.027 A 
ATOM     12  C   UNL A   1      39.228  27.086  29.716  1.00  0.00     0.002 A 
ATOM     13  C   UNL A   1      37.893  29.073  29.400  1.00  0.00     0.018 A 
ATOM     14  C   UNL A   1      38.651  28.016  28.876  1.00  0.00     0.001 A 
BRANCH  10  15
ATOM     15  N   UNL A   1      38.716  28.517  33.068  1.00  0.00    -0.324 N 
ATOM     16  C   UNL A   1      39.249  29.709  33.656  1.00  0.00     0.244 C 
ATOM     17  O   UNL A   1      38.526  30.583  34.136  1.00  0.00    -0.273 OA
ATOM     18  H   UNL A   1      38.534  27.751  33.658  1.00  0.00     0.170 HD
BRANCH  16  19
ATOM     19  C   UNL A   1      40.798  29.851  33.711  1.00  0.00     0.230 C 
BRANCH  19  20
ATOM     20  N   UNL A   1      41.204  28.675  34.399  1.00  0.00    -0.259 N 
ATOM     21  C   UNL A   1      43.737  25.217  34.817  1.00  0.00     0.029 C 
ATOM     22  C   UNL A   1      43.034  26.696  34.763  1.00  0.00     0.083 C 
ATOM     23  S   UNL A   1      42.367  27.731  36.200  1.00  0.00    -0.022 SA
ATOM     24  C   UNL A   1      42.018  27.729  33.744  1.00  0.00     0.268 C 
ATOM     25  C   UNL A   1      41.282  28.862  35.706  1.00  0.00     0.294 C 
ATOM     26  O   UNL A   1      41.925  27.829  32.523  1.00  0.00    -0.268 OA
ATOM     27  O   UNL A   1      40.864  29.773  36.395  1.00  0.00    -0.261 OA
BRANCH  21  28
ATOM     28  C   UNL A   1      44.591  23.656  35.426  1.00  0.00    -0.021 A 
ATOM     29  C   UNL A   1      45.691  23.611  37.884  1.00  0.00     0.045 C 
ATOM     30  C   UNL A   1      45.689  23.348  36.364  1.00  0.00    -0.044 A 
ATOM     31  C   UNL A   1      46.640  22.283  36.186  1.00  0.00     0.004 A 
ATOM     32  C   UNL A   1      46.358  21.232  35.371  1.00  0.00     0.000 A 
ATOM     33  C   UNL A   1      44.219  22.381  34.941  1.00  0.00     0.008 A 
ATOM     34  C   UNL A   1      45.075  21.222  34.888  1.00  0.00     0.001 A 
ENDBRANCH  21  28
ENDBRANCH  19  20
ENDBRANCH  16  19
ENDBRANCH  10  15
ENDBRANCH   7   9
ENDBRANCH   6   7
ENDBRANCH   5   6
ENDBRANCH   4   5
ENDBRANCH   3   4
ENDBRANCH   2   3
ENDBRANCH   1   2
BRANCH   1  35
ATOM     35  O   UNL A   1      34.710  36.266  32.917  1.00  0.00    -0.377 OA
BRANCH  35  36
ATOM     36  C   UNL A   1      35.388  35.027  32.685  1.00  0.00     0.188 C 
BRANCH  36  37
ATOM     37  C   UNL A   1      36.296  34.548  33.771  1.00  0.00     0.188 C 
BRANCH  37  38
ATOM     38  O   UNL A   1      37.511  34.225  33.125  1.00  0.00    -0.376 OA
BRANCH  38  39
ATOM     39  C   UNL A   1      38.668  34.626  33.813  1.00  0.00     0.202 C 
BRANCH  39  40
ATOM     40  C   UNL A   1      38.684  33.910  35.150  1.00  0.00     0.261 C 
BRANCH  40  41
ATOM     41  O   UNL A   1      38.605  34.896  36.215  1.00  0.00    -0.460 OA
BRANCH  41  42
ATOM     42  C   UNL A   1      39.045  34.475  37.449  1.00  0.00     0.338 C 
ATOM     43  O   UNL A   1      38.300  34.064  38.321  1.00  0.00    -0.246 OA
BRANCH  42  44
ATOM     44  C   UNL A   1      40.519  34.673  37.583  1.00  0.00     0.060 A 
ATOM     45  C   UNL A   1      41.205  35.784  37.097  1.00  0.00     0.016 A 
ATOM     46  C   UNL A   1      41.295  33.639  38.003  1.00  0.00     0.016 A 
ATOM     47  C   UNL A   1      42.551  35.675  36.587  1.00  0.00     0.010 A 
ATOM     48  C   UNL A   1      42.632  33.634  37.593  1.00  0.00     0.010 A 
ATOM     49  C   UNL A   1      43.234  34.458  36.523  1.00  0.00    -0.014 A 
BRANCH  49  50
ATOM     50  C   UNL A   1      44.534  33.994  35.232  1.00  0.00     0.031 A 
ATOM     51  C   UNL A   1      44.084  32.986  33.508  1.00  0.00     0.074 A 
ATOM     52  C   UNL A   1      45.796  34.197  35.989  1.00  0.00     0.049 A 
ATOM     53  N   UNL A   1      44.133  31.589  33.246  1.00  0.00    -0.248 NA
ATOM     54  C   UNL A   1      43.105  33.202  32.237  1.00  0.00     0.031 C 
ATOM     55  C   UNL A   1      47.182  34.628  35.612  1.00  0.00     0.029 A 
ATOM     56  N   UNL A   1      46.196  33.528  37.262  1.00  0.00    -0.354 N 
ATOM     57  C   UNL A   1      43.815  30.997  31.902  1.00  0.00     0.074 A 
ATOM     58  C   UNL A   1      42.948  32.071  31.496  1.00  0.00     0.031 C 
ATOM     59  C   UNL A   1      48.135  33.915  36.253  1.00  0.00     0.029 A 
ATOM     60  C   UNL A   1      47.517  32.921  37.091  1.00  0.00     0.049 A 
ATOM     61  H   UNL A   1      45.657  33.499  38.086  1.00  0.00     0.167 HD
ATOM     62  C   UNL A   1      44.425  29.890  31.063  1.00  0.00     0.037 A 
ATOM     63  C   UNL A   1      48.093  31.755  37.596  1.00  0.00     0.037 A 
ATOM     64  C   UNL A   1      45.995  29.322  31.271  1.00  0.00     0.049 A 
ATOM     65  C   UNL A   1      48.622  30.364  36.739  1.00  0.00     0.074 A 
ATOM     66  C   UNL A   1      47.249  29.626  30.677  1.00  0.00     0.029 A 
ATOM     67  N   UNL A   1      46.479  28.305  32.138  1.00  0.00    -0.354 N 
ATOM     68  N   UNL A   1      48.193  29.887  35.574  1.00  0.00    -0.248 NA
ATOM     69  C   UNL A   1      49.645  29.415  37.215  1.00  0.00     0.031 C 
ATOM     70  C   UNL A   1      48.322  29.350  31.593  1.00  0.00     0.029 A 
ATOM     71  C   UNL A   1      47.813  28.636  32.668  1.00  0.00     0.049 A 
ATOM     72  H   UNL A   1      45.984  27.484  32.359  1.00  0.00     0.167 HD
ATOM     73  C   UNL A   1      48.827  28.720  35.087  1.00  0.00     0.074 A 
ATOM     74  C   UNL A   1      49.731  28.486  36.224  1.00  0.00     0.031 C 
ATOM     75  C   UNL A   1      48.523  27.991  33.885  1.00  0.00     0.037 A 
BRANCH  62  76
ATOM     76  C   UNL A   1      43.954  29.630  29.554  1.00  0.00     0.058 A 
ATOM     77  C   UNL A   1      42.652  29.118  29.275  1.00  0.00     0.135 A 
ATOM     78  C   UNL A   1      44.724  29.797  28.391  1.00  0.00     0.135 A 
ATOM     79  F   UNL A   1      41.652  29.181  30.165  1.00  0.00    -0.206 F 
ATOM     80  C   UNL A   1      42.257  28.582  28.047  1.00  0.00     0.059 A 
ATOM     81  C   UNL A   1      44.344  29.285  27.128  1.00  0.00     0.059 A 
ATOM     82  F   UNL A   1      45.838  30.543  28.405  1.00  0.00    -0.206 F 
ATOM     83  C   UNL A   1      43.126  28.632  26.978  1.00  0.00     0.060 A 
BRANCH  83  84
ATOM     84  S   UNL A   1      42.565  27.969  25.395  1.00  0.00     0.124 S 
ATOM     85  O   UNL A   1      41.959  29.139  24.766  1.00  0.00    -0.237 OA
ATOM     86  O   UNL A   1      43.807  27.500  24.789  1.00  0.00    -0.237 OA
ATOM     87  O   UNL A   1      41.628  26.917  25.780  1.00  0.00    -0.744 OA
ENDBRANCH  83  84
ENDBRANCH  62  76
BRANCH  63  88
ATOM     88  C   UNL A   1      48.092  31.966  39.109  1.00  0.00     0.058 A 
ATOM     89  C   UNL A   1      47.237  31.069  39.813  1.00  0.00     0.135 A 
ATOM     90  C   UNL A   1      49.330  32.211  39.720  1.00  0.00     0.135 A 
ATOM     91  F   UNL A   1      46.007  30.810  39.332  1.00  0.00    -0.206 F 
ATOM     92  C   UNL A   1      47.735  30.200  40.792  1.00  0.00     0.059 A 
ATOM     93  C   UNL A   1      49.845  31.372  40.712  1.00  0.00     0.059 A 
ATOM     94  F   UNL A   1      50.144  33.149  39.238  1.00  0.00    -0.206 F 
ATOM     95  C   UNL A   1      49.073  30.307  41.165  1.00  0.00     0.060 A 
BRANCH  95  96
ATOM     96  S   UNL A   1      49.870  28.884  41.954  1.00  0.00     0.124 S 
ATOM     97  O   UNL A   1      48.943  28.557  43.027  1.00  0.00    -0.237 OA
ATOM     98  O   UNL A   1      49.929  27.939  40.839  1.00  0.00    -0.237 OA
ATOM     99  O   UNL A   1      51.162  29.417  42.372  1.00  0.00    -0.744 OA
ENDBRANCH  95  96
ENDBRANCH  63  88
BRANCH  75 100
ATOM    100  C   UNL A   1      48.687  26.429  33.703  1.00  0.00     0.058 A 
ATOM    101  C   UNL A   1      49.280  25.794  32.597  1.00  0.00     0.135 A 
ATOM    102  C   UNL A   1      48.555  25.564  34.838  1.00  0.00     0.135 A 
ATOM    103  F   UNL A   1      49.470  26.420  31.433  1.00  0.00    -0.206 F 
ATOM    104  C   UNL A   1      49.807  24.491  32.656  1.00  0.00     0.059 A 
ATOM    105  C   UNL A   1      49.144  24.302  34.944  1.00  0.00     0.059 A 
ATOM    106  F   UNL A   1      47.861  25.919  35.928  1.00  0.00    -0.206 F 
ATOM    107  C   UNL A   1      49.779  23.770  33.843  1.00  0.00     0.060 A 
BRANCH 107 108
ATOM    108  S   UNL A   1      50.557  22.148  33.919  1.00  0.00     0.124 S 
ATOM    109  O   UNL A   1      51.307  22.243  35.167  1.00  0.00    -0.237 OA
ATOM    110  O   UNL A   1      49.405  21.251  33.938  1.00  0.00    -0.237 OA
ATOM    111  O   UNL A   1      51.365  22.093  32.704  1.00  0.00    -0.744 OA
ENDBRANCH 107 108
ENDBRANCH  75 100
ENDBRANCH  49  50
ENDBRANCH  42  44
ENDBRANCH  41  42
ENDBRANCH  40  41
ENDBRANCH  39  40
ENDBRANCH  38  39
ENDBRANCH  37  38
ENDBRANCH  36  37
ENDBRANCH  35  36
ENDBRANCH   1  35
TORSDOF 27
ENDMDL
MODEL 3
REMARK VINA RESULT:     -10.8      5.870     12.964
REMARK SMILES Cc1ccccc1/C=C1\SC(=O)N(CC(=O)Nc2ccccc2C(=O)OCCOCCOCCOCCOC(=O)c2ccc(-c3c4nc(c(-c5c(F)cc(S(=O)(=O)[O-])cc5F)c5ccc([nH]5)c(-c5c(F)cc(S(=O)(=O)[O-])cc5F)c5nc(c(-c6c(F)cc(S(=O)(=O)[O-])cc6F)c6ccc3[nH]6)C=C5)C=C4)cc2)C1=O
REMARK SMILES IDX 31 1 30 2 29 3 28 4 27 5 26 6 24 7 25 8 23 9 18 10 19 11
REMARK SMILES IDX 20 12 22 13 21 14 17 15 15 16 16 17 14 19 13 20 8 21 9 22
REMARK SMILES IDX 10 23 107 24 11 25 108 26 12 27 7 28 1 29 2 30 3 31 4 32
REMARK SMILES IDX 6 33 5 34 32 35 33 36 34 37 35 38 36 39 37 40 38 41 39 42
REMARK SMILES IDX 40 43 41 44 42 45 106 46 43 47 105 48 44 49 45 50 46 51
REMARK SMILES IDX 99 52 47 53 104 54 98 55 100 56 48 57 103 58 97 59 96 60
REMARK SMILES IDX 49 62 83 63 62 64 82 65 63 66 66 67 81 68 101 69 64 70 65 71
REMARK SMILES IDX 80 73 102 74 67 75 50 76 51 77 60 78 52 79 53 80 59 81 61 82
REMARK SMILES IDX 54 83 55 84 56 85 57 86 58 87 84 88 85 89 94 90 86 91 87 92
REMARK SMILES IDX 93 93 95 94 88 95 89 96 90 97 91 98 92 99 68 100 69 101
REMARK SMILES IDX 78 102 70 103 71 104 77 105 79 106 72 107 73 108 74 109
REMARK SMILES IDX 75 110 76 111
REMARK H PARENT 17 18 100 61 66 72
REMARK Flexibility Score: inf
ROOT
ATOM      1  C   UNL A   1      52.151  32.856  33.423  1.00  0.00     0.188 C 
ENDROOT
BRANCH   1   2
ATOM      2  C   UNL A   1      51.252  34.279  33.596  1.00  0.00     0.188 C 
BRANCH   2   3
ATOM      3  O   UNL A   1      49.594  34.884  33.283  1.00  0.00    -0.376 OA
BRANCH   3   4
ATOM      4  C   UNL A   1      48.324  34.455  32.051  1.00  0.00     0.202 C 
BRANCH   4   5
ATOM      5  C   UNL A   1      46.455  33.918  32.285  1.00  0.00     0.261 C 
BRANCH   5   6
ATOM      6  O   UNL A   1      45.107  32.804  32.962  1.00  0.00    -0.460 OA
BRANCH   6   7
ATOM      7  C   UNL A   1      43.730  31.918  33.230  1.00  0.00     0.340 C 
ATOM      8  O   UNL A   1      42.654  32.452  33.564  1.00  0.00    -0.246 OA
BRANCH   7   9
ATOM      9  C   UNL A   1      43.302  30.283  33.323  1.00  0.00     0.083 A 
ATOM     10  C   UNL A   1      43.136  29.260  34.372  1.00  0.00     0.055 A 
ATOM     11  C   UNL A   1      42.557  28.004  34.046  1.00  0.00     0.027 A 
ATOM     12  C   UNL A   1      42.275  27.642  32.740  1.00  0.00     0.002 A 
ATOM     13  C   UNL A   1      43.165  29.766  32.014  1.00  0.00     0.018 A 
ATOM     14  C   UNL A   1      42.638  28.501  31.722  1.00  0.00     0.001 A 
BRANCH  10  15
ATOM     15  N   UNL A   1      43.576  29.293  35.762  1.00  0.00    -0.324 N 
ATOM     16  C   UNL A   1      44.322  30.372  36.334  1.00  0.00     0.244 C 
ATOM     17  O   UNL A   1      43.777  31.310  36.917  1.00  0.00    -0.273 OA
ATOM     18  H   UNL A   1      43.347  28.530  36.339  1.00  0.00     0.170 HD
BRANCH  16  19
ATOM     19  C   UNL A   1      45.874  30.303  36.235  1.00  0.00     0.230 C 
BRANCH  19  20
ATOM     20  N   UNL A   1      46.151  28.931  36.479  1.00  0.00    -0.259 N 
ATOM     21  C   UNL A   1      48.155  25.241  35.515  1.00  0.00     0.029 C 
ATOM     22  C   UNL A   1      47.682  26.734  35.998  1.00  0.00     0.083 C 
ATOM     23  S   UNL A   1      47.298  27.332  37.752  1.00  0.00    -0.022 SA
ATOM     24  C   UNL A   1      46.756  28.150  35.473  1.00  0.00     0.268 C 
ATOM     25  C   UNL A   1      46.361  28.683  37.761  1.00  0.00     0.294 C 
ATOM     26  O   UNL A   1      46.582  28.642  34.361  1.00  0.00    -0.268 OA
ATOM     27  O   UNL A   1      46.143  29.372  38.740  1.00  0.00    -0.261 OA
BRANCH  21  28
ATOM     28  C   UNL A   1      48.807  23.478  35.513  1.00  0.00    -0.021 A 
ATOM     29  C   UNL A   1      50.407  22.652  33.509  1.00  0.00     0.045 C 
ATOM     30  C   UNL A   1      49.219  22.504  34.482  1.00  0.00    -0.044 A 
ATOM     31  C   UNL A   1      49.005  21.084  34.569  1.00  0.00     0.004 A 
ATOM     32  C   UNL A   1      48.789  20.489  35.773  1.00  0.00     0.000 A 
ATOM     33  C   UNL A   1      48.979  22.758  36.717  1.00  0.00     0.008 A 
ATOM     34  C   UNL A   1      48.943  21.323  36.849  1.00  0.00     0.001 A 
ENDBRANCH  21  28
ENDBRANCH  19  20
ENDBRANCH  16  19
ENDBRANCH  10  15
ENDBRANCH   7   9
ENDBRANCH   6   7
ENDBRANCH   5   6
ENDBRANCH   4   5
ENDBRANCH   3   4
ENDBRANCH   2   3
ENDBRANCH   1   2
BRANCH   1  35
ATOM     35  O   UNL A   1      52.302  31.619  34.135  1.00  0.00    -0.377 OA
BRANCH  35  36
ATOM     36  C   UNL A   1      51.909  30.299  33.745  1.00  0.00     0.188 C 
BRANCH  36  37
ATOM     37  C   UNL A   1      50.518  30.142  33.223  1.00  0.00     0.188 C 
BRANCH  37  38
ATOM     38  O   UNL A   1      50.437  28.805  32.773  1.00  0.00    -0.376 OA
BRANCH  38  39
ATOM     39  C   UNL A   1      49.299  28.509  32.007  1.00  0.00     0.202 C 
BRANCH  39  40
ATOM     40  C   UNL A   1      49.645  27.353  31.088  1.00  0.00     0.261 C 
BRANCH  40  41
ATOM     41  O   UNL A   1      48.456  26.965  30.349  1.00  0.00    -0.460 OA
BRANCH  41  42
ATOM     42  C   UNL A   1      48.678  26.210  29.220  1.00  0.00     0.338 C 
ATOM     43  O   UNL A   1      49.349  25.193  29.216  1.00  0.00    -0.246 OA
BRANCH  42  44
ATOM     44  C   UNL A   1      48.063  26.853  28.021  1.00  0.00     0.060 A 
ATOM     45  C   UNL A   1      48.328  28.159  27.612  1.00  0.00     0.016 A 
ATOM     46  C   UNL A   1      47.023  26.240  27.396  1.00  0.00     0.016 A 
ATOM     47  C   UNL A   1      47.313  28.976  26.992  1.00  0.00     0.010 A 
ATOM     48  C   UNL A   1      46.127  27.054  26.695  1.00  0.00     0.010 A 
ATOM     49  C   UNL A   1      46.006  28.524  26.789  1.00  0.00    -0.014 A 
BRANCH  49  50
ATOM     50  C   UNL A   1      44.457  29.608  26.788  1.00  0.00     0.031 A 
ATOM     51  C   UNL A   1      44.396  31.468  27.641  1.00  0.00     0.074 A 
ATOM     52  C   UNL A   1      43.406  28.630  26.411  1.00  0.00     0.049 A 
ATOM     53  N   UNL A   1      43.979  31.843  28.948  1.00  0.00    -0.248 NA
ATOM     54  C   UNL A   1      45.201  32.864  27.485  1.00  0.00     0.031 C 
ATOM     55  C   UNL A   1      42.121  28.721  25.641  1.00  0.00     0.029 A 
ATOM     56  N   UNL A   1      43.050  27.372  27.132  1.00  0.00    -0.354 N 
ATOM     57  C   UNL A   1      43.946  33.270  29.419  1.00  0.00     0.074 A 
ATOM     58  C   UNL A   1      44.974  33.721  28.518  1.00  0.00     0.031 C 
ATOM     59  C   UNL A   1      41.131  27.992  26.203  1.00  0.00     0.029 A 
ATOM     60  C   UNL A   1      41.612  27.367  27.407  1.00  0.00     0.049 A 
ATOM     61  H   UNL A   1      43.681  26.660  27.384  1.00  0.00     0.167 HD
ATOM     62  C   UNL A   1      42.974  34.087  30.248  1.00  0.00     0.037 A 
ATOM     63  C   UNL A   1      40.856  26.878  28.473  1.00  0.00     0.037 A 
ATOM     64  C   UNL A   1      41.362  33.663  30.479  1.00  0.00     0.049 A 
ATOM     65  C   UNL A   1      39.892  27.752  29.592  1.00  0.00     0.074 A 
ATOM     66  C   UNL A   1      40.143  34.002  29.833  1.00  0.00     0.029 A 
ATOM     67  N   UNL A   1      40.783  32.821  31.467  1.00  0.00    -0.354 N 
ATOM     68  N   UNL A   1      40.019  29.013  29.999  1.00  0.00    -0.248 NA
ATOM     69  C   UNL A   1      38.754  27.195  30.346  1.00  0.00     0.031 C 
ATOM     70  C   UNL A   1      39.182  32.943  29.981  1.00  0.00     0.029 A 
ATOM     71  C   UNL A   1      39.659  32.041  30.922  1.00  0.00     0.049 A 
ATOM     72  H   UNL A   1      41.096  32.765  32.398  1.00  0.00     0.167 HD
ATOM     73  C   UNL A   1      39.061  29.486  30.927  1.00  0.00     0.074 A 
ATOM     74  C   UNL A   1      38.305  28.236  31.100  1.00  0.00     0.031 C 
ATOM     75  C   UNL A   1      39.003  30.783  31.545  1.00  0.00     0.037 A 
BRANCH  62  76
ATOM     76  C   UNL A   1      43.142  35.672  30.410  1.00  0.00     0.058 A 
ATOM     77  C   UNL A   1      42.826  36.552  29.333  1.00  0.00     0.135 A 
ATOM     78  C   UNL A   1      43.649  36.355  31.529  1.00  0.00     0.135 A 
ATOM     79  F   UNL A   1      42.046  36.179  28.310  1.00  0.00    -0.206 F 
ATOM     80  C   UNL A   1      43.215  37.892  29.264  1.00  0.00     0.059 A 
ATOM     81  C   UNL A   1      44.032  37.716  31.499  1.00  0.00     0.059 A 
ATOM     82  F   UNL A   1      43.712  35.759  32.728  1.00  0.00    -0.206 F 
ATOM     83  C   UNL A   1      43.857  38.465  30.341  1.00  0.00     0.060 A 
BRANCH  83  84
ATOM     84  S   UNL A   1      44.304  40.212  30.234  1.00  0.00     0.124 S 
ATOM     85  O   UNL A   1      43.416  40.820  31.220  1.00  0.00    -0.237 OA
ATOM     86  O   UNL A   1      45.721  40.199  30.584  1.00  0.00    -0.237 OA
ATOM     87  O   UNL A   1      44.013  40.551  28.843  1.00  0.00    -0.744 OA
ENDBRANCH  83  84
ENDBRANCH  62  76
BRANCH  63  88
ATOM     88  C   UNL A   1      41.130  25.374  28.463  1.00  0.00     0.058 A 
ATOM     89  C   UNL A   1      40.585  24.700  27.333  1.00  0.00     0.135 A 
ATOM     90  C   UNL A   1      42.414  24.958  28.844  1.00  0.00     0.135 A 
ATOM     91  F   UNL A   1      39.338  24.994  26.923  1.00  0.00    -0.206 F 
ATOM     92  C   UNL A   1      41.400  23.990  26.441  1.00  0.00     0.059 A 
ATOM     93  C   UNL A   1      43.243  24.234  27.982  1.00  0.00     0.059 A 
ATOM     94  F   UNL A   1      42.959  25.404  29.974  1.00  0.00    -0.206 F 
ATOM     95  C   UNL A   1      42.753  23.846  26.740  1.00  0.00     0.060 A 
BRANCH  95  96
ATOM     96  S   UNL A   1      43.903  23.471  25.390  1.00  0.00     0.124 S 
ATOM     97  O   UNL A   1      43.963  24.733  24.667  1.00  0.00    -0.237 OA
ATOM     98  O   UNL A   1      45.102  23.093  26.137  1.00  0.00    -0.237 OA
ATOM     99  O   UNL A   1      43.247  22.371  24.692  1.00  0.00    -0.744 OA
ENDBRANCH  95  96
ENDBRANCH  63  88
BRANCH  75 100
ATOM    100  C   UNL A   1      38.447  31.075  32.996  1.00  0.00     0.058 A 
ATOM    101  C   UNL A   1      38.966  30.545  34.190  1.00  0.00     0.135 A 
ATOM    102  C   UNL A   1      37.583  32.197  33.213  1.00  0.00     0.135 A 
ATOM    103  F   UNL A   1      39.772  29.480  34.206  1.00  0.00    -0.206 F 
ATOM    104  C   UNL A   1      38.761  31.145  35.446  1.00  0.00     0.059 A 
ATOM    105  C   UNL A   1      37.435  32.857  34.436  1.00  0.00     0.059 A 
ATOM    106  F   UNL A   1      36.852  32.736  32.228  1.00  0.00    -0.206 F 
ATOM    107  C   UNL A   1      38.036  32.325  35.555  1.00  0.00     0.060 A 
BRANCH 107 108
ATOM    108  S   UNL A   1      37.881  33.129  37.159  1.00  0.00     0.124 S 
ATOM    109  O   UNL A   1      38.371  32.087  38.056  1.00  0.00    -0.237 OA
ATOM    110  O   UNL A   1      38.748  34.294  37.007  1.00  0.00    -0.237 OA
ATOM    111  O   UNL A   1      36.456  33.427  37.262  1.00  0.00    -0.744 OA
ENDBRANCH 107 108
ENDBRANCH  75 100
ENDBRANCH  49  50
ENDBRANCH  42  44
ENDBRANCH  41  42
ENDBRANCH  40  41
ENDBRANCH  39  40
ENDBRANCH  38  39
ENDBRANCH  37  38
ENDBRANCH  36  37
ENDBRANCH  35  36
ENDBRANCH   1  35
TORSDOF 27
ENDMDL
