MODEL 1
REMARK VINA RESULT:     -11.2      0.000      0.000
REMARK SMILES O=C(OCCOCCOCCOCCOC(=O)c1ccc(-c2c3nc(c(-c4c(F)cc(S(=O)(=O)[O-])cc4F)c4ccc([nH]4)c(-c4c(F)cc(S(=O)(=O)[O-])cc4F)c4nc(c(-c5c(F)cc(S(=O)(=O)[O-])cc5F)c5ccc2[nH]5)C=C4)C=C3)cc1)C1=NN(c2ccc(S(=O)(=O)[O-])cc2)C(=O)/C1=C/Nc1ccccc1
REMARK SMILES IDX 10 1 9 2 8 3 7 4 6 5 5 6 4 7 3 8 2 9 1 10 84 11 85 12 99 13
REMARK SMILES IDX 86 14 97 15 100 16 98 17 87 18 88 19 96 20 89 21 95 22 90 23
REMARK SMILES IDX 91 24 92 25 93 26 94 27 101 28 102 30 103 31 107 32 104 33
REMARK SMILES IDX 106 34 105 35 11 36 12 37 13 38 14 39 15 40 16 41 17 42
REMARK SMILES IDX 18 43 19 44 83 45 20 46 82 47 21 48 22 49 23 50 76 51 24 52
REMARK SMILES IDX 81 53 75 54 77 55 25 56 80 57 74 58 73 59 26 61 60 62 39 63
REMARK SMILES IDX 59 64 40 65 43 66 58 67 78 68 41 69 42 70 57 72 79 73 44 74
REMARK SMILES IDX 27 75 28 76 37 77 29 78 30 79 36 80 38 81 31 82 32 83 33 84
REMARK SMILES IDX 34 85 35 86 61 87 62 88 71 89 63 90 64 91 70 92 72 93 65 94
REMARK SMILES IDX 66 95 67 96 68 97 69 98 45 99 46 100 55 101 47 102 48 103
REMARK SMILES IDX 54 104 56 105 49 106 50 107 51 108 52 109 53 110
REMARK H PARENT 101 29 77 60 43 71
REMARK Flexibility Score: inf
ROOT
ATOM      1  C   UNL A   1      34.430  32.755  28.789  1.00  0.00     0.188 C 
ENDROOT
BRANCH   1   2
ATOM      2  O   UNL A   1      35.727  32.151  28.477  1.00  0.00    -0.377 OA
BRANCH   2   3
ATOM      3  C   UNL A   1      36.117  30.789  28.291  1.00  0.00     0.188 C 
BRANCH   3   4
ATOM      4  C   UNL A   1      37.552  30.401  28.509  1.00  0.00     0.188 C 
BRANCH   4   5
ATOM      5  O   UNL A   1      38.024  29.594  27.453  1.00  0.00    -0.376 OA
BRANCH   5   6
ATOM      6  C   UNL A   1      39.243  28.893  27.495  1.00  0.00     0.202 C 
BRANCH   6   7
ATOM      7  C   UNL A   1      39.194  27.735  28.443  1.00  0.00     0.261 C 
BRANCH   7   8
ATOM      8  O   UNL A   1      39.217  26.441  27.787  1.00  0.00    -0.458 OA
BRANCH   8   9
ATOM      9  C   UNL A   1      40.355  25.708  27.643  1.00  0.00     0.359 C 
ATOM     10  O   UNL A   1      41.390  25.950  28.246  1.00  0.00    -0.244 OA
BRANCH   9  11
ATOM     11  C   UNL A   1      40.153  24.322  27.062  1.00  0.00     0.183 C 
ATOM     12  N   UNL A   1      41.235  23.590  27.151  1.00  0.00    -0.157 NA
ATOM     13  C   UNL A   1      38.936  23.627  26.393  1.00  0.00     0.093 C 
ATOM     14  N   UNL A   1      40.972  22.389  26.593  1.00  0.00    -0.196 N 
ATOM     15  C   UNL A   1      39.626  22.223  26.217  1.00  0.00     0.282 C 
ATOM     16  C   UNL A   1      37.593  23.654  25.999  1.00  0.00     0.099 C 
ATOM     17  O   UNL A   1      39.079  21.198  25.841  1.00  0.00    -0.267 OA
BRANCH  14  18
ATOM     18  C   UNL A   1      42.101  21.570  26.275  1.00  0.00     0.069 A 
ATOM     19  C   UNL A   1      43.353  22.138  25.938  1.00  0.00     0.030 A 
ATOM     20  C   UNL A   1      41.963  20.185  26.136  1.00  0.00     0.030 A 
ATOM     21  C   UNL A   1      44.399  21.356  25.415  1.00  0.00     0.021 A 
ATOM     22  C   UNL A   1      42.993  19.400  25.599  1.00  0.00     0.021 A 
ATOM     23  C   UNL A   1      44.201  19.989  25.229  1.00  0.00     0.054 A 
BRANCH  23  24
ATOM     24  S   UNL A   1      45.475  19.012  24.479  1.00  0.00     0.124 S 
ATOM     25  O   UNL A   1      45.790  17.919  25.370  1.00  0.00    -0.237 OA
ATOM     26  O   UNL A   1      45.113  18.786  23.097  1.00  0.00    -0.237 OA
ATOM     27  O   UNL A   1      46.782  19.961  24.433  1.00  0.00    -0.744 OA
ENDBRANCH  23  24
ENDBRANCH  14  18
BRANCH  16  28
ATOM     28  N   UNL A   1      36.269  24.381  25.859  1.00  0.00    -0.361 N 
ATOM     29  H   UNL A   1      36.301  25.158  26.464  1.00  0.00     0.166 HD
BRANCH  28  30
ATOM     30  C   UNL A   1      34.744  24.410  25.086  1.00  0.00     0.038 A 
ATOM     31  C   UNL A   1      34.819  23.528  23.487  1.00  0.00     0.026 A 
ATOM     32  C   UNL A   1      33.046  24.775  25.752  1.00  0.00     0.026 A 
ATOM     33  C   UNL A   1      33.285  22.943  22.669  1.00  0.00     0.002 A 
ATOM     34  C   UNL A   1      31.496  24.360  24.827  1.00  0.00     0.002 A 
ATOM     35  C   UNL A   1      31.642  23.441  23.268  1.00  0.00     0.000 A 
ENDBRANCH  28  30
ENDBRANCH  16  28
ENDBRANCH   9  11
ENDBRANCH   8   9
ENDBRANCH   7   8
ENDBRANCH   6   7
ENDBRANCH   5   6
ENDBRANCH   4   5
ENDBRANCH   3   4
ENDBRANCH   2   3
ENDBRANCH   1   2
BRANCH   1  36
ATOM     36  C   UNL A   1      33.779  34.403  28.609  1.00  0.00     0.188 C 
BRANCH  36  37
ATOM     37  O   UNL A   1      33.565  35.601  29.549  1.00  0.00    -0.376 OA
BRANCH  37  38
ATOM     38  C   UNL A   1      32.920  35.931  30.849  1.00  0.00     0.202 C 
BRANCH  38  39
ATOM     39  C   UNL A   1      33.088  35.363  32.346  1.00  0.00     0.261 C 
BRANCH  39  40
ATOM     40  O   UNL A   1      34.328  34.873  32.860  1.00  0.00    -0.460 OA
BRANCH  40  41
ATOM     41  C   UNL A   1      34.383  33.439  33.125  1.00  0.00     0.338 C 
ATOM     42  O   UNL A   1      33.152  33.196  33.222  1.00  0.00    -0.246 OA
BRANCH  41  43
ATOM     43  C   UNL A   1      36.164  32.196  33.182  1.00  0.00     0.060 A 
ATOM     44  C   UNL A   1      37.460  32.414  33.983  1.00  0.00     0.016 A 
ATOM     45  C   UNL A   1      36.699  31.171  32.215  1.00  0.00     0.016 A 
ATOM     46  C   UNL A   1      38.821  32.168  33.639  1.00  0.00     0.010 A 
ATOM     47  C   UNL A   1      38.083  30.947  31.814  1.00  0.00     0.010 A 
ATOM     48  C   UNL A   1      39.146  31.566  32.451  1.00  0.00    -0.014 A 
BRANCH  48  49
ATOM     49  C   UNL A   1      40.567  31.598  31.992  1.00  0.00     0.031 A 
ATOM     50  C   UNL A   1      41.491  30.415  32.214  1.00  0.00     0.074 A 
ATOM     51  C   UNL A   1      40.982  32.615  31.213  1.00  0.00     0.049 A 
ATOM     52  N   UNL A   1      42.723  30.226  31.800  1.00  0.00    -0.248 NA
ATOM     53  C   UNL A   1      40.954  29.290  32.992  1.00  0.00     0.031 C 
ATOM     54  C   UNL A   1      40.151  33.759  30.837  1.00  0.00     0.029 A 
ATOM     55  N   UNL A   1      42.174  32.844  30.571  1.00  0.00    -0.354 N 
ATOM     56  C   UNL A   1      43.115  28.976  32.281  1.00  0.00     0.074 A 
ATOM     57  C   UNL A   1      41.985  28.452  33.021  1.00  0.00     0.031 C 
ATOM     58  C   UNL A   1      40.849  34.557  30.016  1.00  0.00     0.029 A 
ATOM     59  C   UNL A   1      42.196  34.019  29.855  1.00  0.00     0.049 A 
ATOM     60  H   UNL A   1      42.940  32.227  30.619  1.00  0.00     0.167 HD
ATOM     61  C   UNL A   1      44.307  28.337  32.131  1.00  0.00     0.037 A 
ATOM     62  C   UNL A   1      43.191  34.612  29.169  1.00  0.00     0.037 A 
ATOM     63  C   UNL A   1      45.425  28.882  31.390  1.00  0.00     0.049 A 
ATOM     64  C   UNL A   1      44.525  33.925  29.083  1.00  0.00     0.074 A 
ATOM     65  C   UNL A   1      46.675  28.324  31.176  1.00  0.00     0.029 A 
ATOM     66  N   UNL A   1      45.432  30.117  30.753  1.00  0.00    -0.354 N 
ATOM     67  N   UNL A   1      44.882  32.756  29.562  1.00  0.00    -0.248 NA
ATOM     68  C   UNL A   1      45.591  34.634  28.364  1.00  0.00     0.031 C 
ATOM     69  C   UNL A   1      47.460  29.254  30.483  1.00  0.00     0.029 A 
ATOM     70  C   UNL A   1      46.675  30.355  30.183  1.00  0.00     0.049 A 
ATOM     71  H   UNL A   1      44.667  30.734  30.712  1.00  0.00     0.167 HD
ATOM     72  C   UNL A   1      46.205  32.574  29.174  1.00  0.00     0.074 A 
ATOM     73  C   UNL A   1      46.576  33.748  28.407  1.00  0.00     0.031 C 
ATOM     74  C   UNL A   1      47.033  31.530  29.424  1.00  0.00     0.037 A 
BRANCH  61  75
ATOM     75  C   UNL A   1      44.510  27.010  32.833  1.00  0.00     0.058 A 
ATOM     76  C   UNL A   1      44.344  25.774  32.186  1.00  0.00     0.135 A 
ATOM     77  C   UNL A   1      44.937  26.979  34.175  1.00  0.00     0.135 A 
ATOM     78  F   UNL A   1      43.937  25.730  30.907  1.00  0.00    -0.206 F 
ATOM     79  C   UNL A   1      44.557  24.564  32.849  1.00  0.00     0.059 A 
ATOM     80  C   UNL A   1      45.187  25.783  34.847  1.00  0.00     0.059 A 
ATOM     81  F   UNL A   1      45.127  28.124  34.849  1.00  0.00    -0.206 F 
ATOM     82  C   UNL A   1      44.978  24.579  34.181  1.00  0.00     0.060 A 
BRANCH  82  83
ATOM     83  S   UNL A   1      45.238  23.004  35.029  1.00  0.00     0.124 S 
ATOM     84  O   UNL A   1      43.882  22.669  35.449  1.00  0.00    -0.237 OA
ATOM     85  O   UNL A   1      45.799  22.170  33.970  1.00  0.00    -0.237 OA
ATOM     86  O   UNL A   1      46.160  23.345  36.108  1.00  0.00    -0.744 OA
ENDBRANCH  82  83
ENDBRANCH  61  75
BRANCH  62  87
ATOM     87  C   UNL A   1      42.963  35.942  28.536  1.00  0.00     0.058 A 
ATOM     88  C   UNL A   1      42.568  36.060  27.195  1.00  0.00     0.135 A 
ATOM     89  C   UNL A   1      43.117  37.128  29.275  1.00  0.00     0.135 A 
ATOM     90  F   UNL A   1      42.416  34.961  26.441  1.00  0.00    -0.206 F 
ATOM     91  C   UNL A   1      42.344  37.301  26.607  1.00  0.00     0.059 A 
ATOM     92  C   UNL A   1      42.863  38.377  28.721  1.00  0.00     0.059 A 
ATOM     93  F   UNL A   1      43.482  37.074  30.566  1.00  0.00    -0.206 F 
ATOM     94  C   UNL A   1      42.486  38.454  27.382  1.00  0.00     0.060 A 
BRANCH  94  95
ATOM     95  S   UNL A   1      42.137  40.056  26.627  1.00  0.00     0.124 S 
ATOM     96  O   UNL A   1      40.846  39.808  25.994  1.00  0.00    -0.237 OA
ATOM     97  O   UNL A   1      42.122  40.942  27.787  1.00  0.00    -0.237 OA
ATOM     98  O   UNL A   1      43.260  40.250  25.716  1.00  0.00    -0.744 OA
ENDBRANCH  94  95
ENDBRANCH  62  87
BRANCH  74  99
ATOM     99  C   UNL A   1      48.411  31.588  28.815  1.00  0.00     0.058 A 
ATOM    100  C   UNL A   1      49.505  32.156  29.487  1.00  0.00     0.135 A 
ATOM    101  C   UNL A   1      48.637  31.058  27.534  1.00  0.00     0.135 A 
ATOM    102  F   UNL A   1      49.347  32.684  30.713  1.00  0.00    -0.206 F 
ATOM    103  C   UNL A   1      50.760  32.242  28.894  1.00  0.00     0.059 A 
ATOM    104  C   UNL A   1      49.893  31.097  26.936  1.00  0.00     0.059 A 
ATOM    105  F   UNL A   1      47.631  30.492  26.847  1.00  0.00    -0.206 F 
ATOM    106  C   UNL A   1      50.943  31.710  27.615  1.00  0.00     0.060 A 
BRANCH 106 107
ATOM    107  S   UNL A   1      52.575  31.828  26.856  1.00  0.00     0.124 S 
ATOM    108  O   UNL A   1      53.093  30.479  27.061  1.00  0.00    -0.237 OA
ATOM    109  O   UNL A   1      52.252  32.180  25.476  1.00  0.00    -0.237 OA
ATOM    110  O   UNL A   1      53.236  32.877  27.628  1.00  0.00    -0.744 OA
ENDBRANCH 106 107
ENDBRANCH  74  99
ENDBRANCH  48  49
ENDBRANCH  41  43
ENDBRANCH  40  41
ENDBRANCH  39  40
ENDBRANCH  38  39
ENDBRANCH  37  38
ENDBRANCH  36  37
ENDBRANCH   1  36
TORSDOF 27
ENDMDL
MODEL 2
REMARK VINA RESULT:     -10.5      1.939      2.552
REMARK SMILES O=C(OCCOCCOCCOCCOC(=O)c1ccc(-c2c3nc(c(-c4c(F)cc(S(=O)(=O)[O-])cc4F)c4ccc([nH]4)c(-c4c(F)cc(S(=O)(=O)[O-])cc4F)c4nc(c(-c5c(F)cc(S(=O)(=O)[O-])cc5F)c5ccc2[nH]5)C=C4)C=C3)cc1)C1=NN(c2ccc(S(=O)(=O)[O-])cc2)C(=O)/C1=C/Nc1ccccc1
REMARK SMILES IDX 10 1 9 2 8 3 7 4 6 5 5 6 4 7 3 8 2 9 1 10 84 11 85 12 99 13
REMARK SMILES IDX 86 14 97 15 100 16 98 17 87 18 88 19 96 20 89 21 95 22 90 23
REMARK SMILES IDX 91 24 92 25 93 26 94 27 101 28 102 30 103 31 107 32 104 33
REMARK SMILES IDX 106 34 105 35 11 36 12 37 13 38 14 39 15 40 16 41 17 42
REMARK SMILES IDX 18 43 19 44 83 45 20 46 82 47 21 48 22 49 23 50 76 51 24 52
REMARK SMILES IDX 81 53 75 54 77 55 25 56 80 57 74 58 73 59 26 61 60 62 39 63
REMARK SMILES IDX 59 64 40 65 43 66 58 67 78 68 41 69 42 70 57 72 79 73 44 74
REMARK SMILES IDX 27 75 28 76 37 77 29 78 30 79 36 80 38 81 31 82 32 83 33 84
REMARK SMILES IDX 34 85 35 86 61 87 62 88 71 89 63 90 64 91 70 92 72 93 65 94
REMARK SMILES IDX 66 95 67 96 68 97 69 98 45 99 46 100 55 101 47 102 48 103
REMARK SMILES IDX 54 104 56 105 49 106 50 107 51 108 52 109 53 110
REMARK H PARENT 101 29 77 60 43 71
REMARK Flexibility Score: inf
ROOT
ATOM      1  C   UNL A   1      33.895  33.471  28.849  1.00  0.00     0.188 C 
ENDROOT
BRANCH   1   2
ATOM      2  O   UNL A   1      35.088  32.904  28.217  1.00  0.00    -0.377 OA
BRANCH   2   3
ATOM      3  C   UNL A   1      35.363  31.593  27.720  1.00  0.00     0.188 C 
BRANCH   3   4
ATOM      4  C   UNL A   1      36.316  30.709  28.473  1.00  0.00     0.188 C 
BRANCH   4   5
ATOM      5  O   UNL A   1      37.258  30.123  27.603  1.00  0.00    -0.376 OA
BRANCH   5   6
ATOM      6  C   UNL A   1      38.522  29.664  28.020  1.00  0.00     0.202 C 
BRANCH   6   7
ATOM      7  C   UNL A   1      38.417  28.505  28.962  1.00  0.00     0.261 C 
BRANCH   7   8
ATOM      8  O   UNL A   1      39.248  27.374  28.592  1.00  0.00    -0.458 OA
BRANCH   8   9
ATOM      9  C   UNL A   1      40.547  27.256  28.980  1.00  0.00     0.359 C 
ATOM     10  O   UNL A   1      40.980  27.715  30.027  1.00  0.00    -0.244 OA
BRANCH   9  11
ATOM     11  C   UNL A   1      41.322  26.151  28.289  1.00  0.00     0.183 C 
ATOM     12  N   UNL A   1      42.576  26.120  28.666  1.00  0.00    -0.157 NA
ATOM     13  C   UNL A   1      40.920  25.077  27.240  1.00  0.00     0.093 C 
ATOM     14  N   UNL A   1      43.190  25.127  27.988  1.00  0.00    -0.196 N 
ATOM     15  C   UNL A   1      42.315  24.349  27.208  1.00  0.00     0.282 C 
ATOM     16  C   UNL A   1      39.939  24.462  26.455  1.00  0.00     0.099 C 
ATOM     17  O   UNL A   1      42.565  23.306  26.626  1.00  0.00    -0.267 OA
BRANCH  14  18
ATOM     18  C   UNL A   1      44.620  25.143  27.988  1.00  0.00     0.069 A 
ATOM     19  C   UNL A   1      45.346  26.268  28.450  1.00  0.00     0.030 A 
ATOM     20  C   UNL A   1      45.346  24.109  27.388  1.00  0.00     0.030 A 
ATOM     21  C   UNL A   1      46.735  26.380  28.251  1.00  0.00     0.021 A 
ATOM     22  C   UNL A   1      46.727  24.219  27.169  1.00  0.00     0.021 A 
ATOM     23  C   UNL A   1      47.414  25.358  27.589  1.00  0.00     0.054 A 
BRANCH  23  24
ATOM     24  S   UNL A   1      49.143  25.533  27.246  1.00  0.00     0.124 S 
ATOM     25  O   UNL A   1      49.556  26.852  27.666  1.00  0.00    -0.237 OA
ATOM     26  O   UNL A   1      49.816  24.342  27.714  1.00  0.00    -0.237 OA
ATOM     27  O   UNL A   1      49.275  25.499  25.636  1.00  0.00    -0.744 OA
ENDBRANCH  23  24
ENDBRANCH  14  18
BRANCH  16  28
ATOM     28  N   UNL A   1      38.509  24.368  25.956  1.00  0.00    -0.361 N 
ATOM     29  H   UNL A   1      38.175  25.290  25.860  1.00  0.00     0.166 HD
BRANCH  28  30
ATOM     30  C   UNL A   1      37.238  23.323  25.489  1.00  0.00     0.038 A 
ATOM     31  C   UNL A   1      37.896  21.687  25.010  1.00  0.00     0.026 A 
ATOM     32  C   UNL A   1      35.405  23.424  25.789  1.00  0.00     0.026 A 
ATOM     33  C   UNL A   1      36.799  20.218  24.954  1.00  0.00     0.002 A 
ATOM     34  C   UNL A   1      34.268  21.984  25.538  1.00  0.00     0.002 A 
ATOM     35  C   UNL A   1      34.994  20.376  25.109  1.00  0.00     0.000 A 
ENDBRANCH  28  30
ENDBRANCH  16  28
ENDBRANCH   9  11
ENDBRANCH   8   9
ENDBRANCH   7   8
ENDBRANCH   6   7
ENDBRANCH   5   6
ENDBRANCH   4   5
ENDBRANCH   3   4
ENDBRANCH   2   3
ENDBRANCH   1   2
BRANCH   1  36
ATOM     36  C   UNL A   1      33.264  35.131  28.991  1.00  0.00     0.188 C 
BRANCH  36  37
ATOM     37  O   UNL A   1      33.301  36.224  30.073  1.00  0.00    -0.376 OA
BRANCH  37  38
ATOM     38  C   UNL A   1      32.847  36.464  31.469  1.00  0.00     0.202 C 
BRANCH  38  39
ATOM     39  C   UNL A   1      33.145  35.735  32.873  1.00  0.00     0.261 C 
BRANCH  39  40
ATOM     40  O   UNL A   1      34.397  35.122  33.184  1.00  0.00    -0.460 OA
BRANCH  40  41
ATOM     41  C   UNL A   1      34.395  33.665  33.237  1.00  0.00     0.338 C 
ATOM     42  O   UNL A   1      33.155  33.454  33.198  1.00  0.00    -0.246 OA
BRANCH  41  43
ATOM     43  C   UNL A   1      36.135  32.362  33.252  1.00  0.00     0.060 A 
ATOM     44  C   UNL A   1      37.421  32.491  34.088  1.00  0.00     0.016 A 
ATOM     45  C   UNL A   1      36.657  31.380  32.236  1.00  0.00     0.016 A 
ATOM     46  C   UNL A   1      38.780  32.222  33.754  1.00  0.00     0.010 A 
ATOM     47  C   UNL A   1      38.041  31.135  31.846  1.00  0.00     0.010 A 
ATOM     48  C   UNL A   1      39.110  31.681  32.538  1.00  0.00    -0.014 A 
BRANCH  48  49
ATOM     49  C   UNL A   1      40.540  31.693  32.108  1.00  0.00     0.031 A 
ATOM     50  C   UNL A   1      41.451  30.509  32.373  1.00  0.00     0.074 A 
ATOM     51  C   UNL A   1      40.978  32.691  31.316  1.00  0.00     0.049 A 
ATOM     52  N   UNL A   1      42.689  30.303  31.988  1.00  0.00    -0.248 NA
ATOM     53  C   UNL A   1      40.890  29.404  33.163  1.00  0.00     0.031 C 
ATOM     54  C   UNL A   1      40.163  33.833  30.900  1.00  0.00     0.029 A 
ATOM     55  N   UNL A   1      42.184  32.898  30.694  1.00  0.00    -0.354 N 
ATOM     56  C   UNL A   1      43.063  29.060  32.503  1.00  0.00     0.074 A 
ATOM     57  C   UNL A   1      41.915  28.560  33.230  1.00  0.00     0.031 C 
ATOM     58  C   UNL A   1      40.883  34.608  30.077  1.00  0.00     0.029 A 
ATOM     59  C   UNL A   1      42.229  34.057  29.954  1.00  0.00     0.049 A 
ATOM     60  H   UNL A   1      42.945  32.277  30.770  1.00  0.00     0.167 HD
ATOM     61  C   UNL A   1      44.253  28.411  32.391  1.00  0.00     0.037 A 
ATOM     62  C   UNL A   1      43.241  34.630  29.276  1.00  0.00     0.037 A 
ATOM     63  C   UNL A   1      45.389  28.933  31.661  1.00  0.00     0.049 A 
ATOM     64  C   UNL A   1      44.572  33.932  29.231  1.00  0.00     0.074 A 
ATOM     65  C   UNL A   1      46.640  28.362  31.484  1.00  0.00     0.029 A 
ATOM     66  N   UNL A   1      45.418  30.154  30.999  1.00  0.00    -0.354 N 
ATOM     67  N   UNL A   1      44.911  32.771  29.742  1.00  0.00    -0.248 NA
ATOM     68  C   UNL A   1      45.658  34.618  28.520  1.00  0.00     0.031 C 
ATOM     69  C   UNL A   1      47.445  29.272  30.788  1.00  0.00     0.029 A 
ATOM     70  C   UNL A   1      46.674  30.371  30.450  1.00  0.00     0.049 A 
ATOM     71  H   UNL A   1      44.659  30.775  30.930  1.00  0.00     0.167 HD
ATOM     72  C   UNL A   1      46.240  32.572  29.385  1.00  0.00     0.074 A 
ATOM     73  C   UNL A   1      46.635  33.727  28.601  1.00  0.00     0.031 C 
ATOM     74  C   UNL A   1      47.056  31.528  29.674  1.00  0.00     0.037 A 
BRANCH  61  75
ATOM     75  C   UNL A   1      44.432  27.097  33.124  1.00  0.00     0.058 A 
ATOM     76  C   UNL A   1      44.255  25.850  32.504  1.00  0.00     0.135 A 
ATOM     77  C   UNL A   1      44.848  27.092  34.470  1.00  0.00     0.135 A 
ATOM     78  F   UNL A   1      43.858  25.782  31.223  1.00  0.00    -0.206 F 
ATOM     79  C   UNL A   1      44.446  24.652  33.196  1.00  0.00     0.059 A 
ATOM     80  C   UNL A   1      45.076  25.908  35.171  1.00  0.00     0.059 A 
ATOM     81  F   UNL A   1      45.048  28.249  35.119  1.00  0.00    -0.206 F 
ATOM     82  C   UNL A   1      44.856  24.692  34.530  1.00  0.00     0.060 A 
BRANCH  82  83
ATOM     83  S   UNL A   1      45.089  23.133  35.416  1.00  0.00     0.124 S 
ATOM     84  O   UNL A   1      43.952  22.352  34.938  1.00  0.00    -0.237 OA
ATOM     85  O   UNL A   1      46.400  22.700  34.944  1.00  0.00    -0.237 OA
ATOM     86  O   UNL A   1      45.029  23.525  36.821  1.00  0.00    -0.744 OA
ENDBRANCH  82  83
ENDBRANCH  61  75
BRANCH  62  87
ATOM     87  C   UNL A   1      43.036  35.947  28.612  1.00  0.00     0.058 A 
ATOM     88  C   UNL A   1      42.612  36.039  27.277  1.00  0.00     0.135 A 
ATOM     89  C   UNL A   1      43.241  37.148  29.312  1.00  0.00     0.135 A 
ATOM     90  F   UNL A   1      42.410  34.925  26.558  1.00  0.00    -0.206 F 
ATOM     91  C   UNL A   1      42.409  37.270  26.660  1.00  0.00     0.059 A 
ATOM     92  C   UNL A   1      43.009  38.388  28.729  1.00  0.00     0.059 A 
ATOM     93  F   UNL A   1      43.636  37.120  30.595  1.00  0.00    -0.206 F 
ATOM     94  C   UNL A   1      42.602  38.439  27.398  1.00  0.00     0.060 A 
BRANCH  94  95
ATOM     95  S   UNL A   1      42.280  40.029  26.606  1.00  0.00     0.124 S 
ATOM     96  O   UNL A   1      40.965  39.804  26.017  1.00  0.00    -0.237 OA
ATOM     97  O   UNL A   1      42.326  40.947  27.739  1.00  0.00    -0.237 OA
ATOM     98  O   UNL A   1      43.382  40.161  25.658  1.00  0.00    -0.744 OA
ENDBRANCH  94  95
ENDBRANCH  62  87
BRANCH  74  99
ATOM     99  C   UNL A   1      48.446  31.563  29.091  1.00  0.00     0.058 A 
ATOM    100  C   UNL A   1      49.529  32.145  29.771  1.00  0.00     0.135 A 
ATOM    101  C   UNL A   1      48.696  31.000  27.829  1.00  0.00     0.135 A 
ATOM    102  F   UNL A   1      49.348  32.705  30.979  1.00  0.00    -0.206 F 
ATOM    103  C   UNL A   1      50.797  32.209  29.201  1.00  0.00     0.059 A 
ATOM    104  C   UNL A   1      49.963  31.016  27.257  1.00  0.00     0.059 A 
ATOM    105  F   UNL A   1      47.701  30.420  27.137  1.00  0.00    -0.206 F 
ATOM    106  C   UNL A   1      51.003  31.643  27.941  1.00  0.00     0.060 A 
BRANCH 106 107
ATOM    107  S   UNL A   1      52.651  31.734  27.212  1.00  0.00     0.124 S 
ATOM    108  O   UNL A   1      52.336  31.895  25.796  1.00  0.00    -0.237 OA
ATOM    109  O   UNL A   1      53.219  32.905  27.872  1.00  0.00    -0.237 OA
ATOM    110  O   UNL A   1      53.256  30.457  27.578  1.00  0.00    -0.744 OA
ENDBRANCH 106 107
ENDBRANCH  74  99
ENDBRANCH  48  49
ENDBRANCH  41  43
ENDBRANCH  40  41
ENDBRANCH  39  40
ENDBRANCH  38  39
ENDBRANCH  37  38
ENDBRANCH  36  37
ENDBRANCH   1  36
TORSDOF 27
ENDMDL
MODEL 3
REMARK VINA RESULT:     -10.3      2.282      8.562
REMARK SMILES O=C(OCCOCCOCCOCCOC(=O)c1ccc(-c2c3nc(c(-c4c(F)cc(S(=O)(=O)[O-])cc4F)c4ccc([nH]4)c(-c4c(F)cc(S(=O)(=O)[O-])cc4F)c4nc(c(-c5c(F)cc(S(=O)(=O)[O-])cc5F)c5ccc2[nH]5)C=C4)C=C3)cc1)C1=NN(c2ccc(S(=O)(=O)[O-])cc2)C(=O)/C1=C/Nc1ccccc1
REMARK SMILES IDX 10 1 9 2 8 3 7 4 6 5 5 6 4 7 3 8 2 9 1 10 84 11 85 12 99 13
REMARK SMILES IDX 86 14 97 15 100 16 98 17 87 18 88 19 96 20 89 21 95 22 90 23
REMARK SMILES IDX 91 24 92 25 93 26 94 27 101 28 102 30 103 31 107 32 104 33
REMARK SMILES IDX 106 34 105 35 11 36 12 37 13 38 14 39 15 40 16 41 17 42
REMARK SMILES IDX 18 43 19 44 83 45 20 46 82 47 21 48 22 49 23 50 76 51 24 52
REMARK SMILES IDX 81 53 75 54 77 55 25 56 80 57 74 58 73 59 26 61 60 62 39 63
REMARK SMILES IDX 59 64 40 65 43 66 58 67 78 68 41 69 42 70 57 72 79 73 44 74
REMARK SMILES IDX 27 75 28 76 37 77 29 78 30 79 36 80 38 81 31 82 32 83 33 84
REMARK SMILES IDX 34 85 35 86 61 87 62 88 71 89 63 90 64 91 70 92 72 93 65 94
REMARK SMILES IDX 66 95 67 96 68 97 69 98 45 99 46 100 55 101 47 102 48 103
REMARK SMILES IDX 54 104 56 105 49 106 50 107 51 108 52 109 53 110
REMARK H PARENT 101 29 77 60 43 71
REMARK Flexibility Score: inf
ROOT
ATOM      1  C   UNL A   1      34.789  32.084  29.165  1.00  0.00     0.188 C 
ENDROOT
BRANCH   1   2
ATOM      2  O   UNL A   1      36.036  31.562  28.604  1.00  0.00    -0.377 OA
BRANCH   2   3
ATOM      3  C   UNL A   1      36.507  30.224  28.427  1.00  0.00     0.188 C 
BRANCH   3   4
ATOM      4  C   UNL A   1      37.965  29.928  28.633  1.00  0.00     0.188 C 
BRANCH   4   5
ATOM      5  O   UNL A   1      38.522  29.306  27.496  1.00  0.00    -0.376 OA
BRANCH   5   6
ATOM      6  C   UNL A   1      39.868  28.905  27.409  1.00  0.00     0.202 C 
BRANCH   6   7
ATOM      7  C   UNL A   1      40.202  27.839  28.406  1.00  0.00     0.261 C 
BRANCH   7   8
ATOM      8  O   UNL A   1      41.421  27.114  28.099  1.00  0.00    -0.458 OA
BRANCH   8   9
ATOM      9  C   UNL A   1      42.661  27.633  28.314  1.00  0.00     0.359 C 
ATOM     10  O   UNL A   1      42.869  28.602  29.028  1.00  0.00    -0.244 OA
BRANCH   9  11
ATOM     11  C   UNL A   1      43.810  26.693  28.002  1.00  0.00     0.183 C 
ATOM     12  N   UNL A   1      44.948  27.330  27.886  1.00  0.00    -0.157 NA
ATOM     13  C   UNL A   1      43.887  25.156  27.794  1.00  0.00     0.093 C 
ATOM     14  N   UNL A   1      45.903  26.424  27.587  1.00  0.00    -0.196 N 
ATOM     15  C   UNL A   1      45.451  25.092  27.624  1.00  0.00     0.282 C 
ATOM     16  C   UNL A   1      43.263  23.903  27.786  1.00  0.00     0.099 C 
ATOM     17  O   UNL A   1      46.123  24.076  27.553  1.00  0.00    -0.267 OA
BRANCH  14  18
ATOM     18  C   UNL A   1      47.138  26.941  27.082  1.00  0.00     0.069 A 
ATOM     19  C   UNL A   1      47.270  27.353  25.734  1.00  0.00     0.030 A 
ATOM     20  C   UNL A   1      48.298  26.909  27.863  1.00  0.00     0.030 A 
ATOM     21  C   UNL A   1      48.526  27.653  25.175  1.00  0.00     0.021 A 
ATOM     22  C   UNL A   1      49.557  27.188  27.311  1.00  0.00     0.021 A 
ATOM     23  C   UNL A   1      49.668  27.545  25.968  1.00  0.00     0.054 A 
BRANCH  23  24
ATOM     24  S   UNL A   1      51.263  27.823  25.249  1.00  0.00     0.124 S 
ATOM     25  O   UNL A   1      51.210  29.053  24.492  1.00  0.00    -0.237 OA
ATOM     26  O   UNL A   1      52.261  27.605  26.273  1.00  0.00    -0.237 OA
ATOM     27  O   UNL A   1      51.474  26.631  24.179  1.00  0.00    -0.744 OA
ENDBRANCH  23  24
ENDBRANCH  14  18
BRANCH  16  28
ATOM     28  N   UNL A   1      42.022  23.042  27.923  1.00  0.00    -0.361 N 
ATOM     29  H   UNL A   1      42.191  22.406  28.656  1.00  0.00     0.166 HD
BRANCH  28  30
ATOM     30  C   UNL A   1      40.449  22.719  27.331  1.00  0.00     0.038 A 
ATOM     31  C   UNL A   1      39.404  24.214  27.440  1.00  0.00     0.026 A 
ATOM     32  C   UNL A   1      39.809  21.335  26.267  1.00  0.00     0.026 A 
ATOM     33  C   UNL A   1      37.869  24.357  26.446  1.00  0.00     0.002 A 
ATOM     34  C   UNL A   1      38.162  21.401  25.422  1.00  0.00     0.002 A 
ATOM     35  C   UNL A   1      37.197  22.935  25.532  1.00  0.00     0.000 A 
ENDBRANCH  28  30
ENDBRANCH  16  28
ENDBRANCH   9  11
ENDBRANCH   8   9
ENDBRANCH   7   8
ENDBRANCH   6   7
ENDBRANCH   5   6
ENDBRANCH   4   5
ENDBRANCH   3   4
ENDBRANCH   2   3
ENDBRANCH   1   2
BRANCH   1  36
ATOM     36  C   UNL A   1      34.002  33.681  29.108  1.00  0.00     0.188 C 
BRANCH  36  37
ATOM     37  O   UNL A   1      34.070  34.963  29.954  1.00  0.00    -0.376 OA
BRANCH  37  38
ATOM     38  C   UNL A   1      33.318  35.661  31.031  1.00  0.00     0.202 C 
BRANCH  38  39
ATOM     39  C   UNL A   1      33.400  35.635  32.639  1.00  0.00     0.261 C 
BRANCH  39  40
ATOM     40  O   UNL A   1      34.452  34.986  33.355  1.00  0.00    -0.460 OA
BRANCH  40  41
ATOM     41  C   UNL A   1      34.462  33.529  33.288  1.00  0.00     0.338 C 
ATOM     42  O   UNL A   1      33.230  33.317  33.148  1.00  0.00    -0.246 OA
BRANCH  41  43
ATOM     43  C   UNL A   1      36.210  32.238  33.313  1.00  0.00     0.060 A 
ATOM     44  C   UNL A   1      37.567  32.475  34.000  1.00  0.00     0.016 A 
ATOM     45  C   UNL A   1      36.646  31.128  32.392  1.00  0.00     0.016 A 
ATOM     46  C   UNL A   1      38.892  32.163  33.580  1.00  0.00     0.010 A 
ATOM     47  C   UNL A   1      37.991  30.832  31.911  1.00  0.00     0.010 A 
ATOM     48  C   UNL A   1      39.114  31.464  32.421  1.00  0.00    -0.014 A 
BRANCH  48  49
ATOM     49  C   UNL A   1      40.498  31.417  31.862  1.00  0.00     0.031 A 
ATOM     50  C   UNL A   1      41.080  32.596  31.105  1.00  0.00     0.074 A 
ATOM     51  C   UNL A   1      41.302  30.387  32.188  1.00  0.00     0.049 A 
ATOM     52  N   UNL A   1      42.294  32.771  30.635  1.00  0.00    -0.248 NA
ATOM     53  C   UNL A   1      40.184  33.734  30.859  1.00  0.00     0.031 C 
ATOM     54  C   UNL A   1      40.890  29.244  33.004  1.00  0.00     0.029 A 
ATOM     55  N   UNL A   1      42.625  30.142  31.915  1.00  0.00    -0.354 N 
ATOM     56  C   UNL A   1      42.302  34.025  30.020  1.00  0.00     0.074 A 
ATOM     57  C   UNL A   1      40.968  34.566  30.180  1.00  0.00     0.031 C 
ATOM     58  C   UNL A   1      41.941  28.431  33.182  1.00  0.00     0.029 A 
ATOM     59  C   UNL A   1      43.086  28.958  32.445  1.00  0.00     0.049 A 
ATOM     60  H   UNL A   1      43.191  30.754  31.391  1.00  0.00     0.167 HD
ATOM     61  C   UNL A   1      43.322  34.653  29.374  1.00  0.00     0.037 A 
ATOM     62  C   UNL A   1      44.281  28.349  32.331  1.00  0.00     0.037 A 
ATOM     63  C   UNL A   1      44.647  34.091  29.224  1.00  0.00     0.049 A 
ATOM     64  C   UNL A   1      45.369  29.026  31.545  1.00  0.00     0.074 A 
ATOM     65  C   UNL A   1      45.752  34.638  28.589  1.00  0.00     0.029 A 
ATOM     66  N   UNL A   1      45.045  32.849  29.702  1.00  0.00    -0.354 N 
ATOM     67  N   UNL A   1      45.352  30.199  30.955  1.00  0.00    -0.248 NA
ATOM     68  C   UNL A   1      46.639  28.302  31.410  1.00  0.00     0.031 C 
ATOM     69  C   UNL A   1      46.786  33.694  28.613  1.00  0.00     0.029 A 
ATOM     70  C   UNL A   1      46.361  32.595  29.340  1.00  0.00     0.049 A 
ATOM     71  H   UNL A   1      44.476  32.237  30.220  1.00  0.00     0.167 HD
ATOM     72  C   UNL A   1      46.618  30.367  30.406  1.00  0.00     0.074 A 
ATOM     73  C   UNL A   1      47.378  29.181  30.750  1.00  0.00     0.031 C 
ATOM     74  C   UNL A   1      47.107  31.408  29.687  1.00  0.00     0.037 A 
BRANCH  61  75
ATOM     75  C   UNL A   1      43.045  35.988  28.712  1.00  0.00     0.058 A 
ATOM     76  C   UNL A   1      43.144  37.211  29.396  1.00  0.00     0.135 A 
ATOM     77  C   UNL A   1      42.727  36.043  27.342  1.00  0.00     0.135 A 
ATOM     78  F   UNL A   1      43.443  37.231  30.705  1.00  0.00    -0.206 F 
ATOM     79  C   UNL A   1      42.904  38.429  28.758  1.00  0.00     0.059 A 
ATOM     80  C   UNL A   1      42.515  37.250  26.677  1.00  0.00     0.059 A 
ATOM     81  F   UNL A   1      42.629  34.912  26.626  1.00  0.00    -0.206 F 
ATOM     82  C   UNL A   1      42.589  38.439  27.398  1.00  0.00     0.060 A 
BRANCH  82  83
ATOM     83  S   UNL A   1      42.271  40.024  26.590  1.00  0.00     0.124 S 
ATOM     84  O   UNL A   1      40.929  39.816  26.055  1.00  0.00    -0.237 OA
ATOM     85  O   UNL A   1      42.372  40.966  27.700  1.00  0.00    -0.237 OA
ATOM     86  O   UNL A   1      43.332  40.119  25.592  1.00  0.00    -0.744 OA
ENDBRANCH  82  83
ENDBRANCH  61  75
BRANCH  62  87
ATOM     87  C   UNL A   1      44.494  27.014  32.956  1.00  0.00     0.058 A 
ATOM     88  C   UNL A   1      44.342  25.827  32.223  1.00  0.00     0.135 A 
ATOM     89  C   UNL A   1      44.875  26.901  34.304  1.00  0.00     0.135 A 
ATOM     90  F   UNL A   1      43.970  25.876  30.935  1.00  0.00    -0.206 F 
ATOM     91  C   UNL A   1      44.551  24.579  32.804  1.00  0.00     0.059 A 
ATOM     92  C   UNL A   1      45.126  25.668  34.896  1.00  0.00     0.059 A 
ATOM     93  F   UNL A   1      45.045  28.004  35.051  1.00  0.00    -0.206 F 
ATOM     94  C   UNL A   1      44.952  24.512  34.139  1.00  0.00     0.060 A 
BRANCH  94  95
ATOM     95  S   UNL A   1      45.278  22.892  34.867  1.00  0.00     0.124 S 
ATOM     96  O   UNL A   1      46.279  23.218  35.876  1.00  0.00    -0.237 OA
ATOM     97  O   UNL A   1      43.960  22.515  35.369  1.00  0.00    -0.237 OA
ATOM     98  O   UNL A   1      45.756  22.105  33.734  1.00  0.00    -0.744 OA
ENDBRANCH  94  95
ENDBRANCH  62  87
BRANCH  74  99
ATOM     99  C   UNL A   1      48.554  31.334  29.272  1.00  0.00     0.058 A 
ATOM    100  C   UNL A   1      48.952  30.802  28.034  1.00  0.00     0.135 A 
ATOM    101  C   UNL A   1      49.559  31.808  30.130  1.00  0.00     0.135 A 
ATOM    102  F   UNL A   1      48.035  30.328  27.174  1.00  0.00    -0.206 F 
ATOM    103  C   UNL A   1      50.294  30.699  27.683  1.00  0.00     0.059 A 
ATOM    104  C   UNL A   1      50.905  31.752  29.785  1.00  0.00     0.059 A 
ATOM    105  F   UNL A   1      49.238  32.337  31.323  1.00  0.00    -0.206 F 
ATOM    106  C   UNL A   1      51.264  31.176  28.568  1.00  0.00     0.060 A 
BRANCH 106 107
ATOM    107  S   UNL A   1      53.002  31.036  28.102  1.00  0.00     0.124 S 
ATOM    108  O   UNL A   1      53.571  32.223  28.733  1.00  0.00    -0.237 OA
ATOM    109  O   UNL A   1      53.382  29.758  28.696  1.00  0.00    -0.237 OA
ATOM    110  O   UNL A   1      52.967  31.058  26.643  1.00  0.00    -0.744 OA
ENDBRANCH 106 107
ENDBRANCH  74  99
ENDBRANCH  48  49
ENDBRANCH  41  43
ENDBRANCH  40  41
ENDBRANCH  39  40
ENDBRANCH  38  39
ENDBRANCH  37  38
ENDBRANCH  36  37
ENDBRANCH   1  36
TORSDOF 27
ENDMDL
