MODEL 1
REMARK VINA RESULT:      -9.2      0.000      0.000
REMARK SMILES CC(C)[C@H](CO)NS(=O)(=O)c1ccc(C(=O)OCCOCCOCCOCCOC(=O)c2ccc(-c3c4nc(c(-c5c(F)cc(S(=O)(=O)[O-])cc5F)c5ccc([nH]5)c(-c5c(F)cc(S(=O)(=O)[O-])cc5F)c5nc(c(-c6c(F)cc(S(=O)(=O)[O-])cc6F)c6ccc3[nH]6)C=C5)C=C4)cc2)cn1
REMARK SMILES IDX 22 1 21 2 20 3 19 4 18 5 17 6 15 7 16 8 14 9 11 10 12 11
REMARK SMILES IDX 99 12 13 13 98 14 8 15 9 16 10 17 7 18 4 20 2 21 1 22 3 23
REMARK SMILES IDX 5 24 6 25 23 27 24 28 25 29 26 30 27 31 28 32 29 33 30 34
REMARK SMILES IDX 31 35 32 36 33 37 97 38 34 39 96 40 35 41 36 42 37 43 90 44
REMARK SMILES IDX 38 45 95 46 89 47 91 48 39 49 94 50 88 51 87 52 40 54 74 55
REMARK SMILES IDX 53 56 73 57 54 58 57 59 72 60 92 61 55 62 56 63 71 65 93 66
REMARK SMILES IDX 58 67 41 68 42 69 51 70 43 71 44 72 50 73 52 74 45 75 46 76
REMARK SMILES IDX 47 77 48 78 49 79 75 80 76 81 85 82 77 83 78 84 84 85 86 86
REMARK SMILES IDX 79 87 80 88 81 89 82 90 83 91 59 92 60 93 69 94 61 95 62 96
REMARK SMILES IDX 68 97 70 98 63 99 64 100 65 101 66 102 67 103
REMARK H PARENT 7 19 6 26 91 53 57 64
REMARK Flexibility Score: inf
ROOT
ATOM      1  C   UNL A   1      42.982  19.477  25.413  1.00  0.00     0.188 C 
ENDROOT
BRANCH   1   2
ATOM      2  C   UNL A   1      41.784  18.768  26.066  1.00  0.00     0.188 C 
BRANCH   2   3
ATOM      3  O   UNL A   1      40.762  19.665  26.503  1.00  0.00    -0.376 OA
BRANCH   3   4
ATOM      4  C   UNL A   1      41.120  21.036  26.649  1.00  0.00     0.202 C 
BRANCH   4   5
ATOM      5  C   UNL A   1      40.143  22.079  26.085  1.00  0.00     0.261 C 
BRANCH   5   6
ATOM      6  O   UNL A   1      38.767  21.669  26.055  1.00  0.00    -0.460 OA
BRANCH   6   7
ATOM      7  C   UNL A   1      37.816  22.621  26.091  1.00  0.00     0.339 C 
ATOM      8  O   UNL A   1      37.967  23.823  26.214  1.00  0.00    -0.246 OA
BRANCH   7   9
ATOM      9  C   UNL A   1      36.538  21.985  25.730  1.00  0.00     0.078 A 
ATOM     10  C   UNL A   1      34.107  21.036  24.986  1.00  0.00     0.170 A 
ATOM     11  C   UNL A   1      35.218  20.260  24.689  1.00  0.00     0.043 A 
ATOM     12  N   UNL A   1      34.133  22.241  25.632  1.00  0.00    -0.243 NA
ATOM     13  C   UNL A   1      36.462  20.755  25.066  1.00  0.00     0.020 A 
ATOM     14  C   UNL A   1      35.363  22.686  25.981  1.00  0.00     0.128 A 
BRANCH  10  15
ATOM     15  S   UNL A   1      32.468  20.361  24.718  1.00  0.00     0.258 S 
ATOM     16  O   UNL A   1      32.188  20.451  23.301  1.00  0.00    -0.205 OA
ATOM     17  O   UNL A   1      31.582  20.946  25.701  1.00  0.00    -0.205 OA
BRANCH  15  18
ATOM     18  N   UNL A   1      32.614  18.728  25.110  1.00  0.00    -0.204 NA
ATOM     19  H   UNL A   1      33.548  18.606  25.498  1.00  0.00     0.141 HD
BRANCH  18  20
ATOM     20  C   UNL A   1      32.444  17.668  24.081  1.00  0.00     0.098 C 
BRANCH  20  21
ATOM     21  C   UNL A   1      33.391  16.466  24.283  1.00  0.00     0.003 C 
ATOM     22  C   UNL A   1      34.671  16.606  23.449  1.00  0.00     0.009 C 
ATOM     23  C   UNL A   1      33.760  16.196  25.742  1.00  0.00     0.009 C 
ENDBRANCH  20  21
BRANCH  20  24
ATOM     24  C   UNL A   1      32.559  18.371  22.709  1.00  0.00     0.176 C 
BRANCH  24  25
ATOM     25  O   UNL A   1      31.768  17.671  21.737  1.00  0.00    -0.395 OA
ATOM     26  H   UNL A   1      32.161  16.800  21.569  1.00  0.00     0.210 HD
ENDBRANCH  24  25
ENDBRANCH  20  24
ENDBRANCH  18  20
ENDBRANCH  15  18
ENDBRANCH  10  15
ENDBRANCH   7   9
ENDBRANCH   6   7
ENDBRANCH   5   6
ENDBRANCH   4   5
ENDBRANCH   3   4
ENDBRANCH   2   3
ENDBRANCH   1   2
BRANCH   1  27
ATOM     27  O   UNL A   1      44.162  18.692  25.461  1.00  0.00    -0.377 OA
BRANCH  27  28
ATOM     28  C   UNL A   1      45.202  19.039  24.547  1.00  0.00     0.188 C 
BRANCH  28  29
ATOM     29  C   UNL A   1      46.299  20.038  24.974  1.00  0.00     0.188 C 
BRANCH  29  30
ATOM     30  O   UNL A   1      45.889  21.405  24.884  1.00  0.00    -0.376 OA
BRANCH  30  31
ATOM     31  C   UNL A   1      45.460  22.013  26.099  1.00  0.00     0.202 C 
BRANCH  31  32
ATOM     32  C   UNL A   1      45.248  23.529  25.987  1.00  0.00     0.261 C 
BRANCH  32  33
ATOM     33  O   UNL A   1      44.161  24.045  26.771  1.00  0.00    -0.460 OA
BRANCH  33  34
ATOM     34  C   UNL A   1      43.247  24.804  26.128  1.00  0.00     0.338 C 
ATOM     35  O   UNL A   1      42.823  24.646  24.998  1.00  0.00    -0.246 OA
BRANCH  34  36
ATOM     36  C   UNL A   1      42.690  25.763  27.102  1.00  0.00     0.060 A 
ATOM     37  C   UNL A   1      43.087  27.103  27.030  1.00  0.00     0.016 A 
ATOM     38  C   UNL A   1      41.793  25.336  28.084  1.00  0.00     0.016 A 
ATOM     39  C   UNL A   1      42.620  28.016  27.976  1.00  0.00     0.010 A 
ATOM     40  C   UNL A   1      41.340  26.246  29.040  1.00  0.00     0.010 A 
ATOM     41  C   UNL A   1      41.782  27.581  29.010  1.00  0.00    -0.014 A 
BRANCH  41  42
ATOM     42  C   UNL A   1      41.527  28.459  30.175  1.00  0.00     0.031 A 
ATOM     43  C   UNL A   1      42.398  28.296  31.390  1.00  0.00     0.074 A 
ATOM     44  C   UNL A   1      40.543  29.374  30.159  1.00  0.00     0.049 A 
ATOM     45  N   UNL A   1      42.343  28.913  32.540  1.00  0.00    -0.248 NA
ATOM     46  C   UNL A   1      43.476  27.297  31.291  1.00  0.00     0.031 C 
ATOM     47  C   UNL A   1      39.651  29.639  29.032  1.00  0.00     0.029 A 
ATOM     48  N   UNL A   1      40.125  30.243  31.134  1.00  0.00    -0.354 N 
ATOM     49  C   UNL A   1      43.375  28.381  33.303  1.00  0.00     0.074 A 
ATOM     50  C   UNL A   1      44.021  27.368  32.497  1.00  0.00     0.031 C 
ATOM     51  C   UNL A   1      38.780  30.601  29.386  1.00  0.00     0.029 A 
ATOM     52  C   UNL A   1      39.037  30.999  30.769  1.00  0.00     0.049 A 
ATOM     53  H   UNL A   1      40.562  30.319  32.014  1.00  0.00     0.167 HD
ATOM     54  C   UNL A   1      43.759  28.711  34.558  1.00  0.00     0.037 A 
ATOM     55  C   UNL A   1      38.323  31.894  31.481  1.00  0.00     0.037 A 
ATOM     56  C   UNL A   1      43.104  29.706  35.363  1.00  0.00     0.049 A 
ATOM     57  C   UNL A   1      38.723  32.199  32.901  1.00  0.00     0.074 A 
ATOM     58  C   UNL A   1      43.418  30.122  36.644  1.00  0.00     0.029 A 
ATOM     59  N   UNL A   1      41.992  30.434  34.967  1.00  0.00    -0.354 N 
ATOM     60  N   UNL A   1      39.720  31.710  33.601  1.00  0.00    -0.248 NA
ATOM     61  C   UNL A   1      37.902  33.176  33.629  1.00  0.00     0.031 C 
ATOM     62  C   UNL A   1      42.471  31.073  37.038  1.00  0.00     0.029 A 
ATOM     63  C   UNL A   1      41.593  31.282  35.987  1.00  0.00     0.049 A 
ATOM     64  H   UNL A   1      41.550  30.360  34.090  1.00  0.00     0.167 HD
ATOM     65  C   UNL A   1      39.662  32.341  34.840  1.00  0.00     0.074 A 
ATOM     66  C   UNL A   1      38.536  33.249  34.793  1.00  0.00     0.031 C 
ATOM     67  C   UNL A   1      40.471  32.184  35.919  1.00  0.00     0.037 A 
BRANCH  54  68
ATOM     68  C   UNL A   1      44.924  27.963  35.138  1.00  0.00     0.058 A 
ATOM     69  C   UNL A   1      44.745  26.783  35.879  1.00  0.00     0.135 A 
ATOM     70  C   UNL A   1      46.235  28.431  34.955  1.00  0.00     0.135 A 
ATOM     71  F   UNL A   1      43.510  26.305  36.101  1.00  0.00    -0.206 F 
ATOM     72  C   UNL A   1      45.822  26.112  36.447  1.00  0.00     0.059 A 
ATOM     73  C   UNL A   1      47.329  27.761  35.494  1.00  0.00     0.059 A 
ATOM     74  F   UNL A   1      46.459  29.556  34.259  1.00  0.00    -0.206 F 
ATOM     75  C   UNL A   1      47.111  26.613  36.254  1.00  0.00     0.060 A 
BRANCH  75  76
ATOM     76  S   UNL A   1      48.499  25.743  37.012  1.00  0.00     0.124 S 
ATOM     77  O   UNL A   1      47.862  25.147  38.182  1.00  0.00    -0.237 OA
ATOM     78  O   UNL A   1      48.896  24.810  35.962  1.00  0.00    -0.237 OA
ATOM     79  O   UNL A   1      49.455  26.809  37.292  1.00  0.00    -0.744 OA
ENDBRANCH  75  76
ENDBRANCH  54  68
BRANCH  55  80
ATOM     80  C   UNL A   1      37.153  32.569  30.860  1.00  0.00     0.058 A 
ATOM     81  C   UNL A   1      37.288  33.814  30.229  1.00  0.00     0.135 A 
ATOM     82  C   UNL A   1      35.880  31.979  30.878  1.00  0.00     0.135 A 
ATOM     83  F   UNL A   1      38.482  34.424  30.197  1.00  0.00    -0.206 F 
ATOM     84  C   UNL A   1      36.202  34.455  29.641  1.00  0.00     0.059 A 
ATOM     85  C   UNL A   1      34.783  32.590  30.279  1.00  0.00     0.059 A 
ATOM     86  F   UNL A   1      35.700  30.785  31.464  1.00  0.00    -0.206 F 
ATOM     87  C   UNL A   1      34.952  33.831  29.668  1.00  0.00     0.060 A 
BRANCH  87  88
ATOM     88  S   UNL A   1      33.562  34.638  28.844  1.00  0.00     0.124 S 
ATOM     89  O   UNL A   1      34.232  35.712  28.121  1.00  0.00    -0.237 OA
ATOM     90  O   UNL A   1      33.020  33.557  28.026  1.00  0.00    -0.237 OA
ATOM     91  O   UNL A   1      32.712  35.057  29.955  1.00  0.00    -0.744 OA
ENDBRANCH  87  88
ENDBRANCH  55  80
BRANCH  67  92
ATOM     92  C   UNL A   1      40.190  33.035  37.126  1.00  0.00     0.058 A 
ATOM     93  C   UNL A   1      40.921  34.204  37.390  1.00  0.00     0.135 A 
ATOM     94  C   UNL A   1      39.135  32.710  37.994  1.00  0.00     0.135 A 
ATOM     95  F   UNL A   1      41.942  34.556  36.594  1.00  0.00    -0.206 F 
ATOM     96  C   UNL A   1      40.627  35.011  38.485  1.00  0.00     0.059 A 
ATOM     97  C   UNL A   1      38.808  33.516  39.080  1.00  0.00     0.059 A 
ATOM     98  F   UNL A   1      38.397  31.610  37.779  1.00  0.00    -0.206 F 
ATOM     99  C   UNL A   1      39.568  34.660  39.323  1.00  0.00     0.060 A 
BRANCH  99 100
ATOM    100  S   UNL A   1      39.170  35.736  40.718  1.00  0.00     0.124 S 
ATOM    101  O   UNL A   1      40.152  36.802  40.555  1.00  0.00    -0.237 OA
ATOM    102  O   UNL A   1      37.784  36.103  40.447  1.00  0.00    -0.237 OA
ATOM    103  O   UNL A   1      39.367  34.872  41.879  1.00  0.00    -0.744 OA
ENDBRANCH  99 100
ENDBRANCH  67  92
ENDBRANCH  41  42
ENDBRANCH  34  36
ENDBRANCH  33  34
ENDBRANCH  32  33
ENDBRANCH  31  32
ENDBRANCH  30  31
ENDBRANCH  29  30
ENDBRANCH  28  29
ENDBRANCH  27  28
ENDBRANCH   1  27
TORSDOF 29
ENDMDL
MODEL 2
REMARK VINA RESULT:      -8.9      2.259      8.627
REMARK SMILES CC(C)[C@H](CO)NS(=O)(=O)c1ccc(C(=O)OCCOCCOCCOCCOC(=O)c2ccc(-c3c4nc(c(-c5c(F)cc(S(=O)(=O)[O-])cc5F)c5ccc([nH]5)c(-c5c(F)cc(S(=O)(=O)[O-])cc5F)c5nc(c(-c6c(F)cc(S(=O)(=O)[O-])cc6F)c6ccc3[nH]6)C=C5)C=C4)cc2)cn1
REMARK SMILES IDX 22 1 21 2 20 3 19 4 18 5 17 6 15 7 16 8 14 9 11 10 12 11
REMARK SMILES IDX 99 12 13 13 98 14 8 15 9 16 10 17 7 18 4 20 2 21 1 22 3 23
REMARK SMILES IDX 5 24 6 25 23 27 24 28 25 29 26 30 27 31 28 32 29 33 30 34
REMARK SMILES IDX 31 35 32 36 33 37 97 38 34 39 96 40 35 41 36 42 37 43 90 44
REMARK SMILES IDX 38 45 95 46 89 47 91 48 39 49 94 50 88 51 87 52 40 54 74 55
REMARK SMILES IDX 53 56 73 57 54 58 57 59 72 60 92 61 55 62 56 63 71 65 93 66
REMARK SMILES IDX 58 67 41 68 42 69 51 70 43 71 44 72 50 73 52 74 45 75 46 76
REMARK SMILES IDX 47 77 48 78 49 79 75 80 76 81 85 82 77 83 78 84 84 85 86 86
REMARK SMILES IDX 79 87 80 88 81 89 82 90 83 91 59 92 60 93 69 94 61 95 62 96
REMARK SMILES IDX 68 97 70 98 63 99 64 100 65 101 66 102 67 103
REMARK H PARENT 7 19 6 26 91 53 57 64
REMARK Flexibility Score: inf
ROOT
ATOM      1  C   UNL A   1      41.981  19.875  26.230  1.00  0.00     0.188 C 
ENDROOT
BRANCH   1   2
ATOM      2  C   UNL A   1      40.482  20.000  25.908  1.00  0.00     0.188 C 
BRANCH   2   3
ATOM      3  O   UNL A   1      39.787  20.896  26.775  1.00  0.00    -0.376 OA
BRANCH   3   4
ATOM      4  C   UNL A   1      39.663  22.249  26.347  1.00  0.00     0.202 C 
BRANCH   4   5
ATOM      5  C   UNL A   1      38.259  22.733  25.951  1.00  0.00     0.261 C 
BRANCH   5   6
ATOM      6  O   UNL A   1      37.185  21.860  26.335  1.00  0.00    -0.460 OA
BRANCH   6   7
ATOM      7  C   UNL A   1      36.292  21.496  25.396  1.00  0.00     0.339 C 
ATOM      8  O   UNL A   1      36.347  20.540  24.644  1.00  0.00    -0.246 OA
BRANCH   7   9
ATOM      9  C   UNL A   1      35.095  22.336  25.572  1.00  0.00     0.078 A 
ATOM     10  C   UNL A   1      32.795  23.770  25.699  1.00  0.00     0.170 A 
ATOM     11  C   UNL A   1      33.327  23.302  26.892  1.00  0.00     0.043 A 
ATOM     12  N   UNL A   1      33.340  23.575  24.459  1.00  0.00    -0.243 NA
ATOM     13  C   UNL A   1      34.502  22.561  26.820  1.00  0.00     0.020 A 
ATOM     14  C   UNL A   1      34.482  22.850  24.435  1.00  0.00     0.128 A 
BRANCH  10  15
ATOM     15  S   UNL A   1      31.407  24.903  25.742  1.00  0.00     0.258 S 
ATOM     16  O   UNL A   1      30.616  24.576  26.909  1.00  0.00    -0.205 OA
ATOM     17  O   UNL A   1      30.821  24.936  24.419  1.00  0.00    -0.205 OA
BRANCH  15  18
ATOM     18  N   UNL A   1      32.103  26.416  26.000  1.00  0.00    -0.204 NA
ATOM     19  H   UNL A   1      32.434  26.422  26.963  1.00  0.00     0.141 HD
BRANCH  18  20
ATOM     20  C   UNL A   1      31.322  27.668  25.816  1.00  0.00     0.098 C 
BRANCH  20  21
ATOM     21  C   UNL A   1      31.510  28.304  24.422  1.00  0.00     0.003 C 
ATOM     22  C   UNL A   1      30.583  29.508  24.218  1.00  0.00     0.009 C 
ATOM     23  C   UNL A   1      32.950  28.711  24.107  1.00  0.00     0.009 C 
ENDBRANCH  20  21
BRANCH  20  24
ATOM     24  C   UNL A   1      31.681  28.584  27.009  1.00  0.00     0.176 C 
BRANCH  24  25
ATOM     25  O   UNL A   1      31.335  27.934  28.241  1.00  0.00    -0.395 OA
ATOM     26  H   UNL A   1      32.105  27.449  28.577  1.00  0.00     0.210 HD
ENDBRANCH  24  25
ENDBRANCH  20  24
ENDBRANCH  18  20
ENDBRANCH  15  18
ENDBRANCH  10  15
ENDBRANCH   7   9
ENDBRANCH   6   7
ENDBRANCH   5   6
ENDBRANCH   4   5
ENDBRANCH   3   4
ENDBRANCH   2   3
ENDBRANCH   1   2
BRANCH   1  27
ATOM     27  O   UNL A   1      42.744  19.501  25.095  1.00  0.00    -0.377 OA
BRANCH  27  28
ATOM     28  C   UNL A   1      44.023  20.118  24.949  1.00  0.00     0.188 C 
BRANCH  28  29
ATOM     29  C   UNL A   1      44.286  21.501  25.583  1.00  0.00     0.188 C 
BRANCH  29  30
ATOM     30  O   UNL A   1      45.305  22.248  24.912  1.00  0.00    -0.376 OA
BRANCH  30  31
ATOM     31  C   UNL A   1      45.129  23.661  24.879  1.00  0.00     0.202 C 
BRANCH  31  32
ATOM     32  C   UNL A   1      43.658  24.099  24.907  1.00  0.00     0.261 C 
BRANCH  32  33
ATOM     33  O   UNL A   1      43.434  25.428  25.402  1.00  0.00    -0.460 OA
BRANCH  33  34
ATOM     34  C   UNL A   1      42.179  25.731  25.801  1.00  0.00     0.338 C 
ATOM     35  O   UNL A   1      41.136  25.335  25.314  1.00  0.00    -0.246 OA
BRANCH  34  36
ATOM     36  C   UNL A   1      42.277  26.479  27.070  1.00  0.00     0.060 A 
ATOM     37  C   UNL A   1      41.687  25.938  28.218  1.00  0.00     0.016 A 
ATOM     38  C   UNL A   1      42.936  27.710  27.119  1.00  0.00     0.016 A 
ATOM     39  C   UNL A   1      41.714  26.654  29.415  1.00  0.00     0.010 A 
ATOM     40  C   UNL A   1      42.949  28.433  28.313  1.00  0.00     0.010 A 
ATOM     41  C   UNL A   1      42.305  27.923  29.454  1.00  0.00    -0.014 A 
BRANCH  41  42
ATOM     42  C   UNL A   1      42.079  28.809  30.620  1.00  0.00     0.031 A 
ATOM     43  C   UNL A   1      40.887  29.725  30.593  1.00  0.00     0.074 A 
ATOM     44  C   UNL A   1      42.914  28.805  31.673  1.00  0.00     0.049 A 
ATOM     45  N   UNL A   1      40.505  30.616  31.468  1.00  0.00    -0.248 NA
ATOM     46  C   UNL A   1      40.009  29.621  29.414  1.00  0.00     0.031 C 
ATOM     47  C   UNL A   1      44.086  27.946  31.821  1.00  0.00     0.029 A 
ATOM     48  N   UNL A   1      42.903  29.565  32.814  1.00  0.00    -0.354 N 
ATOM     49  C   UNL A   1      39.345  31.179  30.951  1.00  0.00     0.074 A 
ATOM     50  C   UNL A   1      39.102  30.552  29.670  1.00  0.00     0.031 C 
ATOM     51  C   UNL A   1      44.692  28.237  32.987  1.00  0.00     0.029 A 
ATOM     52  C   UNL A   1      43.964  29.317  33.651  1.00  0.00     0.049 A 
ATOM     53  H   UNL A   1      42.202  30.227  33.016  1.00  0.00     0.167 HD
ATOM     54  C   UNL A   1      38.547  32.127  31.496  1.00  0.00     0.037 A 
ATOM     55  C   UNL A   1      44.313  29.911  34.810  1.00  0.00     0.037 A 
ATOM     56  C   UNL A   1      38.801  32.760  32.762  1.00  0.00     0.049 A 
ATOM     57  C   UNL A   1      43.450  31.012  35.368  1.00  0.00     0.074 A 
ATOM     58  C   UNL A   1      38.050  33.726  33.408  1.00  0.00     0.029 A 
ATOM     59  N   UNL A   1      39.897  32.499  33.570  1.00  0.00    -0.354 N 
ATOM     60  N   UNL A   1      42.339  31.516  34.883  1.00  0.00    -0.248 NA
ATOM     61  C   UNL A   1      43.886  31.627  36.629  1.00  0.00     0.031 C 
ATOM     62  C   UNL A   1      38.715  34.078  34.587  1.00  0.00     0.029 A 
ATOM     63  C   UNL A   1      39.856  33.300  34.698  1.00  0.00     0.049 A 
ATOM     64  H   UNL A   1      40.602  31.841  33.370  1.00  0.00     0.167 HD
ATOM     65  C   UNL A   1      41.929  32.485  35.793  1.00  0.00     0.074 A 
ATOM     66  C   UNL A   1      42.909  32.495  36.860  1.00  0.00     0.031 C 
ATOM     67  C   UNL A   1      40.839  33.292  35.752  1.00  0.00     0.037 A 
BRANCH  54  68
ATOM     68  C   UNL A   1      37.344  32.547  30.704  1.00  0.00     0.058 A 
ATOM     69  C   UNL A   1      36.180  31.763  30.661  1.00  0.00     0.135 A 
ATOM     70  C   UNL A   1      37.353  33.747  29.974  1.00  0.00     0.135 A 
ATOM     71  F   UNL A   1      36.127  30.596  31.324  1.00  0.00    -0.206 F 
ATOM     72  C   UNL A   1      35.080  32.135  29.896  1.00  0.00     0.059 A 
ATOM     73  C   UNL A   1      36.255  34.150  29.221  1.00  0.00     0.059 A 
ATOM     74  F   UNL A   1      38.442  34.531  29.977  1.00  0.00    -0.206 F 
ATOM     75  C   UNL A   1      35.129  33.329  29.174  1.00  0.00     0.060 A 
BRANCH  75  76
ATOM     76  S   UNL A   1      33.703  33.791  28.170  1.00  0.00     0.124 S 
ATOM     77  O   UNL A   1      32.865  34.470  29.154  1.00  0.00    -0.237 OA
ATOM     78  O   UNL A   1      34.301  34.647  27.150  1.00  0.00    -0.237 OA
ATOM     79  O   UNL A   1      33.196  32.510  27.690  1.00  0.00    -0.744 OA
ENDBRANCH  75  76
ENDBRANCH  54  68
BRANCH  55  80
ATOM     80  C   UNL A   1      45.543  29.475  35.524  1.00  0.00     0.058 A 
ATOM     81  C   UNL A   1      46.785  30.065  35.251  1.00  0.00     0.135 A 
ATOM     82  C   UNL A   1      45.498  28.464  36.497  1.00  0.00     0.135 A 
ATOM     83  F   UNL A   1      46.880  31.025  34.319  1.00  0.00    -0.206 F 
ATOM     84  C   UNL A   1      47.942  29.667  35.914  1.00  0.00     0.059 A 
ATOM     85  C   UNL A   1      46.637  28.064  37.188  1.00  0.00     0.059 A 
ATOM     86  F   UNL A   1      44.331  27.873  36.800  1.00  0.00    -0.206 F 
ATOM     87  C   UNL A   1      47.856  28.668  36.886  1.00  0.00     0.060 A 
BRANCH  87  88
ATOM     88  S   UNL A   1      49.351  28.206  37.789  1.00  0.00     0.124 S 
ATOM     89  O   UNL A   1      48.794  27.496  38.935  1.00  0.00    -0.237 OA
ATOM     90  O   UNL A   1      50.060  27.386  36.810  1.00  0.00    -0.237 OA
ATOM     91  O   UNL A   1      49.974  29.493  38.084  1.00  0.00    -0.744 OA
ENDBRANCH  87  88
ENDBRANCH  55  80
BRANCH  67  92
ATOM     92  C   UNL A   1      40.627  34.232  36.907  1.00  0.00     0.058 A 
ATOM     93  C   UNL A   1      39.967  33.824  38.077  1.00  0.00     0.135 A 
ATOM     94  C   UNL A   1      41.145  35.536  36.865  1.00  0.00     0.135 A 
ATOM     95  F   UNL A   1      39.450  32.588  38.165  1.00  0.00    -0.206 F 
ATOM     96  C   UNL A   1      39.814  34.684  39.160  1.00  0.00     0.059 A 
ATOM     97  C   UNL A   1      41.023  36.405  37.945  1.00  0.00     0.059 A 
ATOM     98  F   UNL A   1      41.794  35.971  35.774  1.00  0.00    -0.206 F 
ATOM     99  C   UNL A   1      40.346  35.972  39.085  1.00  0.00     0.060 A 
BRANCH  99 100
ATOM    100  S   UNL A   1      40.175  37.068  40.511  1.00  0.00     0.124 S 
ATOM    101  O   UNL A   1      40.971  36.368  41.514  1.00  0.00    -0.237 OA
ATOM    102  O   UNL A   1      40.738  38.320  40.015  1.00  0.00    -0.237 OA
ATOM    103  O   UNL A   1      38.735  37.087  40.752  1.00  0.00    -0.744 OA
ENDBRANCH  99 100
ENDBRANCH  67  92
ENDBRANCH  41  42
ENDBRANCH  34  36
ENDBRANCH  33  34
ENDBRANCH  32  33
ENDBRANCH  31  32
ENDBRANCH  30  31
ENDBRANCH  29  30
ENDBRANCH  28  29
ENDBRANCH  27  28
ENDBRANCH   1  27
TORSDOF 29
ENDMDL
MODEL 3
REMARK VINA RESULT:      -8.6      3.897     10.603
REMARK SMILES CC(C)[C@H](CO)NS(=O)(=O)c1ccc(C(=O)OCCOCCOCCOCCOC(=O)c2ccc(-c3c4nc(c(-c5c(F)cc(S(=O)(=O)[O-])cc5F)c5ccc([nH]5)c(-c5c(F)cc(S(=O)(=O)[O-])cc5F)c5nc(c(-c6c(F)cc(S(=O)(=O)[O-])cc6F)c6ccc3[nH]6)C=C5)C=C4)cc2)cn1
REMARK SMILES IDX 22 1 21 2 20 3 19 4 18 5 17 6 15 7 16 8 14 9 11 10 12 11
REMARK SMILES IDX 99 12 13 13 98 14 8 15 9 16 10 17 7 18 4 20 2 21 1 22 3 23
REMARK SMILES IDX 5 24 6 25 23 27 24 28 25 29 26 30 27 31 28 32 29 33 30 34
REMARK SMILES IDX 31 35 32 36 33 37 97 38 34 39 96 40 35 41 36 42 37 43 90 44
REMARK SMILES IDX 38 45 95 46 89 47 91 48 39 49 94 50 88 51 87 52 40 54 74 55
REMARK SMILES IDX 53 56 73 57 54 58 57 59 72 60 92 61 55 62 56 63 71 65 93 66
REMARK SMILES IDX 58 67 41 68 42 69 51 70 43 71 44 72 50 73 52 74 45 75 46 76
REMARK SMILES IDX 47 77 48 78 49 79 75 80 76 81 85 82 77 83 78 84 84 85 86 86
REMARK SMILES IDX 79 87 80 88 81 89 82 90 83 91 59 92 60 93 69 94 61 95 62 96
REMARK SMILES IDX 68 97 70 98 63 99 64 100 65 101 66 102 67 103
REMARK H PARENT 7 19 6 26 91 53 57 64
REMARK Flexibility Score: inf
ROOT
ATOM      1  C   UNL A   1      44.002  19.360  24.885  1.00  0.00     0.188 C 
ENDROOT
BRANCH   1   2
ATOM      2  C   UNL A   1      44.863  20.455  24.234  1.00  0.00     0.188 C 
BRANCH   2   3
ATOM      3  O   UNL A   1      45.783  21.067  25.137  1.00  0.00    -0.376 OA
BRANCH   3   4
ATOM      4  C   UNL A   1      46.238  22.377  24.814  1.00  0.00     0.202 C 
BRANCH   4   5
ATOM      5  C   UNL A   1      45.512  23.557  25.479  1.00  0.00     0.261 C 
BRANCH   5   6
ATOM      6  O   UNL A   1      45.750  23.699  26.889  1.00  0.00    -0.460 OA
BRANCH   6   7
ATOM      7  C   UNL A   1      44.949  24.520  27.592  1.00  0.00     0.339 C 
ATOM      8  O   UNL A   1      44.154  24.222  28.464  1.00  0.00    -0.246 OA
BRANCH   7   9
ATOM      9  C   UNL A   1      45.352  25.903  27.285  1.00  0.00     0.078 A 
ATOM     10  C   UNL A   1      46.321  28.363  26.673  1.00  0.00     0.170 A 
ATOM     11  C   UNL A   1      45.064  28.028  26.190  1.00  0.00     0.043 A 
ATOM     12  N   UNL A   1      47.113  27.555  27.442  1.00  0.00    -0.243 NA
ATOM     13  C   UNL A   1      44.576  26.764  26.500  1.00  0.00     0.020 A 
ATOM     14  C   UNL A   1      46.600  26.334  27.721  1.00  0.00     0.128 A 
BRANCH  10  15
ATOM     15  S   UNL A   1      46.914  30.044  26.488  1.00  0.00     0.258 S 
ATOM     16  O   UNL A   1      46.304  30.591  25.295  1.00  0.00    -0.205 OA
ATOM     17  O   UNL A   1      48.351  30.029  26.662  1.00  0.00    -0.205 OA
BRANCH  15  18
ATOM     18  N   UNL A   1      46.277  30.866  27.815  1.00  0.00    -0.204 NA
ATOM     19  H   UNL A   1      47.011  31.488  28.150  1.00  0.00     0.141 HD
BRANCH  18  20
ATOM     20  C   UNL A   1      45.768  30.135  29.006  1.00  0.00     0.098 C 
BRANCH  20  21
ATOM     21  C   UNL A   1      44.407  30.660  29.507  1.00  0.00     0.003 C 
ATOM     22  C   UNL A   1      43.281  30.362  28.509  1.00  0.00     0.009 C 
ATOM     23  C   UNL A   1      44.008  30.148  30.892  1.00  0.00     0.009 C 
ENDBRANCH  20  21
BRANCH  20  24
ATOM     24  C   UNL A   1      46.907  30.162  30.051  1.00  0.00     0.176 C 
BRANCH  24  25
ATOM     25  O   UNL A   1      48.035  29.422  29.560  1.00  0.00    -0.395 OA
ATOM     26  H   UNL A   1      48.119  28.594  30.059  1.00  0.00     0.210 HD
ENDBRANCH  24  25
ENDBRANCH  20  24
ENDBRANCH  18  20
ENDBRANCH  15  18
ENDBRANCH  10  15
ENDBRANCH   7   9
ENDBRANCH   6   7
ENDBRANCH   5   6
ENDBRANCH   4   5
ENDBRANCH   3   4
ENDBRANCH   2   3
ENDBRANCH   1   2
BRANCH   1  27
ATOM     27  O   UNL A   1      43.157  19.875  25.901  1.00  0.00    -0.377 OA
BRANCH  27  28
ATOM     28  C   UNL A   1      42.799  21.253  25.801  1.00  0.00     0.188 C 
BRANCH  28  29
ATOM     29  C   UNL A   1      41.927  21.902  26.898  1.00  0.00     0.188 C 
BRANCH  29  30
ATOM     30  O   UNL A   1      40.601  21.369  26.958  1.00  0.00    -0.376 OA
BRANCH  30  31
ATOM     31  C   UNL A   1      39.556  22.234  26.524  1.00  0.00     0.202 C 
BRANCH  31  32
ATOM     32  C   UNL A   1      39.552  23.597  27.230  1.00  0.00     0.261 C 
BRANCH  32  33
ATOM     33  O   UNL A   1      39.398  24.727  26.358  1.00  0.00    -0.460 OA
BRANCH  33  34
ATOM     34  C   UNL A   1      40.417  25.614  26.317  1.00  0.00     0.338 C 
ATOM     35  O   UNL A   1      41.050  25.962  25.338  1.00  0.00    -0.246 OA
BRANCH  34  36
ATOM     36  C   UNL A   1      40.514  26.252  27.645  1.00  0.00     0.060 A 
ATOM     37  C   UNL A   1      39.396  26.226  28.487  1.00  0.00     0.016 A 
ATOM     38  C   UNL A   1      41.696  26.879  28.046  1.00  0.00     0.016 A 
ATOM     39  C   UNL A   1      39.444  26.873  29.722  1.00  0.00     0.010 A 
ATOM     40  C   UNL A   1      41.737  27.539  29.275  1.00  0.00     0.010 A 
ATOM     41  C   UNL A   1      40.599  27.570  30.099  1.00  0.00    -0.014 A 
BRANCH  41  42
ATOM     42  C   UNL A   1      40.559  28.499  31.252  1.00  0.00     0.031 A 
ATOM     43  C   UNL A   1      39.586  29.645  31.206  1.00  0.00     0.074 A 
ATOM     44  C   UNL A   1      41.370  28.335  32.311  1.00  0.00     0.049 A 
ATOM     45  N   UNL A   1      39.397  30.608  32.067  1.00  0.00    -0.248 NA
ATOM     46  C   UNL A   1      38.711  29.711  30.022  1.00  0.00     0.031 C 
ATOM     47  C   UNL A   1      42.335  27.250  32.479  1.00  0.00     0.029 A 
ATOM     48  N   UNL A   1      41.515  29.096  33.443  1.00  0.00    -0.354 N 
ATOM     49  C   UNL A   1      38.383  31.395  31.535  1.00  0.00     0.074 A 
ATOM     50  C   UNL A   1      38.019  30.816  30.260  1.00  0.00     0.031 C 
ATOM     51  C   UNL A   1      42.983  27.424  33.645  1.00  0.00     0.029 A 
ATOM     52  C   UNL A   1      42.496  28.641  34.290  1.00  0.00     0.049 A 
ATOM     53  H   UNL A   1      40.967  29.892  33.632  1.00  0.00     0.167 HD
ATOM     54  C   UNL A   1      37.800  32.497  32.062  1.00  0.00     0.037 A 
ATOM     55  C   UNL A   1      42.957  29.164  35.444  1.00  0.00     0.037 A 
ATOM     56  C   UNL A   1      38.175  33.080  33.321  1.00  0.00     0.049 A 
ATOM     57  C   UNL A   1      42.342  30.430  35.982  1.00  0.00     0.074 A 
ATOM     58  C   UNL A   1      37.642  34.191  33.950  1.00  0.00     0.029 A 
ATOM     59  N   UNL A   1      39.189  32.606  34.140  1.00  0.00    -0.354 N 
ATOM     60  N   UNL A   1      41.363  31.149  35.483  1.00  0.00    -0.248 NA
ATOM     61  C   UNL A   1      42.892  30.957  37.238  1.00  0.00     0.031 C 
ATOM     62  C   UNL A   1      38.361  34.411  35.130  1.00  0.00     0.029 A 
ATOM     63  C   UNL A   1      39.312  33.413  35.258  1.00  0.00     0.049 A 
ATOM     64  H   UNL A   1      39.741  31.811  33.954  1.00  0.00     0.167 HD
ATOM     65  C   UNL A   1      41.163  32.195  36.379  1.00  0.00     0.074 A 
ATOM     66  C   UNL A   1      42.119  32.013  37.452  1.00  0.00     0.031 C 
ATOM     67  C   UNL A   1      40.267  33.213  36.320  1.00  0.00     0.037 A 
BRANCH  54  68
ATOM     68  C   UNL A   1      36.715  33.150  31.256  1.00  0.00     0.058 A 
ATOM     69  C   UNL A   1      35.357  32.968  31.565  1.00  0.00     0.135 A 
ATOM     70  C   UNL A   1      37.034  33.966  30.158  1.00  0.00     0.135 A 
ATOM     71  F   UNL A   1      34.998  32.180  32.592  1.00  0.00    -0.206 F 
ATOM     72  C   UNL A   1      34.353  33.543  30.795  1.00  0.00     0.059 A 
ATOM     73  C   UNL A   1      36.045  34.570  29.388  1.00  0.00     0.059 A 
ATOM     74  F   UNL A   1      38.316  34.168  29.818  1.00  0.00    -0.206 F 
ATOM     75  C   UNL A   1      34.707  34.338  29.703  1.00  0.00     0.060 A 
BRANCH  75  76
ATOM     76  S   UNL A   1      33.395  35.063  28.700  1.00  0.00     0.124 S 
ATOM     77  O   UNL A   1      34.157  35.942  27.818  1.00  0.00    -0.237 OA
ATOM     78  O   UNL A   1      32.800  33.891  28.066  1.00  0.00    -0.237 OA
ATOM     79  O   UNL A   1      32.550  35.737  29.681  1.00  0.00    -0.744 OA
ENDBRANCH  75  76
ENDBRANCH  54  68
BRANCH  55  80
ATOM     80  C   UNL A   1      44.064  28.489  36.172  1.00  0.00     0.058 A 
ATOM     81  C   UNL A   1      45.396  28.890  35.994  1.00  0.00     0.135 A 
ATOM     82  C   UNL A   1      43.811  27.436  37.064  1.00  0.00     0.135 A 
ATOM     83  F   UNL A   1      45.689  29.882  35.141  1.00  0.00    -0.206 F 
ATOM     84  C   UNL A   1      46.440  28.268  36.671  1.00  0.00     0.059 A 
ATOM     85  C   UNL A   1      44.835  26.812  37.769  1.00  0.00     0.059 A 
ATOM     86  F   UNL A   1      42.552  27.020  37.275  1.00  0.00    -0.206 F 
ATOM     87  C   UNL A   1      46.148  27.231  37.561  1.00  0.00     0.060 A 
BRANCH  87  88
ATOM     88  S   UNL A   1      47.503  26.476  38.487  1.00  0.00     0.124 S 
ATOM     89  O   UNL A   1      47.283  27.015  39.823  1.00  0.00    -0.237 OA
ATOM     90  O   UNL A   1      47.233  25.051  38.318  1.00  0.00    -0.237 OA
ATOM     91  O   UNL A   1      48.693  26.964  37.795  1.00  0.00    -0.744 OA
ENDBRANCH  87  88
ENDBRANCH  55  80
BRANCH  67  92
ATOM     92  C   UNL A   1      40.252  34.191  37.461  1.00  0.00     0.058 A 
ATOM     93  C   UNL A   1      40.936  35.415  37.392  1.00  0.00     0.135 A 
ATOM     94  C   UNL A   1      39.491  33.928  38.611  1.00  0.00     0.135 A 
ATOM     95  F   UNL A   1      41.681  35.713  36.316  1.00  0.00    -0.206 F 
ATOM     96  C   UNL A   1      40.881  36.336  38.434  1.00  0.00     0.059 A 
ATOM     97  C   UNL A   1      39.403  34.845  39.654  1.00  0.00     0.059 A 
ATOM     98  F   UNL A   1      38.809  32.778  38.722  1.00  0.00    -0.206 F 
ATOM     99  C   UNL A   1      40.110  36.042  39.560  1.00  0.00     0.060 A 
BRANCH  99 100
ATOM    100  S   UNL A   1      40.014  37.262  40.889  1.00  0.00     0.124 S 
ATOM    101  O   UNL A   1      40.070  36.410  42.073  1.00  0.00    -0.237 OA
ATOM    102  O   UNL A   1      41.194  38.086  40.645  1.00  0.00    -0.237 OA
ATOM    103  O   UNL A   1      38.735  37.923  40.650  1.00  0.00    -0.744 OA
ENDBRANCH  99 100
ENDBRANCH  67  92
ENDBRANCH  41  42
ENDBRANCH  34  36
ENDBRANCH  33  34
ENDBRANCH  32  33
ENDBRANCH  31  32
ENDBRANCH  30  31
ENDBRANCH  29  30
ENDBRANCH  28  29
ENDBRANCH  27  28
ENDBRANCH   1  27
TORSDOF 29
ENDMDL
