MODEL 1
REMARK VINA RESULT:      -9.6      0.000      0.000
REMARK SMILES O=C(Cn1cc(NC(=O)N2CC[N@@H+]3CCC[C@@H]3C2)cn1)OCCOCCOCCOCCOC(=O)c1ccc(-c2c3nc(c(-c4c(F)cc(S(=O)(=O)[O-])cc4F)c4ccc([nH]4)c(-c4c(F)cc(S(=O)(=O)[O-])cc4F)c4nc(c(-c5c(F)cc(S(=O)(=O)[O-])cc5F)c5ccc2[nH]5)C=C4)C=C3)cc1
REMARK SMILES IDX 27 1 26 2 25 3 24 4 23 5 22 6 21 7 2 8 1 9 3 10 4 11 5 12
REMARK SMILES IDX 20 13 6 14 19 15 7 16 8 17 9 19 10 20 11 21 18 22 12 23
REMARK SMILES IDX 17 24 13 25 16 26 14 27 15 29 28 30 29 31 30 32 31 33 32 34
REMARK SMILES IDX 33 35 34 36 35 37 36 38 37 39 101 40 38 41 100 42 39 43
REMARK SMILES IDX 40 44 41 45 94 46 42 47 99 48 93 49 95 50 43 51 98 52 92 53
REMARK SMILES IDX 91 54 44 56 78 57 57 58 77 59 58 60 61 61 76 62 96 63 59 64
REMARK SMILES IDX 60 65 75 67 97 68 62 69 45 70 46 71 55 72 47 73 48 74 54 75
REMARK SMILES IDX 56 76 49 77 50 78 51 79 52 80 53 81 79 82 80 83 89 84 81 85
REMARK SMILES IDX 82 86 88 87 90 88 83 89 84 90 85 91 86 92 87 93 63 94 64 95
REMARK SMILES IDX 73 96 65 97 66 98 72 99 74 100 67 101 68 102 69 103 70 104
REMARK SMILES IDX 71 105
REMARK H PARENT 7 18 13 28 95 55 61 66
REMARK Flexibility Score: inf
ROOT
ATOM      1  O   UNL A   1      36.621  23.496  25.577  1.00  0.00    -0.377 OA
ENDROOT
BRANCH   1   2
ATOM      2  C   UNL A   1      36.307  22.151  25.893  1.00  0.00     0.188 C 
BRANCH   2   3
ATOM      3  C   UNL A   1      36.165  21.203  24.704  1.00  0.00     0.188 C 
BRANCH   3   4
ATOM      4  O   UNL A   1      36.201  19.817  24.960  1.00  0.00    -0.376 OA
BRANCH   4   5
ATOM      5  C   UNL A   1      35.188  18.904  24.599  1.00  0.00     0.202 C 
BRANCH   5   6
ATOM      6  C   UNL A   1      33.821  18.863  25.281  1.00  0.00     0.261 C 
BRANCH   6   7
ATOM      7  O   UNL A   1      32.743  19.707  24.822  1.00  0.00    -0.462 OA
BRANCH   7   8
ATOM      8  C   UNL A   1      32.410  20.096  23.575  1.00  0.00     0.327 C 
ATOM      9  O   UNL A   1      32.005  19.254  22.772  1.00  0.00    -0.250 OA
BRANCH   8  10
ATOM     10  C   UNL A   1      32.629  21.507  23.132  1.00  0.00     0.266 C 
BRANCH  10  11
ATOM     11  N   UNL A   1      32.289  22.447  24.162  1.00  0.00    -0.259 N 
ATOM     12  C   UNL A   1      32.892  23.636  24.456  1.00  0.00     0.135 A 
ATOM     13  N   UNL A   1      31.226  22.188  24.931  1.00  0.00    -0.179 NA
ATOM     14  C   UNL A   1      32.098  24.215  25.417  1.00  0.00     0.081 A 
ATOM     15  C   UNL A   1      31.009  23.334  25.561  1.00  0.00     0.161 A 
BRANCH  14  16
ATOM     16  N   UNL A   1      32.340  25.412  26.047  1.00  0.00    -0.305 N 
ATOM     17  C   UNL A   1      32.174  26.644  25.477  1.00  0.00     0.322 C 
ATOM     18  H   UNL A   1      32.656  25.382  26.979  1.00  0.00     0.171 HD
ATOM     19  O   UNL A   1      32.909  27.570  25.819  1.00  0.00    -0.248 OA
BRANCH  17  20
ATOM     20  N   UNL A   1      31.176  26.790  24.531  1.00  0.00    -0.313 N 
ATOM     21  C   UNL A   1      29.752  26.526  24.837  1.00  0.00     0.183 C 
ATOM     22  C   UNL A   1      31.425  27.642  23.375  1.00  0.00     0.186 C 
ATOM     23  C   UNL A   1      28.787  27.076  23.772  1.00  0.00     0.284 C 
ATOM     24  C   UNL A   1      30.463  28.839  23.361  1.00  0.00     0.204 C 
ATOM     25  N   UNL A   1      29.023  28.496  23.484  1.00  0.00    -0.330 N 
ATOM     26  C   UNL A   1      30.585  29.668  22.087  1.00  0.00     0.073 C 
ATOM     27  C   UNL A   1      28.343  28.937  22.266  1.00  0.00     0.262 C 
ATOM     28  H   UNL A   1      28.636  28.983  24.291  1.00  0.00     0.348 HD
ATOM     29  C   UNL A   1      29.165  30.133  21.826  1.00  0.00     0.068 C 
ENDBRANCH  17  20
ENDBRANCH  14  16
ENDBRANCH  10  11
ENDBRANCH   8  10
ENDBRANCH   7   8
ENDBRANCH   6   7
ENDBRANCH   5   6
ENDBRANCH   4   5
ENDBRANCH   3   4
ENDBRANCH   2   3
ENDBRANCH   1   2
BRANCH   1  30
ATOM     30  C   UNL A   1      37.977  23.869  25.706  1.00  0.00     0.188 C 
BRANCH  30  31
ATOM     31  C   UNL A   1      38.825  22.888  26.547  1.00  0.00     0.188 C 
BRANCH  31  32
ATOM     32  O   UNL A   1      39.660  21.874  25.995  1.00  0.00    -0.376 OA
BRANCH  32  33
ATOM     33  C   UNL A   1      40.351  20.900  26.766  1.00  0.00     0.202 C 
BRANCH  33  34
ATOM     34  C   UNL A   1      41.401  19.960  26.171  1.00  0.00     0.261 C 
BRANCH  34  35
ATOM     35  O   UNL A   1      42.722  20.366  26.463  1.00  0.00    -0.460 OA
BRANCH  35  36
ATOM     36  C   UNL A   1      43.532  20.343  25.389  1.00  0.00     0.338 C 
ATOM     37  O   UNL A   1      43.755  19.395  24.658  1.00  0.00    -0.246 OA
BRANCH  36  38
ATOM     38  C   UNL A   1      44.152  21.665  25.234  1.00  0.00     0.060 A 
ATOM     39  C   UNL A   1      45.207  21.924  26.104  1.00  0.00     0.016 A 
ATOM     40  C   UNL A   1      43.548  22.674  24.463  1.00  0.00     0.016 A 
ATOM     41  C   UNL A   1      45.406  23.225  26.475  1.00  0.00     0.010 A 
ATOM     42  C   UNL A   1      43.776  23.981  24.802  1.00  0.00     0.010 A 
ATOM     43  C   UNL A   1      44.572  24.200  25.919  1.00  0.00    -0.014 A 
BRANCH  43  44
ATOM     44  C   UNL A   1      44.377  25.384  26.721  1.00  0.00     0.031 A 
ATOM     45  C   UNL A   1      45.439  26.387  26.603  1.00  0.00     0.074 A 
ATOM     46  C   UNL A   1      43.296  25.501  27.516  1.00  0.00     0.049 A 
ATOM     47  N   UNL A   1      46.293  26.750  27.497  1.00  0.00    -0.248 NA
ATOM     48  C   UNL A   1      45.655  26.957  25.267  1.00  0.00     0.031 C 
ATOM     49  C   UNL A   1      42.069  24.694  27.504  1.00  0.00     0.029 A 
ATOM     50  N   UNL A   1      43.028  26.457  28.439  1.00  0.00    -0.354 N 
ATOM     51  C   UNL A   1      47.021  27.766  26.901  1.00  0.00     0.074 A 
ATOM     52  C   UNL A   1      46.710  27.736  25.493  1.00  0.00     0.031 C 
ATOM     53  C   UNL A   1      41.112  25.342  28.203  1.00  0.00     0.029 A 
ATOM     54  C   UNL A   1      41.694  26.530  28.802  1.00  0.00     0.049 A 
ATOM     55  H   UNL A   1      43.719  27.047  28.817  1.00  0.00     0.167 HD
ATOM     56  C   UNL A   1      47.626  28.735  27.634  1.00  0.00     0.037 A 
ATOM     57  C   UNL A   1      41.104  27.568  29.441  1.00  0.00     0.037 A 
ATOM     58  C   UNL A   1      47.810  28.359  29.009  1.00  0.00     0.049 A 
ATOM     59  C   UNL A   1      42.179  28.340  30.122  1.00  0.00     0.074 A 
ATOM     60  C   UNL A   1      48.471  27.325  29.644  1.00  0.00     0.029 A 
ATOM     61  N   UNL A   1      46.968  28.900  29.952  1.00  0.00    -0.354 N 
ATOM     62  N   UNL A   1      42.887  27.894  31.126  1.00  0.00    -0.248 NA
ATOM     63  C   UNL A   1      42.762  29.472  29.416  1.00  0.00     0.031 C 
ATOM     64  C   UNL A   1      47.680  27.015  30.789  1.00  0.00     0.029 A 
ATOM     65  C   UNL A   1      46.590  27.885  30.796  1.00  0.00     0.049 A 
ATOM     66  H   UNL A   1      46.689  29.842  30.010  1.00  0.00     0.167 HD
ATOM     67  C   UNL A   1      44.162  28.412  30.931  1.00  0.00     0.074 A 
ATOM     68  C   UNL A   1      43.994  29.460  29.931  1.00  0.00     0.031 C 
ATOM     69  C   UNL A   1      45.273  27.763  31.390  1.00  0.00     0.037 A 
BRANCH  56  70
ATOM     70  C   UNL A   1      47.708  30.146  27.139  1.00  0.00     0.058 A 
ATOM     71  C   UNL A   1      48.932  30.831  27.149  1.00  0.00     0.135 A 
ATOM     72  C   UNL A   1      46.556  30.925  26.876  1.00  0.00     0.135 A 
ATOM     73  F   UNL A   1      50.073  30.180  27.429  1.00  0.00    -0.206 F 
ATOM     74  C   UNL A   1      49.005  32.206  26.937  1.00  0.00     0.059 A 
ATOM     75  C   UNL A   1      46.611  32.281  26.601  1.00  0.00     0.059 A 
ATOM     76  F   UNL A   1      45.320  30.414  26.970  1.00  0.00    -0.206 F 
ATOM     77  C   UNL A   1      47.837  32.922  26.677  1.00  0.00     0.060 A 
BRANCH  77  78
ATOM     78  S   UNL A   1      47.904  34.713  26.517  1.00  0.00     0.124 S 
ATOM     79  O   UNL A   1      47.309  34.902  25.199  1.00  0.00    -0.237 OA
ATOM     80  O   UNL A   1      47.102  35.154  27.652  1.00  0.00    -0.237 OA
ATOM     81  O   UNL A   1      49.332  35.003  26.616  1.00  0.00    -0.744 OA
ENDBRANCH  77  78
ENDBRANCH  56  70
BRANCH  57  82
ATOM     82  C   UNL A   1      39.753  28.116  29.157  1.00  0.00     0.058 A 
ATOM     83  C   UNL A   1      38.783  28.213  30.167  1.00  0.00     0.135 A 
ATOM     84  C   UNL A   1      39.460  28.786  27.949  1.00  0.00     0.135 A 
ATOM     85  F   UNL A   1      38.993  27.639  31.361  1.00  0.00    -0.206 F 
ATOM     86  C   UNL A   1      37.607  28.954  30.000  1.00  0.00     0.059 A 
ATOM     87  C   UNL A   1      38.289  29.510  27.751  1.00  0.00     0.059 A 
ATOM     88  F   UNL A   1      40.349  28.838  26.945  1.00  0.00    -0.206 F 
ATOM     89  C   UNL A   1      37.376  29.610  28.790  1.00  0.00     0.060 A 
BRANCH  89  90
ATOM     90  S   UNL A   1      35.937  30.688  28.619  1.00  0.00     0.124 S 
ATOM     91  O   UNL A   1      35.620  30.988  30.011  1.00  0.00    -0.237 OA
ATOM     92  O   UNL A   1      36.474  31.793  27.833  1.00  0.00    -0.237 OA
ATOM     93  O   UNL A   1      34.964  29.849  27.925  1.00  0.00    -0.744 OA
ENDBRANCH  89  90
ENDBRANCH  57  82
BRANCH  69  94
ATOM     94  C   UNL A   1      45.078  26.643  32.381  1.00  0.00     0.058 A 
ATOM     95  C   UNL A   1      44.870  25.303  32.012  1.00  0.00     0.135 A 
ATOM     96  C   UNL A   1      45.258  26.908  33.747  1.00  0.00     0.135 A 
ATOM     97  F   UNL A   1      44.800  24.950  30.720  1.00  0.00    -0.206 F 
ATOM     98  C   UNL A   1      44.800  24.279  32.958  1.00  0.00     0.059 A 
ATOM     99  C   UNL A   1      45.222  25.898  34.708  1.00  0.00     0.059 A 
ATOM    100  F   UNL A   1      45.529  28.158  34.161  1.00  0.00    -0.206 F 
ATOM    101  C   UNL A   1      44.978  24.586  34.306  1.00  0.00     0.060 A 
BRANCH 101 102
ATOM    102  S   UNL A   1      44.980  23.246  35.519  1.00  0.00     0.124 S 
ATOM    103  O   UNL A   1      44.835  23.971  36.777  1.00  0.00    -0.237 OA
ATOM    104  O   UNL A   1      43.830  22.443  35.113  1.00  0.00    -0.237 OA
ATOM    105  O   UNL A   1      46.276  22.604  35.314  1.00  0.00    -0.744 OA
ENDBRANCH 101 102
ENDBRANCH  69  94
ENDBRANCH  43  44
ENDBRANCH  36  38
ENDBRANCH  35  36
ENDBRANCH  34  35
ENDBRANCH  33  34
ENDBRANCH  32  33
ENDBRANCH  31  32
ENDBRANCH  30  31
ENDBRANCH   1  30
TORSDOF 26
ENDMDL
MODEL 2
REMARK VINA RESULT:      -9.2      1.504      2.396
REMARK SMILES O=C(Cn1cc(NC(=O)N2CC[N@@H+]3CCC[C@@H]3C2)cn1)OCCOCCOCCOCCOC(=O)c1ccc(-c2c3nc(c(-c4c(F)cc(S(=O)(=O)[O-])cc4F)c4ccc([nH]4)c(-c4c(F)cc(S(=O)(=O)[O-])cc4F)c4nc(c(-c5c(F)cc(S(=O)(=O)[O-])cc5F)c5ccc2[nH]5)C=C4)C=C3)cc1
REMARK SMILES IDX 27 1 26 2 25 3 24 4 23 5 22 6 21 7 2 8 1 9 3 10 4 11 5 12
REMARK SMILES IDX 20 13 6 14 19 15 7 16 8 17 9 19 10 20 11 21 18 22 12 23
REMARK SMILES IDX 17 24 13 25 16 26 14 27 15 29 28 30 29 31 30 32 31 33 32 34
REMARK SMILES IDX 33 35 34 36 35 37 36 38 37 39 101 40 38 41 100 42 39 43
REMARK SMILES IDX 40 44 41 45 94 46 42 47 99 48 93 49 95 50 43 51 98 52 92 53
REMARK SMILES IDX 91 54 44 56 78 57 57 58 77 59 58 60 61 61 76 62 96 63 59 64
REMARK SMILES IDX 60 65 75 67 97 68 62 69 45 70 46 71 55 72 47 73 48 74 54 75
REMARK SMILES IDX 56 76 49 77 50 78 51 79 52 80 53 81 79 82 80 83 89 84 81 85
REMARK SMILES IDX 82 86 88 87 90 88 83 89 84 90 85 91 86 92 87 93 63 94 64 95
REMARK SMILES IDX 73 96 65 97 66 98 72 99 74 100 67 101 68 102 69 103 70 104
REMARK SMILES IDX 71 105
REMARK H PARENT 7 18 13 28 95 55 61 66
REMARK Flexibility Score: inf
ROOT
ATOM      1  O   UNL A   1      35.774  22.884  25.882  1.00  0.00    -0.377 OA
ENDROOT
BRANCH   1   2
ATOM      2  C   UNL A   1      35.680  21.490  26.111  1.00  0.00     0.188 C 
BRANCH   2   3
ATOM      3  C   UNL A   1      35.267  20.643  24.910  1.00  0.00     0.188 C 
BRANCH   3   4
ATOM      4  O   UNL A   1      34.129  19.821  25.044  1.00  0.00    -0.376 OA
BRANCH   4   5
ATOM      5  C   UNL A   1      32.806  20.227  24.772  1.00  0.00     0.202 C 
BRANCH   5   6
ATOM      6  C   UNL A   1      32.285  21.632  25.073  1.00  0.00     0.261 C 
BRANCH   6   7
ATOM      7  O   UNL A   1      32.118  22.599  24.014  1.00  0.00    -0.462 OA
BRANCH   7   8
ATOM      8  C   UNL A   1      32.133  22.437  22.675  1.00  0.00     0.327 C 
ATOM      9  O   UNL A   1      31.336  21.654  22.157  1.00  0.00    -0.250 OA
BRANCH   8  10
ATOM     10  C   UNL A   1      33.168  23.114  21.836  1.00  0.00     0.266 C 
BRANCH  10  11
ATOM     11  N   UNL A   1      33.155  24.538  22.019  1.00  0.00    -0.259 N 
ATOM     12  C   UNL A   1      32.188  25.430  21.654  1.00  0.00     0.135 A 
ATOM     13  N   UNL A   1      34.181  25.104  22.663  1.00  0.00    -0.179 NA
ATOM     14  C   UNL A   1      32.586  26.632  22.187  1.00  0.00     0.081 A 
ATOM     15  C   UNL A   1      33.751  26.331  22.919  1.00  0.00     0.161 A 
BRANCH  14  16
ATOM     16  N   UNL A   1      31.937  27.833  22.038  1.00  0.00    -0.305 N 
ATOM     17  C   UNL A   1      30.674  28.102  22.488  1.00  0.00     0.322 C 
ATOM     18  H   UNL A   1      32.416  28.557  21.573  1.00  0.00     0.171 HD
ATOM     19  O   UNL A   1      29.967  28.891  21.863  1.00  0.00    -0.248 OA
BRANCH  17  20
ATOM     20  N   UNL A   1      30.247  27.463  23.637  1.00  0.00    -0.313 N 
ATOM     21  C   UNL A   1      29.149  26.469  23.627  1.00  0.00     0.183 C 
ATOM     22  C   UNL A   1      31.152  27.392  24.778  1.00  0.00     0.186 C 
ATOM     23  C   UNL A   1      29.070  25.636  24.919  1.00  0.00     0.284 C 
ATOM     24  C   UNL A   1      31.511  25.934  25.099  1.00  0.00     0.204 C 
ATOM     25  N   UNL A   1      30.355  25.017  25.265  1.00  0.00    -0.330 N 
ATOM     26  C   UNL A   1      32.329  25.807  26.381  1.00  0.00     0.073 C 
ATOM     27  C   UNL A   1      30.374  24.501  26.634  1.00  0.00     0.262 C 
ATOM     28  H   UNL A   1      30.448  24.247  24.604  1.00  0.00     0.348 HD
ATOM     29  C   UNL A   1      31.849  24.499  26.982  1.00  0.00     0.068 C 
ENDBRANCH  17  20
ENDBRANCH  14  16
ENDBRANCH  10  11
ENDBRANCH   8  10
ENDBRANCH   7   8
ENDBRANCH   6   7
ENDBRANCH   5   6
ENDBRANCH   4   5
ENDBRANCH   3   4
ENDBRANCH   2   3
ENDBRANCH   1   2
BRANCH   1  30
ATOM     30  C   UNL A   1      36.982  23.344  25.313  1.00  0.00     0.188 C 
BRANCH  30  31
ATOM     31  C   UNL A   1      38.252  22.848  26.039  1.00  0.00     0.188 C 
BRANCH  31  32
ATOM     32  O   UNL A   1      38.996  21.695  25.652  1.00  0.00    -0.376 OA
BRANCH  32  33
ATOM     33  C   UNL A   1      39.894  21.000  26.508  1.00  0.00     0.202 C 
BRANCH  33  34
ATOM     34  C   UNL A   1      41.272  20.518  26.052  1.00  0.00     0.261 C 
BRANCH  34  35
ATOM     35  O   UNL A   1      42.318  21.348  26.512  1.00  0.00    -0.460 OA
BRANCH  35  36
ATOM     36  C   UNL A   1      43.409  21.310  25.725  1.00  0.00     0.338 C 
ATOM     37  O   UNL A   1      43.874  20.336  25.163  1.00  0.00    -0.246 OA
BRANCH  36  38
ATOM     38  C   UNL A   1      43.996  22.655  25.661  1.00  0.00     0.060 A 
ATOM     39  C   UNL A   1      44.948  22.927  26.639  1.00  0.00     0.016 A 
ATOM     40  C   UNL A   1      43.437  23.661  24.854  1.00  0.00     0.016 A 
ATOM     41  C   UNL A   1      45.063  24.225  27.055  1.00  0.00     0.010 A 
ATOM     42  C   UNL A   1      43.584  24.967  25.241  1.00  0.00     0.010 A 
ATOM     43  C   UNL A   1      44.256  25.186  26.437  1.00  0.00    -0.014 A 
BRANCH  43  44
ATOM     44  C   UNL A   1      43.940  26.342  27.240  1.00  0.00     0.031 A 
ATOM     45  C   UNL A   1      44.965  27.390  27.236  1.00  0.00     0.074 A 
ATOM     46  C   UNL A   1      42.788  26.398  27.935  1.00  0.00     0.049 A 
ATOM     47  N   UNL A   1      45.719  27.767  28.210  1.00  0.00    -0.248 NA
ATOM     48  C   UNL A   1      45.276  27.997  25.936  1.00  0.00     0.031 C 
ATOM     49  C   UNL A   1      41.602  25.544  27.797  1.00  0.00     0.029 A 
ATOM     50  N   UNL A   1      42.398  27.324  28.847  1.00  0.00    -0.354 N 
ATOM     51  C   UNL A   1      46.455  28.825  27.701  1.00  0.00     0.074 A 
ATOM     52  C   UNL A   1      46.273  28.813  26.270  1.00  0.00     0.031 C 
ATOM     53  C   UNL A   1      40.559  26.137  28.418  1.00  0.00     0.029 A 
ATOM     54  C   UNL A   1      41.035  27.334  29.089  1.00  0.00     0.049 A 
ATOM     55  H   UNL A   1      43.027  27.932  29.297  1.00  0.00     0.167 HD
ATOM     56  C   UNL A   1      46.950  29.801  28.503  1.00  0.00     0.037 A 
ATOM     57  C   UNL A   1      40.347  28.333  29.690  1.00  0.00     0.037 A 
ATOM     58  C   UNL A   1      47.025  29.403  29.882  1.00  0.00     0.049 A 
ATOM     59  C   UNL A   1      41.323  29.133  30.479  1.00  0.00     0.074 A 
ATOM     60  C   UNL A   1      47.669  28.383  30.556  1.00  0.00     0.029 A 
ATOM     61  N   UNL A   1      46.081  29.890  30.754  1.00  0.00    -0.354 N 
ATOM     62  N   UNL A   1      41.956  28.694  31.535  1.00  0.00    -0.248 NA
ATOM     63  C   UNL A   1      41.919  30.303  29.849  1.00  0.00     0.031 C 
ATOM     64  C   UNL A   1      46.793  28.017  31.618  1.00  0.00     0.029 A 
ATOM     65  C   UNL A   1      45.671  28.842  31.543  1.00  0.00     0.049 A 
ATOM     66  H   UNL A   1      45.758  30.818  30.804  1.00  0.00     0.167 HD
ATOM     67  C   UNL A   1      43.220  29.268  31.466  1.00  0.00     0.074 A 
ATOM     68  C   UNL A   1      43.099  30.330  30.474  1.00  0.00     0.031 C 
ATOM     69  C   UNL A   1      44.312  28.654  32.012  1.00  0.00     0.037 A 
BRANCH  56  70
ATOM     70  C   UNL A   1      47.017  31.225  28.043  1.00  0.00     0.058 A 
ATOM     71  C   UNL A   1      45.850  31.900  27.656  1.00  0.00     0.135 A 
ATOM     72  C   UNL A   1      48.241  31.869  27.747  1.00  0.00     0.135 A 
ATOM     73  F   UNL A   1      44.644  31.346  27.861  1.00  0.00    -0.206 F 
ATOM     74  C   UNL A   1      45.897  33.124  26.993  1.00  0.00     0.059 A 
ATOM     75  C   UNL A   1      48.311  33.114  27.145  1.00  0.00     0.059 A 
ATOM     76  F   UNL A   1      49.423  31.267  27.945  1.00  0.00    -0.206 F 
ATOM     77  C   UNL A   1      47.133  33.715  26.731  1.00  0.00     0.060 A 
BRANCH  77  78
ATOM     78  S   UNL A   1      47.211  35.237  25.775  1.00  0.00     0.124 S 
ATOM     79  O   UNL A   1      47.744  34.747  24.508  1.00  0.00    -0.237 OA
ATOM     80  O   UNL A   1      45.817  35.665  25.761  1.00  0.00    -0.237 OA
ATOM     81  O   UNL A   1      48.110  36.078  26.559  1.00  0.00    -0.744 OA
ENDBRANCH  77  78
ENDBRANCH  56  70
BRANCH  57  82
ATOM     82  C   UNL A   1      39.005  28.833  29.294  1.00  0.00     0.058 A 
ATOM     83  C   UNL A   1      37.959  28.918  30.227  1.00  0.00     0.135 A 
ATOM     84  C   UNL A   1      38.784  29.471  28.054  1.00  0.00     0.135 A 
ATOM     85  F   UNL A   1      38.096  28.373  31.445  1.00  0.00    -0.206 F 
ATOM     86  C   UNL A   1      36.777  29.617  29.957  1.00  0.00     0.059 A 
ATOM     87  C   UNL A   1      37.609  30.153  27.754  1.00  0.00     0.059 A 
ATOM     88  F   UNL A   1      39.743  29.533  27.119  1.00  0.00    -0.206 F 
ATOM     89  C   UNL A   1      36.618  30.243  28.720  1.00  0.00     0.060 A 
BRANCH  89  90
ATOM     90  S   UNL A   1      35.164  31.272  28.420  1.00  0.00     0.124 S 
ATOM     91  O   UNL A   1      34.869  31.773  29.757  1.00  0.00    -0.237 OA
ATOM     92  O   UNL A   1      35.674  32.252  27.467  1.00  0.00    -0.237 OA
ATOM     93  O   UNL A   1      34.188  30.331  27.877  1.00  0.00    -0.744 OA
ENDBRANCH  89  90
ENDBRANCH  57  82
BRANCH  69  94
ATOM     94  C   UNL A   1      44.076  27.506  32.962  1.00  0.00     0.058 A 
ATOM     95  C   UNL A   1      43.942  26.169  32.549  1.00  0.00     0.135 A 
ATOM     96  C   UNL A   1      44.139  27.745  34.343  1.00  0.00     0.135 A 
ATOM     97  F   UNL A   1      43.985  25.845  31.249  1.00  0.00    -0.206 F 
ATOM     98  C   UNL A   1      43.830  25.122  33.465  1.00  0.00     0.059 A 
ATOM     99  C   UNL A   1      44.060  26.713  35.276  1.00  0.00     0.059 A 
ATOM    100  F   UNL A   1      44.336  28.992  34.802  1.00  0.00    -0.206 F 
ATOM    101  C   UNL A   1      43.891  25.402  34.829  1.00  0.00     0.060 A 
BRANCH 101 102
ATOM    102  S   UNL A   1      43.841  24.036  36.010  1.00  0.00     0.124 S 
ATOM    103  O   UNL A   1      45.226  23.975  36.468  1.00  0.00    -0.237 OA
ATOM    104  O   UNL A   1      42.867  24.498  36.995  1.00  0.00    -0.237 OA
ATOM    105  O   UNL A   1      43.400  22.902  35.201  1.00  0.00    -0.744 OA
ENDBRANCH 101 102
ENDBRANCH  69  94
ENDBRANCH  43  44
ENDBRANCH  36  38
ENDBRANCH  35  36
ENDBRANCH  34  35
ENDBRANCH  33  34
ENDBRANCH  32  33
ENDBRANCH  31  32
ENDBRANCH  30  31
ENDBRANCH   1  30
TORSDOF 26
ENDMDL
MODEL 3
REMARK VINA RESULT:      -8.8      2.863      7.576
REMARK SMILES O=C(Cn1cc(NC(=O)N2CC[N@@H+]3CCC[C@@H]3C2)cn1)OCCOCCOCCOCCOC(=O)c1ccc(-c2c3nc(c(-c4c(F)cc(S(=O)(=O)[O-])cc4F)c4ccc([nH]4)c(-c4c(F)cc(S(=O)(=O)[O-])cc4F)c4nc(c(-c5c(F)cc(S(=O)(=O)[O-])cc5F)c5ccc2[nH]5)C=C4)C=C3)cc1
REMARK SMILES IDX 27 1 26 2 25 3 24 4 23 5 22 6 21 7 2 8 1 9 3 10 4 11 5 12
REMARK SMILES IDX 20 13 6 14 19 15 7 16 8 17 9 19 10 20 11 21 18 22 12 23
REMARK SMILES IDX 17 24 13 25 16 26 14 27 15 29 28 30 29 31 30 32 31 33 32 34
REMARK SMILES IDX 33 35 34 36 35 37 36 38 37 39 101 40 38 41 100 42 39 43
REMARK SMILES IDX 40 44 41 45 94 46 42 47 99 48 93 49 95 50 43 51 98 52 92 53
REMARK SMILES IDX 91 54 44 56 78 57 57 58 77 59 58 60 61 61 76 62 96 63 59 64
REMARK SMILES IDX 60 65 75 67 97 68 62 69 45 70 46 71 55 72 47 73 48 74 54 75
REMARK SMILES IDX 56 76 49 77 50 78 51 79 52 80 53 81 79 82 80 83 89 84 81 85
REMARK SMILES IDX 82 86 88 87 90 88 83 89 84 90 85 91 86 92 87 93 63 94 64 95
REMARK SMILES IDX 73 96 65 97 66 98 72 99 74 100 67 101 68 102 69 103 70 104
REMARK SMILES IDX 71 105
REMARK H PARENT 7 18 13 28 95 55 61 66
REMARK Flexibility Score: inf
ROOT
ATOM      1  O   UNL A   1      38.920  20.631  26.027  1.00  0.00    -0.377 OA
ENDROOT
BRANCH   1   2
ATOM      2  C   UNL A   1      38.022  21.567  25.458  1.00  0.00     0.188 C 
BRANCH   2   3
ATOM      3  C   UNL A   1      38.138  23.000  25.974  1.00  0.00     0.188 C 
BRANCH   3   4
ATOM      4  O   UNL A   1      36.952  23.752  26.101  1.00  0.00    -0.376 OA
BRANCH   4   5
ATOM      5  C   UNL A   1      35.764  23.511  25.379  1.00  0.00     0.202 C 
BRANCH   5   6
ATOM      6  C   UNL A   1      34.372  23.767  25.956  1.00  0.00     0.261 C 
BRANCH   6   7
ATOM      7  O   UNL A   1      33.220  23.857  25.089  1.00  0.00    -0.462 OA
BRANCH   7   8
ATOM      8  C   UNL A   1      32.894  23.139  23.995  1.00  0.00     0.327 C 
ATOM      9  O   UNL A   1      32.242  22.103  24.131  1.00  0.00    -0.250 OA
BRANCH   8  10
ATOM     10  C   UNL A   1      33.402  23.531  22.646  1.00  0.00     0.266 C 
BRANCH  10  11
ATOM     11  N   UNL A   1      33.050  24.884  22.316  1.00  0.00    -0.259 N 
ATOM     12  C   UNL A   1      31.805  25.424  22.174  1.00  0.00     0.135 A 
ATOM     13  N   UNL A   1      34.035  25.774  22.160  1.00  0.00    -0.179 NA
ATOM     14  C   UNL A   1      32.013  26.772  22.009  1.00  0.00     0.081 A 
ATOM     15  C   UNL A   1      33.404  26.940  22.154  1.00  0.00     0.161 A 
BRANCH  14  16
ATOM     16  N   UNL A   1      31.040  27.717  21.787  1.00  0.00    -0.305 N 
ATOM     17  C   UNL A   1      30.096  28.098  22.700  1.00  0.00     0.322 C 
ATOM     18  H   UNL A   1      31.021  28.153  20.905  1.00  0.00     0.171 HD
ATOM     19  O   UNL A   1      28.985  28.450  22.306  1.00  0.00    -0.248 OA
BRANCH  17  20
ATOM     20  N   UNL A   1      30.441  28.067  24.039  1.00  0.00    -0.313 N 
ATOM     21  C   UNL A   1      30.570  26.798  24.792  1.00  0.00     0.183 C 
ATOM     22  C   UNL A   1      31.134  29.214  24.612  1.00  0.00     0.186 C 
ATOM     23  C   UNL A   1      31.289  26.962  26.142  1.00  0.00     0.284 C 
ATOM     24  C   UNL A   1      32.535  28.817  25.099  1.00  0.00     0.204 C 
ATOM     25  N   UNL A   1      32.582  27.644  26.008  1.00  0.00    -0.330 N 
ATOM     26  C   UNL A   1      33.232  29.949  25.846  1.00  0.00     0.073 C 
ATOM     27  C   UNL A   1      33.114  28.086  27.297  1.00  0.00     0.262 C 
ATOM     28  H   UNL A   1      33.197  26.938  25.604  1.00  0.00     0.348 HD
ATOM     29  C   UNL A   1      34.032  29.231  26.917  1.00  0.00     0.068 C 
ENDBRANCH  17  20
ENDBRANCH  14  16
ENDBRANCH  10  11
ENDBRANCH   8  10
ENDBRANCH   7   8
ENDBRANCH   6   7
ENDBRANCH   5   6
ENDBRANCH   4   5
ENDBRANCH   3   4
ENDBRANCH   2   3
ENDBRANCH   1   2
BRANCH   1  30
ATOM     30  C   UNL A   1      40.274  21.025  26.096  1.00  0.00     0.188 C 
BRANCH  30  31
ATOM     31  C   UNL A   1      41.228  19.921  26.604  1.00  0.00     0.188 C 
BRANCH  31  32
ATOM     32  O   UNL A   1      42.117  19.184  25.768  1.00  0.00    -0.376 OA
BRANCH  32  33
ATOM     33  C   UNL A   1      43.299  19.721  25.188  1.00  0.00     0.202 C 
BRANCH  33  34
ATOM     34  C   UNL A   1      43.783  21.147  25.457  1.00  0.00     0.261 C 
BRANCH  34  35
ATOM     35  O   UNL A   1      43.070  22.113  24.714  1.00  0.00    -0.460 OA
BRANCH  35  36
ATOM     36  C   UNL A   1      43.692  23.305  24.662  1.00  0.00     0.338 C 
ATOM     37  O   UNL A   1      44.739  23.562  24.098  1.00  0.00    -0.246 OA
BRANCH  36  38
ATOM     38  C   UNL A   1      42.912  24.281  25.434  1.00  0.00     0.060 A 
ATOM     39  C   UNL A   1      43.320  25.604  25.291  1.00  0.00     0.016 A 
ATOM     40  C   UNL A   1      42.016  23.875  26.439  1.00  0.00     0.016 A 
ATOM     41  C   UNL A   1      43.130  26.437  26.359  1.00  0.00     0.010 A 
ATOM     42  C   UNL A   1      41.787  24.721  27.492  1.00  0.00     0.010 A 
ATOM     43  C   UNL A   1      42.498  25.914  27.492  1.00  0.00    -0.014 A 
BRANCH  43  44
ATOM     44  C   UNL A   1      42.839  26.548  28.743  1.00  0.00     0.031 A 
ATOM     45  C   UNL A   1      41.944  27.639  29.142  1.00  0.00     0.074 A 
ATOM     46  C   UNL A   1      43.917  26.146  29.442  1.00  0.00     0.049 A 
ATOM     47  N   UNL A   1      42.209  28.898  29.215  1.00  0.00    -0.248 NA
ATOM     48  C   UNL A   1      40.535  27.285  29.354  1.00  0.00     0.031 C 
ATOM     49  C   UNL A   1      44.703  24.918  29.272  1.00  0.00     0.029 A 
ATOM     50  N   UNL A   1      44.469  26.716  30.543  1.00  0.00    -0.354 N 
ATOM     51  C   UNL A   1      41.049  29.477  29.703  1.00  0.00     0.074 A 
ATOM     52  C   UNL A   1      40.009  28.481  29.608  1.00  0.00     0.031 C 
ATOM     53  C   UNL A   1      45.464  24.727  30.371  1.00  0.00     0.029 A 
ATOM     54  C   UNL A   1      45.307  25.872  31.252  1.00  0.00     0.049 A 
ATOM     55  H   UNL A   1      44.290  27.645  30.813  1.00  0.00     0.167 HD
ATOM     56  C   UNL A   1      41.071  30.642  30.399  1.00  0.00     0.037 A 
ATOM     57  C   UNL A   1      45.727  26.063  32.524  1.00  0.00     0.037 A 
ATOM     58  C   UNL A   1      42.278  31.393  30.187  1.00  0.00     0.049 A 
ATOM     59  C   UNL A   1      45.577  27.512  32.830  1.00  0.00     0.074 A 
ATOM     60  C   UNL A   1      42.894  31.930  29.073  1.00  0.00     0.029 A 
ATOM     61  N   UNL A   1      43.231  31.390  31.177  1.00  0.00    -0.354 N 
ATOM     62  N   UNL A   1      46.278  28.462  32.269  1.00  0.00    -0.248 NA
ATOM     63  C   UNL A   1      44.346  27.954  33.469  1.00  0.00     0.031 C 
ATOM     64  C   UNL A   1      44.293  31.809  29.316  1.00  0.00     0.029 A 
ATOM     65  C   UNL A   1      44.452  31.220  30.571  1.00  0.00     0.049 A 
ATOM     66  H   UNL A   1      43.068  31.491  32.142  1.00  0.00     0.167 HD
ATOM     67  C   UNL A   1      45.399  29.530  32.133  1.00  0.00     0.074 A 
ATOM     68  C   UNL A   1      44.265  29.196  32.988  1.00  0.00     0.031 C 
ATOM     69  C   UNL A   1      45.544  30.450  31.134  1.00  0.00     0.037 A 
BRANCH  56  70
ATOM     70  C   UNL A   1      40.129  30.884  31.538  1.00  0.00     0.058 A 
ATOM     71  C   UNL A   1      39.346  32.047  31.574  1.00  0.00     0.135 A 
ATOM     72  C   UNL A   1      40.155  30.108  32.721  1.00  0.00     0.135 A 
ATOM     73  F   UNL A   1      39.294  32.865  30.511  1.00  0.00    -0.206 F 
ATOM     74  C   UNL A   1      38.653  32.429  32.721  1.00  0.00     0.059 A 
ATOM     75  C   UNL A   1      39.425  30.435  33.851  1.00  0.00     0.059 A 
ATOM     76  F   UNL A   1      40.968  29.051  32.855  1.00  0.00    -0.206 F 
ATOM     77  C   UNL A   1      38.710  31.622  33.857  1.00  0.00     0.060 A 
BRANCH  77  78
ATOM     78  S   UNL A   1      37.915  32.162  35.377  1.00  0.00     0.124 S 
ATOM     79  O   UNL A   1      38.827  33.213  35.815  1.00  0.00    -0.237 OA
ATOM     80  O   UNL A   1      36.609  32.603  34.903  1.00  0.00    -0.237 OA
ATOM     81  O   UNL A   1      37.902  30.953  36.195  1.00  0.00    -0.744 OA
ENDBRANCH  77  78
ENDBRANCH  56  70
BRANCH  57  82
ATOM     82  C   UNL A   1      45.864  25.013  33.567  1.00  0.00     0.058 A 
ATOM     83  C   UNL A   1      47.119  24.679  34.099  1.00  0.00     0.135 A 
ATOM     84  C   UNL A   1      44.742  24.486  34.244  1.00  0.00     0.135 A 
ATOM     85  F   UNL A   1      48.238  25.166  33.543  1.00  0.00    -0.206 F 
ATOM     86  C   UNL A   1      47.254  23.893  35.249  1.00  0.00     0.059 A 
ATOM     87  C   UNL A   1      44.852  23.685  35.376  1.00  0.00     0.059 A 
ATOM     88  F   UNL A   1      43.492  24.807  33.882  1.00  0.00    -0.206 F 
ATOM     89  C   UNL A   1      46.111  23.411  35.888  1.00  0.00     0.060 A 
BRANCH  89  90
ATOM     90  S   UNL A   1      46.270  22.525  37.455  1.00  0.00     0.124 S 
ATOM     91  O   UNL A   1      45.407  23.309  38.332  1.00  0.00    -0.237 OA
ATOM     92  O   UNL A   1      45.786  21.194  37.104  1.00  0.00    -0.237 OA
ATOM     93  O   UNL A   1      47.698  22.608  37.748  1.00  0.00    -0.744 OA
ENDBRANCH  89  90
ENDBRANCH  57  82
BRANCH  69  94
ATOM     94  C   UNL A   1      46.849  30.469  30.376  1.00  0.00     0.058 A 
ATOM     95  C   UNL A   1      47.123  29.636  29.277  1.00  0.00     0.135 A 
ATOM     96  C   UNL A   1      47.790  31.466  30.673  1.00  0.00     0.135 A 
ATOM     97  F   UNL A   1      46.225  28.733  28.860  1.00  0.00    -0.206 F 
ATOM     98  C   UNL A   1      48.299  29.756  28.536  1.00  0.00     0.059 A 
ATOM     99  C   UNL A   1      48.958  31.625  29.928  1.00  0.00     0.059 A 
ATOM    100  F   UNL A   1      47.556  32.339  31.667  1.00  0.00    -0.206 F 
ATOM    101  C   UNL A   1      49.213  30.756  28.868  1.00  0.00     0.060 A 
BRANCH 101 102
ATOM    102  S   UNL A   1      50.689  30.970  27.848  1.00  0.00     0.124 S 
ATOM    103  O   UNL A   1      51.301  32.156  28.439  1.00  0.00    -0.237 OA
ATOM    104  O   UNL A   1      51.408  29.716  28.055  1.00  0.00    -0.237 OA
ATOM    105  O   UNL A   1      50.150  31.150  26.502  1.00  0.00    -0.744 OA
ENDBRANCH 101 102
ENDBRANCH  69  94
ENDBRANCH  43  44
ENDBRANCH  36  38
ENDBRANCH  35  36
ENDBRANCH  34  35
ENDBRANCH  33  34
ENDBRANCH  32  33
ENDBRANCH  31  32
ENDBRANCH  30  31
ENDBRANCH   1  30
TORSDOF 26
ENDMDL
