MODEL 1
REMARK VINA RESULT:      -8.6      0.000      0.000
REMARK SMILES Cc1cc(Br)cc([N+](=O)[O-])c1OCCC[C@@](C)([NH3+])C(=O)OCCOCCOCCOCCOC(=O)c1ccc(-c2c3nc(c(-c4c(F)cc(S(=O)(=O)[O-])cc4F)c4ccc([nH]4)c(-c4c(F)cc(S(=O)(=O)[O-])cc4F)c4nc(c(-c5c(F)cc(S(=O)(=O)[O-])cc5F)c5ccc2[nH]5)C=C4)C=C3)cc1
REMARK SMILES IDX 25 1 24 2 23 3 22 4 21 5 19 6 20 7 16 8 17 9 15 10 14 11
REMARK SMILES IDX 13 12 12 13 11 14 1 15 2 16 3 17 4 18 7 19 5 20 6 21 8 22
REMARK SMILES IDX 9 23 10 24 18 25 26 29 27 30 28 31 29 32 30 33 31 34 32 35
REMARK SMILES IDX 33 36 34 37 35 38 36 39 37 40 101 41 38 42 100 43 39 44
REMARK SMILES IDX 40 45 41 46 94 47 42 48 99 49 93 50 95 51 43 52 98 53 92 54
REMARK SMILES IDX 91 55 44 57 78 58 57 59 77 60 58 61 61 62 76 63 96 64 59 65
REMARK SMILES IDX 60 66 75 68 97 69 62 70 45 71 46 72 55 73 47 74 48 75 54 76
REMARK SMILES IDX 56 77 49 78 50 79 51 80 52 81 53 82 79 83 80 84 89 85 81 86
REMARK SMILES IDX 82 87 88 88 90 89 83 90 84 91 85 92 86 93 87 94 63 95 64 96
REMARK SMILES IDX 73 97 65 98 66 99 72 100 74 101 67 102 68 103 69 104 70 105
REMARK SMILES IDX 71 106
REMARK H PARENT 18 26 18 27 18 28 95 56 61 67
REMARK Flexibility Score: inf
ROOT
ATOM      1  C   UNL A   1      33.159  29.167  27.139  1.00  0.00     0.188 C 
ENDROOT
BRANCH   1   2
ATOM      2  O   UNL A   1      33.402  28.676  25.834  1.00  0.00    -0.376 OA
BRANCH   2   3
ATOM      3  C   UNL A   1      32.742  29.256  24.715  1.00  0.00     0.202 C 
BRANCH   3   4
ATOM      4  C   UNL A   1      31.908  28.419  23.736  1.00  0.00     0.261 C 
BRANCH   4   5
ATOM      5  O   UNL A   1      31.862  27.009  24.007  1.00  0.00    -0.459 OA
BRANCH   5   6
ATOM      6  C   UNL A   1      30.657  26.434  24.276  1.00  0.00     0.367 C 
ATOM      7  O   UNL A   1      29.652  26.581  23.594  1.00  0.00    -0.245 OA
BRANCH   6   8
ATOM      8  C   UNL A   1      30.735  25.607  25.595  1.00  0.00     0.190 C 
ATOM      9  C   UNL A   1      29.278  25.447  26.067  1.00  0.00     0.092 C 
BRANCH   8  10
ATOM     10  C   UNL A   1      31.431  24.210  25.482  1.00  0.00     0.084 C 
BRANCH  10  11
ATOM     11  C   UNL A   1      32.922  24.079  25.092  1.00  0.00     0.049 C 
BRANCH  11  12
ATOM     12  C   UNL A   1      33.321  23.646  23.663  1.00  0.00     0.230 C 
BRANCH  12  13
ATOM     13  O   UNL A   1      34.007  22.383  23.674  1.00  0.00    -0.487 OA
BRANCH  13  14
ATOM     14  C   UNL A   1      33.389  21.289  24.243  1.00  0.00     0.200 A 
ATOM     15  C   UNL A   1      31.934  21.118  22.170  1.00  0.00     0.049 C 
ATOM     16  C   UNL A   1      32.564  20.527  23.385  1.00  0.00    -0.001 A 
ATOM     17  C   UNL A   1      32.309  19.171  23.640  1.00  0.00     0.023 A 
ATOM     18  C   UNL A   1      32.814  18.569  24.778  1.00  0.00     0.025 A 
ATOM     19  C   UNL A   1      33.798  20.690  25.451  1.00  0.00     0.312 A 
ATOM     20  Br  UNL A   1      32.538  16.720  25.052  1.00  0.00    -0.051 Br
ATOM     21  C   UNL A   1      33.512  19.327  25.710  1.00  0.00     0.105 A 
BRANCH  19  22
ATOM     22  N   UNL A   1      34.496  21.426  26.516  1.00  0.00     0.066 N 
ATOM     23  O   UNL A   1      33.921  21.518  27.614  1.00  0.00    -0.258 OA
ATOM     24  O   UNL A   1      35.593  21.938  26.277  1.00  0.00    -0.258 OA
ENDBRANCH  19  22
ENDBRANCH  13  14
ENDBRANCH  12  13
ENDBRANCH  11  12
ENDBRANCH  10  11
ENDBRANCH   8  10
BRANCH   8  25
ATOM     25  N   UNL A   1      31.326  26.405  26.711  1.00  0.00    -0.344 N 
ATOM     26  H   UNL A   1      31.586  27.330  26.368  1.00  0.00     0.345 HD
ATOM     27  H   UNL A   1      32.156  25.930  27.067  1.00  0.00     0.345 HD
ATOM     28  H   UNL A   1      30.642  26.501  27.460  1.00  0.00     0.345 HD
ENDBRANCH   8  25
ENDBRANCH   6   8
ENDBRANCH   5   6
ENDBRANCH   4   5
ENDBRANCH   3   4
ENDBRANCH   2   3
ENDBRANCH   1   2
BRANCH   1  29
ATOM     29  C   UNL A   1      34.187  30.150  27.692  1.00  0.00     0.188 C 
BRANCH  29  30
ATOM     30  O   UNL A   1      33.915  31.475  27.269  1.00  0.00    -0.377 OA
BRANCH  30  31
ATOM     31  C   UNL A   1      34.251  32.456  28.241  1.00  0.00     0.188 C 
BRANCH  31  32
ATOM     32  C   UNL A   1      35.610  33.154  28.055  1.00  0.00     0.188 C 
BRANCH  32  33
ATOM     33  O   UNL A   1      35.792  34.260  28.947  1.00  0.00    -0.376 OA
BRANCH  33  34
ATOM     34  C   UNL A   1      35.425  34.053  30.307  1.00  0.00     0.202 C 
BRANCH  34  35
ATOM     35  C   UNL A   1      36.573  33.450  31.125  1.00  0.00     0.261 C 
BRANCH  35  36
ATOM     36  O   UNL A   1      36.769  32.048  30.899  1.00  0.00    -0.460 OA
BRANCH  36  37
ATOM     37  C   UNL A   1      37.476  31.386  31.843  1.00  0.00     0.338 C 
ATOM     38  O   UNL A   1      37.113  31.117  32.975  1.00  0.00    -0.246 OA
BRANCH  37  39
ATOM     39  C   UNL A   1      38.668  30.818  31.187  1.00  0.00     0.060 A 
ATOM     40  C   UNL A   1      39.610  30.165  31.991  1.00  0.00     0.016 A 
ATOM     41  C   UNL A   1      38.814  30.852  29.795  1.00  0.00     0.016 A 
ATOM     42  C   UNL A   1      40.721  29.568  31.404  1.00  0.00     0.010 A 
ATOM     43  C   UNL A   1      39.940  30.273  29.209  1.00  0.00     0.010 A 
ATOM     44  C   UNL A   1      40.913  29.664  30.019  1.00  0.00    -0.014 A 
BRANCH  44  45
ATOM     45  C   UNL A   1      42.257  29.367  29.479  1.00  0.00     0.031 A 
ATOM     46  C   UNL A   1      42.495  27.976  28.962  1.00  0.00     0.074 A 
ATOM     47  C   UNL A   1      43.201  30.318  29.384  1.00  0.00     0.049 A 
ATOM     48  N   UNL A   1      43.535  27.484  28.345  1.00  0.00    -0.248 NA
ATOM     49  C   UNL A   1      41.402  27.007  29.166  1.00  0.00     0.031 C 
ATOM     50  C   UNL A   1      43.064  31.700  29.840  1.00  0.00     0.029 A 
ATOM     51  N   UNL A   1      44.467  30.259  28.860  1.00  0.00    -0.354 N 
ATOM     52  C   UNL A   1      43.214  26.162  28.067  1.00  0.00     0.074 A 
ATOM     53  C   UNL A   1      41.904  25.910  28.623  1.00  0.00     0.031 C 
ATOM     54  C   UNL A   1      44.205  32.362  29.572  1.00  0.00     0.029 A 
ATOM     55  C   UNL A   1      45.152  31.448  28.935  1.00  0.00     0.049 A 
ATOM     56  H   UNL A   1      44.849  29.441  28.466  1.00  0.00     0.167 HD
ATOM     57  C   UNL A   1      43.941  25.242  27.392  1.00  0.00     0.037 A 
ATOM     58  C   UNL A   1      46.399  31.754  28.528  1.00  0.00     0.037 A 
ATOM     59  C   UNL A   1      45.254  25.497  26.869  1.00  0.00     0.049 A 
ATOM     60  C   UNL A   1      47.214  30.696  27.824  1.00  0.00     0.074 A 
ATOM     61  C   UNL A   1      46.090  24.639  26.179  1.00  0.00     0.029 A 
ATOM     62  N   UNL A   1      45.928  26.705  26.990  1.00  0.00    -0.354 N 
ATOM     63  N   UNL A   1      46.886  29.458  27.534  1.00  0.00    -0.248 NA
ATOM     64  C   UNL A   1      48.559  31.081  27.378  1.00  0.00     0.031 C 
ATOM     65  C   UNL A   1      47.288  25.316  25.922  1.00  0.00     0.029 A 
ATOM     66  C   UNL A   1      47.177  26.611  26.404  1.00  0.00     0.049 A 
ATOM     67  H   UNL A   1      45.568  27.510  27.429  1.00  0.00     0.167 HD
ATOM     68  C   UNL A   1      47.971  28.927  26.843  1.00  0.00     0.074 A 
ATOM     69  C   UNL A   1      48.959  29.983  26.751  1.00  0.00     0.031 C 
ATOM     70  C   UNL A   1      48.137  27.683  26.326  1.00  0.00     0.037 A 
BRANCH  57  71
ATOM     71  C   UNL A   1      43.333  23.879  27.216  1.00  0.00     0.058 A 
ATOM     72  C   UNL A   1      43.389  22.910  28.231  1.00  0.00     0.135 A 
ATOM     73  C   UNL A   1      42.692  23.535  26.016  1.00  0.00     0.135 A 
ATOM     74  F   UNL A   1      44.017  23.176  29.388  1.00  0.00    -0.206 F 
ATOM     75  C   UNL A   1      42.852  21.640  28.053  1.00  0.00     0.059 A 
ATOM     76  C   UNL A   1      42.126  22.278  25.825  1.00  0.00     0.059 A 
ATOM     77  F   UNL A   1      42.624  24.420  25.008  1.00  0.00    -0.206 F 
ATOM     78  C   UNL A   1      42.223  21.332  26.845  1.00  0.00     0.060 A 
BRANCH  78  79
ATOM     79  S   UNL A   1      41.532  19.680  26.628  1.00  0.00     0.124 S 
ATOM     80  O   UNL A   1      40.692  19.557  27.816  1.00  0.00    -0.237 OA
ATOM     81  O   UNL A   1      40.819  19.804  25.359  1.00  0.00    -0.237 OA
ATOM     82  O   UNL A   1      42.710  18.819  26.600  1.00  0.00    -0.744 OA
ENDBRANCH  78  79
ENDBRANCH  57  71
BRANCH  58  83
ATOM     83  C   UNL A   1      46.950  33.118  28.758  1.00  0.00     0.058 A 
ATOM     84  C   UNL A   1      46.818  34.131  27.796  1.00  0.00     0.135 A 
ATOM     85  C   UNL A   1      47.624  33.434  29.948  1.00  0.00     0.135 A 
ATOM     86  F   UNL A   1      46.191  33.878  26.637  1.00  0.00    -0.206 F 
ATOM     87  C   UNL A   1      47.349  35.403  27.997  1.00  0.00     0.059 A 
ATOM     88  C   UNL A   1      48.141  34.704  30.182  1.00  0.00     0.059 A 
ATOM     89  F   UNL A   1      47.769  32.505  30.905  1.00  0.00    -0.206 F 
ATOM     90  C   UNL A   1      48.008  35.680  29.196  1.00  0.00     0.060 A 
BRANCH  90  91
ATOM     91  S   UNL A   1      48.651  37.346  29.468  1.00  0.00     0.124 S 
ATOM     92  O   UNL A   1      48.057  37.684  30.755  1.00  0.00    -0.237 OA
ATOM     93  O   UNL A   1      50.093  37.122  29.467  1.00  0.00    -0.237 OA
ATOM     94  O   UNL A   1      48.140  38.093  28.321  1.00  0.00    -0.744 OA
ENDBRANCH  90  91
ENDBRANCH  58  83
BRANCH  70  95
ATOM     95  C   UNL A   1      49.418  27.412  25.583  1.00  0.00     0.058 A 
ATOM     96  C   UNL A   1      50.612  27.109  26.253  1.00  0.00     0.135 A 
ATOM     97  C   UNL A   1      49.434  27.420  24.179  1.00  0.00     0.135 A 
ATOM     98  F   UNL A   1      50.648  27.087  27.595  1.00  0.00    -0.206 F 
ATOM     99  C   UNL A   1      51.790  26.862  25.557  1.00  0.00     0.059 A 
ATOM    100  C   UNL A   1      50.594  27.146  23.462  1.00  0.00     0.059 A 
ATOM    101  F   UNL A   1      48.313  27.687  23.489  1.00  0.00    -0.206 F 
ATOM    102  C   UNL A   1      51.772  26.887  24.161  1.00  0.00     0.060 A 
BRANCH 102 103
ATOM    103  S   UNL A   1      53.305  26.561  23.267  1.00  0.00     0.124 S 
ATOM    104  O   UNL A   1      53.996  27.840  23.395  1.00  0.00    -0.237 OA
ATOM    105  O   UNL A   1      53.880  25.452  24.024  1.00  0.00    -0.237 OA
ATOM    106  O   UNL A   1      52.849  26.223  21.923  1.00  0.00    -0.744 OA
ENDBRANCH 102 103
ENDBRANCH  70  95
ENDBRANCH  44  45
ENDBRANCH  37  39
ENDBRANCH  36  37
ENDBRANCH  35  36
ENDBRANCH  34  35
ENDBRANCH  33  34
ENDBRANCH  32  33
ENDBRANCH  31  32
ENDBRANCH  30  31
ENDBRANCH  29  30
ENDBRANCH   1  29
TORSDOF 30
ENDMDL
MODEL 2
REMARK VINA RESULT:      -8.2      7.040     11.200
REMARK SMILES Cc1cc(Br)cc([N+](=O)[O-])c1OCCC[C@@](C)([NH3+])C(=O)OCCOCCOCCOCCOC(=O)c1ccc(-c2c3nc(c(-c4c(F)cc(S(=O)(=O)[O-])cc4F)c4ccc([nH]4)c(-c4c(F)cc(S(=O)(=O)[O-])cc4F)c4nc(c(-c5c(F)cc(S(=O)(=O)[O-])cc5F)c5ccc2[nH]5)C=C4)C=C3)cc1
REMARK SMILES IDX 25 1 24 2 23 3 22 4 21 5 19 6 20 7 16 8 17 9 15 10 14 11
REMARK SMILES IDX 13 12 12 13 11 14 1 15 2 16 3 17 4 18 7 19 5 20 6 21 8 22
REMARK SMILES IDX 9 23 10 24 18 25 26 29 27 30 28 31 29 32 30 33 31 34 32 35
REMARK SMILES IDX 33 36 34 37 35 38 36 39 37 40 101 41 38 42 100 43 39 44
REMARK SMILES IDX 40 45 41 46 94 47 42 48 99 49 93 50 95 51 43 52 98 53 92 54
REMARK SMILES IDX 91 55 44 57 78 58 57 59 77 60 58 61 61 62 76 63 96 64 59 65
REMARK SMILES IDX 60 66 75 68 97 69 62 70 45 71 46 72 55 73 47 74 48 75 54 76
REMARK SMILES IDX 56 77 49 78 50 79 51 80 52 81 53 82 79 83 80 84 89 85 81 86
REMARK SMILES IDX 82 87 88 88 90 89 83 90 84 91 85 92 86 93 87 94 63 95 64 96
REMARK SMILES IDX 73 97 65 98 66 99 72 100 74 101 67 102 68 103 69 104 70 105
REMARK SMILES IDX 71 106
REMARK H PARENT 18 26 18 27 18 28 95 56 61 67
REMARK Flexibility Score: inf
ROOT
ATOM      1  C   UNL A   1      34.423  33.325  30.464  1.00  0.00     0.188 C 
ENDROOT
BRANCH   1   2
ATOM      2  O   UNL A   1      34.005  33.732  29.175  1.00  0.00    -0.376 OA
BRANCH   2   3
ATOM      3  C   UNL A   1      34.734  33.325  28.022  1.00  0.00     0.202 C 
BRANCH   3   4
ATOM      4  C   UNL A   1      35.237  31.886  27.843  1.00  0.00     0.261 C 
BRANCH   4   5
ATOM      5  O   UNL A   1      34.218  30.875  27.776  1.00  0.00    -0.459 OA
BRANCH   5   6
ATOM      6  C   UNL A   1      34.552  29.640  27.310  1.00  0.00     0.367 C 
ATOM      7  O   UNL A   1      35.691  29.196  27.278  1.00  0.00    -0.245 OA
BRANCH   6   8
ATOM      8  C   UNL A   1      33.285  28.900  26.783  1.00  0.00     0.190 C 
ATOM      9  C   UNL A   1      32.481  29.961  26.009  1.00  0.00     0.092 C 
BRANCH   8  10
ATOM     10  C   UNL A   1      33.553  27.649  25.883  1.00  0.00     0.084 C 
BRANCH  10  11
ATOM     11  C   UNL A   1      32.844  26.299  26.141  1.00  0.00     0.049 C 
BRANCH  11  12
ATOM     12  C   UNL A   1      33.150  25.074  25.251  1.00  0.00     0.230 C 
BRANCH  12  13
ATOM     13  O   UNL A   1      34.151  24.233  25.850  1.00  0.00    -0.487 OA
BRANCH  13  14
ATOM     14  C   UNL A   1      34.210  22.902  25.491  1.00  0.00     0.200 A 
ATOM     15  C   UNL A   1      33.820  22.298  27.926  1.00  0.00     0.049 C 
ATOM     16  C   UNL A   1      33.784  21.976  26.471  1.00  0.00    -0.001 A 
ATOM     17  C   UNL A   1      33.299  20.710  26.110  1.00  0.00     0.023 A 
ATOM     18  C   UNL A   1      33.288  20.320  24.783  1.00  0.00     0.025 A 
ATOM     19  C   UNL A   1      34.296  22.446  24.161  1.00  0.00     0.312 A 
ATOM     20  Br  UNL A   1      32.544  18.650  24.311  1.00  0.00    -0.051 Br
ATOM     21  C   UNL A   1      33.828  21.156  23.812  1.00  0.00     0.105 A 
BRANCH  19  22
ATOM     22  N   UNL A   1      34.898  23.239  23.078  1.00  0.00     0.066 N 
ATOM     23  O   UNL A   1      36.138  23.325  23.058  1.00  0.00    -0.258 OA
ATOM     24  O   UNL A   1      34.163  23.800  22.261  1.00  0.00    -0.258 OA
ENDBRANCH  19  22
ENDBRANCH  13  14
ENDBRANCH  12  13
ENDBRANCH  11  12
ENDBRANCH  10  11
ENDBRANCH   8  10
BRANCH   8  25
ATOM     25  N   UNL A   1      32.343  28.562  27.894  1.00  0.00    -0.344 N 
ATOM     26  H   UNL A   1      32.327  29.326  28.571  1.00  0.00     0.345 HD
ATOM     27  H   UNL A   1      32.654  27.707  28.354  1.00  0.00     0.345 HD
ATOM     28  H   UNL A   1      31.407  28.424  27.515  1.00  0.00     0.345 HD
ENDBRANCH   8  25
ENDBRANCH   6   8
ENDBRANCH   5   6
ENDBRANCH   4   5
ENDBRANCH   3   4
ENDBRANCH   2   3
ENDBRANCH   1   2
BRANCH   1  29
ATOM     29  C   UNL A   1      34.721  34.441  31.460  1.00  0.00     0.188 C 
BRANCH  29  30
ATOM     30  O   UNL A   1      35.193  33.924  32.693  1.00  0.00    -0.377 OA
BRANCH  30  31
ATOM     31  C   UNL A   1      35.453  32.527  32.655  1.00  0.00     0.188 C 
BRANCH  31  32
ATOM     32  C   UNL A   1      36.892  32.099  32.994  1.00  0.00     0.188 C 
BRANCH  32  33
ATOM     33  O   UNL A   1      37.275  30.881  32.343  1.00  0.00    -0.376 OA
BRANCH  33  34
ATOM     34  C   UNL A   1      36.298  30.267  31.509  1.00  0.00     0.202 C 
BRANCH  34  35
ATOM     35  C   UNL A   1      36.929  29.278  30.521  1.00  0.00     0.261 C 
BRANCH  35  36
ATOM     36  O   UNL A   1      38.355  29.182  30.631  1.00  0.00    -0.460 OA
BRANCH  36  37
ATOM     37  C   UNL A   1      39.064  29.588  29.554  1.00  0.00     0.338 C 
ATOM     38  O   UNL A   1      39.019  29.119  28.428  1.00  0.00    -0.246 OA
BRANCH  37  39
ATOM     39  C   UNL A   1      39.716  30.863  29.905  1.00  0.00     0.060 A 
ATOM     40  C   UNL A   1      41.067  30.830  30.267  1.00  0.00     0.016 A 
ATOM     41  C   UNL A   1      39.031  32.079  29.797  1.00  0.00     0.016 A 
ATOM     42  C   UNL A   1      41.733  32.018  30.552  1.00  0.00     0.010 A 
ATOM     43  C   UNL A   1      39.693  33.268  30.107  1.00  0.00     0.010 A 
ATOM     44  C   UNL A   1      41.034  33.232  30.521  1.00  0.00    -0.014 A 
BRANCH  44  45
ATOM     45  C   UNL A   1      41.644  34.404  31.185  1.00  0.00     0.031 A 
ATOM     46  C   UNL A   1      41.547  34.469  32.684  1.00  0.00     0.074 A 
ATOM     47  C   UNL A   1      42.319  35.334  30.489  1.00  0.00     0.049 A 
ATOM     48  N   UNL A   1      42.083  35.321  33.516  1.00  0.00    -0.248 NA
ATOM     49  C   UNL A   1      40.739  33.420  33.333  1.00  0.00     0.031 C 
ATOM     50  C   UNL A   1      42.485  35.352  29.036  1.00  0.00     0.029 A 
ATOM     51  N   UNL A   1      43.002  36.441  30.921  1.00  0.00    -0.354 N 
ATOM     52  C   UNL A   1      41.697  34.899  34.782  1.00  0.00     0.074 A 
ATOM     53  C   UNL A   1      40.844  33.746  34.611  1.00  0.00     0.031 C 
ATOM     54  C   UNL A   1      43.226  36.422  28.697  1.00  0.00     0.029 A 
ATOM     55  C   UNL A   1      43.580  37.166  29.906  1.00  0.00     0.049 A 
ATOM     56  H   UNL A   1      43.072  36.694  31.870  1.00  0.00     0.167 HD
ATOM     57  C   UNL A   1      42.038  35.420  35.983  1.00  0.00     0.037 A 
ATOM     58  C   UNL A   1      44.312  38.295  29.958  1.00  0.00     0.037 A 
ATOM     59  C   UNL A   1      42.864  36.584  36.138  1.00  0.00     0.049 A 
ATOM     60  C   UNL A   1      44.636  38.889  31.308  1.00  0.00     0.074 A 
ATOM     61  C   UNL A   1      43.266  37.209  37.304  1.00  0.00     0.029 A 
ATOM     62  N   UNL A   1      43.407  37.309  35.086  1.00  0.00    -0.354 N 
ATOM     63  N   UNL A   1      44.296  38.460  32.502  1.00  0.00    -0.248 NA
ATOM     64  C   UNL A   1      45.456  40.107  31.318  1.00  0.00     0.031 C 
ATOM     65  C   UNL A   1      44.015  38.338  36.954  1.00  0.00     0.029 A 
ATOM     66  C   UNL A   1      44.126  38.385  35.573  1.00  0.00     0.049 A 
ATOM     67  H   UNL A   1      43.296  37.088  34.132  1.00  0.00     0.167 HD
ATOM     68  C   UNL A   1      44.888  39.338  33.405  1.00  0.00     0.074 A 
ATOM     69  C   UNL A   1      45.615  40.314  32.618  1.00  0.00     0.031 C 
ATOM     70  C   UNL A   1      44.841  39.338  34.763  1.00  0.00     0.037 A 
BRANCH  57  71
ATOM     71  C   UNL A   1      41.490  34.741  37.207  1.00  0.00     0.058 A 
ATOM     72  C   UNL A   1      42.169  33.680  37.828  1.00  0.00     0.135 A 
ATOM     73  C   UNL A   1      40.268  35.152  37.762  1.00  0.00     0.135 A 
ATOM     74  F   UNL A   1      43.327  33.227  37.320  1.00  0.00    -0.206 F 
ATOM     75  C   UNL A   1      41.644  33.034  38.942  1.00  0.00     0.059 A 
ATOM     76  C   UNL A   1      39.736  34.536  38.891  1.00  0.00     0.059 A 
ATOM     77  F   UNL A   1      39.571  36.151  37.199  1.00  0.00    -0.206 F 
ATOM     78  C   UNL A   1      40.425  33.469  39.466  1.00  0.00     0.060 A 
BRANCH  78  79
ATOM     79  S   UNL A   1      39.756  32.621  40.912  1.00  0.00     0.124 S 
ATOM     80  O   UNL A   1      38.633  31.893  40.328  1.00  0.00    -0.237 OA
ATOM     81  O   UNL A   1      40.884  31.803  41.346  1.00  0.00    -0.237 OA
ATOM     82  O   UNL A   1      39.395  33.714  41.810  1.00  0.00    -0.744 OA
ENDBRANCH  78  79
ENDBRANCH  57  71
BRANCH  58  83
ATOM     83  C   UNL A   1      44.802  38.930  28.705  1.00  0.00     0.058 A 
ATOM     84  C   UNL A   1      46.145  38.833  28.312  1.00  0.00     0.135 A 
ATOM     85  C   UNL A   1      43.932  39.652  27.873  1.00  0.00     0.135 A 
ATOM     86  F   UNL A   1      47.020  38.161  29.078  1.00  0.00    -0.206 F 
ATOM     87  C   UNL A   1      46.614  39.442  27.151  1.00  0.00     0.059 A 
ATOM     88  C   UNL A   1      44.371  40.249  26.695  1.00  0.00     0.059 A 
ATOM     89  F   UNL A   1      42.635  39.769  28.195  1.00  0.00    -0.206 F 
ATOM     90  C   UNL A   1      45.718  40.147  26.347  1.00  0.00     0.060 A 
BRANCH  90  91
ATOM     91  S   UNL A   1      46.324  40.894  24.819  1.00  0.00     0.124 S 
ATOM     92  O   UNL A   1      46.820  39.728  24.098  1.00  0.00    -0.237 OA
ATOM     93  O   UNL A   1      45.118  41.513  24.280  1.00  0.00    -0.237 OA
ATOM     94  O   UNL A   1      47.345  41.829  25.285  1.00  0.00    -0.744 OA
ENDBRANCH  90  91
ENDBRANCH  58  83
BRANCH  70  95
ATOM     95  C   UNL A   1      45.629  40.402  35.478  1.00  0.00     0.058 A 
ATOM     96  C   UNL A   1      46.972  40.214  35.837  1.00  0.00     0.135 A 
ATOM     97  C   UNL A   1      45.035  41.641  35.772  1.00  0.00     0.135 A 
ATOM     98  F   UNL A   1      47.584  39.049  35.576  1.00  0.00    -0.206 F 
ATOM     99  C   UNL A   1      47.690  41.204  36.498  1.00  0.00     0.059 A 
ATOM    100  C   UNL A   1      45.744  42.655  36.406  1.00  0.00     0.059 A 
ATOM    101  F   UNL A   1      43.758  41.878  35.434  1.00  0.00    -0.206 F 
ATOM    102  C   UNL A   1      47.065  42.420  36.783  1.00  0.00     0.060 A 
BRANCH 102 103
ATOM    103  S   UNL A   1      48.007  43.700  37.638  1.00  0.00     0.124 S 
ATOM    104  O   UNL A   1      48.793  44.264  36.546  1.00  0.00    -0.237 OA
ATOM    105  O   UNL A   1      46.955  44.561  38.172  1.00  0.00    -0.237 OA
ATOM    106  O   UNL A   1      48.764  42.953  38.638  1.00  0.00    -0.744 OA
ENDBRANCH 102 103
ENDBRANCH  70  95
ENDBRANCH  44  45
ENDBRANCH  37  39
ENDBRANCH  36  37
ENDBRANCH  35  36
ENDBRANCH  34  35
ENDBRANCH  33  34
ENDBRANCH  32  33
ENDBRANCH  31  32
ENDBRANCH  30  31
ENDBRANCH  29  30
ENDBRANCH   1  29
TORSDOF 30
ENDMDL
MODEL 3
REMARK VINA RESULT:      -7.2      7.593     12.519
REMARK SMILES Cc1cc(Br)cc([N+](=O)[O-])c1OCCC[C@@](C)([NH3+])C(=O)OCCOCCOCCOCCOC(=O)c1ccc(-c2c3nc(c(-c4c(F)cc(S(=O)(=O)[O-])cc4F)c4ccc([nH]4)c(-c4c(F)cc(S(=O)(=O)[O-])cc4F)c4nc(c(-c5c(F)cc(S(=O)(=O)[O-])cc5F)c5ccc2[nH]5)C=C4)C=C3)cc1
REMARK SMILES IDX 25 1 24 2 23 3 22 4 21 5 19 6 20 7 16 8 17 9 15 10 14 11
REMARK SMILES IDX 13 12 12 13 11 14 1 15 2 16 3 17 4 18 7 19 5 20 6 21 8 22
REMARK SMILES IDX 9 23 10 24 18 25 26 29 27 30 28 31 29 32 30 33 31 34 32 35
REMARK SMILES IDX 33 36 34 37 35 38 36 39 37 40 101 41 38 42 100 43 39 44
REMARK SMILES IDX 40 45 41 46 94 47 42 48 99 49 93 50 95 51 43 52 98 53 92 54
REMARK SMILES IDX 91 55 44 57 78 58 57 59 77 60 58 61 61 62 76 63 96 64 59 65
REMARK SMILES IDX 60 66 75 68 97 69 62 70 45 71 46 72 55 73 47 74 48 75 54 76
REMARK SMILES IDX 56 77 49 78 50 79 51 80 52 81 53 82 79 83 80 84 89 85 81 86
REMARK SMILES IDX 82 87 88 88 90 89 83 90 84 91 85 92 86 93 87 94 63 95 64 96
REMARK SMILES IDX 73 97 65 98 66 99 72 100 74 101 67 102 68 103 69 104 70 105
REMARK SMILES IDX 71 106
REMARK H PARENT 18 26 18 27 18 28 95 56 61 67
REMARK Flexibility Score: inf
ROOT
ATOM      1  C   UNL A   1      34.676  32.660  29.897  1.00  0.00     0.188 C 
ENDROOT
BRANCH   1   2
ATOM      2  O   UNL A   1      34.901  32.260  28.558  1.00  0.00    -0.376 OA
BRANCH   2   3
ATOM      3  C   UNL A   1      35.751  31.155  28.272  1.00  0.00     0.202 C 
BRANCH   3   4
ATOM      4  C   UNL A   1      35.193  29.779  27.882  1.00  0.00     0.261 C 
BRANCH   4   5
ATOM      5  O   UNL A   1      33.989  29.796  27.099  1.00  0.00    -0.459 OA
BRANCH   5   6
ATOM      6  C   UNL A   1      33.541  28.626  26.564  1.00  0.00     0.367 C 
ATOM      7  O   UNL A   1      34.264  27.706  26.207  1.00  0.00    -0.245 OA
BRANCH   6   8
ATOM      8  C   UNL A   1      31.988  28.652  26.432  1.00  0.00     0.190 C 
ATOM      9  C   UNL A   1      31.559  30.054  26.900  1.00  0.00     0.092 C 
BRANCH   8  10
ATOM     10  C   UNL A   1      31.422  28.352  25.005  1.00  0.00     0.084 C 
BRANCH  10  11
ATOM     11  C   UNL A   1      30.984  26.928  24.590  1.00  0.00     0.049 C 
BRANCH  11  12
ATOM     12  C   UNL A   1      32.026  25.907  24.080  1.00  0.00     0.230 C 
BRANCH  12  13
ATOM     13  O   UNL A   1      31.427  24.618  23.861  1.00  0.00    -0.487 OA
BRANCH  13  14
ATOM     14  C   UNL A   1      32.083  23.490  24.308  1.00  0.00     0.200 A 
ATOM     15  C   UNL A   1      30.613  23.538  26.377  1.00  0.00     0.049 C 
ATOM     16  C   UNL A   1      31.495  22.826  25.409  1.00  0.00    -0.001 A 
ATOM     17  C   UNL A   1      31.712  21.458  25.631  1.00  0.00     0.023 A 
ATOM     18  C   UNL A   1      32.563  20.744  24.806  1.00  0.00     0.025 A 
ATOM     19  C   UNL A   1      33.031  22.775  23.550  1.00  0.00     0.312 A 
ATOM     20  Br  UNL A   1      32.767  18.885  25.066  1.00  0.00    -0.051 Br
ATOM     21  C   UNL A   1      33.262  21.401  23.800  1.00  0.00     0.105 A 
BRANCH  19  22
ATOM     22  N   UNL A   1      33.854  23.397  22.501  1.00  0.00     0.066 N 
ATOM     23  O   UNL A   1      35.076  23.482  22.713  1.00  0.00    -0.258 OA
ATOM     24  O   UNL A   1      33.308  23.827  21.482  1.00  0.00    -0.258 OA
ENDBRANCH  19  22
ENDBRANCH  13  14
ENDBRANCH  12  13
ENDBRANCH  11  12
ENDBRANCH  10  11
ENDBRANCH   8  10
BRANCH   8  25
ATOM     25  N   UNL A   1      31.333  27.781  27.455  1.00  0.00    -0.344 N 
ATOM     26  H   UNL A   1      31.385  26.807  27.157  1.00  0.00     0.345 HD
ATOM     27  H   UNL A   1      30.356  28.053  27.558  1.00  0.00     0.345 HD
ATOM     28  H   UNL A   1      31.812  27.888  28.349  1.00  0.00     0.345 HD
ENDBRANCH   8  25
ENDBRANCH   6   8
ENDBRANCH   5   6
ENDBRANCH   4   5
ENDBRANCH   3   4
ENDBRANCH   2   3
ENDBRANCH   1   2
BRANCH   1  29
ATOM     29  C   UNL A   1      34.930  34.131  30.214  1.00  0.00     0.188 C 
BRANCH  29  30
ATOM     30  O   UNL A   1      34.834  34.385  31.605  1.00  0.00    -0.377 OA
BRANCH  30  31
ATOM     31  C   UNL A   1      34.889  33.208  32.398  1.00  0.00     0.188 C 
BRANCH  31  32
ATOM     32  C   UNL A   1      36.082  33.099  33.364  1.00  0.00     0.188 C 
BRANCH  32  33
ATOM     33  O   UNL A   1      36.723  31.818  33.312  1.00  0.00    -0.376 OA
BRANCH  33  34
ATOM     34  C   UNL A   1      36.199  30.879  32.380  1.00  0.00     0.202 C 
BRANCH  34  35
ATOM     35  C   UNL A   1      37.309  30.084  31.682  1.00  0.00     0.261 C 
BRANCH  35  36
ATOM     36  O   UNL A   1      38.598  30.239  32.288  1.00  0.00    -0.460 OA
BRANCH  36  37
ATOM     37  C   UNL A   1      39.627  30.484  31.445  1.00  0.00     0.338 C 
ATOM     38  O   UNL A   1      39.855  29.923  30.386  1.00  0.00    -0.246 OA
BRANCH  37  39
ATOM     39  C   UNL A   1      40.287  31.723  31.897  1.00  0.00     0.060 A 
ATOM     40  C   UNL A   1      41.559  31.616  32.471  1.00  0.00     0.016 A 
ATOM     41  C   UNL A   1      39.700  32.975  31.681  1.00  0.00     0.016 A 
ATOM     42  C   UNL A   1      42.237  32.766  32.860  1.00  0.00     0.010 A 
ATOM     43  C   UNL A   1      40.371  34.127  32.093  1.00  0.00     0.010 A 
ATOM     44  C   UNL A   1      41.625  34.019  32.718  1.00  0.00    -0.014 A 
BRANCH  44  45
ATOM     45  C   UNL A   1      42.186  35.160  33.471  1.00  0.00     0.031 A 
ATOM     46  C   UNL A   1      41.749  35.319  34.901  1.00  0.00     0.074 A 
ATOM     47  C   UNL A   1      43.104  35.977  32.928  1.00  0.00     0.049 A 
ATOM     48  N   UNL A   1      42.164  36.158  35.809  1.00  0.00    -0.248 NA
ATOM     49  C   UNL A   1      40.700  34.394  35.370  1.00  0.00     0.031 C 
ATOM     50  C   UNL A   1      43.607  35.896  31.557  1.00  0.00     0.029 A 
ATOM     51  N   UNL A   1      43.784  37.033  33.476  1.00  0.00    -0.354 N 
ATOM     52  C   UNL A   1      41.448  35.850  36.959  1.00  0.00     0.074 A 
ATOM     53  C   UNL A   1      40.537  34.779  36.625  1.00  0.00     0.031 C 
ATOM     54  C   UNL A   1      44.521  36.866  31.372  1.00  0.00     0.029 A 
ATOM     55  C   UNL A   1      44.660  37.638  32.606  1.00  0.00     0.049 A 
ATOM     56  H   UNL A   1      43.657  37.331  34.406  1.00  0.00     0.167 HD
ATOM     57  C   UNL A   1      41.553  36.401  38.190  1.00  0.00     0.037 A 
ATOM     58  C   UNL A   1      45.480  38.690  32.798  1.00  0.00     0.037 A 
ATOM     59  C   UNL A   1      42.443  37.484  38.502  1.00  0.00     0.049 A 
ATOM     60  C   UNL A   1      45.542  39.324  34.166  1.00  0.00     0.074 A 
ATOM     61  C   UNL A   1      42.626  38.131  39.710  1.00  0.00     0.029 A 
ATOM     62  N   UNL A   1      43.293  38.090  37.587  1.00  0.00    -0.354 N 
ATOM     63  N   UNL A   1      44.886  38.999  35.257  1.00  0.00    -0.248 NA
ATOM     64  C   UNL A   1      46.465  40.453  34.334  1.00  0.00     0.031 C 
ATOM     65  C   UNL A   1      43.556  39.158  39.514  1.00  0.00     0.029 A 
ATOM     66  C   UNL A   1      43.992  39.115  38.199  1.00  0.00     0.049 A 
ATOM     67  H   UNL A   1      43.386  37.828  36.643  1.00  0.00     0.167 HD
ATOM     68  C   UNL A   1      45.342  39.864  36.248  1.00  0.00     0.074 A 
ATOM     69  C   UNL A   1      46.336  40.716  35.627  1.00  0.00     0.031 C 
ATOM     70  C   UNL A   1      44.978  39.945  37.554  1.00  0.00     0.037 A 
BRANCH  57  71
ATOM     71  C   UNL A   1      40.661  35.850  39.268  1.00  0.00     0.058 A 
ATOM     72  C   UNL A   1      39.439  36.460  39.596  1.00  0.00     0.135 A 
ATOM     73  C   UNL A   1      41.036  34.703  39.984  1.00  0.00     0.135 A 
ATOM     74  F   UNL A   1      39.048  37.578  38.963  1.00  0.00    -0.206 F 
ATOM     75  C   UNL A   1      38.632  35.966  40.615  1.00  0.00     0.059 A 
ATOM     76  C   UNL A   1      40.231  34.177  40.991  1.00  0.00     0.059 A 
ATOM     77  F   UNL A   1      42.200  34.091  39.720  1.00  0.00    -0.206 F 
ATOM     78  C   UNL A   1      39.037  34.824  41.308  1.00  0.00     0.060 A 
BRANCH  78  79
ATOM     79  S   UNL A   1      37.979  34.193  42.627  1.00  0.00     0.124 S 
ATOM     80  O   UNL A   1      36.952  33.488  41.865  1.00  0.00    -0.237 OA
ATOM     81  O   UNL A   1      38.896  33.349  43.386  1.00  0.00    -0.237 OA
ATOM     82  O   UNL A   1      37.533  35.403  43.312  1.00  0.00    -0.744 OA
ENDBRANCH  78  79
ENDBRANCH  57  71
BRANCH  58  83
ATOM     83  C   UNL A   1      46.317  39.201  31.678  1.00  0.00     0.058 A 
ATOM     84  C   UNL A   1      47.617  38.722  31.460  1.00  0.00     0.135 A 
ATOM     85  C   UNL A   1      45.832  40.186  30.804  1.00  0.00     0.135 A 
ATOM     86  F   UNL A   1      48.132  37.786  32.274  1.00  0.00    -0.206 F 
ATOM     87  C   UNL A   1      48.413  39.210  30.427  1.00  0.00     0.059 A 
ATOM     88  C   UNL A   1      46.599  40.672  29.749  1.00  0.00     0.059 A 
ATOM     89  F   UNL A   1      44.591  40.673  30.961  1.00  0.00    -0.206 F 
ATOM     90  C   UNL A   1      47.893  40.186  29.575  1.00  0.00     0.060 A 
BRANCH  90  91
ATOM     91  S   UNL A   1      48.915  40.780  28.209  1.00  0.00     0.124 S 
ATOM     92  O   UNL A   1      47.940  40.868  27.130  1.00  0.00    -0.237 OA
ATOM     93  O   UNL A   1      49.413  42.050  28.728  1.00  0.00    -0.237 OA
ATOM     94  O   UNL A   1      49.923  39.732  28.065  1.00  0.00    -0.744 OA
ENDBRANCH  90  91
ENDBRANCH  58  83
BRANCH  70  95
ATOM     95  C   UNL A   1      45.688  40.964  38.403  1.00  0.00     0.058 A 
ATOM     96  C   UNL A   1      46.911  40.683  39.031  1.00  0.00     0.135 A 
ATOM     97  C   UNL A   1      45.150  42.253  38.556  1.00  0.00     0.135 A 
ATOM     98  F   UNL A   1      47.466  39.467  38.914  1.00  0.00    -0.206 F 
ATOM     99  C   UNL A   1      47.558  41.632  39.814  1.00  0.00     0.059 A 
ATOM    100  C   UNL A   1      45.796  43.227  39.310  1.00  0.00     0.059 A 
ATOM    101  F   UNL A   1      43.992  42.579  37.961  1.00  0.00    -0.206 F 
ATOM    102  C   UNL A   1      46.990  42.900  39.952  1.00  0.00     0.060 A 
BRANCH 102 103
ATOM    103  S   UNL A   1      47.839  44.126  40.967  1.00  0.00     0.124 S 
ATOM    104  O   UNL A   1      46.716  44.870  41.528  1.00  0.00    -0.237 OA
ATOM    105  O   UNL A   1      48.581  43.293  41.910  1.00  0.00    -0.237 OA
ATOM    106  O   UNL A   1      48.659  44.855  40.005  1.00  0.00    -0.744 OA
ENDBRANCH 102 103
ENDBRANCH  70  95
ENDBRANCH  44  45
ENDBRANCH  37  39
ENDBRANCH  36  37
ENDBRANCH  35  36
ENDBRANCH  34  35
ENDBRANCH  33  34
ENDBRANCH  32  33
ENDBRANCH  31  32
ENDBRANCH  30  31
ENDBRANCH  29  30
ENDBRANCH   1  29
TORSDOF 30
ENDMDL
