MODEL 1
REMARK VINA RESULT:     -10.1      0.000      0.000
REMARK SMILES Cc1c(Cl)cc2c(c1C)O[C@H](C(F)(F)F)C(C(=O)OCCOCCOCCOCCOC(=O)c1ccc(-c3c4nc(c(-c5c(F)cc(S(=O)(=O)[O-])cc5F)c5ccc([nH]5)c(-c5c(F)cc(S(=O)(=O)[O-])cc5F)c5nc(c(-c6c(F)cc(S(=O)(=O)[O-])cc6F)c6ccc3[nH]6)C=C5)C=C4)cc1)=C2
REMARK SMILES IDX 26 1 25 2 24 3 23 4 22 5 21 6 20 7 19 8 17 9 18 10 16 11
REMARK SMILES IDX 1 12 2 13 3 14 8 15 4 16 5 17 7 18 9 19 6 20 10 21 100 22
REMARK SMILES IDX 11 23 12 24 13 25 14 26 15 27 27 28 28 29 29 30 30 31 31 32
REMARK SMILES IDX 32 33 33 34 34 35 35 36 99 37 36 38 98 39 37 40 38 41 39 42
REMARK SMILES IDX 92 43 40 44 97 45 91 46 93 47 41 48 96 49 90 50 89 51 42 53
REMARK SMILES IDX 76 54 55 55 75 56 56 57 59 58 74 59 94 60 57 61 58 62 73 64
REMARK SMILES IDX 95 65 60 66 43 67 44 68 53 69 45 70 46 71 52 72 54 73 47 74
REMARK SMILES IDX 48 75 49 76 50 77 51 78 77 79 78 80 87 81 79 82 80 83 86 84
REMARK SMILES IDX 88 85 81 86 82 87 83 88 84 89 85 90 61 91 62 92 71 93 63 94
REMARK SMILES IDX 64 95 70 96 72 97 65 98 66 99 67 100 68 101 69 102
REMARK H PARENT 93 52 59 63
REMARK Flexibility Score: inf
ROOT
ATOM      1  C   UNL A   1      32.880  28.037  27.013  1.00  0.00     0.188 C 
ENDROOT
BRANCH   1   2
ATOM      2  O   UNL A   1      31.595  27.460  27.239  1.00  0.00    -0.377 OA
BRANCH   2   3
ATOM      3  C   UNL A   1      31.051  26.657  26.206  1.00  0.00     0.188 C 
BRANCH   3   4
ATOM      4  C   UNL A   1      30.968  27.392  24.855  1.00  0.00     0.188 C 
BRANCH   4   5
ATOM      5  O   UNL A   1      30.335  26.686  23.806  1.00  0.00    -0.376 OA
BRANCH   5   6
ATOM      6  C   UNL A   1      30.997  25.711  23.016  1.00  0.00     0.202 C 
BRANCH   6   7
ATOM      7  C   UNL A   1      31.926  24.582  23.512  1.00  0.00     0.261 C 
BRANCH   7   8
ATOM      8  O   UNL A   1      31.333  23.346  23.897  1.00  0.00    -0.460 OA
BRANCH   8   9
ATOM      9  C   UNL A   1      31.630  22.879  25.121  1.00  0.00     0.338 C 
ATOM     10  O   UNL A   1      31.116  23.200  26.178  1.00  0.00    -0.246 OA
BRANCH   9  11
ATOM     11  C   UNL A   1      32.571  21.752  24.946  1.00  0.00     0.087 C 
ATOM     12  C   UNL A   1      35.571  16.012  25.325  1.00  0.00     0.046 C 
ATOM     13  C   UNL A   1      34.699  17.203  25.019  1.00  0.00    -0.026 A 
ATOM     14  C   UNL A   1      33.299  17.020  24.989  1.00  0.00     0.045 A 
ATOM     15  C   UNL A   1      35.214  18.513  24.848  1.00  0.00    -0.004 A 
ATOM     16  Cl  UNL A   1      32.575  15.453  25.143  1.00  0.00    -0.084 Cl
ATOM     17  C   UNL A   1      32.427  18.103  24.883  1.00  0.00     0.032 A 
ATOM     18  C   UNL A   1      34.313  19.600  24.748  1.00  0.00     0.131 A 
ATOM     19  C   UNL A   1      36.687  18.842  24.815  1.00  0.00     0.049 C 
ATOM     20  C   UNL A   1      32.935  19.397  24.822  1.00  0.00     0.019 A 
ATOM     21  O   UNL A   1      34.865  20.844  24.599  1.00  0.00    -0.475 OA
ATOM     22  C   UNL A   1      32.035  20.527  24.940  1.00  0.00     0.027 C 
ATOM     23  C   UNL A   1      34.033  22.030  24.717  1.00  0.00     0.316 C 
BRANCH  23  24
ATOM     24  C   UNL A   1      34.635  22.925  25.808  1.00  0.00     0.430 C 
ATOM     25  F   UNL A   1      34.542  24.234  25.476  1.00  0.00    -0.167 F 
ATOM     26  F   UNL A   1      34.005  22.773  26.995  1.00  0.00    -0.167 F 
ATOM     27  F   UNL A   1      35.946  22.650  26.006  1.00  0.00    -0.167 F 
ENDBRANCH  23  24
ENDBRANCH   9  11
ENDBRANCH   8   9
ENDBRANCH   7   8
ENDBRANCH   6   7
ENDBRANCH   5   6
ENDBRANCH   4   5
ENDBRANCH   3   4
ENDBRANCH   2   3
ENDBRANCH   1   2
BRANCH   1  28
ATOM     28  C   UNL A   1      33.018  29.526  26.617  1.00  0.00     0.188 C 
BRANCH  28  29
ATOM     29  O   UNL A   1      32.106  30.394  27.282  1.00  0.00    -0.376 OA
BRANCH  29  30
ATOM     30  C   UNL A   1      31.553  31.473  26.544  1.00  0.00     0.202 C 
BRANCH  30  31
ATOM     31  C   UNL A   1      32.044  32.874  26.937  1.00  0.00     0.261 C 
BRANCH  31  32
ATOM     32  O   UNL A   1      33.074  32.911  27.935  1.00  0.00    -0.460 OA
BRANCH  32  33
ATOM     33  C   UNL A   1      33.343  34.109  28.496  1.00  0.00     0.338 C 
ATOM     34  O   UNL A   1      32.697  35.137  28.375  1.00  0.00    -0.246 OA
BRANCH  33  35
ATOM     35  C   UNL A   1      34.447  33.921  29.456  1.00  0.00     0.060 A 
ATOM     36  C   UNL A   1      35.749  34.265  29.068  1.00  0.00     0.016 A 
ATOM     37  C   UNL A   1      34.199  33.402  30.729  1.00  0.00     0.016 A 
ATOM     38  C   UNL A   1      36.816  34.046  29.936  1.00  0.00     0.010 A 
ATOM     39  C   UNL A   1      35.272  33.156  31.589  1.00  0.00     0.010 A 
ATOM     40  C   UNL A   1      36.588  33.438  31.178  1.00  0.00    -0.014 A 
BRANCH  40  41
ATOM     41  C   UNL A   1      37.730  32.859  31.925  1.00  0.00     0.031 A 
ATOM     42  C   UNL A   1      38.415  31.657  31.331  1.00  0.00     0.074 A 
ATOM     43  C   UNL A   1      38.170  33.396  33.075  1.00  0.00     0.049 A 
ATOM     44  N   UNL A   1      39.381  30.925  31.818  1.00  0.00    -0.248 NA
ATOM     45  C   UNL A   1      37.943  31.226  30.003  1.00  0.00     0.031 C 
ATOM     46  C   UNL A   1      37.634  34.597  33.711  1.00  0.00     0.029 A 
ATOM     47  N   UNL A   1      39.175  32.989  33.916  1.00  0.00    -0.354 N 
ATOM     48  C   UNL A   1      39.631  29.948  30.862  1.00  0.00     0.074 A 
ATOM     49  C   UNL A   1      38.696  30.160  29.779  1.00  0.00     0.031 C 
ATOM     50  C   UNL A   1      38.311  34.825  34.850  1.00  0.00     0.029 A 
ATOM     51  C   UNL A   1      39.300  33.766  35.043  1.00  0.00     0.049 A 
ATOM     52  H   UNL A   1      39.753  32.215  33.729  1.00  0.00     0.167 HD
ATOM     53  C   UNL A   1      40.563  28.968  30.880  1.00  0.00     0.037 A 
ATOM     54  C   UNL A   1      40.104  33.619  36.116  1.00  0.00     0.037 A 
ATOM     55  C   UNL A   1      41.485  28.759  31.963  1.00  0.00     0.049 A 
ATOM     56  C   UNL A   1      41.067  32.457  36.160  1.00  0.00     0.074 A 
ATOM     57  C   UNL A   1      42.463  27.787  32.085  1.00  0.00     0.029 A 
ATOM     58  N   UNL A   1      41.542  29.530  33.115  1.00  0.00    -0.354 N 
ATOM     59  N   UNL A   1      41.287  31.530  35.257  1.00  0.00    -0.248 NA
ATOM     60  C   UNL A   1      41.888  32.321  37.371  1.00  0.00     0.031 C 
ATOM     61  C   UNL A   1      43.075  27.939  33.333  1.00  0.00     0.029 A 
ATOM     62  C   UNL A   1      42.520  29.041  33.963  1.00  0.00     0.049 A 
ATOM     63  H   UNL A   1      40.971  30.311  33.300  1.00  0.00     0.167 HD
ATOM     64  C   UNL A   1      42.285  30.714  35.782  1.00  0.00     0.074 A 
ATOM     65  C   UNL A   1      42.640  31.270  37.072  1.00  0.00     0.031 C 
ATOM     66  C   UNL A   1      42.856  29.604  35.248  1.00  0.00     0.037 A 
BRANCH  53  67
ATOM     67  C   UNL A   1      40.615  28.032  29.705  1.00  0.00     0.058 A 
ATOM     68  C   UNL A   1      41.584  28.163  28.698  1.00  0.00     0.135 A 
ATOM     69  C   UNL A   1      39.709  26.963  29.607  1.00  0.00     0.135 A 
ATOM     70  F   UNL A   1      42.457  29.184  28.728  1.00  0.00    -0.206 F 
ATOM     71  C   UNL A   1      41.646  27.276  27.629  1.00  0.00     0.059 A 
ATOM     72  C   UNL A   1      39.770  26.047  28.562  1.00  0.00     0.059 A 
ATOM     73  F   UNL A   1      38.754  26.799  30.536  1.00  0.00    -0.206 F 
ATOM     74  C   UNL A   1      40.739  26.215  27.574  1.00  0.00     0.060 A 
BRANCH  74  75
ATOM     75  S   UNL A   1      40.855  25.057  26.194  1.00  0.00     0.124 S 
ATOM     76  O   UNL A   1      41.269  25.938  25.107  1.00  0.00    -0.237 OA
ATOM     77  O   UNL A   1      41.865  24.115  26.666  1.00  0.00    -0.237 OA
ATOM     78  O   UNL A   1      39.502  24.521  26.084  1.00  0.00    -0.744 OA
ENDBRANCH  74  75
ENDBRANCH  53  67
BRANCH  54  79
ATOM     79  C   UNL A   1      40.026  34.584  37.246  1.00  0.00     0.058 A 
ATOM     80  C   UNL A   1      39.147  34.375  38.319  1.00  0.00     0.135 A 
ATOM     81  C   UNL A   1      40.825  35.738  37.275  1.00  0.00     0.135 A 
ATOM     82  F   UNL A   1      38.348  33.297  38.330  1.00  0.00    -0.206 F 
ATOM     83  C   UNL A   1      39.060  35.275  39.378  1.00  0.00     0.059 A 
ATOM     84  C   UNL A   1      40.777  36.638  38.335  1.00  0.00     0.059 A 
ATOM     85  F   UNL A   1      41.685  35.987  36.274  1.00  0.00    -0.206 F 
ATOM     86  C   UNL A   1      39.886  36.400  39.380  1.00  0.00     0.060 A 
BRANCH  86  87
ATOM     87  S   UNL A   1      39.804  37.526  40.790  1.00  0.00     0.124 S 
ATOM     88  O   UNL A   1      41.210  37.643  41.157  1.00  0.00    -0.237 OA
ATOM     89  O   UNL A   1      39.199  38.713  40.193  1.00  0.00    -0.237 OA
ATOM     90  O   UNL A   1      38.960  36.812  41.743  1.00  0.00    -0.744 OA
ENDBRANCH  86  87
ENDBRANCH  54  79
BRANCH  66  91
ATOM     91  C   UNL A   1      43.936  28.923  36.049  1.00  0.00     0.058 A 
ATOM     92  C   UNL A   1      45.263  29.379  36.032  1.00  0.00     0.135 A 
ATOM     93  C   UNL A   1      43.628  27.833  36.880  1.00  0.00     0.135 A 
ATOM     94  F   UNL A   1      45.611  30.416  35.254  1.00  0.00    -0.206 F 
ATOM     95  C   UNL A   1      46.255  28.756  36.783  1.00  0.00     0.059 A 
ATOM     96  C   UNL A   1      44.598  27.215  37.665  1.00  0.00     0.059 A 
ATOM     97  F   UNL A   1      42.371  27.366  36.948  1.00  0.00    -0.206 F 
ATOM     98  C   UNL A   1      45.912  27.675  37.596  1.00  0.00     0.060 A 
BRANCH  98  99
ATOM     99  S   UNL A   1      47.209  26.883  38.570  1.00  0.00     0.124 S 
ATOM    100  O   UNL A   1      47.895  26.089  37.556  1.00  0.00    -0.237 OA
ATOM    101  O   UNL A   1      47.952  28.029  39.087  1.00  0.00    -0.237 OA
ATOM    102  O   UNL A   1      46.469  26.119  39.570  1.00  0.00    -0.744 OA
ENDBRANCH  98  99
ENDBRANCH  66  91
ENDBRANCH  40  41
ENDBRANCH  33  35
ENDBRANCH  32  33
ENDBRANCH  31  32
ENDBRANCH  30  31
ENDBRANCH  29  30
ENDBRANCH  28  29
ENDBRANCH   1  28
TORSDOF 24
ENDMDL
MODEL 2
REMARK VINA RESULT:      -9.3      3.046      3.723
REMARK SMILES Cc1c(Cl)cc2c(c1C)O[C@H](C(F)(F)F)C(C(=O)OCCOCCOCCOCCOC(=O)c1ccc(-c3c4nc(c(-c5c(F)cc(S(=O)(=O)[O-])cc5F)c5ccc([nH]5)c(-c5c(F)cc(S(=O)(=O)[O-])cc5F)c5nc(c(-c6c(F)cc(S(=O)(=O)[O-])cc6F)c6ccc3[nH]6)C=C5)C=C4)cc1)=C2
REMARK SMILES IDX 26 1 25 2 24 3 23 4 22 5 21 6 20 7 19 8 17 9 18 10 16 11
REMARK SMILES IDX 1 12 2 13 3 14 8 15 4 16 5 17 7 18 9 19 6 20 10 21 100 22
REMARK SMILES IDX 11 23 12 24 13 25 14 26 15 27 27 28 28 29 29 30 30 31 31 32
REMARK SMILES IDX 32 33 33 34 34 35 35 36 99 37 36 38 98 39 37 40 38 41 39 42
REMARK SMILES IDX 92 43 40 44 97 45 91 46 93 47 41 48 96 49 90 50 89 51 42 53
REMARK SMILES IDX 76 54 55 55 75 56 56 57 59 58 74 59 94 60 57 61 58 62 73 64
REMARK SMILES IDX 95 65 60 66 43 67 44 68 53 69 45 70 46 71 52 72 54 73 47 74
REMARK SMILES IDX 48 75 49 76 50 77 51 78 77 79 78 80 87 81 79 82 80 83 86 84
REMARK SMILES IDX 88 85 81 86 82 87 83 88 84 89 85 90 61 91 62 92 71 93 63 94
REMARK SMILES IDX 64 95 70 96 72 97 65 98 66 99 67 100 68 101 69 102
REMARK H PARENT 93 52 59 63
REMARK Flexibility Score: inf
ROOT
ATOM      1  C   UNL A   1      33.384  28.253  26.516  1.00  0.00     0.188 C 
ENDROOT
BRANCH   1   2
ATOM      2  O   UNL A   1      32.224  27.502  26.874  1.00  0.00    -0.377 OA
BRANCH   2   3
ATOM      3  C   UNL A   1      31.576  26.775  25.845  1.00  0.00     0.188 C 
BRANCH   3   4
ATOM      4  C   UNL A   1      32.222  26.986  24.463  1.00  0.00     0.188 C 
BRANCH   4   5
ATOM      5  O   UNL A   1      31.386  26.750  23.348  1.00  0.00    -0.376 OA
BRANCH   5   6
ATOM      6  C   UNL A   1      31.162  25.458  22.803  1.00  0.00     0.202 C 
BRANCH   6   7
ATOM      7  C   UNL A   1      31.955  24.169  23.106  1.00  0.00     0.261 C 
BRANCH   7   8
ATOM      8  O   UNL A   1      31.293  23.125  23.814  1.00  0.00    -0.460 OA
BRANCH   8   9
ATOM      9  C   UNL A   1      31.764  22.819  25.034  1.00  0.00     0.338 C 
ATOM     10  O   UNL A   1      31.400  23.277  26.103  1.00  0.00    -0.246 OA
BRANCH   9  11
ATOM     11  C   UNL A   1      32.683  21.671  24.875  1.00  0.00     0.087 C 
ATOM     12  C   UNL A   1      35.584  15.887  25.350  1.00  0.00     0.046 C 
ATOM     13  C   UNL A   1      34.731  17.088  25.026  1.00  0.00    -0.026 A 
ATOM     14  C   UNL A   1      33.327  16.929  25.010  1.00  0.00     0.045 A 
ATOM     15  C   UNL A   1      35.267  18.384  24.824  1.00  0.00    -0.004 A 
ATOM     16  Cl  UNL A   1      32.577  15.378  25.202  1.00  0.00    -0.084 Cl
ATOM     17  C   UNL A   1      32.474  18.025  24.889  1.00  0.00     0.032 A 
ATOM     18  C   UNL A   1      34.385  19.484  24.708  1.00  0.00     0.131 A 
ATOM     19  C   UNL A   1      36.746  18.686  24.773  1.00  0.00     0.049 C 
ATOM     20  C   UNL A   1      33.005  19.308  24.797  1.00  0.00     0.019 A 
ATOM     21  O   UNL A   1      34.958  20.715  24.530  1.00  0.00    -0.475 OA
ATOM     22  C   UNL A   1      32.125  20.456  24.899  1.00  0.00     0.027 C 
ATOM     23  C   UNL A   1      34.148  21.918  24.629  1.00  0.00     0.316 C 
BRANCH  23  24
ATOM     24  C   UNL A   1      34.775  22.824  25.698  1.00  0.00     0.430 C 
ATOM     25  F   UNL A   1      34.354  22.482  26.938  1.00  0.00    -0.167 F 
ATOM     26  F   UNL A   1      36.124  22.747  25.702  1.00  0.00    -0.167 F 
ATOM     27  F   UNL A   1      34.443  24.122  25.501  1.00  0.00    -0.167 F 
ENDBRANCH  23  24
ENDBRANCH   9  11
ENDBRANCH   8   9
ENDBRANCH   7   8
ENDBRANCH   6   7
ENDBRANCH   5   6
ENDBRANCH   4   5
ENDBRANCH   3   4
ENDBRANCH   2   3
ENDBRANCH   1   2
BRANCH   1  28
ATOM     28  C   UNL A   1      33.275  29.761  26.182  1.00  0.00     0.188 C 
BRANCH  28  29
ATOM     29  O   UNL A   1      32.739  30.555  27.234  1.00  0.00    -0.376 OA
BRANCH  29  30
ATOM     30  C   UNL A   1      31.808  31.571  26.895  1.00  0.00     0.202 C 
BRANCH  30  31
ATOM     31  C   UNL A   1      32.247  33.010  27.200  1.00  0.00     0.261 C 
BRANCH  31  32
ATOM     32  O   UNL A   1      33.375  33.139  28.078  1.00  0.00    -0.460 OA
BRANCH  32  33
ATOM     33  C   UNL A   1      33.410  34.228  28.875  1.00  0.00     0.338 C 
ATOM     34  O   UNL A   1      32.678  35.203  28.820  1.00  0.00    -0.246 OA
BRANCH  33  35
ATOM     35  C   UNL A   1      34.361  33.955  29.970  1.00  0.00     0.060 A 
ATOM     36  C   UNL A   1      34.724  35.001  30.829  1.00  0.00     0.016 A 
ATOM     37  C   UNL A   1      34.894  32.676  30.143  1.00  0.00     0.016 A 
ATOM     38  C   UNL A   1      35.661  34.782  31.836  1.00  0.00     0.010 A 
ATOM     39  C   UNL A   1      35.855  32.463  31.134  1.00  0.00     0.010 A 
ATOM     40  C   UNL A   1      36.272  33.527  31.956  1.00  0.00    -0.014 A 
BRANCH  40  41
ATOM     41  C   UNL A   1      37.518  33.396  32.748  1.00  0.00     0.031 A 
ATOM     42  C   UNL A   1      38.813  33.260  31.993  1.00  0.00     0.074 A 
ATOM     43  C   UNL A   1      37.512  33.432  34.091  1.00  0.00     0.049 A 
ATOM     44  N   UNL A   1      40.022  33.059  32.445  1.00  0.00    -0.248 NA
ATOM     45  C   UNL A   1      38.730  33.367  30.525  1.00  0.00     0.031 C 
ATOM     46  C   UNL A   1      36.331  33.628  34.929  1.00  0.00     0.029 A 
ATOM     47  N   UNL A   1      38.543  33.295  34.987  1.00  0.00    -0.354 N 
ATOM     48  C   UNL A   1      40.841  33.013  31.323  1.00  0.00     0.074 A 
ATOM     49  C   UNL A   1      39.990  33.176  30.166  1.00  0.00     0.031 C 
ATOM     50  C   UNL A   1      36.704  33.591  36.221  1.00  0.00     0.029 A 
ATOM     51  C   UNL A   1      38.140  33.328  36.301  1.00  0.00     0.049 A 
ATOM     52  H   UNL A   1      39.482  33.185  34.714  1.00  0.00     0.167 HD
ATOM     53  C   UNL A   1      42.184  32.858  31.262  1.00  0.00     0.037 A 
ATOM     54  C   UNL A   1      38.850  33.141  37.432  1.00  0.00     0.037 A 
ATOM     55  C   UNL A   1      43.023  32.689  32.417  1.00  0.00     0.049 A 
ATOM     56  C   UNL A   1      40.331  32.869  37.336  1.00  0.00     0.074 A 
ATOM     57  C   UNL A   1      44.395  32.514  32.465  1.00  0.00     0.029 A 
ATOM     58  N   UNL A   1      42.572  32.670  33.729  1.00  0.00    -0.354 N 
ATOM     59  N   UNL A   1      41.095  32.814  36.268  1.00  0.00    -0.248 NA
ATOM     60  C   UNL A   1      41.047  32.630  38.596  1.00  0.00     0.031 C 
ATOM     61  C   UNL A   1      44.766  32.336  33.801  1.00  0.00     0.029 A 
ATOM     62  C   UNL A   1      43.634  32.460  34.591  1.00  0.00     0.049 A 
ATOM     63  H   UNL A   1      41.635  32.788  34.005  1.00  0.00     0.167 HD
ATOM     64  C   UNL A   1      42.382  32.555  36.732  1.00  0.00     0.074 A 
ATOM     65  C   UNL A   1      42.296  32.486  38.176  1.00  0.00     0.031 C 
ATOM     66  C   UNL A   1      43.530  32.387  36.027  1.00  0.00     0.037 A 
BRANCH  53  67
ATOM     67  C   UNL A   1      42.823  32.839  29.903  1.00  0.00     0.058 A 
ATOM     68  C   UNL A   1      43.179  34.022  29.236  1.00  0.00     0.135 A 
ATOM     69  C   UNL A   1      43.124  31.619  29.275  1.00  0.00     0.135 A 
ATOM     70  F   UNL A   1      42.889  35.217  29.778  1.00  0.00    -0.206 F 
ATOM     71  C   UNL A   1      43.799  33.998  27.991  1.00  0.00     0.059 A 
ATOM     72  C   UNL A   1      43.769  31.570  28.044  1.00  0.00     0.059 A 
ATOM     73  F   UNL A   1      42.795  30.458  29.863  1.00  0.00    -0.206 F 
ATOM     74  C   UNL A   1      44.097  32.765  27.406  1.00  0.00     0.060 A 
BRANCH  74  75
ATOM     75  S   UNL A   1      44.928  32.754  25.804  1.00  0.00     0.124 S 
ATOM     76  O   UNL A   1      45.576  31.446  25.821  1.00  0.00    -0.237 OA
ATOM     77  O   UNL A   1      43.811  32.897  24.876  1.00  0.00    -0.237 OA
ATOM     78  O   UNL A   1      45.830  33.899  25.879  1.00  0.00    -0.744 OA
ENDBRANCH  74  75
ENDBRANCH  53  67
BRANCH  54  79
ATOM     79  C   UNL A   1      38.171  33.188  38.756  1.00  0.00     0.058 A 
ATOM     80  C   UNL A   1      37.400  32.110  39.214  1.00  0.00     0.135 A 
ATOM     81  C   UNL A   1      38.275  34.314  39.588  1.00  0.00     0.135 A 
ATOM     82  F   UNL A   1      37.254  31.018  38.447  1.00  0.00    -0.206 F 
ATOM     83  C   UNL A   1      36.754  32.145  40.446  1.00  0.00     0.059 A 
ATOM     84  C   UNL A   1      37.662  34.362  40.837  1.00  0.00     0.059 A 
ATOM     85  F   UNL A   1      39.001  35.374  39.200  1.00  0.00    -0.206 F 
ATOM     86  C   UNL A   1      36.899  33.273  41.254  1.00  0.00     0.060 A 
BRANCH  86  87
ATOM     87  S   UNL A   1      36.104  33.280  42.877  1.00  0.00     0.124 S 
ATOM     88  O   UNL A   1      34.694  33.189  42.516  1.00  0.00    -0.237 OA
ATOM     89  O   UNL A   1      36.682  32.093  43.500  1.00  0.00    -0.237 OA
ATOM     90  O   UNL A   1      36.527  34.552  43.454  1.00  0.00    -0.744 OA
ENDBRANCH  86  87
ENDBRANCH  54  79
BRANCH  66  91
ATOM     91  C   UNL A   1      44.793  32.128  36.807  1.00  0.00     0.058 A 
ATOM     92  C   UNL A   1      45.638  33.174  37.208  1.00  0.00     0.135 A 
ATOM     93  C   UNL A   1      45.134  30.823  37.200  1.00  0.00     0.135 A 
ATOM     94  F   UNL A   1      45.360  34.439  36.859  1.00  0.00    -0.206 F 
ATOM     95  C   UNL A   1      46.797  32.932  37.940  1.00  0.00     0.059 A 
ATOM     96  C   UNL A   1      46.270  30.561  37.961  1.00  0.00     0.059 A 
ATOM     97  F   UNL A   1      44.352  29.786  36.860  1.00  0.00    -0.206 F 
ATOM     98  C   UNL A   1      47.104  31.622  38.311  1.00  0.00     0.060 A 
BRANCH  98  99
ATOM     99  S   UNL A   1      48.606  31.327  39.267  1.00  0.00     0.124 S 
ATOM    100  O   UNL A   1      49.565  32.185  38.580  1.00  0.00    -0.237 OA
ATOM    101  O   UNL A   1      48.213  31.759  40.605  1.00  0.00    -0.237 OA
ATOM    102  O   UNL A   1      48.831  29.892  39.118  1.00  0.00    -0.744 OA
ENDBRANCH  98  99
ENDBRANCH  66  91
ENDBRANCH  40  41
ENDBRANCH  33  35
ENDBRANCH  32  33
ENDBRANCH  31  32
ENDBRANCH  30  31
ENDBRANCH  29  30
ENDBRANCH  28  29
ENDBRANCH   1  28
TORSDOF 24
ENDMDL
MODEL 3
REMARK VINA RESULT:      -9.3      2.920      9.534
REMARK SMILES Cc1c(Cl)cc2c(c1C)O[C@H](C(F)(F)F)C(C(=O)OCCOCCOCCOCCOC(=O)c1ccc(-c3c4nc(c(-c5c(F)cc(S(=O)(=O)[O-])cc5F)c5ccc([nH]5)c(-c5c(F)cc(S(=O)(=O)[O-])cc5F)c5nc(c(-c6c(F)cc(S(=O)(=O)[O-])cc6F)c6ccc3[nH]6)C=C5)C=C4)cc1)=C2
REMARK SMILES IDX 26 1 25 2 24 3 23 4 22 5 21 6 20 7 19 8 17 9 18 10 16 11
REMARK SMILES IDX 1 12 2 13 3 14 8 15 4 16 5 17 7 18 9 19 6 20 10 21 100 22
REMARK SMILES IDX 11 23 12 24 13 25 14 26 15 27 27 28 28 29 29 30 30 31 31 32
REMARK SMILES IDX 32 33 33 34 34 35 35 36 99 37 36 38 98 39 37 40 38 41 39 42
REMARK SMILES IDX 92 43 40 44 97 45 91 46 93 47 41 48 96 49 90 50 89 51 42 53
REMARK SMILES IDX 76 54 55 55 75 56 56 57 59 58 74 59 94 60 57 61 58 62 73 64
REMARK SMILES IDX 95 65 60 66 43 67 44 68 53 69 45 70 46 71 52 72 54 73 47 74
REMARK SMILES IDX 48 75 49 76 50 77 51 78 77 79 78 80 87 81 79 82 80 83 86 84
REMARK SMILES IDX 88 85 81 86 82 87 83 88 84 89 85 90 61 91 62 92 71 93 63 94
REMARK SMILES IDX 64 95 70 96 72 97 65 98 66 99 67 100 68 101 69 102
REMARK H PARENT 93 52 59 63
REMARK Flexibility Score: inf
ROOT
ATOM      1  C   UNL A   1      41.855  19.871  26.415  1.00  0.00     0.188 C 
ENDROOT
BRANCH   1   2
ATOM      2  O   UNL A   1      40.900  19.214  25.582  1.00  0.00    -0.377 OA
BRANCH   2   3
ATOM      3  C   UNL A   1      39.531  19.495  25.814  1.00  0.00     0.188 C 
BRANCH   3   4
ATOM      4  C   UNL A   1      39.242  21.002  25.948  1.00  0.00     0.188 C 
BRANCH   4   5
ATOM      5  O   UNL A   1      38.168  21.496  25.173  1.00  0.00    -0.376 OA
BRANCH   5   6
ATOM      6  C   UNL A   1      36.894  20.872  25.123  1.00  0.00     0.202 C 
BRANCH   6   7
ATOM      7  C   UNL A   1      35.550  21.456  25.606  1.00  0.00     0.261 C 
BRANCH   7   8
ATOM      8  O   UNL A   1      34.566  21.773  24.628  1.00  0.00    -0.460 OA
BRANCH   8   9
ATOM      9  C   UNL A   1      33.280  21.725  25.014  1.00  0.00     0.338 C 
ATOM     10  O   UNL A   1      32.764  20.915  25.763  1.00  0.00    -0.246 OA
BRANCH   9  11
ATOM     11  C   UNL A   1      32.625  22.955  24.519  1.00  0.00     0.087 C 
ATOM     12  C   UNL A   1      31.339  29.072  22.779  1.00  0.00     0.046 C 
ATOM     13  C   UNL A   1      31.764  27.630  22.897  1.00  0.00    -0.026 A 
ATOM     14  C   UNL A   1      33.086  27.288  22.535  1.00  0.00     0.045 A 
ATOM     15  C   UNL A   1      30.928  26.620  23.436  1.00  0.00    -0.004 A 
ATOM     16  Cl  UNL A   1      34.170  28.440  21.826  1.00  0.00    -0.084 Cl
ATOM     17  C   UNL A   1      33.599  26.015  22.778  1.00  0.00     0.032 A 
ATOM     18  C   UNL A   1      31.469  25.335  23.680  1.00  0.00     0.131 A 
ATOM     19  C   UNL A   1      29.484  26.838  23.821  1.00  0.00     0.049 C 
ATOM     20  C   UNL A   1      32.807  25.057  23.405  1.00  0.00     0.019 A 
ATOM     21  O   UNL A   1      30.621  24.403  24.216  1.00  0.00    -0.475 OA
ATOM     22  C   UNL A   1      33.406  23.818  23.859  1.00  0.00     0.027 C 
ATOM     23  C   UNL A   1      31.143  23.139  24.708  1.00  0.00     0.316 C 
BRANCH  23  24
ATOM     24  C   UNL A   1      30.720  22.991  26.176  1.00  0.00     0.430 C 
ATOM     25  F   UNL A   1      31.788  23.065  27.004  1.00  0.00    -0.167 F 
ATOM     26  F   UNL A   1      29.856  23.959  26.556  1.00  0.00    -0.167 F 
ATOM     27  F   UNL A   1      30.117  21.799  26.398  1.00  0.00    -0.167 F 
ENDBRANCH  23  24
ENDBRANCH   9  11
ENDBRANCH   8   9
ENDBRANCH   7   8
ENDBRANCH   6   7
ENDBRANCH   5   6
ENDBRANCH   4   5
ENDBRANCH   3   4
ENDBRANCH   2   3
ENDBRANCH   1   2
BRANCH   1  28
ATOM     28  C   UNL A   1      43.175  20.418  25.822  1.00  0.00     0.188 C 
BRANCH  28  29
ATOM     29  O   UNL A   1      43.352  21.821  25.983  1.00  0.00    -0.376 OA
BRANCH  29  30
ATOM     30  C   UNL A   1      43.394  22.626  24.816  1.00  0.00     0.202 C 
BRANCH  30  31
ATOM     31  C   UNL A   1      44.030  24.014  24.983  1.00  0.00     0.261 C 
BRANCH  31  32
ATOM     32  O   UNL A   1      43.462  24.834  26.015  1.00  0.00    -0.460 OA
BRANCH  32  33
ATOM     33  C   UNL A   1      44.278  25.198  27.028  1.00  0.00     0.338 C 
ATOM     34  O   UNL A   1      45.449  24.889  27.175  1.00  0.00    -0.246 OA
BRANCH  33  35
ATOM     35  C   UNL A   1      43.570  26.210  27.836  1.00  0.00     0.060 A 
ATOM     36  C   UNL A   1      43.753  27.566  27.535  1.00  0.00     0.016 A 
ATOM     37  C   UNL A   1      42.735  25.821  28.886  1.00  0.00     0.016 A 
ATOM     38  C   UNL A   1      43.139  28.542  28.316  1.00  0.00     0.010 A 
ATOM     39  C   UNL A   1      42.143  26.800  29.687  1.00  0.00     0.010 A 
ATOM     40  C   UNL A   1      42.378  28.163  29.430  1.00  0.00    -0.014 A 
BRANCH  40  41
ATOM     41  C   UNL A   1      42.053  29.172  30.467  1.00  0.00     0.031 A 
ATOM     42  C   UNL A   1      42.978  29.280  31.649  1.00  0.00     0.074 A 
ATOM     43  C   UNL A   1      40.993  29.990  30.352  1.00  0.00     0.049 A 
ATOM     44  N   UNL A   1      42.878  30.023  32.718  1.00  0.00    -0.248 NA
ATOM     45  C   UNL A   1      44.184  28.434  31.615  1.00  0.00     0.031 C 
ATOM     46  C   UNL A   1      40.066  30.026  29.223  1.00  0.00     0.029 A 
ATOM     47  N   UNL A   1      40.516  30.949  31.211  1.00  0.00    -0.354 N 
ATOM     48  C   UNL A   1      44.001  29.734  33.484  1.00  0.00     0.074 A 
ATOM     49  C   UNL A   1      44.754  28.725  32.774  1.00  0.00     0.031 C 
ATOM     50  C   UNL A   1      39.125  30.956  29.463  1.00  0.00     0.029 A 
ATOM     51  C   UNL A   1      39.359  31.552  30.778  1.00  0.00     0.049 A 
ATOM     52  H   UNL A   1      40.962  31.184  32.056  1.00  0.00     0.167 HD
ATOM     53  C   UNL A   1      44.375  30.268  34.670  1.00  0.00     0.037 A 
ATOM     54  C   UNL A   1      38.571  32.459  31.388  1.00  0.00     0.037 A 
ATOM     55  C   UNL A   1      43.617  31.265  35.374  1.00  0.00     0.049 A 
ATOM     56  C   UNL A   1      38.955  32.967  32.757  1.00  0.00     0.074 A 
ATOM     57  C   UNL A   1      43.903  31.865  36.588  1.00  0.00     0.029 A 
ATOM     58  N   UNL A   1      42.420  31.809  34.932  1.00  0.00    -0.354 N 
ATOM     59  N   UNL A   1      40.013  32.676  33.480  1.00  0.00    -0.248 NA
ATOM     60  C   UNL A   1      38.039  33.922  33.393  1.00  0.00     0.031 C 
ATOM     61  C   UNL A   1      42.853  32.732  36.904  1.00  0.00     0.029 A 
ATOM     62  C   UNL A   1      41.941  32.718  35.860  1.00  0.00     0.049 A 
ATOM     63  H   UNL A   1      41.976  31.582  34.083  1.00  0.00     0.167 HD
ATOM     64  C   UNL A   1      39.897  33.428  34.646  1.00  0.00     0.074 A 
ATOM     65  C   UNL A   1      38.678  34.202  34.521  1.00  0.00     0.031 C 
ATOM     66  C   UNL A   1      40.721  33.474  35.723  1.00  0.00     0.037 A 
BRANCH  53  67
ATOM     67  C   UNL A   1      45.648  29.765  35.291  1.00  0.00     0.058 A 
ATOM     68  C   UNL A   1      45.659  28.669  36.169  1.00  0.00     0.135 A 
ATOM     69  C   UNL A   1      46.879  30.359  34.970  1.00  0.00     0.135 A 
ATOM     70  F   UNL A   1      44.506  28.081  36.531  1.00  0.00    -0.206 F 
ATOM     71  C   UNL A   1      46.843  28.188  36.716  1.00  0.00     0.059 A 
ATOM     72  C   UNL A   1      48.078  29.877  35.484  1.00  0.00     0.059 A 
ATOM     73  F   UNL A   1      46.924  31.417  34.145  1.00  0.00    -0.206 F 
ATOM     74  C   UNL A   1      48.050  28.795  36.361  1.00  0.00     0.060 A 
BRANCH  74  75
ATOM     75  S   UNL A   1      49.579  28.137  37.059  1.00  0.00     0.124 S 
ATOM     76  O   UNL A   1      49.202  26.755  37.339  1.00  0.00    -0.237 OA
ATOM     77  O   UNL A   1      50.525  28.326  35.963  1.00  0.00    -0.237 OA
ATOM     78  O   UNL A   1      49.806  28.973  38.233  1.00  0.00    -0.744 OA
ENDBRANCH  74  75
ENDBRANCH  53  67
BRANCH  54  79
ATOM     79  C   UNL A   1      37.330  32.939  30.722  1.00  0.00     0.058 A 
ATOM     80  C   UNL A   1      37.378  33.912  29.712  1.00  0.00     0.135 A 
ATOM     81  C   UNL A   1      36.069  32.436  31.081  1.00  0.00     0.135 A 
ATOM     82  F   UNL A   1      38.557  34.437  29.346  1.00  0.00    -0.206 F 
ATOM     83  C   UNL A   1      36.224  34.374  29.087  1.00  0.00     0.059 A 
ATOM     84  C   UNL A   1      34.903  32.861  30.451  1.00  0.00     0.059 A 
ATOM     85  F   UNL A   1      35.964  31.503  32.040  1.00  0.00    -0.206 F 
ATOM     86  C   UNL A   1      34.991  33.835  29.458  1.00  0.00     0.060 A 
BRANCH  86  87
ATOM     87  S   UNL A   1      33.508  34.401  28.594  1.00  0.00     0.124 S 
ATOM     88  O   UNL A   1      32.607  34.678  29.706  1.00  0.00    -0.237 OA
ATOM     89  O   UNL A   1      34.007  35.565  27.870  1.00  0.00    -0.237 OA
ATOM     90  O   UNL A   1      33.149  33.258  27.759  1.00  0.00    -0.744 OA
ENDBRANCH  86  87
ENDBRANCH  54  79
BRANCH  66  91
ATOM     91  C   UNL A   1      40.345  34.403  36.848  1.00  0.00     0.058 A 
ATOM     92  C   UNL A   1      40.785  35.735  36.883  1.00  0.00     0.135 A 
ATOM     93  C   UNL A   1      39.493  33.968  37.877  1.00  0.00     0.135 A 
ATOM     94  F   UNL A   1      41.602  36.202  35.925  1.00  0.00    -0.206 F 
ATOM     95  C   UNL A   1      40.424  36.593  37.917  1.00  0.00     0.059 A 
ATOM     96  C   UNL A   1      39.091  34.819  38.904  1.00  0.00     0.059 A 
ATOM     97  F   UNL A   1      39.026  32.709  37.885  1.00  0.00    -0.206 F 
ATOM     98  C   UNL A   1      39.577  36.125  38.922  1.00  0.00     0.060 A 
BRANCH  98  99
ATOM     99  S   UNL A   1      39.113  37.254  40.252  1.00  0.00     0.124 S 
ATOM    100  O   UNL A   1      38.347  36.376  41.130  1.00  0.00    -0.237 OA
ATOM    101  O   UNL A   1      40.411  37.686  40.761  1.00  0.00    -0.237 OA
ATOM    102  O   UNL A   1      38.338  38.287  39.569  1.00  0.00    -0.744 OA
ENDBRANCH  98  99
ENDBRANCH  66  91
ENDBRANCH  40  41
ENDBRANCH  33  35
ENDBRANCH  32  33
ENDBRANCH  31  32
ENDBRANCH  30  31
ENDBRANCH  29  30
ENDBRANCH  28  29
ENDBRANCH   1  28
TORSDOF 24
ENDMDL
