MODEL 1
REMARK VINA RESULT:      -9.4      0.000      0.000
REMARK SMILES C[C@]1(C(=O)OCCOCCOCCOCCOC(=O)c2ccc(-c3c4nc(c(-c5c(F)cc(S(=O)(=O)[O-])cc5F)c5ccc([nH]5)c(-c5c(F)cc(S(=O)(=O)[O-])cc5F)c5nc(c(-c6c(F)cc(S(=O)(=O)[O-])cc6F)c6ccc3[nH]6)C=C5)C=C4)cc2)CCN(c2ccc([N+](=O)[O-])c(N)n2)C1
REMARK SMILES IDX 12 1 11 2 10 3 9 4 8 5 7 6 6 7 5 8 3 9 4 10 2 11 1 12 86 13
REMARK SMILES IDX 99 14 87 15 88 16 89 17 90 18 98 19 91 20 96 21 92 22 97 23
REMARK SMILES IDX 93 26 94 27 95 28 13 29 14 30 15 31 16 32 17 33 18 34 19 35
REMARK SMILES IDX 20 36 21 37 85 38 22 39 84 40 23 41 24 42 25 43 78 44 26 45
REMARK SMILES IDX 83 46 77 47 79 48 27 49 82 50 76 51 75 52 28 54 62 55 41 56
REMARK SMILES IDX 61 57 42 58 45 59 60 60 80 61 43 62 44 63 59 65 81 66 46 67
REMARK SMILES IDX 29 68 30 69 39 70 31 71 32 72 38 73 40 74 33 75 34 76 35 77
REMARK SMILES IDX 36 78 37 79 63 80 64 81 73 82 65 83 66 84 72 85 74 86 67 87
REMARK SMILES IDX 68 88 69 89 70 90 71 91 47 92 48 93 57 94 49 95 50 96 56 97
REMARK SMILES IDX 58 98 51 99 52 100 53 101 54 102 55 103
REMARK H PARENT 97 24 97 25 79 53 45 64
REMARK Flexibility Score: inf
ROOT
ATOM      1  C   UNL A   1      39.843  23.363  26.788  1.00  0.00     0.188 C 
ENDROOT
BRANCH   1   2
ATOM      2  O   UNL A   1      38.793  24.196  26.317  1.00  0.00    -0.377 OA
BRANCH   2   3
ATOM      3  C   UNL A   1      37.498  23.634  26.408  1.00  0.00     0.188 C 
BRANCH   3   4
ATOM      4  C   UNL A   1      36.737  23.549  25.064  1.00  0.00     0.188 C 
BRANCH   4   5
ATOM      5  O   UNL A   1      36.689  22.354  24.292  1.00  0.00    -0.376 OA
BRANCH   5   6
ATOM      6  C   UNL A   1      36.022  21.199  24.774  1.00  0.00     0.202 C 
BRANCH   6   7
ATOM      7  C   UNL A   1      34.653  21.318  25.457  1.00  0.00     0.261 C 
BRANCH   7   8
ATOM      8  O   UNL A   1      33.721  22.252  24.893  1.00  0.00    -0.463 OA
BRANCH   8   9
ATOM      9  C   UNL A   1      32.419  22.106  25.244  1.00  0.00     0.313 C 
ATOM     10  O   UNL A   1      31.807  21.044  25.184  1.00  0.00    -0.252 OA
BRANCH   9  11
ATOM     11  C   UNL A   1      31.780  23.404  25.734  1.00  0.00     0.084 C 
ATOM     12  C   UNL A   1      30.816  23.012  26.864  1.00  0.00     0.026 C 
ATOM     13  C   UNL A   1      32.793  24.446  26.254  1.00  0.00     0.042 C 
ATOM     14  C   UNL A   1      31.036  24.172  24.634  1.00  0.00     0.136 C 
ATOM     15  C   UNL A   1      32.161  25.823  25.986  1.00  0.00     0.119 C 
ATOM     16  N   UNL A   1      31.024  25.542  25.133  1.00  0.00    -0.355 N 
BRANCH  16  17
ATOM     17  C   UNL A   1      30.368  26.521  24.424  1.00  0.00     0.131 A 
ATOM     18  C   UNL A   1      28.994  26.404  24.228  1.00  0.00     0.054 A 
ATOM     19  N   UNL A   1      31.053  27.584  23.939  1.00  0.00    -0.207 NA
ATOM     20  C   UNL A   1      28.303  27.385  23.530  1.00  0.00     0.093 A 
ATOM     21  C   UNL A   1      30.398  28.520  23.203  1.00  0.00     0.204 A 
ATOM     22  C   UNL A   1      29.020  28.460  23.007  1.00  0.00     0.311 A 
BRANCH  21  23
ATOM     23  N   UNL A   1      31.202  29.553  22.753  1.00  0.00    -0.378 N 
ATOM     24  H   UNL A   1      30.838  30.226  22.134  1.00  0.00     0.158 HD
ATOM     25  H   UNL A   1      32.138  29.615  23.052  1.00  0.00     0.158 HD
ENDBRANCH  21  23
BRANCH  22  26
ATOM     26  N   UNL A   1      28.301  29.488  22.267  1.00  0.00     0.066 N 
ATOM     27  O   UNL A   1      28.802  29.877  21.200  1.00  0.00    -0.258 OA
ATOM     28  O   UNL A   1      27.239  29.925  22.738  1.00  0.00    -0.258 OA
ENDBRANCH  22  26
ENDBRANCH  16  17
ENDBRANCH   9  11
ENDBRANCH   8   9
ENDBRANCH   7   8
ENDBRANCH   6   7
ENDBRANCH   5   6
ENDBRANCH   4   5
ENDBRANCH   3   4
ENDBRANCH   2   3
ENDBRANCH   1   2
BRANCH   1  29
ATOM     29  C   UNL A   1      39.751  21.872  26.406  1.00  0.00     0.188 C 
BRANCH  29  30
ATOM     30  O   UNL A   1      41.027  21.260  26.239  1.00  0.00    -0.376 OA
BRANCH  30  31
ATOM     31  C   UNL A   1      41.196  19.935  26.719  1.00  0.00     0.202 C 
BRANCH  31  32
ATOM     32  C   UNL A   1      42.027  18.993  25.835  1.00  0.00     0.261 C 
BRANCH  32  33
ATOM     33  O   UNL A   1      43.451  19.163  25.889  1.00  0.00    -0.460 OA
BRANCH  33  34
ATOM     34  C   UNL A   1      44.071  19.661  24.791  1.00  0.00     0.338 C 
ATOM     35  O   UNL A   1      44.170  19.128  23.710  1.00  0.00    -0.246 OA
BRANCH  34  36
ATOM     36  C   UNL A   1      44.408  21.078  25.084  1.00  0.00     0.060 A 
ATOM     37  C   UNL A   1      44.632  21.455  26.415  1.00  0.00     0.016 A 
ATOM     38  C   UNL A   1      44.566  22.007  24.054  1.00  0.00     0.016 A 
ATOM     39  C   UNL A   1      45.023  22.762  26.718  1.00  0.00     0.010 A 
ATOM     40  C   UNL A   1      44.923  23.325  24.363  1.00  0.00     0.010 A 
ATOM     41  C   UNL A   1      45.143  23.712  25.697  1.00  0.00    -0.014 A 
BRANCH  41  42
ATOM     42  C   UNL A   1      45.354  25.143  26.028  1.00  0.00     0.031 A 
ATOM     43  C   UNL A   1      46.745  25.706  25.920  1.00  0.00     0.074 A 
ATOM     44  C   UNL A   1      44.336  25.928  26.426  1.00  0.00     0.049 A 
ATOM     45  N   UNL A   1      47.188  26.893  26.243  1.00  0.00    -0.248 NA
ATOM     46  C   UNL A   1      47.774  24.806  25.374  1.00  0.00     0.031 C 
ATOM     47  C   UNL A   1      42.938  25.512  26.526  1.00  0.00     0.029 A 
ATOM     48  N   UNL A   1      44.327  27.238  26.839  1.00  0.00    -0.354 N 
ATOM     49  C   UNL A   1      48.547  26.881  25.950  1.00  0.00     0.074 A 
ATOM     50  C   UNL A   1      48.859  25.563  25.442  1.00  0.00     0.031 C 
ATOM     51  C   UNL A   1      42.210  26.541  26.996  1.00  0.00     0.029 A 
ATOM     52  C   UNL A   1      43.096  27.673  27.269  1.00  0.00     0.049 A 
ATOM     53  H   UNL A   1      45.127  27.812  26.827  1.00  0.00     0.167 HD
ATOM     54  C   UNL A   1      49.450  27.879  26.092  1.00  0.00     0.037 A 
ATOM     55  C   UNL A   1      42.734  28.836  27.850  1.00  0.00     0.037 A 
ATOM     56  C   UNL A   1      49.132  29.186  26.608  1.00  0.00     0.049 A 
ATOM     57  C   UNL A   1      43.776  29.903  28.081  1.00  0.00     0.074 A 
ATOM     58  C   UNL A   1      49.973  30.274  26.766  1.00  0.00     0.029 A 
ATOM     59  N   UNL A   1      47.882  29.578  27.064  1.00  0.00    -0.354 N 
ATOM     60  N   UNL A   1      45.051  29.893  27.768  1.00  0.00    -0.248 NA
ATOM     61  C   UNL A   1      43.333  31.136  28.747  1.00  0.00     0.031 C 
ATOM     62  C   UNL A   1      49.247  31.301  27.379  1.00  0.00     0.029 A 
ATOM     63  C   UNL A   1      47.937  30.877  27.543  1.00  0.00     0.049 A 
ATOM     64  H   UNL A   1      47.074  29.015  27.051  1.00  0.00     0.167 HD
ATOM     65  C   UNL A   1      45.555  31.124  28.183  1.00  0.00     0.074 A 
ATOM     66  C   UNL A   1      44.444  31.860  28.747  1.00  0.00     0.031 C 
ATOM     67  C   UNL A   1      46.824  31.600  28.105  1.00  0.00     0.037 A 
BRANCH  54  68
ATOM     68  C   UNL A   1      50.877  27.590  25.718  1.00  0.00     0.058 A 
ATOM     69  C   UNL A   1      51.335  27.699  24.396  1.00  0.00     0.135 A 
ATOM     70  C   UNL A   1      51.812  27.245  26.708  1.00  0.00     0.135 A 
ATOM     71  F   UNL A   1      50.481  28.006  23.406  1.00  0.00    -0.206 F 
ATOM     72  C   UNL A   1      52.665  27.457  24.065  1.00  0.00     0.059 A 
ATOM     73  C   UNL A   1      53.153  27.028  26.406  1.00  0.00     0.059 A 
ATOM     74  F   UNL A   1      51.426  27.122  27.988  1.00  0.00    -0.206 F 
ATOM     75  C   UNL A   1      53.567  27.126  25.078  1.00  0.00     0.060 A 
BRANCH  75  76
ATOM     76  S   UNL A   1      55.292  26.835  24.634  1.00  0.00     0.124 S 
ATOM     77  O   UNL A   1      55.475  25.453  25.066  1.00  0.00    -0.237 OA
ATOM     78  O   UNL A   1      55.281  27.050  23.190  1.00  0.00    -0.237 OA
ATOM     79  O   UNL A   1      56.019  27.835  25.409  1.00  0.00    -0.744 OA
ENDBRANCH  75  76
ENDBRANCH  54  68
BRANCH  55  80
ATOM     80  C   UNL A   1      41.327  29.044  28.294  1.00  0.00     0.058 A 
ATOM     81  C   UNL A   1      40.975  28.989  29.651  1.00  0.00     0.135 A 
ATOM     82  C   UNL A   1      40.303  29.292  27.365  1.00  0.00     0.135 A 
ATOM     83  F   UNL A   1      41.912  28.738  30.577  1.00  0.00    -0.206 F 
ATOM     84  C   UNL A   1      39.659  29.160  30.071  1.00  0.00     0.059 A 
ATOM     85  C   UNL A   1      38.985  29.494  27.763  1.00  0.00     0.059 A 
ATOM     86  F   UNL A   1      40.584  29.360  26.054  1.00  0.00    -0.206 F 
ATOM     87  C   UNL A   1      38.671  29.418  29.119  1.00  0.00     0.060 A 
BRANCH  87  88
ATOM     88  S   UNL A   1      36.977  29.699  29.679  1.00  0.00     0.124 S 
ATOM     89  O   UNL A   1      36.205  29.132  28.581  1.00  0.00    -0.237 OA
ATOM     90  O   UNL A   1      36.946  28.955  30.934  1.00  0.00    -0.237 OA
ATOM     91  O   UNL A   1      36.907  31.151  29.819  1.00  0.00    -0.744 OA
ENDBRANCH  87  88
ENDBRANCH  55  80
BRANCH  67  92
ATOM     92  C   UNL A   1      47.082  32.989  28.625  1.00  0.00     0.058 A 
ATOM     93  C   UNL A   1      46.929  34.122  27.811  1.00  0.00     0.135 A 
ATOM     94  C   UNL A   1      47.428  33.194  29.973  1.00  0.00     0.135 A 
ATOM     95  F   UNL A   1      46.607  33.985  26.515  1.00  0.00    -0.206 F 
ATOM     96  C   UNL A   1      47.129  35.407  28.307  1.00  0.00     0.059 A 
ATOM     97  C   UNL A   1      47.602  34.472  30.497  1.00  0.00     0.059 A 
ATOM     98  F   UNL A   1      47.577  32.148  30.799  1.00  0.00    -0.206 F 
ATOM     99  C   UNL A   1      47.460  35.572  29.653  1.00  0.00     0.060 A 
BRANCH  99 100
ATOM    100  S   UNL A   1      47.677  37.248  30.290  1.00  0.00     0.124 S 
ATOM    101  O   UNL A   1      46.640  37.975  29.567  1.00  0.00    -0.237 OA
ATOM    102  O   UNL A   1      47.446  37.068  31.721  1.00  0.00    -0.237 OA
ATOM    103  O   UNL A   1      49.049  37.578  29.919  1.00  0.00    -0.744 OA
ENDBRANCH  99 100
ENDBRANCH  67  92
ENDBRANCH  41  42
ENDBRANCH  34  36
ENDBRANCH  33  34
ENDBRANCH  32  33
ENDBRANCH  31  32
ENDBRANCH  30  31
ENDBRANCH  29  30
ENDBRANCH   1  29
TORSDOF 26
ENDMDL
MODEL 2
REMARK VINA RESULT:      -9.4      6.224     10.692
REMARK SMILES C[C@]1(C(=O)OCCOCCOCCOCCOC(=O)c2ccc(-c3c4nc(c(-c5c(F)cc(S(=O)(=O)[O-])cc5F)c5ccc([nH]5)c(-c5c(F)cc(S(=O)(=O)[O-])cc5F)c5nc(c(-c6c(F)cc(S(=O)(=O)[O-])cc6F)c6ccc3[nH]6)C=C5)C=C4)cc2)CCN(c2ccc([N+](=O)[O-])c(N)n2)C1
REMARK SMILES IDX 12 1 11 2 10 3 9 4 8 5 7 6 6 7 5 8 3 9 4 10 2 11 1 12 86 13
REMARK SMILES IDX 99 14 87 15 88 16 89 17 90 18 98 19 91 20 96 21 92 22 97 23
REMARK SMILES IDX 93 26 94 27 95 28 13 29 14 30 15 31 16 32 17 33 18 34 19 35
REMARK SMILES IDX 20 36 21 37 85 38 22 39 84 40 23 41 24 42 25 43 78 44 26 45
REMARK SMILES IDX 83 46 77 47 79 48 27 49 82 50 76 51 75 52 28 54 62 55 41 56
REMARK SMILES IDX 61 57 42 58 45 59 60 60 80 61 43 62 44 63 59 65 81 66 46 67
REMARK SMILES IDX 29 68 30 69 39 70 31 71 32 72 38 73 40 74 33 75 34 76 35 77
REMARK SMILES IDX 36 78 37 79 63 80 64 81 73 82 65 83 66 84 72 85 74 86 67 87
REMARK SMILES IDX 68 88 69 89 70 90 71 91 47 92 48 93 57 94 49 95 50 96 56 97
REMARK SMILES IDX 58 98 51 99 52 100 53 101 54 102 55 103
REMARK H PARENT 97 24 97 25 79 53 45 64
REMARK Flexibility Score: inf
ROOT
ATOM      1  C   UNL A   1      41.125  22.560  27.070  1.00  0.00     0.188 C 
ENDROOT
BRANCH   1   2
ATOM      2  O   UNL A   1      40.321  23.561  26.462  1.00  0.00    -0.377 OA
BRANCH   2   3
ATOM      3  C   UNL A   1      39.038  23.727  27.035  1.00  0.00     0.188 C 
BRANCH   3   4
ATOM      4  C   UNL A   1      37.864  23.329  26.111  1.00  0.00     0.188 C 
BRANCH   4   5
ATOM      5  O   UNL A   1      37.974  22.284  25.150  1.00  0.00    -0.376 OA
BRANCH   5   6
ATOM      6  C   UNL A   1      36.866  21.454  24.844  1.00  0.00     0.202 C 
BRANCH   6   7
ATOM      7  C   UNL A   1      35.548  22.063  24.347  1.00  0.00     0.261 C 
BRANCH   7   8
ATOM      8  O   UNL A   1      34.348  21.665  25.026  1.00  0.00    -0.463 OA
BRANCH   8   9
ATOM      9  C   UNL A   1      33.872  22.511  25.973  1.00  0.00     0.313 C 
ATOM     10  O   UNL A   1      34.494  22.834  26.980  1.00  0.00    -0.252 OA
BRANCH   9  11
ATOM     11  C   UNL A   1      32.472  23.036  25.659  1.00  0.00     0.084 C 
ATOM     12  C   UNL A   1      31.775  21.940  24.838  1.00  0.00     0.026 C 
ATOM     13  C   UNL A   1      31.629  23.365  26.908  1.00  0.00     0.042 C 
ATOM     14  C   UNL A   1      32.476  24.364  24.891  1.00  0.00     0.136 C 
ATOM     15  C   UNL A   1      30.676  24.498  26.492  1.00  0.00     0.119 C 
ATOM     16  N   UNL A   1      31.168  24.931  25.199  1.00  0.00    -0.355 N 
BRANCH  16  17
ATOM     17  C   UNL A   1      30.784  26.117  24.617  1.00  0.00     0.131 A 
ATOM     18  C   UNL A   1      29.514  26.208  24.054  1.00  0.00     0.054 A 
ATOM     19  N   UNL A   1      31.628  27.175  24.610  1.00  0.00    -0.207 NA
ATOM     20  C   UNL A   1      29.092  27.398  23.474  1.00  0.00     0.093 A 
ATOM     21  C   UNL A   1      31.251  28.325  23.993  1.00  0.00     0.204 A 
ATOM     22  C   UNL A   1      29.979  28.473  23.442  1.00  0.00     0.311 A 
BRANCH  21  23
ATOM     23  N   UNL A   1      32.198  29.333  24.041  1.00  0.00    -0.378 N 
ATOM     24  H   UNL A   1      32.172  30.064  23.381  1.00  0.00     0.158 HD
ATOM     25  H   UNL A   1      32.896  29.320  24.735  1.00  0.00     0.158 HD
ENDBRANCH  21  23
BRANCH  22  26
ATOM     26  N   UNL A   1      29.545  29.721  22.829  1.00  0.00     0.066 N 
ATOM     27  O   UNL A   1      29.219  29.684  21.632  1.00  0.00    -0.258 OA
ATOM     28  O   UNL A   1      29.530  30.749  23.523  1.00  0.00    -0.258 OA
ENDBRANCH  22  26
ENDBRANCH  16  17
ENDBRANCH   9  11
ENDBRANCH   8   9
ENDBRANCH   7   8
ENDBRANCH   6   7
ENDBRANCH   5   6
ENDBRANCH   4   5
ENDBRANCH   3   4
ENDBRANCH   2   3
ENDBRANCH   1   2
BRANCH   1  29
ATOM     29  C   UNL A   1      41.758  21.526  26.119  1.00  0.00     0.188 C 
BRANCH  29  30
ATOM     30  O   UNL A   1      42.543  22.123  25.089  1.00  0.00    -0.376 OA
BRANCH  30  31
ATOM     31  C   UNL A   1      43.800  22.675  25.449  1.00  0.00     0.202 C 
BRANCH  31  32
ATOM     32  C   UNL A   1      44.002  24.165  25.133  1.00  0.00     0.261 C 
BRANCH  32  33
ATOM     33  O   UNL A   1      43.701  25.086  26.193  1.00  0.00    -0.460 OA
BRANCH  33  34
ATOM     34  C   UNL A   1      42.718  25.994  25.982  1.00  0.00     0.338 C 
ATOM     35  O   UNL A   1      42.021  26.094  24.999  1.00  0.00    -0.246 OA
BRANCH  34  36
ATOM     36  C   UNL A   1      42.493  26.703  27.269  1.00  0.00     0.060 A 
ATOM     37  C   UNL A   1      41.607  26.144  28.199  1.00  0.00     0.016 A 
ATOM     38  C   UNL A   1      43.197  27.867  27.581  1.00  0.00     0.016 A 
ATOM     39  C   UNL A   1      41.429  26.745  29.448  1.00  0.00     0.010 A 
ATOM     40  C   UNL A   1      42.990  28.488  28.818  1.00  0.00     0.010 A 
ATOM     41  C   UNL A   1      42.098  27.936  29.754  1.00  0.00    -0.014 A 
BRANCH  41  42
ATOM     42  C   UNL A   1      41.760  28.688  30.988  1.00  0.00     0.031 A 
ATOM     43  C   UNL A   1      40.593  29.637  30.953  1.00  0.00     0.074 A 
ATOM     44  C   UNL A   1      42.478  28.540  32.117  1.00  0.00     0.049 A 
ATOM     45  N   UNL A   1      40.168  30.464  31.871  1.00  0.00    -0.248 NA
ATOM     46  C   UNL A   1      39.801  29.653  29.713  1.00  0.00     0.031 C 
ATOM     47  C   UNL A   1      43.600  27.619  32.289  1.00  0.00     0.029 A 
ATOM     48  N   UNL A   1      42.378  29.180  33.328  1.00  0.00    -0.354 N 
ATOM     49  C   UNL A   1      39.066  31.107  31.318  1.00  0.00     0.074 A 
ATOM     50  C   UNL A   1      38.901  30.587  29.979  1.00  0.00     0.031 C 
ATOM     51  C   UNL A   1      44.102  27.772  33.528  1.00  0.00     0.029 A 
ATOM     52  C   UNL A   1      43.364  28.829  34.220  1.00  0.00     0.049 A 
ATOM     53  H   UNL A   1      41.667  29.828  33.538  1.00  0.00     0.167 HD
ATOM     54  C   UNL A   1      38.267  32.045  31.879  1.00  0.00     0.037 A 
ATOM     55  C   UNL A   1      43.659  29.329  35.439  1.00  0.00     0.037 A 
ATOM     56  C   UNL A   1      38.444  32.563  33.211  1.00  0.00     0.049 A 
ATOM     57  C   UNL A   1      42.806  30.437  36.009  1.00  0.00     0.074 A 
ATOM     58  C   UNL A   1      37.671  33.496  33.880  1.00  0.00     0.029 A 
ATOM     59  N   UNL A   1      39.473  32.208  34.072  1.00  0.00    -0.354 N 
ATOM     60  N   UNL A   1      41.746  31.013  35.491  1.00  0.00    -0.248 NA
ATOM     61  C   UNL A   1      43.193  30.967  37.324  1.00  0.00     0.031 C 
ATOM     62  C   UNL A   1      38.269  33.754  35.118  1.00  0.00     0.029 A 
ATOM     63  C   UNL A   1      39.379  32.933  35.249  1.00  0.00     0.049 A 
ATOM     64  H   UNL A   1      40.168  31.539  33.874  1.00  0.00     0.167 HD
ATOM     65  C   UNL A   1      41.330  31.958  36.426  1.00  0.00     0.074 A 
ATOM     66  C   UNL A   1      42.239  31.860  37.549  1.00  0.00     0.031 C 
ATOM     67  C   UNL A   1      40.291  32.829  36.360  1.00  0.00     0.037 A 
BRANCH  54  68
ATOM     68  C   UNL A   1      37.146  32.599  31.044  1.00  0.00     0.058 A 
ATOM     69  C   UNL A   1      35.823  32.152  31.186  1.00  0.00     0.135 A 
ATOM     70  C   UNL A   1      37.394  33.627  30.121  1.00  0.00     0.135 A 
ATOM     71  F   UNL A   1      35.531  31.157  32.039  1.00  0.00    -0.206 F 
ATOM     72  C   UNL A   1      34.788  32.693  30.429  1.00  0.00     0.059 A 
ATOM     73  C   UNL A   1      36.371  34.203  29.373  1.00  0.00     0.059 A 
ATOM     74  F   UNL A   1      38.642  34.088  29.941  1.00  0.00    -0.206 F 
ATOM     75  C   UNL A   1      35.072  33.720  29.527  1.00  0.00     0.060 A 
BRANCH  75  76
ATOM     76  S   UNL A   1      33.714  34.422  28.567  1.00  0.00     0.124 S 
ATOM     77  O   UNL A   1      34.349  35.600  27.984  1.00  0.00    -0.237 OA
ATOM     78  O   UNL A   1      33.404  33.344  27.633  1.00  0.00    -0.237 OA
ATOM     79  O   UNL A   1      32.690  34.695  29.570  1.00  0.00    -0.744 OA
ENDBRANCH  75  76
ENDBRANCH  54  68
BRANCH  55  80
ATOM     80  C   UNL A   1      44.837  28.818  36.192  1.00  0.00     0.058 A 
ATOM     81  C   UNL A   1      44.725  27.729  37.070  1.00  0.00     0.135 A 
ATOM     82  C   UNL A   1      46.099  29.419  36.059  1.00  0.00     0.135 A 
ATOM     83  F   UNL A   1      43.537  27.131  37.248  1.00  0.00    -0.206 F 
ATOM     84  C   UNL A   1      45.816  27.261  37.796  1.00  0.00     0.059 A 
ATOM     85  C   UNL A   1      47.211  28.951  36.752  1.00  0.00     0.059 A 
ATOM     86  F   UNL A   1      46.265  30.462  35.230  1.00  0.00    -0.206 F 
ATOM     87  C   UNL A   1      47.059  27.876  37.625  1.00  0.00     0.060 A 
BRANCH  87  88
ATOM     88  S   UNL A   1      48.481  27.222  38.525  1.00  0.00     0.124 S 
ATOM     89  O   UNL A   1      48.927  26.155  37.638  1.00  0.00    -0.237 OA
ATOM     90  O   UNL A   1      49.352  28.391  38.608  1.00  0.00    -0.237 OA
ATOM     91  O   UNL A   1      47.904  26.790  39.795  1.00  0.00    -0.744 OA
ENDBRANCH  87  88
ENDBRANCH  55  80
BRANCH  67  92
ATOM     92  C   UNL A   1      40.064  33.737  37.540  1.00  0.00     0.058 A 
ATOM     93  C   UNL A   1      39.164  33.404  38.564  1.00  0.00     0.135 A 
ATOM     94  C   UNL A   1      40.801  34.926  37.678  1.00  0.00     0.135 A 
ATOM     95  F   UNL A   1      38.429  32.284  38.480  1.00  0.00    -0.206 F 
ATOM     96  C   UNL A   1      38.987  34.226  39.673  1.00  0.00     0.059 A 
ATOM     97  C   UNL A   1      40.663  35.747  38.794  1.00  0.00     0.059 A 
ATOM     98  F   UNL A   1      41.684  35.288  36.734  1.00  0.00    -0.206 F 
ATOM     99  C   UNL A   1      39.746  35.393  39.781  1.00  0.00     0.060 A 
BRANCH  99 100
ATOM    100  S   UNL A   1      39.533  36.429  41.245  1.00  0.00     0.124 S 
ATOM    101  O   UNL A   1      39.802  35.479  42.320  1.00  0.00    -0.237 OA
ATOM    102  O   UNL A   1      40.544  37.463  41.044  1.00  0.00    -0.237 OA
ATOM    103  O   UNL A   1      38.150  36.884  41.143  1.00  0.00    -0.744 OA
ENDBRANCH  99 100
ENDBRANCH  67  92
ENDBRANCH  41  42
ENDBRANCH  34  36
ENDBRANCH  33  34
ENDBRANCH  32  33
ENDBRANCH  31  32
ENDBRANCH  30  31
ENDBRANCH  29  30
ENDBRANCH   1  29
TORSDOF 26
ENDMDL
MODEL 3
REMARK VINA RESULT:      -9.1      2.446      4.521
REMARK SMILES C[C@]1(C(=O)OCCOCCOCCOCCOC(=O)c2ccc(-c3c4nc(c(-c5c(F)cc(S(=O)(=O)[O-])cc5F)c5ccc([nH]5)c(-c5c(F)cc(S(=O)(=O)[O-])cc5F)c5nc(c(-c6c(F)cc(S(=O)(=O)[O-])cc6F)c6ccc3[nH]6)C=C5)C=C4)cc2)CCN(c2ccc([N+](=O)[O-])c(N)n2)C1
REMARK SMILES IDX 12 1 11 2 10 3 9 4 8 5 7 6 6 7 5 8 3 9 4 10 2 11 1 12 86 13
REMARK SMILES IDX 99 14 87 15 88 16 89 17 90 18 98 19 91 20 96 21 92 22 97 23
REMARK SMILES IDX 93 26 94 27 95 28 13 29 14 30 15 31 16 32 17 33 18 34 19 35
REMARK SMILES IDX 20 36 21 37 85 38 22 39 84 40 23 41 24 42 25 43 78 44 26 45
REMARK SMILES IDX 83 46 77 47 79 48 27 49 82 50 76 51 75 52 28 54 62 55 41 56
REMARK SMILES IDX 61 57 42 58 45 59 60 60 80 61 43 62 44 63 59 65 81 66 46 67
REMARK SMILES IDX 29 68 30 69 39 70 31 71 32 72 38 73 40 74 33 75 34 76 35 77
REMARK SMILES IDX 36 78 37 79 63 80 64 81 73 82 65 83 66 84 72 85 74 86 67 87
REMARK SMILES IDX 68 88 69 89 70 90 71 91 47 92 48 93 57 94 49 95 50 96 56 97
REMARK SMILES IDX 58 98 51 99 52 100 53 101 54 102 55 103
REMARK H PARENT 97 24 97 25 79 53 45 64
REMARK Flexibility Score: inf
ROOT
ATOM      1  C   UNL A   1      41.424  22.247  27.036  1.00  0.00     0.188 C 
ENDROOT
BRANCH   1   2
ATOM      2  O   UNL A   1      40.613  23.100  26.241  1.00  0.00    -0.377 OA
BRANCH   2   3
ATOM      3  C   UNL A   1      39.415  23.530  26.860  1.00  0.00     0.188 C 
BRANCH   3   4
ATOM      4  C   UNL A   1      38.150  23.393  25.980  1.00  0.00     0.188 C 
BRANCH   4   5
ATOM      5  O   UNL A   1      36.837  23.540  26.511  1.00  0.00    -0.376 OA
BRANCH   5   6
ATOM      6  C   UNL A   1      35.807  24.152  25.753  1.00  0.00     0.202 C 
BRANCH   6   7
ATOM      7  C   UNL A   1      35.623  23.809  24.269  1.00  0.00     0.261 C 
BRANCH   7   8
ATOM      8  O   UNL A   1      34.403  24.238  23.646  1.00  0.00    -0.463 OA
BRANCH   8   9
ATOM      9  C   UNL A   1      33.283  24.212  24.410  1.00  0.00     0.313 C 
ATOM     10  O   UNL A   1      32.908  25.147  25.110  1.00  0.00    -0.252 OA
BRANCH   9  11
ATOM     11  C   UNL A   1      32.519  22.894  24.308  1.00  0.00     0.084 C 
ATOM     12  C   UNL A   1      31.228  23.079  25.120  1.00  0.00     0.026 C 
ATOM     13  C   UNL A   1      32.169  22.478  22.864  1.00  0.00     0.042 C 
ATOM     14  C   UNL A   1      33.312  21.687  24.827  1.00  0.00     0.136 C 
ATOM     15  C   UNL A   1      32.128  20.941  22.862  1.00  0.00     0.119 C 
ATOM     16  N   UNL A   1      32.690  20.560  24.142  1.00  0.00    -0.355 N 
BRANCH  16  17
ATOM     17  C   UNL A   1      33.108  19.278  24.418  1.00  0.00     0.131 A 
ATOM     18  C   UNL A   1      34.463  18.975  24.306  1.00  0.00     0.054 A 
ATOM     19  N   UNL A   1      32.212  18.339  24.803  1.00  0.00    -0.207 NA
ATOM     20  C   UNL A   1      34.916  17.694  24.594  1.00  0.00     0.093 A 
ATOM     21  C   UNL A   1      32.635  17.068  25.029  1.00  0.00     0.204 A 
ATOM     22  C   UNL A   1      33.984  16.725  24.959  1.00  0.00     0.311 A 
BRANCH  21  23
ATOM     23  N   UNL A   1      31.630  16.194  25.408  1.00  0.00    -0.378 N 
ATOM     24  H   UNL A   1      31.789  15.222  25.385  1.00  0.00     0.158 HD
ATOM     25  H   UNL A   1      30.758  16.544  25.700  1.00  0.00     0.158 HD
ENDBRANCH  21  23
BRANCH  22  26
ATOM     26  N   UNL A   1      34.453  15.377  25.254  1.00  0.00     0.066 N 
ATOM     27  O   UNL A   1      33.594  14.493  25.391  1.00  0.00    -0.258 OA
ATOM     28  O   UNL A   1      35.674  15.185  25.360  1.00  0.00    -0.258 OA
ENDBRANCH  22  26
ENDBRANCH  16  17
ENDBRANCH   9  11
ENDBRANCH   8   9
ENDBRANCH   7   8
ENDBRANCH   6   7
ENDBRANCH   5   6
ENDBRANCH   4   5
ENDBRANCH   3   4
ENDBRANCH   2   3
ENDBRANCH   1   2
BRANCH   1  29
ATOM     29  C   UNL A   1      40.938  20.792  27.185  1.00  0.00     0.188 C 
BRANCH  29  30
ATOM     30  O   UNL A   1      41.534  19.905  26.241  1.00  0.00    -0.376 OA
BRANCH  30  31
ATOM     31  C   UNL A   1      42.268  18.798  26.742  1.00  0.00     0.202 C 
BRANCH  31  32
ATOM     32  C   UNL A   1      43.411  18.284  25.853  1.00  0.00     0.261 C 
BRANCH  32  33
ATOM     33  O   UNL A   1      44.518  19.177  25.662  1.00  0.00    -0.460 OA
BRANCH  33  34
ATOM     34  C   UNL A   1      44.585  19.860  24.493  1.00  0.00     0.338 C 
ATOM     35  O   UNL A   1      44.288  19.449  23.395  1.00  0.00    -0.246 OA
BRANCH  34  36
ATOM     36  C   UNL A   1      44.872  21.278  24.831  1.00  0.00     0.060 A 
ATOM     37  C   UNL A   1      45.188  21.604  26.157  1.00  0.00     0.016 A 
ATOM     38  C   UNL A   1      44.895  22.262  23.841  1.00  0.00     0.016 A 
ATOM     39  C   UNL A   1      45.534  22.914  26.495  1.00  0.00     0.010 A 
ATOM     40  C   UNL A   1      45.207  23.582  24.188  1.00  0.00     0.010 A 
ATOM     41  C   UNL A   1      45.518  23.917  25.518  1.00  0.00    -0.014 A 
BRANCH  41  42
ATOM     42  C   UNL A   1      45.682  25.340  25.904  1.00  0.00     0.031 A 
ATOM     43  C   UNL A   1      47.064  25.935  25.883  1.00  0.00     0.074 A 
ATOM     44  C   UNL A   1      44.629  26.090  26.278  1.00  0.00     0.049 A 
ATOM     45  N   UNL A   1      47.464  27.119  26.264  1.00  0.00    -0.248 NA
ATOM     46  C   UNL A   1      48.137  25.075  25.358  1.00  0.00     0.031 C 
ATOM     47  C   UNL A   1      43.237  25.643  26.296  1.00  0.00     0.029 A 
ATOM     48  N   UNL A   1      44.571  27.386  26.731  1.00  0.00    -0.354 N 
ATOM     49  C   UNL A   1      48.835  27.144  26.037  1.00  0.00     0.074 A 
ATOM     50  C   UNL A   1      49.200  25.851  25.503  1.00  0.00     0.031 C 
ATOM     51  C   UNL A   1      42.465  26.641  26.763  1.00  0.00     0.029 A 
ATOM     52  C   UNL A   1      43.311  27.781  27.115  1.00  0.00     0.049 A 
ATOM     53  H   UNL A   1      45.358  27.976  26.776  1.00  0.00     0.167 HD
ATOM     54  C   UNL A   1      49.709  28.156  26.255  1.00  0.00     0.037 A 
ATOM     55  C   UNL A   1      42.897  28.916  27.715  1.00  0.00     0.037 A 
ATOM     56  C   UNL A   1      49.338  29.438  26.796  1.00  0.00     0.049 A 
ATOM     57  C   UNL A   1      43.903  29.997  28.030  1.00  0.00     0.074 A 
ATOM     58  C   UNL A   1      50.146  30.537  27.030  1.00  0.00     0.029 A 
ATOM     59  N   UNL A   1      48.059  29.789  27.203  1.00  0.00    -0.354 N 
ATOM     60  N   UNL A   1      45.191  30.023  27.779  1.00  0.00    -0.248 NA
ATOM     61  C   UNL A   1      43.401  31.197  28.713  1.00  0.00     0.031 C 
ATOM     62  C   UNL A   1      49.369  31.529  27.639  1.00  0.00     0.029 A 
ATOM     63  C   UNL A   1      48.063  31.073  27.725  1.00  0.00     0.049 A 
ATOM     64  H   UNL A   1      47.266  29.210  27.133  1.00  0.00     0.167 HD
ATOM     65  C   UNL A   1      45.648  31.250  28.257  1.00  0.00     0.074 A 
ATOM     66  C   UNL A   1      44.495  31.944  28.790  1.00  0.00     0.031 C 
ATOM     67  C   UNL A   1      46.908  31.753  28.256  1.00  0.00     0.037 A 
BRANCH  54  68
ATOM     68  C   UNL A   1      51.158  27.909  25.942  1.00  0.00     0.058 A 
ATOM     69  C   UNL A   1      52.055  27.426  26.907  1.00  0.00     0.135 A 
ATOM     70  C   UNL A   1      51.646  28.113  24.641  1.00  0.00     0.135 A 
ATOM     71  F   UNL A   1      51.648  27.231  28.172  1.00  0.00    -0.206 F 
ATOM     72  C   UNL A   1      53.388  27.172  26.599  1.00  0.00     0.059 A 
ATOM     73  C   UNL A   1      52.967  27.839  24.302  1.00  0.00     0.059 A 
ATOM     74  F   UNL A   1      50.832  28.579  23.679  1.00  0.00    -0.206 F 
ATOM     75  C   UNL A   1      53.834  27.379  25.292  1.00  0.00     0.060 A 
BRANCH  75  76
ATOM     76  S   UNL A   1      55.561  27.027  24.906  1.00  0.00     0.124 S 
ATOM     77  O   UNL A   1      55.864  25.969  25.865  1.00  0.00    -0.237 OA
ATOM     78  O   UNL A   1      55.489  26.612  23.508  1.00  0.00    -0.237 OA
ATOM     79  O   UNL A   1      56.233  28.300  25.147  1.00  0.00    -0.744 OA
ENDBRANCH  75  76
ENDBRANCH  54  68
BRANCH  55  80
ATOM     80  C   UNL A   1      41.467  29.082  28.096  1.00  0.00     0.058 A 
ATOM     81  C   UNL A   1      41.059  29.030  29.438  1.00  0.00     0.135 A 
ATOM     82  C   UNL A   1      40.475  29.282  27.122  1.00  0.00     0.135 A 
ATOM     83  F   UNL A   1      41.964  28.823  30.406  1.00  0.00    -0.206 F 
ATOM     84  C   UNL A   1      39.721  29.160  29.800  1.00  0.00     0.059 A 
ATOM     85  C   UNL A   1      39.135  29.444  27.462  1.00  0.00     0.059 A 
ATOM     86  F   UNL A   1      40.808  29.344  25.824  1.00  0.00    -0.206 F 
ATOM     87  C   UNL A   1      38.766  29.373  28.804  1.00  0.00     0.060 A 
BRANCH  87  88
ATOM     88  S   UNL A   1      37.042  29.601  29.289  1.00  0.00     0.124 S 
ATOM     89  O   UNL A   1      36.984  28.851  30.537  1.00  0.00    -0.237 OA
ATOM     90  O   UNL A   1      36.950  31.053  29.410  1.00  0.00    -0.237 OA
ATOM     91  O   UNL A   1      36.300  29.026  28.170  1.00  0.00    -0.744 OA
ENDBRANCH  87  88
ENDBRANCH  55  80
BRANCH  67  92
ATOM     92  C   UNL A   1      47.111  33.130  28.833  1.00  0.00     0.058 A 
ATOM     93  C   UNL A   1      47.382  33.326  30.196  1.00  0.00     0.135 A 
ATOM     94  C   UNL A   1      47.095  34.262  28.000  1.00  0.00     0.135 A 
ATOM     95  F   UNL A   1      47.403  32.282  31.038  1.00  0.00    -0.206 F 
ATOM     96  C   UNL A   1      47.610  34.597  30.717  1.00  0.00     0.059 A 
ATOM     97  C   UNL A   1      47.351  35.538  28.494  1.00  0.00     0.059 A 
ATOM     98  F   UNL A   1      46.851  34.132  26.686  1.00  0.00    -0.206 F 
ATOM     99  C   UNL A   1      47.598  35.696  29.857  1.00  0.00     0.060 A 
BRANCH  99 100
ATOM    100  S   UNL A   1      47.934  37.333  30.541  1.00  0.00     0.124 S 
ATOM    101  O   UNL A   1      46.828  38.113  29.996  1.00  0.00    -0.237 OA
ATOM    102  O   UNL A   1      47.886  37.084  31.979  1.00  0.00    -0.237 OA
ATOM    103  O   UNL A   1      49.253  37.660  30.011  1.00  0.00    -0.744 OA
ENDBRANCH  99 100
ENDBRANCH  67  92
ENDBRANCH  41  42
ENDBRANCH  34  36
ENDBRANCH  33  34
ENDBRANCH  32  33
ENDBRANCH  31  32
ENDBRANCH  30  31
ENDBRANCH  29  30
ENDBRANCH   1  29
TORSDOF 26
ENDMDL
