MODEL 1
REMARK VINA RESULT:      -9.8      0.000      0.000
REMARK SMILES O=C(OCCOCCOCCOCCOC(=O)[C@H]1CC[C@@H](CNC(=O)[C@@H]2CCC[NH2+]C2)O1)c1ccc(-c2c3nc(c(-c4c(F)cc(S(=O)(=O)[O-])cc4F)c4ccc([nH]4)c(-c4c(F)cc(S(=O)(=O)[O-])cc4F)c4nc(c(-c5c(F)cc(S(=O)(=O)[O-])cc5F)c5ccc2[nH]5)C=C4)C=C3)cc1
REMARK SMILES IDX 9 1 8 2 7 3 6 4 5 5 4 6 3 7 2 8 1 9 33 10 34 11 98 12 35 13
REMARK SMILES IDX 97 14 36 15 37 16 38 17 91 18 39 19 96 20 90 21 92 22 40 23
REMARK SMILES IDX 95 24 89 25 88 26 41 28 75 29 54 30 74 31 55 32 58 33 73 34
REMARK SMILES IDX 93 35 56 36 57 37 72 39 94 40 59 41 42 42 43 43 52 44 44 45
REMARK SMILES IDX 45 46 51 47 53 48 46 49 47 50 48 51 49 52 50 53 76 54 77 55
REMARK SMILES IDX 86 56 78 57 79 58 85 59 87 60 80 61 81 62 82 63 83 64 84 65
REMARK SMILES IDX 60 66 61 67 70 68 62 69 63 70 69 71 71 72 64 73 65 74 66 75
REMARK SMILES IDX 67 76 68 77 10 78 11 79 12 80 13 81 14 82 15 83 16 84 17 85
REMARK SMILES IDX 18 86 19 87 32 88 20 89 21 90 22 91 23 92 24 93 25 95 26 96
REMARK SMILES IDX 27 97 31 98 28 99 30 100 29 101
REMARK H PARENT 92 27 58 38 23 94 30 102 30 103
REMARK Flexibility Score: inf
ROOT
ATOM      1  O   UNL A   1      42.017  21.743  28.039  1.00  0.00    -0.377 OA
ENDROOT
BRANCH   1   2
ATOM      2  C   UNL A   1      42.313  22.961  28.725  1.00  0.00     0.188 C 
BRANCH   2   3
ATOM      3  C   UNL A   1      43.585  22.927  29.578  1.00  0.00     0.188 C 
BRANCH   3   4
ATOM      4  O   UNL A   1      44.545  23.890  29.140  1.00  0.00    -0.376 OA
BRANCH   4   5
ATOM      5  C   UNL A   1      44.989  23.825  27.782  1.00  0.00     0.202 C 
BRANCH   5   6
ATOM      6  C   UNL A   1      44.763  25.081  26.956  1.00  0.00     0.261 C 
BRANCH   6   7
ATOM      7  O   UNL A   1      43.557  25.053  26.190  1.00  0.00    -0.460 OA
BRANCH   7   8
ATOM      8  C   UNL A   1      42.558  25.965  26.145  1.00  0.00     0.338 C 
ATOM      9  O   UNL A   1      41.958  26.094  25.077  1.00  0.00    -0.246 OA
BRANCH   8  10
ATOM     10  C   UNL A   1      42.137  26.846  27.281  1.00  0.00     0.060 A 
ATOM     11  C   UNL A   1      42.606  28.133  27.557  1.00  0.00     0.016 A 
ATOM     12  C   UNL A   1      41.102  26.347  28.089  1.00  0.00     0.016 A 
ATOM     13  C   UNL A   1      42.078  28.914  28.570  1.00  0.00     0.010 A 
ATOM     14  C   UNL A   1      40.591  27.099  29.147  1.00  0.00     0.010 A 
ATOM     15  C   UNL A   1      41.104  28.375  29.394  1.00  0.00    -0.014 A 
BRANCH  15  16
ATOM     16  C   UNL A   1      40.883  29.048  30.675  1.00  0.00     0.031 A 
ATOM     17  C   UNL A   1      39.726  29.990  30.735  1.00  0.00     0.074 A 
ATOM     18  C   UNL A   1      41.607  28.712  31.753  1.00  0.00     0.049 A 
ATOM     19  N   UNL A   1      39.402  30.848  31.656  1.00  0.00    -0.248 NA
ATOM     20  C   UNL A   1      38.799  29.953  29.587  1.00  0.00     0.031 C 
ATOM     21  C   UNL A   1      42.614  27.650  31.795  1.00  0.00     0.029 A 
ATOM     22  N   UNL A   1      41.604  29.230  33.016  1.00  0.00    -0.354 N 
ATOM     23  C   UNL A   1      38.275  31.500  31.170  1.00  0.00     0.074 A 
ATOM     24  C   UNL A   1      37.955  30.925  29.886  1.00  0.00     0.031 C 
ATOM     25  C   UNL A   1      43.162  27.621  33.022  1.00  0.00     0.029 A 
ATOM     26  C   UNL A   1      42.601  28.715  33.807  1.00  0.00     0.049 A 
ATOM     27  H   UNL A   1      40.955  29.903  33.326  1.00  0.00     0.167 HD
ATOM     28  C   UNL A   1      37.602  32.516  31.750  1.00  0.00     0.037 A 
ATOM     29  C   UNL A   1      43.049  29.151  34.999  1.00  0.00     0.037 A 
ATOM     30  C   UNL A   1      37.990  33.045  33.028  1.00  0.00     0.049 A 
ATOM     31  C   UNL A   1      42.361  30.351  35.593  1.00  0.00     0.074 A 
ATOM     32  C   UNL A   1      37.462  34.112  33.725  1.00  0.00     0.029 A 
ATOM     33  N   UNL A   1      39.031  32.529  33.796  1.00  0.00    -0.354 N 
ATOM     34  N   UNL A   1      41.359  31.045  35.102  1.00  0.00    -0.248 NA
ATOM     35  C   UNL A   1      42.861  30.839  36.881  1.00  0.00     0.031 C 
ATOM     36  C   UNL A   1      38.223  34.275  34.888  1.00  0.00     0.029 A 
ATOM     37  C   UNL A   1      39.178  33.266  34.952  1.00  0.00     0.049 A 
ATOM     38  H   UNL A   1      39.582  31.751  33.550  1.00  0.00     0.167 HD
ATOM     39  C   UNL A   1      41.086  32.040  36.031  1.00  0.00     0.074 A 
ATOM     40  C   UNL A   1      42.038  31.857  37.113  1.00  0.00     0.031 C 
ATOM     41  C   UNL A   1      40.139  33.012  36.002  1.00  0.00     0.037 A 
BRANCH  28  42
ATOM     42  C   UNL A   1      36.508  33.157  30.944  1.00  0.00     0.058 A 
ATOM     43  C   UNL A   1      36.767  33.998  29.849  1.00  0.00     0.135 A 
ATOM     44  C   UNL A   1      35.169  33.008  31.346  1.00  0.00     0.135 A 
ATOM     45  F   UNL A   1      38.030  34.212  29.444  1.00  0.00    -0.206 F 
ATOM     46  C   UNL A   1      35.749  34.710  29.220  1.00  0.00     0.059 A 
ATOM     47  C   UNL A   1      34.132  33.684  30.710  1.00  0.00     0.059 A 
ATOM     48  F   UNL A   1      34.861  32.231  32.396  1.00  0.00    -0.206 F 
ATOM     49  C   UNL A   1      34.435  34.555  29.665  1.00  0.00     0.060 A 
BRANCH  49  50
ATOM     50  S   UNL A   1      33.133  35.529  28.883  1.00  0.00     0.124 S 
ATOM     51  O   UNL A   1      33.914  36.490  28.109  1.00  0.00    -0.237 OA
ATOM     52  O   UNL A   1      32.417  34.524  28.104  1.00  0.00    -0.237 OA
ATOM     53  O   UNL A   1      32.397  36.085  30.014  1.00  0.00    -0.744 OA
ENDBRANCH  49  50
ENDBRANCH  28  42
BRANCH  29  54
ATOM     54  C   UNL A   1      44.229  28.497  35.622  1.00  0.00     0.058 A 
ATOM     55  C   UNL A   1      44.091  27.417  36.503  1.00  0.00     0.135 A 
ATOM     56  C   UNL A   1      45.535  28.885  35.271  1.00  0.00     0.135 A 
ATOM     57  F   UNL A   1      42.868  27.010  36.877  1.00  0.00    -0.206 F 
ATOM     58  C   UNL A   1      45.199  26.738  37.004  1.00  0.00     0.059 A 
ATOM     59  C   UNL A   1      46.657  28.206  35.737  1.00  0.00     0.059 A 
ATOM     60  F   UNL A   1      45.727  29.905  34.419  1.00  0.00    -0.206 F 
ATOM     61  C   UNL A   1      46.479  27.132  36.604  1.00  0.00     0.060 A 
BRANCH  61  62
ATOM     62  S   UNL A   1      47.903  26.184  37.186  1.00  0.00     0.124 S 
ATOM     63  O   UNL A   1      47.976  26.591  38.584  1.00  0.00    -0.237 OA
ATOM     64  O   UNL A   1      47.474  24.811  36.941  1.00  0.00    -0.237 OA
ATOM     65  O   UNL A   1      48.991  26.654  36.334  1.00  0.00    -0.744 OA
ENDBRANCH  61  62
ENDBRANCH  29  54
BRANCH  41  66
ATOM     66  C   UNL A   1      40.043  33.908  37.200  1.00  0.00     0.058 A 
ATOM     67  C   UNL A   1      40.766  35.105  37.282  1.00  0.00     0.135 A 
ATOM     68  C   UNL A   1      39.098  33.627  38.199  1.00  0.00     0.135 A 
ATOM     69  F   UNL A   1      41.685  35.408  36.351  1.00  0.00    -0.206 F 
ATOM     70  C   UNL A   1      40.546  36.005  38.317  1.00  0.00     0.059 A 
ATOM     71  C   UNL A   1      38.842  34.525  39.226  1.00  0.00     0.059 A 
ATOM     72  F   UNL A   1      38.377  32.495  38.149  1.00  0.00    -0.206 F 
ATOM     73  C   UNL A   1      39.569  35.712  39.273  1.00  0.00     0.060 A 
BRANCH  73  74
ATOM     74  S   UNL A   1      39.218  36.939  40.547  1.00  0.00     0.124 S 
ATOM     75  O   UNL A   1      38.384  36.176  41.468  1.00  0.00    -0.237 OA
ATOM     76  O   UNL A   1      40.553  37.278  41.029  1.00  0.00    -0.237 OA
ATOM     77  O   UNL A   1      38.534  38.002  39.815  1.00  0.00    -0.744 OA
ENDBRANCH  73  74
ENDBRANCH  41  66
ENDBRANCH  15  16
ENDBRANCH   8  10
ENDBRANCH   7   8
ENDBRANCH   6   7
ENDBRANCH   5   6
ENDBRANCH   4   5
ENDBRANCH   3   4
ENDBRANCH   2   3
ENDBRANCH   1   2
BRANCH   1  78
ATOM     78  C   UNL A   1      40.719  21.675  27.461  1.00  0.00     0.188 C 
BRANCH  78  79
ATOM     79  C   UNL A   1      40.033  22.979  26.988  1.00  0.00     0.188 C 
BRANCH  79  80
ATOM     80  O   UNL A   1      38.799  22.750  26.332  1.00  0.00    -0.376 OA
BRANCH  80  81
ATOM     81  C   UNL A   1      38.619  21.504  25.665  1.00  0.00     0.202 C 
BRANCH  81  82
ATOM     82  C   UNL A   1      37.246  21.134  25.062  1.00  0.00     0.261 C 
BRANCH  82  83
ATOM     83  O   UNL A   1      36.189  22.034  25.418  1.00  0.00    -0.461 OA
BRANCH  83  84
ATOM     84  C   UNL A   1      35.638  22.840  24.485  1.00  0.00     0.335 C 
ATOM     85  O   UNL A   1      35.568  22.579  23.283  1.00  0.00    -0.249 OA
BRANCH  84  86
ATOM     86  C   UNL A   1      35.002  24.086  25.158  1.00  0.00     0.228 C 
ATOM     87  C   UNL A   1      33.976  24.794  24.288  1.00  0.00     0.047 C 
ATOM     88  O   UNL A   1      34.290  23.848  26.365  1.00  0.00    -0.361 OA
ATOM     89  C   UNL A   1      32.752  23.981  24.564  1.00  0.00     0.037 C 
ATOM     90  C   UNL A   1      32.958  23.468  25.985  1.00  0.00     0.138 C 
BRANCH  90  91
ATOM     91  C   UNL A   1      32.880  21.945  26.155  1.00  0.00     0.147 C 
BRANCH  91  92
ATOM     92  N   UNL A   1      32.610  21.288  24.903  1.00  0.00    -0.353 N 
ATOM     93  C   UNL A   1      32.931  20.090  24.376  1.00  0.00     0.228 C 
ATOM     94  H   UNL A   1      32.068  21.840  24.293  1.00  0.00     0.163 HD
ATOM     95  O   UNL A   1      32.397  19.867  23.281  1.00  0.00    -0.275 OA
BRANCH  93  96
ATOM     96  C   UNL A   1      33.749  19.003  25.093  1.00  0.00     0.133 C 
ATOM     97  C   UNL A   1      34.751  18.131  24.334  1.00  0.00     0.025 C 
ATOM     98  C   UNL A   1      32.762  18.034  25.782  1.00  0.00     0.274 C 
ATOM     99  C   UNL A   1      34.043  17.201  23.357  1.00  0.00     0.062 C 
ATOM    100  N   UNL A   1      32.095  17.128  24.831  1.00  0.00    -0.346 N 
ATOM    101  C   UNL A   1      33.038  16.316  24.073  1.00  0.00     0.260 C 
ATOM    102  H   UNL A   1      31.475  16.506  25.352  1.00  0.00     0.346 HD
ATOM    103  H   UNL A   1      31.579  17.704  24.166  1.00  0.00     0.346 HD
ENDBRANCH  93  96
ENDBRANCH  91  92
ENDBRANCH  90  91
ENDBRANCH  84  86
ENDBRANCH  83  84
ENDBRANCH  82  83
ENDBRANCH  81  82
ENDBRANCH  80  81
ENDBRANCH  79  80
ENDBRANCH  78  79
ENDBRANCH   1  78
TORSDOF 26
ENDMDL
MODEL 2
REMARK VINA RESULT:      -9.6      1.135      2.724
REMARK SMILES O=C(OCCOCCOCCOCCOC(=O)[C@H]1CC[C@@H](CNC(=O)[C@@H]2CCC[NH2+]C2)O1)c1ccc(-c2c3nc(c(-c4c(F)cc(S(=O)(=O)[O-])cc4F)c4ccc([nH]4)c(-c4c(F)cc(S(=O)(=O)[O-])cc4F)c4nc(c(-c5c(F)cc(S(=O)(=O)[O-])cc5F)c5ccc2[nH]5)C=C4)C=C3)cc1
REMARK SMILES IDX 9 1 8 2 7 3 6 4 5 5 4 6 3 7 2 8 1 9 33 10 34 11 98 12 35 13
REMARK SMILES IDX 97 14 36 15 37 16 38 17 91 18 39 19 96 20 90 21 92 22 40 23
REMARK SMILES IDX 95 24 89 25 88 26 41 28 75 29 54 30 74 31 55 32 58 33 73 34
REMARK SMILES IDX 93 35 56 36 57 37 72 39 94 40 59 41 42 42 43 43 52 44 44 45
REMARK SMILES IDX 45 46 51 47 53 48 46 49 47 50 48 51 49 52 50 53 76 54 77 55
REMARK SMILES IDX 86 56 78 57 79 58 85 59 87 60 80 61 81 62 82 63 83 64 84 65
REMARK SMILES IDX 60 66 61 67 70 68 62 69 63 70 69 71 71 72 64 73 65 74 66 75
REMARK SMILES IDX 67 76 68 77 10 78 11 79 12 80 13 81 14 82 15 83 16 84 17 85
REMARK SMILES IDX 18 86 19 87 32 88 20 89 21 90 22 91 23 92 24 93 25 95 26 96
REMARK SMILES IDX 27 97 31 98 28 99 30 100 29 101
REMARK H PARENT 92 27 58 38 23 94 30 102 30 103
REMARK Flexibility Score: inf
ROOT
ATOM      1  O   UNL A   1      35.641  22.387  24.921  1.00  0.00    -0.377 OA
ENDROOT
BRANCH   1   2
ATOM      2  C   UNL A   1      37.010  22.749  24.730  1.00  0.00     0.188 C 
BRANCH   2   3
ATOM      3  C   UNL A   1      38.021  21.847  25.445  1.00  0.00     0.188 C 
BRANCH   3   4
ATOM      4  O   UNL A   1      38.923  22.600  26.258  1.00  0.00    -0.376 OA
BRANCH   4   5
ATOM      5  C   UNL A   1      40.098  21.945  26.742  1.00  0.00     0.202 C 
BRANCH   5   6
ATOM      6  C   UNL A   1      40.932  22.739  27.734  1.00  0.00     0.261 C 
BRANCH   6   7
ATOM      7  O   UNL A   1      41.791  23.701  27.118  1.00  0.00    -0.460 OA
BRANCH   7   8
ATOM      8  C   UNL A   1      41.562  25.012  26.877  1.00  0.00     0.338 C 
ATOM      9  O   UNL A   1      41.572  25.380  25.701  1.00  0.00    -0.246 OA
BRANCH   8  10
ATOM     10  C   UNL A   1      41.322  26.058  27.922  1.00  0.00     0.060 A 
ATOM     11  C   UNL A   1      42.158  27.132  28.237  1.00  0.00     0.016 A 
ATOM     12  C   UNL A   1      40.084  25.986  28.583  1.00  0.00     0.016 A 
ATOM     13  C   UNL A   1      41.799  28.109  29.148  1.00  0.00     0.010 A 
ATOM     14  C   UNL A   1      39.726  26.934  29.542  1.00  0.00     0.010 A 
ATOM     15  C   UNL A   1      40.604  27.981  29.834  1.00  0.00    -0.014 A 
BRANCH  15  16
ATOM     16  C   UNL A   1      40.461  28.773  31.057  1.00  0.00     0.031 A 
ATOM     17  C   UNL A   1      39.369  29.793  31.058  1.00  0.00     0.074 A 
ATOM     18  C   UNL A   1      41.189  28.482  32.145  1.00  0.00     0.049 A 
ATOM     19  N   UNL A   1      39.127  30.746  31.908  1.00  0.00    -0.248 NA
ATOM     20  C   UNL A   1      38.413  29.722  29.937  1.00  0.00     0.031 C 
ATOM     21  C   UNL A   1      42.124  27.361  32.259  1.00  0.00     0.029 A 
ATOM     22  N   UNL A   1      41.251  29.103  33.358  1.00  0.00    -0.354 N 
ATOM     23  C   UNL A   1      38.033  31.429  31.390  1.00  0.00     0.074 A 
ATOM     24  C   UNL A   1      37.643  30.771  30.167  1.00  0.00     0.031 C 
ATOM     25  C   UNL A   1      42.700  27.399  33.472  1.00  0.00     0.029 A 
ATOM     26  C   UNL A   1      42.232  28.592  34.171  1.00  0.00     0.049 A 
ATOM     27  H   UNL A   1      40.656  29.843  33.622  1.00  0.00     0.167 HD
ATOM     28  C   UNL A   1      37.443  32.534  31.894  1.00  0.00     0.037 A 
ATOM     29  C   UNL A   1      42.738  29.095  35.311  1.00  0.00     0.037 A 
ATOM     30  C   UNL A   1      37.897  33.142  33.113  1.00  0.00     0.049 A 
ATOM     31  C   UNL A   1      42.147  30.385  35.813  1.00  0.00     0.074 A 
ATOM     32  C   UNL A   1      37.459  34.297  33.726  1.00  0.00     0.029 A 
ATOM     33  N   UNL A   1      38.922  32.623  33.902  1.00  0.00    -0.354 N 
ATOM     34  N   UNL A   1      41.180  31.102  35.285  1.00  0.00    -0.248 NA
ATOM     35  C   UNL A   1      42.710  30.946  37.045  1.00  0.00     0.031 C 
ATOM     36  C   UNL A   1      38.258  34.506  34.856  1.00  0.00     0.029 A 
ATOM     37  C   UNL A   1      39.147  33.445  34.987  1.00  0.00     0.049 A 
ATOM     38  H   UNL A   1      39.414  31.792  33.713  1.00  0.00     0.167 HD
ATOM     39  C   UNL A   1      40.997  32.188  36.129  1.00  0.00     0.074 A 
ATOM     40  C   UNL A   1      41.962  32.033  37.204  1.00  0.00     0.031 C 
ATOM     41  C   UNL A   1      40.116  33.216  36.036  1.00  0.00     0.037 A 
BRANCH  28  42
ATOM     42  C   UNL A   1      36.373  33.178  31.057  1.00  0.00     0.058 A 
ATOM     43  C   UNL A   1      36.659  33.904  29.889  1.00  0.00     0.135 A 
ATOM     44  C   UNL A   1      35.038  33.153  31.496  1.00  0.00     0.135 A 
ATOM     45  F   UNL A   1      37.923  33.997  29.442  1.00  0.00    -0.206 F 
ATOM     46  C   UNL A   1      35.674  34.627  29.221  1.00  0.00     0.059 A 
ATOM     47  C   UNL A   1      34.032  33.842  30.826  1.00  0.00     0.059 A 
ATOM     48  F   UNL A   1      34.707  32.490  32.615  1.00  0.00    -0.206 F 
ATOM     49  C   UNL A   1      34.365  34.599  29.704  1.00  0.00     0.060 A 
BRANCH  49  50
ATOM     50  S   UNL A   1      33.109  35.589  28.867  1.00  0.00     0.124 S 
ATOM     51  O   UNL A   1      32.356  36.120  29.999  1.00  0.00    -0.237 OA
ATOM     52  O   UNL A   1      33.915  36.559  28.134  1.00  0.00    -0.237 OA
ATOM     53  O   UNL A   1      32.401  34.615  28.043  1.00  0.00    -0.744 OA
ENDBRANCH  49  50
ENDBRANCH  28  42
BRANCH  29  54
ATOM     54  C   UNL A   1      43.889  28.418  35.965  1.00  0.00     0.058 A 
ATOM     55  C   UNL A   1      45.210  28.812  35.719  1.00  0.00     0.135 A 
ATOM     56  C   UNL A   1      43.680  27.413  36.928  1.00  0.00     0.135 A 
ATOM     57  F   UNL A   1      45.467  29.761  34.805  1.00  0.00    -0.206 F 
ATOM     58  C   UNL A   1      46.280  28.249  36.410  1.00  0.00     0.059 A 
ATOM     59  C   UNL A   1      44.729  26.854  37.650  1.00  0.00     0.059 A 
ATOM     60  F   UNL A   1      42.433  27.006  37.214  1.00  0.00    -0.206 F 
ATOM     61  C   UNL A   1      46.028  27.279  37.384  1.00  0.00     0.060 A 
BRANCH  61  62
ATOM     62  S   UNL A   1      47.415  26.625  38.339  1.00  0.00     0.124 S 
ATOM     63  O   UNL A   1      48.504  26.709  37.373  1.00  0.00    -0.237 OA
ATOM     64  O   UNL A   1      47.481  27.558  39.459  1.00  0.00    -0.237 OA
ATOM     65  O   UNL A   1      46.980  25.275  38.683  1.00  0.00    -0.744 OA
ENDBRANCH  61  62
ENDBRANCH  29  54
BRANCH  41  66
ATOM     66  C   UNL A   1      40.109  34.215  37.153  1.00  0.00     0.058 A 
ATOM     67  C   UNL A   1      40.831  35.413  37.072  1.00  0.00     0.135 A 
ATOM     68  C   UNL A   1      39.247  34.025  38.245  1.00  0.00     0.135 A 
ATOM     69  F   UNL A   1      41.672  35.630  36.049  1.00  0.00    -0.206 F 
ATOM     70  C   UNL A   1      40.689  36.401  38.037  1.00  0.00     0.059 A 
ATOM     71  C   UNL A   1      39.069  35.011  39.205  1.00  0.00     0.059 A 
ATOM     72  F   UNL A   1      38.530  32.894  38.352  1.00  0.00    -0.206 F 
ATOM     73  C   UNL A   1      39.791  36.196  39.090  1.00  0.00     0.060 A 
BRANCH  73  74
ATOM     74  S   UNL A   1      39.535  37.532  40.274  1.00  0.00     0.124 S 
ATOM     75  O   UNL A   1      38.570  38.368  39.569  1.00  0.00    -0.237 OA
ATOM     76  O   UNL A   1      39.025  36.819  41.441  1.00  0.00    -0.237 OA
ATOM     77  O   UNL A   1      40.867  38.107  40.431  1.00  0.00    -0.744 OA
ENDBRANCH  73  74
ENDBRANCH  41  66
ENDBRANCH  15  16
ENDBRANCH   8  10
ENDBRANCH   7   8
ENDBRANCH   6   7
ENDBRANCH   5   6
ENDBRANCH   4   5
ENDBRANCH   3   4
ENDBRANCH   2   3
ENDBRANCH   1   2
BRANCH   1  78
ATOM     78  C   UNL A   1      35.131  22.623  26.228  1.00  0.00     0.188 C 
BRANCH  78  79
ATOM     79  C   UNL A   1      34.520  21.446  27.025  1.00  0.00     0.188 C 
BRANCH  79  80
ATOM     80  O   UNL A   1      33.235  21.736  27.546  1.00  0.00    -0.376 OA
BRANCH  80  81
ATOM     81  C   UNL A   1      32.620  22.962  27.161  1.00  0.00     0.202 C 
BRANCH  81  82
ATOM     82  C   UNL A   1      31.108  23.011  26.851  1.00  0.00     0.261 C 
BRANCH  82  83
ATOM     83  O   UNL A   1      30.765  23.851  25.742  1.00  0.00    -0.461 OA
BRANCH  83  84
ATOM     84  C   UNL A   1      31.683  24.691  25.215  1.00  0.00     0.335 C 
ATOM     85  O   UNL A   1      32.611  25.203  25.844  1.00  0.00    -0.249 OA
BRANCH  84  86
ATOM     86  C   UNL A   1      31.471  24.827  23.684  1.00  0.00     0.228 C 
ATOM     87  C   UNL A   1      32.717  25.265  22.930  1.00  0.00     0.047 C 
ATOM     88  O   UNL A   1      31.082  23.643  23.000  1.00  0.00    -0.361 OA
ATOM     89  C   UNL A   1      33.420  23.958  22.749  1.00  0.00     0.037 C 
ATOM     90  C   UNL A   1      32.293  22.933  22.693  1.00  0.00     0.138 C 
BRANCH  90  91
ATOM     91  C   UNL A   1      32.389  21.788  23.710  1.00  0.00     0.147 C 
BRANCH  91  92
ATOM     92  N   UNL A   1      32.175  20.509  23.085  1.00  0.00    -0.353 N 
ATOM     93  C   UNL A   1      32.579  19.250  23.347  1.00  0.00     0.228 C 
ATOM     94  H   UNL A   1      31.604  20.568  22.285  1.00  0.00     0.163 HD
ATOM     95  O   UNL A   1      32.071  18.399  22.604  1.00  0.00    -0.275 OA
BRANCH  93  96
ATOM     96  C   UNL A   1      33.459  18.836  24.538  1.00  0.00     0.133 C 
ATOM     97  C   UNL A   1      34.691  17.950  24.348  1.00  0.00     0.025 C 
ATOM     98  C   UNL A   1      32.561  18.120  25.573  1.00  0.00     0.274 C 
ATOM     99  C   UNL A   1      34.295  16.541  23.925  1.00  0.00     0.062 C 
ATOM    100  N   UNL A   1      32.198  16.752  25.162  1.00  0.00    -0.346 N 
ATOM    101  C   UNL A   1      33.363  15.905  24.941  1.00  0.00     0.260 C 
ATOM    102  H   UNL A   1      31.625  16.333  25.896  1.00  0.00     0.346 HD
ATOM    103  H   UNL A   1      31.693  16.819  24.279  1.00  0.00     0.346 HD
ENDBRANCH  93  96
ENDBRANCH  91  92
ENDBRANCH  90  91
ENDBRANCH  84  86
ENDBRANCH  83  84
ENDBRANCH  82  83
ENDBRANCH  81  82
ENDBRANCH  80  81
ENDBRANCH  79  80
ENDBRANCH  78  79
ENDBRANCH   1  78
TORSDOF 26
ENDMDL
MODEL 3
REMARK VINA RESULT:      -9.5      6.289     11.207
REMARK SMILES O=C(OCCOCCOCCOCCOC(=O)[C@H]1CC[C@@H](CNC(=O)[C@@H]2CCC[NH2+]C2)O1)c1ccc(-c2c3nc(c(-c4c(F)cc(S(=O)(=O)[O-])cc4F)c4ccc([nH]4)c(-c4c(F)cc(S(=O)(=O)[O-])cc4F)c4nc(c(-c5c(F)cc(S(=O)(=O)[O-])cc5F)c5ccc2[nH]5)C=C4)C=C3)cc1
REMARK SMILES IDX 9 1 8 2 7 3 6 4 5 5 4 6 3 7 2 8 1 9 33 10 34 11 98 12 35 13
REMARK SMILES IDX 97 14 36 15 37 16 38 17 91 18 39 19 96 20 90 21 92 22 40 23
REMARK SMILES IDX 95 24 89 25 88 26 41 28 75 29 54 30 74 31 55 32 58 33 73 34
REMARK SMILES IDX 93 35 56 36 57 37 72 39 94 40 59 41 42 42 43 43 52 44 44 45
REMARK SMILES IDX 45 46 51 47 53 48 46 49 47 50 48 51 49 52 50 53 76 54 77 55
REMARK SMILES IDX 86 56 78 57 79 58 85 59 87 60 80 61 81 62 82 63 83 64 84 65
REMARK SMILES IDX 60 66 61 67 70 68 62 69 63 70 69 71 71 72 64 73 65 74 66 75
REMARK SMILES IDX 67 76 68 77 10 78 11 79 12 80 13 81 14 82 15 83 16 84 17 85
REMARK SMILES IDX 18 86 19 87 32 88 20 89 21 90 22 91 23 92 24 93 25 95 26 96
REMARK SMILES IDX 27 97 31 98 28 99 30 100 29 101
REMARK H PARENT 92 27 58 38 23 94 30 102 30 103
REMARK Flexibility Score: inf
ROOT
ATOM      1  O   UNL A   1      41.206  22.693  27.332  1.00  0.00    -0.377 OA
ENDROOT
BRANCH   1   2
ATOM      2  C   UNL A   1      41.720  21.514  27.952  1.00  0.00     0.188 C 
BRANCH   2   3
ATOM      3  C   UNL A   1      41.506  20.222  27.157  1.00  0.00     0.188 C 
BRANCH   3   4
ATOM      4  O   UNL A   1      42.325  19.157  27.643  1.00  0.00    -0.376 OA
BRANCH   4   5
ATOM      5  C   UNL A   1      42.735  18.148  26.717  1.00  0.00     0.202 C 
BRANCH   5   6
ATOM      6  C   UNL A   1      43.005  18.627  25.300  1.00  0.00     0.261 C 
BRANCH   6   7
ATOM      7  O   UNL A   1      44.383  18.561  24.926  1.00  0.00    -0.460 OA
BRANCH   7   8
ATOM      8  C   UNL A   1      45.177  19.539  24.432  1.00  0.00     0.338 C 
ATOM      9  O   UNL A   1      46.083  19.200  23.670  1.00  0.00    -0.246 OA
BRANCH   8  10
ATOM     10  C   UNL A   1      45.059  20.997  24.755  1.00  0.00     0.060 A 
ATOM     11  C   UNL A   1      44.784  22.031  23.856  1.00  0.00     0.016 A 
ATOM     12  C   UNL A   1      45.149  21.330  26.116  1.00  0.00     0.016 A 
ATOM     13  C   UNL A   1      44.588  23.338  24.267  1.00  0.00     0.010 A 
ATOM     14  C   UNL A   1      45.005  22.649  26.544  1.00  0.00     0.010 A 
ATOM     15  C   UNL A   1      44.748  23.652  25.606  1.00  0.00    -0.014 A 
BRANCH  15  16
ATOM     16  C   UNL A   1      44.951  25.065  25.929  1.00  0.00     0.031 A 
ATOM     17  C   UNL A   1      46.326  25.603  25.703  1.00  0.00     0.074 A 
ATOM     18  C   UNL A   1      43.912  25.840  26.271  1.00  0.00     0.049 A 
ATOM     19  N   UNL A   1      46.841  26.740  26.063  1.00  0.00    -0.248 NA
ATOM     20  C   UNL A   1      47.252  24.727  24.958  1.00  0.00     0.031 C 
ATOM     21  C   UNL A   1      42.513  25.408  26.307  1.00  0.00     0.029 A 
ATOM     22  N   UNL A   1      43.875  27.150  26.651  1.00  0.00    -0.354 N 
ATOM     23  C   UNL A   1      48.167  26.690  25.650  1.00  0.00     0.074 A 
ATOM     24  C   UNL A   1      48.374  25.423  24.992  1.00  0.00     0.031 C 
ATOM     25  C   UNL A   1      41.754  26.434  26.729  1.00  0.00     0.029 A 
ATOM     26  C   UNL A   1      42.629  27.551  27.067  1.00  0.00     0.049 A 
ATOM     27  H   UNL A   1      44.659  27.746  26.629  1.00  0.00     0.167 HD
ATOM     28  C   UNL A   1      49.123  27.623  25.848  1.00  0.00     0.037 A 
ATOM     29  C   UNL A   1      42.273  28.669  27.725  1.00  0.00     0.037 A 
ATOM     30  C   UNL A   1      48.843  28.857  26.526  1.00  0.00     0.049 A 
ATOM     31  C   UNL A   1      43.364  29.659  28.036  1.00  0.00     0.074 A 
ATOM     32  C   UNL A   1      49.706  29.877  26.869  1.00  0.00     0.029 A 
ATOM     33  N   UNL A   1      47.576  29.225  26.974  1.00  0.00    -0.354 N 
ATOM     34  N   UNL A   1      44.644  29.585  27.744  1.00  0.00    -0.248 NA
ATOM     35  C   UNL A   1      42.982  30.869  28.770  1.00  0.00     0.031 C 
ATOM     36  C   UNL A   1      48.970  30.835  27.575  1.00  0.00     0.029 A 
ATOM     37  C   UNL A   1      47.635  30.447  27.610  1.00  0.00     0.049 A 
ATOM     38  H   UNL A   1      46.759  28.690  26.855  1.00  0.00     0.167 HD
ATOM     39  C   UNL A   1      45.221  30.747  28.234  1.00  0.00     0.074 A 
ATOM     40  C   UNL A   1      44.145  31.507  28.848  1.00  0.00     0.031 C 
ATOM     41  C   UNL A   1      46.513  31.159  28.182  1.00  0.00     0.037 A 
BRANCH  28  42
ATOM     42  C   UNL A   1      50.524  27.259  25.444  1.00  0.00     0.058 A 
ATOM     43  C   UNL A   1      51.457  26.720  26.345  1.00  0.00     0.135 A 
ATOM     44  C   UNL A   1      50.973  27.557  24.145  1.00  0.00     0.135 A 
ATOM     45  F   UNL A   1      51.098  26.451  27.611  1.00  0.00    -0.206 F 
ATOM     46  C   UNL A   1      52.793  26.543  25.992  1.00  0.00     0.059 A 
ATOM     47  C   UNL A   1      52.295  27.358  23.762  1.00  0.00     0.059 A 
ATOM     48  F   UNL A   1      50.131  28.090  23.246  1.00  0.00    -0.206 F 
ATOM     49  C   UNL A   1      53.205  26.877  24.701  1.00  0.00     0.060 A 
BRANCH  49  50
ATOM     50  S   UNL A   1      54.950  26.702  24.275  1.00  0.00     0.124 S 
ATOM     51  O   UNL A   1      55.251  25.381  24.818  1.00  0.00    -0.237 OA
ATOM     52  O   UNL A   1      54.927  26.796  22.819  1.00  0.00    -0.237 OA
ATOM     53  O   UNL A   1      55.583  27.822  24.964  1.00  0.00    -0.744 OA
ENDBRANCH  49  50
ENDBRANCH  28  42
BRANCH  29  54
ATOM     54  C   UNL A   1      40.868  28.836  28.180  1.00  0.00     0.058 A 
ATOM     55  C   UNL A   1      40.503  28.656  29.520  1.00  0.00     0.135 A 
ATOM     56  C   UNL A   1      39.870  29.274  27.289  1.00  0.00     0.135 A 
ATOM     57  F   UNL A   1      41.413  28.233  30.411  1.00  0.00    -0.206 F 
ATOM     58  C   UNL A   1      39.209  28.914  29.965  1.00  0.00     0.059 A 
ATOM     59  C   UNL A   1      38.578  29.564  27.714  1.00  0.00     0.059 A 
ATOM     60  F   UNL A   1      40.166  29.477  25.996  1.00  0.00    -0.206 F 
ATOM     61  C   UNL A   1      38.256  29.382  29.057  1.00  0.00     0.060 A 
BRANCH  61  62
ATOM     62  S   UNL A   1      36.607  29.804  29.664  1.00  0.00     0.124 S 
ATOM     63  O   UNL A   1      35.757  29.233  28.626  1.00  0.00    -0.237 OA
ATOM     64  O   UNL A   1      36.578  29.128  30.958  1.00  0.00    -0.237 OA
ATOM     65  O   UNL A   1      36.634  31.261  29.727  1.00  0.00    -0.744 OA
ENDBRANCH  61  62
ENDBRANCH  29  54
BRANCH  41  66
ATOM     66  C   UNL A   1      46.823  32.513  28.744  1.00  0.00     0.058 A 
ATOM     67  C   UNL A   1      46.722  33.673  27.966  1.00  0.00     0.135 A 
ATOM     68  C   UNL A   1      47.078  32.648  30.118  1.00  0.00     0.135 A 
ATOM     69  F   UNL A   1      46.487  33.587  26.647  1.00  0.00    -0.206 F 
ATOM     70  C   UNL A   1      46.852  34.932  28.537  1.00  0.00     0.059 A 
ATOM     71  C   UNL A   1      47.183  33.897  30.714  1.00  0.00     0.059 A 
ATOM     72  F   UNL A   1      47.172  31.560  30.899  1.00  0.00    -0.206 F 
ATOM     73  C   UNL A   1      47.065  35.032  29.916  1.00  0.00     0.060 A 
BRANCH  73  74
ATOM     74  S   UNL A   1      47.121  36.673  30.660  1.00  0.00     0.124 S 
ATOM     75  O   UNL A   1      48.472  36.700  31.211  1.00  0.00    -0.237 OA
ATOM     76  O   UNL A   1      46.884  37.543  29.513  1.00  0.00    -0.237 OA
ATOM     77  O   UNL A   1      46.044  36.637  31.645  1.00  0.00    -0.744 OA
ENDBRANCH  73  74
ENDBRANCH  41  66
ENDBRANCH  15  16
ENDBRANCH   8  10
ENDBRANCH   7   8
ENDBRANCH   6   7
ENDBRANCH   5   6
ENDBRANCH   4   5
ENDBRANCH   3   4
ENDBRANCH   2   3
ENDBRANCH   1   2
BRANCH   1  78
ATOM     78  C   UNL A   1      39.860  22.600  26.880  1.00  0.00     0.188 C 
BRANCH  78  79
ATOM     79  C   UNL A   1      38.980  23.873  26.860  1.00  0.00     0.188 C 
BRANCH  79  80
ATOM     80  O   UNL A   1      38.212  23.998  25.677  1.00  0.00    -0.376 OA
BRANCH  80  81
ATOM     81  C   UNL A   1      37.254  22.984  25.393  1.00  0.00     0.202 C 
BRANCH  81  82
ATOM     82  C   UNL A   1      36.621  22.882  23.988  1.00  0.00     0.261 C 
BRANCH  82  83
ATOM     83  O   UNL A   1      35.193  23.004  23.979  1.00  0.00    -0.461 OA
BRANCH  83  84
ATOM     84  C   UNL A   1      34.415  21.934  24.254  1.00  0.00     0.335 C 
ATOM     85  O   UNL A   1      34.749  20.989  24.972  1.00  0.00    -0.249 OA
BRANCH  84  86
ATOM     86  C   UNL A   1      33.006  22.118  23.634  1.00  0.00     0.228 C 
ATOM     87  C   UNL A   1      31.915  21.335  24.348  1.00  0.00     0.047 C 
ATOM     88  O   UNL A   1      32.495  23.446  23.628  1.00  0.00    -0.361 OA
ATOM     89  C   UNL A   1      31.579  22.264  25.470  1.00  0.00     0.037 C 
ATOM     90  C   UNL A   1      31.876  23.650  24.908  1.00  0.00     0.138 C 
BRANCH  90  91
ATOM     91  C   UNL A   1      32.855  24.500  25.729  1.00  0.00     0.147 C 
BRANCH  91  92
ATOM     92  N   UNL A   1      33.435  25.550  24.933  1.00  0.00    -0.353 N 
ATOM     93  C   UNL A   1      33.019  26.763  24.522  1.00  0.00     0.228 C 
ATOM     94  H   UNL A   1      34.343  25.331  24.619  1.00  0.00     0.163 HD
ATOM     95  O   UNL A   1      33.888  27.413  23.925  1.00  0.00    -0.275 OA
BRANCH  93  96
ATOM     96  C   UNL A   1      31.659  27.393  24.869  1.00  0.00     0.133 C 
ATOM     97  C   UNL A   1      30.395  27.041  24.083  1.00  0.00     0.025 C 
ATOM     98  C   UNL A   1      31.808  28.930  24.791  1.00  0.00     0.274 C 
ATOM     99  C   UNL A   1      30.471  27.564  22.655  1.00  0.00     0.062 C 
ATOM    100  N   UNL A   1      31.864  29.428  23.405  1.00  0.00    -0.346 N 
ATOM    101  C   UNL A   1      30.682  29.068  22.632  1.00  0.00     0.260 C 
ATOM    102  H   UNL A   1      31.942  30.445  23.427  1.00  0.00     0.346 HD
ATOM    103  H   UNL A   1      32.670  28.996  22.955  1.00  0.00     0.346 HD
ENDBRANCH  93  96
ENDBRANCH  91  92
ENDBRANCH  90  91
ENDBRANCH  84  86
ENDBRANCH  83  84
ENDBRANCH  82  83
ENDBRANCH  81  82
ENDBRANCH  80  81
ENDBRANCH  79  80
ENDBRANCH  78  79
ENDBRANCH   1  78
TORSDOF 26
ENDMDL
