MODEL 1
REMARK VINA RESULT:      -8.5      0.000      0.000
REMARK SMILES CCCNC(=O)[C@H](C)[NH2+][C@H](C)[C@@H](C)C(=O)OCCOCCOCCOCCOC(=O)c1ccc(-c2c3nc(c(-c4c(F)cc(S(=O)(=O)[O-])cc4F)c4ccc([nH]4)c(-c4c(F)cc(S(=O)(=O)[O-])cc4F)c4nc(c(-c5c(F)cc(S(=O)(=O)[O-])cc5F)c5ccc2[nH]5)C=C4)C=C3)cc1
REMARK SMILES IDX 20 1 19 2 18 3 17 4 16 5 14 6 15 7 12 8 13 9 10 10 11 11
REMARK SMILES IDX 9 12 7 15 8 16 5 17 4 18 6 20 3 21 2 22 1 23 21 24 22 25
REMARK SMILES IDX 23 26 24 27 25 28 26 29 27 30 28 31 29 32 30 33 31 34 32 35
REMARK SMILES IDX 96 36 33 37 95 38 34 39 35 40 36 41 89 42 37 43 94 44 88 45
REMARK SMILES IDX 90 46 38 47 93 48 87 49 86 50 39 52 73 53 52 54 72 55 53 56
REMARK SMILES IDX 56 57 71 58 91 59 54 60 55 61 70 63 92 64 57 65 40 66 41 67
REMARK SMILES IDX 50 68 42 69 43 70 49 71 51 72 44 73 45 74 46 75 47 76 48 77
REMARK SMILES IDX 74 78 75 79 84 80 76 81 77 82 83 83 85 84 78 85 79 86 80 87
REMARK SMILES IDX 81 88 82 89 58 90 59 91 68 92 60 93 61 94 67 95 69 96 62 97
REMARK SMILES IDX 63 98 64 99 65 100 66 101
REMARK H PARENT 9 13 9 14 4 19 90 51 56 62
REMARK Flexibility Score: inf
ROOT
ATOM      1  C   UNL A   1      37.451  22.236  25.777  1.00  0.00     0.188 C 
ENDROOT
BRANCH   1   2
ATOM      2  O   UNL A   1      36.542  22.145  24.700  1.00  0.00    -0.376 OA
BRANCH   2   3
ATOM      3  C   UNL A   1      35.268  22.731  24.879  1.00  0.00     0.202 C 
BRANCH   3   4
ATOM      4  C   UNL A   1      34.227  22.171  25.879  1.00  0.00     0.261 C 
BRANCH   4   5
ATOM      5  O   UNL A   1      32.814  22.273  25.589  1.00  0.00    -0.463 OA
BRANCH   5   6
ATOM      6  C   UNL A   1      32.124  23.261  26.218  1.00  0.00     0.314 C 
ATOM      7  O   UNL A   1      32.045  23.355  27.440  1.00  0.00    -0.252 OA
BRANCH   6   8
ATOM      8  C   UNL A   1      31.223  24.080  25.271  1.00  0.00     0.154 C 
ATOM      9  C   UNL A   1      31.182  23.215  23.998  1.00  0.00     0.026 C 
BRANCH   8  10
ATOM     10  C   UNL A   1      31.565  25.587  24.981  1.00  0.00     0.193 C 
ATOM     11  C   UNL A   1      30.393  26.347  24.313  1.00  0.00     0.076 C 
BRANCH  10  12
ATOM     12  N   UNL A   1      31.853  26.415  26.199  1.00  0.00    -0.333 N 
ATOM     13  H   UNL A   1      31.247  27.235  26.181  1.00  0.00     0.347 HD
ATOM     14  H   UNL A   1      31.679  25.821  27.011  1.00  0.00     0.347 HD
BRANCH  12  15
ATOM     15  C   UNL A   1      33.254  26.870  26.287  1.00  0.00     0.269 C 
ATOM     16  C   UNL A   1      34.171  26.147  25.308  1.00  0.00     0.086 C 
BRANCH  15  17
ATOM     17  C   UNL A   1      33.325  28.416  26.349  1.00  0.00     0.277 C 
ATOM     18  N   UNL A   1      33.387  29.231  25.269  1.00  0.00    -0.351 N 
ATOM     19  H   UNL A   1      33.882  30.069  25.412  1.00  0.00     0.163 HD
ATOM     20  O   UNL A   1      33.344  29.002  27.437  1.00  0.00    -0.268 OA
BRANCH  18  21
ATOM     21  C   UNL A   1      32.845  29.068  23.942  1.00  0.00     0.116 C 
BRANCH  21  22
ATOM     22  C   UNL A   1      33.949  28.868  22.909  1.00  0.00     0.018 C 
ATOM     23  C   UNL A   1      33.716  27.632  22.048  1.00  0.00     0.006 C 
ENDBRANCH  21  22
ENDBRANCH  18  21
ENDBRANCH  15  17
ENDBRANCH  12  15
ENDBRANCH  10  12
ENDBRANCH   8  10
ENDBRANCH   6   8
ENDBRANCH   5   6
ENDBRANCH   4   5
ENDBRANCH   3   4
ENDBRANCH   2   3
ENDBRANCH   1   2
BRANCH   1  24
ATOM     24  C   UNL A   1      38.883  21.703  25.590  1.00  0.00     0.188 C 
BRANCH  24  25
ATOM     25  O   UNL A   1      39.573  21.614  26.825  1.00  0.00    -0.377 OA
BRANCH  25  26
ATOM     26  C   UNL A   1      40.687  20.739  26.785  1.00  0.00     0.188 C 
BRANCH  26  27
ATOM     27  C   UNL A   1      41.941  21.267  27.498  1.00  0.00     0.188 C 
BRANCH  27  28
ATOM     28  O   UNL A   1      43.013  21.510  26.578  1.00  0.00    -0.376 OA
BRANCH  28  29
ATOM     29  C   UNL A   1      42.805  22.510  25.592  1.00  0.00     0.202 C 
BRANCH  29  30
ATOM     30  C   UNL A   1      42.184  23.791  26.163  1.00  0.00     0.261 C 
BRANCH  30  31
ATOM     31  O   UNL A   1      43.042  24.936  26.113  1.00  0.00    -0.460 OA
BRANCH  31  32
ATOM     32  C   UNL A   1      42.440  26.124  25.854  1.00  0.00     0.338 C 
ATOM     33  O   UNL A   1      41.936  26.471  24.811  1.00  0.00    -0.246 OA
BRANCH  32  34
ATOM     34  C   UNL A   1      42.280  26.814  27.152  1.00  0.00     0.060 A 
ATOM     35  C   UNL A   1      41.244  26.386  27.991  1.00  0.00     0.016 A 
ATOM     36  C   UNL A   1      43.192  27.787  27.580  1.00  0.00     0.016 A 
ATOM     37  C   UNL A   1      41.110  26.939  29.260  1.00  0.00     0.010 A 
ATOM     38  C   UNL A   1      43.033  28.373  28.836  1.00  0.00     0.010 A 
ATOM     39  C   UNL A   1      41.970  27.972  29.660  1.00  0.00    -0.014 A 
BRANCH  39  40
ATOM     40  C   UNL A   1      41.530  28.831  30.780  1.00  0.00     0.031 A 
ATOM     41  C   UNL A   1      42.336  28.737  32.047  1.00  0.00     0.074 A 
ATOM     42  C   UNL A   1      40.521  29.706  30.650  1.00  0.00     0.049 A 
ATOM     43  N   UNL A   1      42.244  29.434  33.146  1.00  0.00    -0.248 NA
ATOM     44  C   UNL A   1      43.409  27.724  32.066  1.00  0.00     0.031 C 
ATOM     45  C   UNL A   1      39.708  29.895  29.448  1.00  0.00     0.029 A 
ATOM     46  N   UNL A   1      40.013  30.612  31.545  1.00  0.00    -0.354 N 
ATOM     47  C   UNL A   1      43.258  28.962  33.971  1.00  0.00     0.074 A 
ATOM     48  C   UNL A   1      43.931  27.898  33.268  1.00  0.00     0.031 C 
ATOM     49  C   UNL A   1      38.797  30.857  29.685  1.00  0.00     0.029 A 
ATOM     50  C   UNL A   1      38.954  31.340  31.056  1.00  0.00     0.049 A 
ATOM     51  H   UNL A   1      40.373  30.729  32.454  1.00  0.00     0.167 HD
ATOM     52  C   UNL A   1      43.601  29.388  35.207  1.00  0.00     0.037 A 
ATOM     53  C   UNL A   1      38.204  32.282  31.660  1.00  0.00     0.037 A 
ATOM     54  C   UNL A   1      42.892  30.420  35.909  1.00  0.00     0.049 A 
ATOM     55  C   UNL A   1      38.556  32.686  33.072  1.00  0.00     0.074 A 
ATOM     56  C   UNL A   1      43.122  30.916  37.178  1.00  0.00     0.029 A 
ATOM     57  N   UNL A   1      41.797  31.103  35.398  1.00  0.00    -0.354 N 
ATOM     58  N   UNL A   1      39.530  32.249  33.838  1.00  0.00    -0.248 NA
ATOM     59  C   UNL A   1      37.717  33.716  33.699  1.00  0.00     0.031 C 
ATOM     60  C   UNL A   1      42.135  31.868  37.453  1.00  0.00     0.029 A 
ATOM     61  C   UNL A   1      41.325  32.005  36.334  1.00  0.00     0.049 A 
ATOM     62  H   UNL A   1      41.413  30.966  34.502  1.00  0.00     0.167 HD
ATOM     63  C   UNL A   1      39.440  32.970  35.024  1.00  0.00     0.074 A 
ATOM     64  C   UNL A   1      38.321  33.878  34.868  1.00  0.00     0.031 C 
ATOM     65  C   UNL A   1      40.211  32.897  36.138  1.00  0.00     0.037 A 
BRANCH  52  66
ATOM     66  C   UNL A   1      44.760  28.701  35.873  1.00  0.00     0.058 A 
ATOM     67  C   UNL A   1      44.569  27.657  36.794  1.00  0.00     0.135 A 
ATOM     68  C   UNL A   1      46.075  29.105  35.604  1.00  0.00     0.135 A 
ATOM     69  F   UNL A   1      43.329  27.255  37.114  1.00  0.00    -0.206 F 
ATOM     70  C   UNL A   1      45.643  27.052  37.439  1.00  0.00     0.059 A 
ATOM     71  C   UNL A   1      47.166  28.498  36.219  1.00  0.00     0.059 A 
ATOM     72  F   UNL A   1      46.312  30.112  34.748  1.00  0.00    -0.206 F 
ATOM     73  C   UNL A   1      46.938  27.480  37.145  1.00  0.00     0.060 A 
BRANCH  73  74
ATOM     74  S   UNL A   1      48.322  26.686  37.989  1.00  0.00     0.124 S 
ATOM     75  O   UNL A   1      49.325  27.748  37.965  1.00  0.00    -0.237 OA
ATOM     76  O   UNL A   1      47.755  26.380  39.297  1.00  0.00    -0.237 OA
ATOM     77  O   UNL A   1      48.615  25.529  37.149  1.00  0.00    -0.744 OA
ENDBRANCH  73  74
ENDBRANCH  52  66
BRANCH  53  78
ATOM     78  C   UNL A   1      37.053  32.901  30.946  1.00  0.00     0.058 A 
ATOM     79  C   UNL A   1      35.727  32.626  31.313  1.00  0.00     0.135 A 
ATOM     80  C   UNL A   1      37.261  33.781  29.872  1.00  0.00     0.135 A 
ATOM     81  F   UNL A   1      35.472  31.784  32.326  1.00  0.00    -0.206 F 
ATOM     82  C   UNL A   1      34.648  33.187  30.632  1.00  0.00     0.059 A 
ATOM     83  C   UNL A   1      36.200  34.374  29.192  1.00  0.00     0.059 A 
ATOM     84  F   UNL A   1      38.508  34.085  29.482  1.00  0.00    -0.206 F 
ATOM     85  C   UNL A   1      34.896  34.062  29.573  1.00  0.00     0.060 A 
BRANCH  85  86
ATOM     86  S   UNL A   1      33.492  34.817  28.721  1.00  0.00     0.124 S 
ATOM     87  O   UNL A   1      34.004  36.153  28.438  1.00  0.00    -0.237 OA
ATOM     88  O   UNL A   1      33.325  33.939  27.567  1.00  0.00    -0.237 OA
ATOM     89  O   UNL A   1      32.423  34.747  29.712  1.00  0.00    -0.744 OA
ENDBRANCH  85  86
ENDBRANCH  53  78
BRANCH  65  90
ATOM     90  C   UNL A   1      39.894  33.848  37.258  1.00  0.00     0.058 A 
ATOM     91  C   UNL A   1      39.095  33.467  38.346  1.00  0.00     0.135 A 
ATOM     92  C   UNL A   1      40.448  35.138  37.265  1.00  0.00     0.135 A 
ATOM     93  F   UNL A   1      38.543  32.245  38.386  1.00  0.00    -0.206 F 
ATOM     94  C   UNL A   1      38.832  34.345  39.392  1.00  0.00     0.059 A 
ATOM     95  C   UNL A   1      40.223  36.021  38.315  1.00  0.00     0.059 A 
ATOM     96  F   UNL A   1      41.234  35.543  36.254  1.00  0.00    -0.206 F 
ATOM     97  C   UNL A   1      39.401  35.621  39.367  1.00  0.00     0.060 A 
BRANCH  97  98
ATOM     98  S   UNL A   1      39.072  36.744  40.740  1.00  0.00     0.124 S 
ATOM     99  O   UNL A   1      38.713  37.970  40.035  1.00  0.00    -0.237 OA
ATOM    100  O   UNL A   1      37.981  36.072  41.440  1.00  0.00    -0.237 OA
ATOM    101  O   UNL A   1      40.341  36.780  41.460  1.00  0.00    -0.744 OA
ENDBRANCH  97  98
ENDBRANCH  65  90
ENDBRANCH  39  40
ENDBRANCH  32  34
ENDBRANCH  31  32
ENDBRANCH  30  31
ENDBRANCH  29  30
ENDBRANCH  28  29
ENDBRANCH  27  28
ENDBRANCH  26  27
ENDBRANCH  25  26
ENDBRANCH  24  25
ENDBRANCH   1  24
TORSDOF 29
ENDMDL
MODEL 2
REMARK VINA RESULT:      -8.3      1.271      2.118
REMARK SMILES CCCNC(=O)[C@H](C)[NH2+][C@H](C)[C@@H](C)C(=O)OCCOCCOCCOCCOC(=O)c1ccc(-c2c3nc(c(-c4c(F)cc(S(=O)(=O)[O-])cc4F)c4ccc([nH]4)c(-c4c(F)cc(S(=O)(=O)[O-])cc4F)c4nc(c(-c5c(F)cc(S(=O)(=O)[O-])cc5F)c5ccc2[nH]5)C=C4)C=C3)cc1
REMARK SMILES IDX 20 1 19 2 18 3 17 4 16 5 14 6 15 7 12 8 13 9 10 10 11 11
REMARK SMILES IDX 9 12 7 15 8 16 5 17 4 18 6 20 3 21 2 22 1 23 21 24 22 25
REMARK SMILES IDX 23 26 24 27 25 28 26 29 27 30 28 31 29 32 30 33 31 34 32 35
REMARK SMILES IDX 96 36 33 37 95 38 34 39 35 40 36 41 89 42 37 43 94 44 88 45
REMARK SMILES IDX 90 46 38 47 93 48 87 49 86 50 39 52 73 53 52 54 72 55 53 56
REMARK SMILES IDX 56 57 71 58 91 59 54 60 55 61 70 63 92 64 57 65 40 66 41 67
REMARK SMILES IDX 50 68 42 69 43 70 49 71 51 72 44 73 45 74 46 75 47 76 48 77
REMARK SMILES IDX 74 78 75 79 84 80 76 81 77 82 83 83 85 84 78 85 79 86 80 87
REMARK SMILES IDX 81 88 82 89 58 90 59 91 68 92 60 93 61 94 67 95 69 96 62 97
REMARK SMILES IDX 63 98 64 99 65 100 66 101
REMARK H PARENT 9 13 9 14 4 19 90 51 56 62
REMARK Flexibility Score: inf
ROOT
ATOM      1  C   UNL A   1      35.730  21.292  24.784  1.00  0.00     0.188 C 
ENDROOT
BRANCH   1   2
ATOM      2  O   UNL A   1      34.495  21.696  25.337  1.00  0.00    -0.376 OA
BRANCH   2   3
ATOM      3  C   UNL A   1      33.406  20.804  25.206  1.00  0.00     0.202 C 
BRANCH   3   4
ATOM      4  C   UNL A   1      32.115  21.173  24.435  1.00  0.00     0.261 C 
BRANCH   4   5
ATOM      5  O   UNL A   1      32.189  21.996  23.248  1.00  0.00    -0.463 OA
BRANCH   5   6
ATOM      6  C   UNL A   1      31.618  23.228  23.313  1.00  0.00     0.314 C 
ATOM      7  O   UNL A   1      30.405  23.413  23.248  1.00  0.00    -0.252 OA
BRANCH   6   8
ATOM      8  C   UNL A   1      32.633  24.383  23.192  1.00  0.00     0.154 C 
ATOM      9  C   UNL A   1      33.896  23.681  22.660  1.00  0.00     0.026 C 
BRANCH   8  10
ATOM     10  C   UNL A   1      32.918  25.303  24.434  1.00  0.00     0.193 C 
ATOM     11  C   UNL A   1      34.386  25.212  24.920  1.00  0.00     0.076 C 
BRANCH  10  12
ATOM     12  N   UNL A   1      32.736  26.772  24.187  1.00  0.00    -0.333 N 
ATOM     13  H   UNL A   1      33.575  27.258  24.501  1.00  0.00     0.347 HD
ATOM     14  H   UNL A   1      32.571  26.888  23.187  1.00  0.00     0.347 HD
BRANCH  12  15
ATOM     15  C   UNL A   1      31.572  27.350  24.888  1.00  0.00     0.269 C 
ATOM     16  C   UNL A   1      30.243  26.844  24.338  1.00  0.00     0.086 C 
BRANCH  15  17
ATOM     17  C   UNL A   1      31.786  27.321  26.421  1.00  0.00     0.277 C 
ATOM     18  N   UNL A   1      32.763  27.990  27.078  1.00  0.00    -0.351 N 
ATOM     19  H   UNL A   1      33.083  27.552  27.899  1.00  0.00     0.163 HD
ATOM     20  O   UNL A   1      31.050  26.643  27.147  1.00  0.00    -0.268 OA
BRANCH  18  21
ATOM     21  C   UNL A   1      33.410  29.241  26.769  1.00  0.00     0.116 C 
BRANCH  21  22
ATOM     22  C   UNL A   1      32.593  30.429  27.268  1.00  0.00     0.018 C 
ATOM     23  C   UNL A   1      31.664  30.982  26.194  1.00  0.00     0.006 C 
ENDBRANCH  21  22
ENDBRANCH  18  21
ENDBRANCH  15  17
ENDBRANCH  12  15
ENDBRANCH  10  12
ENDBRANCH   8  10
ENDBRANCH   6   8
ENDBRANCH   5   6
ENDBRANCH   4   5
ENDBRANCH   3   4
ENDBRANCH   2   3
ENDBRANCH   1   2
BRANCH   1  24
ATOM     24  C   UNL A   1      36.930  21.072  25.722  1.00  0.00     0.188 C 
BRANCH  24  25
ATOM     25  O   UNL A   1      37.571  22.294  26.048  1.00  0.00    -0.377 OA
BRANCH  25  26
ATOM     26  C   UNL A   1      38.984  22.226  25.978  1.00  0.00     0.188 C 
BRANCH  26  27
ATOM     27  C   UNL A   1      39.564  20.811  26.122  1.00  0.00     0.188 C 
BRANCH  27  28
ATOM     28  O   UNL A   1      40.544  20.741  27.166  1.00  0.00    -0.376 OA
BRANCH  28  29
ATOM     29  C   UNL A   1      41.765  21.434  26.954  1.00  0.00     0.202 C 
BRANCH  29  30
ATOM     30  C   UNL A   1      42.020  22.528  27.998  1.00  0.00     0.261 C 
BRANCH  30  31
ATOM     31  O   UNL A   1      43.056  23.451  27.646  1.00  0.00    -0.460 OA
BRANCH  31  32
ATOM     32  C   UNL A   1      42.689  24.484  26.846  1.00  0.00     0.338 C 
ATOM     33  O   UNL A   1      42.606  24.476  25.640  1.00  0.00    -0.246 OA
BRANCH  32  34
ATOM     34  C   UNL A   1      42.159  25.543  27.733  1.00  0.00     0.060 A 
ATOM     35  C   UNL A   1      42.952  26.680  27.931  1.00  0.00     0.016 A 
ATOM     36  C   UNL A   1      40.869  25.468  28.272  1.00  0.00     0.016 A 
ATOM     37  C   UNL A   1      42.459  27.743  28.680  1.00  0.00     0.010 A 
ATOM     38  C   UNL A   1      40.391  26.515  29.058  1.00  0.00     0.010 A 
ATOM     39  C   UNL A   1      41.202  27.637  29.290  1.00  0.00    -0.014 A 
BRANCH  39  40
ATOM     40  C   UNL A   1      40.911  28.546  30.419  1.00  0.00     0.031 A 
ATOM     41  C   UNL A   1      41.800  28.415  31.625  1.00  0.00     0.074 A 
ATOM     42  C   UNL A   1      39.962  29.493  30.341  1.00  0.00     0.049 A 
ATOM     43  N   UNL A   1      41.841  29.136  32.711  1.00  0.00    -0.248 NA
ATOM     44  C   UNL A   1      42.793  27.324  31.590  1.00  0.00     0.031 C 
ATOM     45  C   UNL A   1      39.079  29.721  29.197  1.00  0.00     0.029 A 
ATOM     46  N   UNL A   1      39.591  30.451  31.250  1.00  0.00    -0.354 N 
ATOM     47  C   UNL A   1      42.875  28.604  33.472  1.00  0.00     0.074 A 
ATOM     48  C   UNL A   1      43.414  27.479  32.747  1.00  0.00     0.031 C 
ATOM     49  C   UNL A   1      38.261  30.753  29.478  1.00  0.00     0.029 A 
ATOM     50  C   UNL A   1      38.555  31.247  30.822  1.00  0.00     0.049 A 
ATOM     51  H   UNL A   1      40.025  30.557  32.127  1.00  0.00     0.167 HD
ATOM     52  C   UNL A   1      43.340  29.024  34.669  1.00  0.00     0.037 A 
ATOM     53  C   UNL A   1      37.924  32.254  31.457  1.00  0.00     0.037 A 
ATOM     54  C   UNL A   1      42.763  30.120  35.397  1.00  0.00     0.049 A 
ATOM     55  C   UNL A   1      38.408  32.655  32.830  1.00  0.00     0.074 A 
ATOM     56  C   UNL A   1      43.122  30.619  36.634  1.00  0.00     0.029 A 
ATOM     57  N   UNL A   1      41.686  30.874  34.951  1.00  0.00    -0.354 N 
ATOM     58  N   UNL A   1      39.401  32.160  33.533  1.00  0.00    -0.248 NA
ATOM     59  C   UNL A   1      37.696  33.757  33.491  1.00  0.00     0.031 C 
ATOM     60  C   UNL A   1      42.231  31.648  36.957  1.00  0.00     0.029 A 
ATOM     61  C   UNL A   1      41.354  31.825  35.897  1.00  0.00     0.049 A 
ATOM     62  H   UNL A   1      41.229  30.751  34.088  1.00  0.00     0.167 HD
ATOM     63  C   UNL A   1      39.453  32.907  34.705  1.00  0.00     0.074 A 
ATOM     64  C   UNL A   1      38.396  33.894  34.610  1.00  0.00     0.031 C 
ATOM     65  C   UNL A   1      40.296  32.796  35.762  1.00  0.00     0.037 A 
BRANCH  52  66
ATOM     66  C   UNL A   1      44.490  28.265  35.265  1.00  0.00     0.058 A 
ATOM     67  C   UNL A   1      45.823  28.567  34.938  1.00  0.00     0.135 A 
ATOM     68  C   UNL A   1      44.258  27.208  36.157  1.00  0.00     0.135 A 
ATOM     69  F   UNL A   1      46.100  29.545  34.062  1.00  0.00    -0.206 F 
ATOM     70  C   UNL A   1      46.884  27.833  35.461  1.00  0.00     0.059 A 
ATOM     71  C   UNL A   1      45.305  26.477  36.711  1.00  0.00     0.059 A 
ATOM     72  F   UNL A   1      43.003  26.864  36.486  1.00  0.00    -0.206 F 
ATOM     73  C   UNL A   1      46.614  26.789  36.347  1.00  0.00     0.060 A 
BRANCH  73  74
ATOM     74  S   UNL A   1      47.999  25.846  37.018  1.00  0.00     0.124 S 
ATOM     75  O   UNL A   1      47.825  24.559  36.351  1.00  0.00    -0.237 OA
ATOM     76  O   UNL A   1      49.150  26.633  36.587  1.00  0.00    -0.237 OA
ATOM     77  O   UNL A   1      47.746  25.846  38.456  1.00  0.00    -0.744 OA
ENDBRANCH  73  74
ENDBRANCH  52  66
BRANCH  53  78
ATOM     78  C   UNL A   1      36.772  32.946  30.814  1.00  0.00     0.058 A 
ATOM     79  C   UNL A   1      35.449  32.536  31.042  1.00  0.00     0.135 A 
ATOM     80  C   UNL A   1      36.976  34.032  29.948  1.00  0.00     0.135 A 
ATOM     81  F   UNL A   1      35.199  31.496  31.851  1.00  0.00    -0.206 F 
ATOM     82  C   UNL A   1      34.371  33.167  30.424  1.00  0.00     0.059 A 
ATOM     83  C   UNL A   1      35.914  34.696  29.339  1.00  0.00     0.059 A 
ATOM     84  F   UNL A   1      38.219  34.470  29.700  1.00  0.00    -0.206 F 
ATOM     85  C   UNL A   1      34.615  34.248  29.574  1.00  0.00     0.060 A 
BRANCH  85  86
ATOM     86  S   UNL A   1      33.209  35.088  28.809  1.00  0.00     0.124 S 
ATOM     87  O   UNL A   1      32.643  34.025  27.989  1.00  0.00    -0.237 OA
ATOM     88  O   UNL A   1      32.422  35.488  29.971  1.00  0.00    -0.237 OA
ATOM     89  O   UNL A   1      33.834  36.187  28.077  1.00  0.00    -0.744 OA
ENDBRANCH  85  86
ENDBRANCH  53  78
BRANCH  65  90
ATOM     90  C   UNL A   1      40.135  33.788  36.879  1.00  0.00     0.058 A 
ATOM     91  C   UNL A   1      39.230  33.576  37.929  1.00  0.00     0.135 A 
ATOM     92  C   UNL A   1      40.941  34.937  36.924  1.00  0.00     0.135 A 
ATOM     93  F   UNL A   1      38.437  32.493  37.932  1.00  0.00    -0.206 F 
ATOM     94  C   UNL A   1      39.109  34.485  38.974  1.00  0.00     0.059 A 
ATOM     95  C   UNL A   1      40.858  35.843  37.974  1.00  0.00     0.059 A 
ATOM     96  F   UNL A   1      41.835  35.174  35.951  1.00  0.00    -0.206 F 
ATOM     97  C   UNL A   1      39.928  35.617  38.987  1.00  0.00     0.060 A 
BRANCH  97  98
ATOM     98  S   UNL A   1      39.779  36.779  40.359  1.00  0.00     0.124 S 
ATOM     99  O   UNL A   1      39.742  38.058  39.656  1.00  0.00    -0.237 OA
ATOM    100  O   UNL A   1      38.527  36.364  40.987  1.00  0.00    -0.237 OA
ATOM    101  O   UNL A   1      40.981  36.528  41.148  1.00  0.00    -0.744 OA
ENDBRANCH  97  98
ENDBRANCH  65  90
ENDBRANCH  39  40
ENDBRANCH  32  34
ENDBRANCH  31  32
ENDBRANCH  30  31
ENDBRANCH  29  30
ENDBRANCH  28  29
ENDBRANCH  27  28
ENDBRANCH  26  27
ENDBRANCH  25  26
ENDBRANCH  24  25
ENDBRANCH   1  24
TORSDOF 29
ENDMDL
MODEL 3
REMARK VINA RESULT:      -7.9      6.294      8.755
REMARK SMILES CCCNC(=O)[C@H](C)[NH2+][C@H](C)[C@@H](C)C(=O)OCCOCCOCCOCCOC(=O)c1ccc(-c2c3nc(c(-c4c(F)cc(S(=O)(=O)[O-])cc4F)c4ccc([nH]4)c(-c4c(F)cc(S(=O)(=O)[O-])cc4F)c4nc(c(-c5c(F)cc(S(=O)(=O)[O-])cc5F)c5ccc2[nH]5)C=C4)C=C3)cc1
REMARK SMILES IDX 20 1 19 2 18 3 17 4 16 5 14 6 15 7 12 8 13 9 10 10 11 11
REMARK SMILES IDX 9 12 7 15 8 16 5 17 4 18 6 20 3 21 2 22 1 23 21 24 22 25
REMARK SMILES IDX 23 26 24 27 25 28 26 29 27 30 28 31 29 32 30 33 31 34 32 35
REMARK SMILES IDX 96 36 33 37 95 38 34 39 35 40 36 41 89 42 37 43 94 44 88 45
REMARK SMILES IDX 90 46 38 47 93 48 87 49 86 50 39 52 73 53 52 54 72 55 53 56
REMARK SMILES IDX 56 57 71 58 91 59 54 60 55 61 70 63 92 64 57 65 40 66 41 67
REMARK SMILES IDX 50 68 42 69 43 70 49 71 51 72 44 73 45 74 46 75 47 76 48 77
REMARK SMILES IDX 74 78 75 79 84 80 76 81 77 82 83 83 85 84 78 85 79 86 80 87
REMARK SMILES IDX 81 88 82 89 58 90 59 91 68 92 60 93 61 94 67 95 69 96 62 97
REMARK SMILES IDX 63 98 64 99 65 100 66 101
REMARK H PARENT 9 13 9 14 4 19 90 51 56 62
REMARK Flexibility Score: inf
ROOT
ATOM      1  C   UNL A   1      35.328  22.863  25.298  1.00  0.00     0.188 C 
ENDROOT
BRANCH   1   2
ATOM      2  O   UNL A   1      34.714  24.126  25.442  1.00  0.00    -0.376 OA
BRANCH   2   3
ATOM      3  C   UNL A   1      33.433  24.157  26.039  1.00  0.00     0.202 C 
BRANCH   3   4
ATOM      4  C   UNL A   1      32.561  25.436  26.073  1.00  0.00     0.261 C 
BRANCH   4   5
ATOM      5  O   UNL A   1      32.924  26.585  25.272  1.00  0.00    -0.463 OA
BRANCH   5   6
ATOM      6  C   UNL A   1      33.357  27.689  25.936  1.00  0.00     0.314 C 
ATOM      7  O   UNL A   1      34.490  27.798  26.397  1.00  0.00    -0.252 OA
BRANCH   6   8
ATOM      8  C   UNL A   1      32.223  28.669  26.303  1.00  0.00     0.154 C 
ATOM      9  C   UNL A   1      31.399  27.875  27.334  1.00  0.00     0.026 C 
BRANCH   8  10
ATOM     10  C   UNL A   1      31.341  29.300  25.166  1.00  0.00     0.193 C 
ATOM     11  C   UNL A   1      31.047  30.802  25.402  1.00  0.00     0.076 C 
BRANCH  10  12
ATOM     12  N   UNL A   1      31.969  29.292  23.802  1.00  0.00    -0.333 N 
ATOM     13  H   UNL A   1      31.945  30.241  23.431  1.00  0.00     0.347 HD
ATOM     14  H   UNL A   1      32.921  28.942  23.915  1.00  0.00     0.347 HD
BRANCH  12  15
ATOM     15  C   UNL A   1      31.289  28.398  22.844  1.00  0.00     0.269 C 
ATOM     16  C   UNL A   1      32.228  27.363  22.236  1.00  0.00     0.086 C 
BRANCH  15  17
ATOM     17  C   UNL A   1      29.936  27.909  23.415  1.00  0.00     0.277 C 
ATOM     18  N   UNL A   1      28.772  28.598  23.344  1.00  0.00    -0.351 N 
ATOM     19  H   UNL A   1      28.155  28.444  24.095  1.00  0.00     0.163 HD
ATOM     20  O   UNL A   1      29.856  26.825  24.004  1.00  0.00    -0.268 OA
BRANCH  18  21
ATOM     21  C   UNL A   1      28.290  29.519  22.344  1.00  0.00     0.116 C 
BRANCH  21  22
ATOM     22  C   UNL A   1      28.966  30.882  22.470  1.00  0.00     0.018 C 
ATOM     23  C   UNL A   1      28.018  31.948  23.007  1.00  0.00     0.006 C 
ENDBRANCH  21  22
ENDBRANCH  18  21
ENDBRANCH  15  17
ENDBRANCH  12  15
ENDBRANCH  10  12
ENDBRANCH   8  10
ENDBRANCH   6   8
ENDBRANCH   5   6
ENDBRANCH   4   5
ENDBRANCH   3   4
ENDBRANCH   2   3
ENDBRANCH   1   2
BRANCH   1  24
ATOM     24  C   UNL A   1      36.609  22.749  24.452  1.00  0.00     0.188 C 
BRANCH  24  25
ATOM     25  O   UNL A   1      37.766  23.058  25.210  1.00  0.00    -0.377 OA
BRANCH  25  26
ATOM     26  C   UNL A   1      38.411  21.916  25.746  1.00  0.00     0.188 C 
BRANCH  26  27
ATOM     27  C   UNL A   1      39.666  22.220  26.578  1.00  0.00     0.188 C 
BRANCH  27  28
ATOM     28  O   UNL A   1      40.031  21.114  27.412  1.00  0.00    -0.376 OA
BRANCH  28  29
ATOM     29  C   UNL A   1      41.417  20.832  27.543  1.00  0.00     0.202 C 
BRANCH  29  30
ATOM     30  C   UNL A   1      41.871  19.652  26.675  1.00  0.00     0.261 C 
BRANCH  30  31
ATOM     31  O   UNL A   1      42.305  20.018  25.360  1.00  0.00    -0.460 OA
BRANCH  31  32
ATOM     32  C   UNL A   1      43.646  20.042  25.158  1.00  0.00     0.338 C 
ATOM     33  O   UNL A   1      44.324  19.164  24.677  1.00  0.00    -0.246 OA
BRANCH  32  34
ATOM     34  C   UNL A   1      44.089  21.434  25.391  1.00  0.00     0.060 A 
ATOM     35  C   UNL A   1      44.930  21.672  26.484  1.00  0.00     0.016 A 
ATOM     36  C   UNL A   1      43.770  22.462  24.496  1.00  0.00     0.016 A 
ATOM     37  C   UNL A   1      45.449  22.946  26.691  1.00  0.00     0.010 A 
ATOM     38  C   UNL A   1      44.255  23.749  24.727  1.00  0.00     0.010 A 
ATOM     39  C   UNL A   1      45.066  23.996  25.845  1.00  0.00    -0.014 A 
BRANCH  39  40
ATOM     40  C   UNL A   1      45.248  25.376  26.344  1.00  0.00     0.031 A 
ATOM     41  C   UNL A   1      46.635  25.947  26.230  1.00  0.00     0.074 A 
ATOM     42  C   UNL A   1      44.219  26.109  26.797  1.00  0.00     0.049 A 
ATOM     43  N   UNL A   1      47.064  27.150  26.493  1.00  0.00    -0.248 NA
ATOM     44  C   UNL A   1      47.680  25.032  25.731  1.00  0.00     0.031 C 
ATOM     45  C   UNL A   1      42.833  25.653  26.906  1.00  0.00     0.029 A 
ATOM     46  N   UNL A   1      44.183  27.405  27.242  1.00  0.00    -0.354 N 
ATOM     47  C   UNL A   1      48.416  27.142  26.169  1.00  0.00     0.074 A 
ATOM     48  C   UNL A   1      48.748  25.810  25.725  1.00  0.00     0.031 C 
ATOM     49  C   UNL A   1      42.081  26.657  27.396  1.00  0.00     0.029 A 
ATOM     50  C   UNL A   1      42.935  27.818  27.644  1.00  0.00     0.049 A 
ATOM     51  H   UNL A   1      44.977  27.986  27.271  1.00  0.00     0.167 HD
ATOM     52  C   UNL A   1      49.300  28.162  26.230  1.00  0.00     0.037 A 
ATOM     53  C   UNL A   1      42.543  29.001  28.158  1.00  0.00     0.037 A 
ATOM     54  C   UNL A   1      48.961  29.470  26.715  1.00  0.00     0.049 A 
ATOM     55  C   UNL A   1      43.566  30.102  28.292  1.00  0.00     0.074 A 
ATOM     56  C   UNL A   1      49.776  30.576  26.857  1.00  0.00     0.029 A 
ATOM     57  N   UNL A   1      47.697  29.838  27.156  1.00  0.00    -0.354 N 
ATOM     58  N   UNL A   1      44.839  30.092  27.963  1.00  0.00    -0.248 NA
ATOM     59  C   UNL A   1      43.103  31.377  28.855  1.00  0.00     0.031 C 
ATOM     60  C   UNL A   1      49.014  31.601  27.428  1.00  0.00     0.029 A 
ATOM     61  C   UNL A   1      47.712  31.150  27.589  1.00  0.00     0.049 A 
ATOM     62  H   UNL A   1      46.907  29.251  27.158  1.00  0.00     0.167 HD
ATOM     63  C   UNL A   1      45.320  31.365  28.251  1.00  0.00     0.074 A 
ATOM     64  C   UNL A   1      44.198  32.121  28.771  1.00  0.00     0.031 C 
ATOM     65  C   UNL A   1      46.570  31.870  28.096  1.00  0.00     0.037 A 
BRANCH  52  66
ATOM     66  C   UNL A   1      50.711  27.874  25.801  1.00  0.00     0.058 A 
ATOM     67  C   UNL A   1      51.721  27.586  26.734  1.00  0.00     0.135 A 
ATOM     68  C   UNL A   1      51.063  27.908  24.444  1.00  0.00     0.135 A 
ATOM     69  F   UNL A   1      51.447  27.576  28.049  1.00  0.00    -0.206 F 
ATOM     70  C   UNL A   1      53.036  27.361  26.336  1.00  0.00     0.059 A 
ATOM     71  C   UNL A   1      52.365  27.662  24.022  1.00  0.00     0.059 A 
ATOM     72  F   UNL A   1      50.140  28.200  23.514  1.00  0.00    -0.206 F 
ATOM     73  C   UNL A   1      53.348  27.402  24.977  1.00  0.00     0.060 A 
BRANCH  73  74
ATOM     74  S   UNL A   1      55.056  27.107  24.474  1.00  0.00     0.124 S 
ATOM     75  O   UNL A   1      54.876  26.599  23.117  1.00  0.00    -0.237 OA
ATOM     76  O   UNL A   1      55.645  28.438  24.580  1.00  0.00    -0.237 OA
ATOM     77  O   UNL A   1      55.535  26.133  25.449  1.00  0.00    -0.744 OA
ENDBRANCH  73  74
ENDBRANCH  52  66
BRANCH  53  78
ATOM     78  C   UNL A   1      41.131  29.205  28.585  1.00  0.00     0.058 A 
ATOM     79  C   UNL A   1      40.774  29.251  29.941  1.00  0.00     0.135 A 
ATOM     80  C   UNL A   1      40.105  29.353  27.638  1.00  0.00     0.135 A 
ATOM     81  F   UNL A   1      41.712  29.104  30.888  1.00  0.00    -0.206 F 
ATOM     82  C   UNL A   1      39.450  29.420  30.344  1.00  0.00     0.059 A 
ATOM     83  C   UNL A   1      38.779  29.549  28.015  1.00  0.00     0.059 A 
ATOM     84  F   UNL A   1      40.390  29.324  26.328  1.00  0.00    -0.206 F 
ATOM     85  C   UNL A   1      38.460  29.569  29.371  1.00  0.00     0.060 A 
BRANCH  85  86
ATOM     86  S   UNL A   1      36.751  29.830  29.901  1.00  0.00     0.124 S 
ATOM     87  O   UNL A   1      36.670  28.961  31.069  1.00  0.00    -0.237 OA
ATOM     88  O   UNL A   1      36.728  31.264  30.169  1.00  0.00    -0.237 OA
ATOM     89  O   UNL A   1      35.972  29.404  28.742  1.00  0.00    -0.744 OA
ENDBRANCH  85  86
ENDBRANCH  53  78
BRANCH  65  90
ATOM     90  C   UNL A   1      46.780  33.313  28.458  1.00  0.00     0.058 A 
ATOM     91  C   UNL A   1      47.206  33.699  29.737  1.00  0.00     0.135 A 
ATOM     92  C   UNL A   1      46.607  34.315  27.489  1.00  0.00     0.135 A 
ATOM     93  F   UNL A   1      47.386  32.779  30.697  1.00  0.00    -0.206 F 
ATOM     94  C   UNL A   1      47.426  35.035  30.053  1.00  0.00     0.059 A 
ATOM     95  C   UNL A   1      46.850  35.653  27.774  1.00  0.00     0.059 A 
ATOM     96  F   UNL A   1      46.218  33.993  26.245  1.00  0.00    -0.206 F 
ATOM     97  C   UNL A   1      47.244  36.005  29.064  1.00  0.00     0.060 A 
BRANCH  97  98
ATOM     98  S   UNL A   1      47.555  37.734  29.479  1.00  0.00     0.124 S 
ATOM     99  O   UNL A   1      48.447  38.137  28.396  1.00  0.00    -0.237 OA
ATOM    100  O   UNL A   1      46.214  38.311  29.443  1.00  0.00    -0.237 OA
ATOM    101  O   UNL A   1      48.165  37.661  30.802  1.00  0.00    -0.744 OA
ENDBRANCH  97  98
ENDBRANCH  65  90
ENDBRANCH  39  40
ENDBRANCH  32  34
ENDBRANCH  31  32
ENDBRANCH  30  31
ENDBRANCH  29  30
ENDBRANCH  28  29
ENDBRANCH  27  28
ENDBRANCH  26  27
ENDBRANCH  25  26
ENDBRANCH  24  25
ENDBRANCH   1  24
TORSDOF 29
ENDMDL
