MODEL 1
REMARK VINA RESULT:     -10.0      0.000      0.000
REMARK SMILES COc1cc([C@@H]2CC(=O)Nc3c(C(=O)OCCOCCOCCOCCOC(=O)c4ccc(-c5c6nc(c(-c7c(F)cc(S(=O)(=O)[O-])cc7F)c7ccc([nH]7)c(-c7c(F)cc(S(=O)(=O)[O-])cc7F)c7nc(c(-c8c(F)cc(S(=O)(=O)[O-])cc8F)c8ccc5[nH]8)C=C7)C=C6)cc4)cn(-c4ccc(F)cc4)c32)c(OC)c2c1OCO2
REMARK SMILES IDX 22 1 21 2 20 3 19 4 18 5 17 6 16 7 15 8 13 9 14 10 12 11
REMARK SMILES IDX 6 12 7 13 105 14 8 15 11 16 97 17 9 18 10 19 96 20 5 22 3 23
REMARK SMILES IDX 4 24 110 25 109 26 111 27 106 28 113 29 112 30 2 31 1 32
REMARK SMILES IDX 107 33 108 34 98 35 99 36 104 37 100 38 103 39 101 40 102 41
REMARK SMILES IDX 23 42 24 43 25 44 26 45 27 46 28 47 29 48 30 49 31 50 95 51
REMARK SMILES IDX 32 52 94 53 33 54 34 55 35 56 88 57 36 58 93 59 87 60 89 61
REMARK SMILES IDX 37 62 92 63 86 64 85 65 38 67 72 68 51 69 71 70 52 71 55 72
REMARK SMILES IDX 70 73 90 74 53 75 54 76 69 78 91 79 56 80 39 81 40 82 49 83
REMARK SMILES IDX 41 84 42 85 48 86 50 87 43 88 44 89 45 90 46 91 47 92 73 93
REMARK SMILES IDX 74 94 83 95 75 96 76 97 82 98 84 99 77 100 78 101 79 102
REMARK SMILES IDX 80 103 81 104 57 105 58 106 67 107 59 108 60 109 66 110
REMARK SMILES IDX 68 111 61 112 62 113 63 114 64 115 65 116
REMARK H PARENT 10 21 89 66 55 77
REMARK Flexibility Score: inf
ROOT
ATOM      1  C   UNL A   1      31.092  28.098  23.799  1.00  0.00     0.188 C 
ENDROOT
BRANCH   1   2
ATOM      2  O   UNL A   1      32.037  27.656  22.825  1.00  0.00    -0.377 OA
BRANCH   2   3
ATOM      3  C   UNL A   1      32.369  26.279  22.851  1.00  0.00     0.188 C 
BRANCH   3   4
ATOM      4  C   UNL A   1      33.597  25.939  23.727  1.00  0.00     0.188 C 
BRANCH   4   5
ATOM      5  O   UNL A   1      33.878  24.619  24.177  1.00  0.00    -0.376 OA
BRANCH   5   6
ATOM      6  C   UNL A   1      34.617  23.677  23.419  1.00  0.00     0.202 C 
BRANCH   6   7
ATOM      7  C   UNL A   1      35.669  22.741  24.035  1.00  0.00     0.261 C 
BRANCH   7   8
ATOM      8  O   UNL A   1      36.755  23.357  24.720  1.00  0.00    -0.460 OA
BRANCH   8   9
ATOM      9  C   UNL A   1      37.649  22.498  25.271  1.00  0.00     0.341 C 
ATOM     10  O   UNL A   1      37.759  21.309  24.973  1.00  0.00    -0.246 OA
BRANCH   9  11
ATOM     11  C   UNL A   1      38.553  23.173  26.182  1.00  0.00     0.102 A 
ATOM     12  C   UNL A   1      41.724  23.630  27.993  1.00  0.00     0.082 C 
ATOM     13  C   UNL A   1      41.983  22.189  28.469  1.00  0.00     0.115 C 
ATOM     14  C   UNL A   1      40.337  23.728  27.435  1.00  0.00     0.055 A 
ATOM     15  C   UNL A   1      41.335  21.092  27.630  1.00  0.00     0.225 C 
ATOM     16  C   UNL A   1      39.658  22.662  26.897  1.00  0.00     0.078 A 
ATOM     17  N   UNL A   1      39.528  24.837  27.341  1.00  0.00    -0.317 N 
ATOM     18  O   UNL A   1      41.802  19.953  27.594  1.00  0.00    -0.275 OA
ATOM     19  N   UNL A   1      40.155  21.383  26.988  1.00  0.00    -0.324 N 
ATOM     20  C   UNL A   1      38.443  24.503  26.566  1.00  0.00     0.109 A 
ATOM     21  H   UNL A   1      39.646  20.647  26.578  1.00  0.00     0.170 HD
BRANCH  12  22
ATOM     22  C   UNL A   1      42.783  24.133  26.995  1.00  0.00     0.012 A 
ATOM     23  C   UNL A   1      44.010  23.662  24.921  1.00  0.00     0.165 A 
ATOM     24  C   UNL A   1      42.951  23.399  25.793  1.00  0.00     0.059 A 
ATOM     25  C   UNL A   1      44.827  24.738  25.203  1.00  0.00     0.211 A 
ATOM     26  C   UNL A   1      44.647  25.505  26.335  1.00  0.00     0.211 A 
ATOM     27  O   UNL A   1      45.869  25.180  24.443  1.00  0.00    -0.449 OA
ATOM     28  C   UNL A   1      43.648  25.226  27.257  1.00  0.00     0.168 A 
ATOM     29  O   UNL A   1      45.572  26.505  26.413  1.00  0.00    -0.449 OA
ATOM     30  C   UNL A   1      46.263  26.355  25.167  1.00  0.00     0.468 C 
BRANCH  23  31
ATOM     31  O   UNL A   1      44.144  22.829  23.848  1.00  0.00    -0.493 OA
ATOM     32  C   UNL A   1      45.292  21.986  23.938  1.00  0.00     0.278 C 
ENDBRANCH  23  31
BRANCH  28  33
ATOM     33  O   UNL A   1      43.431  25.910  28.411  1.00  0.00    -0.492 OA
ATOM     34  C   UNL A   1      44.119  25.558  29.599  1.00  0.00     0.278 C 
ENDBRANCH  28  33
ENDBRANCH  12  22
BRANCH  17  35
ATOM     35  C   UNL A   1      39.763  26.116  27.877  1.00  0.00     0.046 A 
ATOM     36  C   UNL A   1      39.409  26.370  29.202  1.00  0.00     0.029 A 
ATOM     37  C   UNL A   1      40.312  27.119  27.071  1.00  0.00     0.029 A 
ATOM     38  C   UNL A   1      39.518  27.661  29.707  1.00  0.00     0.041 A 
ATOM     39  C   UNL A   1      40.427  28.412  27.588  1.00  0.00     0.041 A 
ATOM     40  C   UNL A   1      40.013  28.673  28.893  1.00  0.00     0.123 A 
ATOM     41  F   UNL A   1      40.096  29.920  29.376  1.00  0.00    -0.207 F 
ENDBRANCH  17  35
ENDBRANCH   9  11
ENDBRANCH   8   9
ENDBRANCH   7   8
ENDBRANCH   6   7
ENDBRANCH   5   6
ENDBRANCH   4   5
ENDBRANCH   3   4
ENDBRANCH   2   3
ENDBRANCH   1   2
BRANCH   1  42
ATOM     42  C   UNL A   1      31.560  29.077  24.908  1.00  0.00     0.188 C 
BRANCH  42  43
ATOM     43  O   UNL A   1      32.968  29.209  25.024  1.00  0.00    -0.376 OA
BRANCH  43  44
ATOM     44  C   UNL A   1      33.616  29.398  26.267  1.00  0.00     0.202 C 
BRANCH  44  45
ATOM     45  C   UNL A   1      33.542  30.764  26.938  1.00  0.00     0.261 C 
BRANCH  45  46
ATOM     46  O   UNL A   1      34.210  30.845  28.181  1.00  0.00    -0.460 OA
BRANCH  46  47
ATOM     47  C   UNL A   1      34.309  32.089  28.678  1.00  0.00     0.338 C 
ATOM     48  O   UNL A   1      33.834  33.111  28.197  1.00  0.00    -0.246 OA
BRANCH  47  49
ATOM     49  C   UNL A   1      35.223  32.048  29.817  1.00  0.00     0.060 A 
ATOM     50  C   UNL A   1      35.188  33.141  30.678  1.00  0.00     0.016 A 
ATOM     51  C   UNL A   1      36.283  31.123  29.817  1.00  0.00     0.016 A 
ATOM     52  C   UNL A   1      36.338  33.444  31.366  1.00  0.00     0.010 A 
ATOM     53  C   UNL A   1      37.433  31.433  30.501  1.00  0.00     0.010 A 
ATOM     54  C   UNL A   1      37.475  32.639  31.186  1.00  0.00    -0.014 A 
BRANCH  54  55
ATOM     55  C   UNL A   1      38.694  33.058  31.836  1.00  0.00     0.031 A 
ATOM     56  C   UNL A   1      39.675  33.580  30.867  1.00  0.00     0.074 A 
ATOM     57  C   UNL A   1      38.893  32.984  33.165  1.00  0.00     0.049 A 
ATOM     58  N   UNL A   1      40.703  32.953  30.406  1.00  0.00    -0.248 NA
ATOM     59  C   UNL A   1      39.353  34.824  30.151  1.00  0.00     0.031 C 
ATOM     60  C   UNL A   1      37.921  32.702  34.224  1.00  0.00     0.029 A 
ATOM     61  N   UNL A   1      40.039  33.216  33.858  1.00  0.00    -0.354 N 
ATOM     62  C   UNL A   1      41.303  33.832  29.518  1.00  0.00     0.074 A 
ATOM     63  C   UNL A   1      40.334  34.862  29.248  1.00  0.00     0.031 C 
ATOM     64  C   UNL A   1      38.472  32.997  35.426  1.00  0.00     0.029 A 
ATOM     65  C   UNL A   1      39.871  33.339  35.232  1.00  0.00     0.049 A 
ATOM     66  H   UNL A   1      40.920  33.292  33.422  1.00  0.00     0.167 HD
ATOM     67  C   UNL A   1      42.642  33.775  29.295  1.00  0.00     0.037 A 
ATOM     68  C   UNL A   1      40.820  33.725  36.124  1.00  0.00     0.037 A 
ATOM     69  C   UNL A   1      43.197  32.542  29.792  1.00  0.00     0.049 A 
ATOM     70  C   UNL A   1      42.135  33.453  35.490  1.00  0.00     0.074 A 
ATOM     71  C   UNL A   1      43.089  31.208  29.458  1.00  0.00     0.029 A 
ATOM     72  N   UNL A   1      43.701  32.592  31.068  1.00  0.00    -0.354 N 
ATOM     73  N   UNL A   1      42.580  32.253  35.236  1.00  0.00    -0.248 NA
ATOM     74  C   UNL A   1      42.785  34.525  34.748  1.00  0.00     0.031 C 
ATOM     75  C   UNL A   1      43.203  30.496  30.689  1.00  0.00     0.029 A 
ATOM     76  C   UNL A   1      43.426  31.417  31.715  1.00  0.00     0.049 A 
ATOM     77  H   UNL A   1      44.186  33.356  31.458  1.00  0.00     0.167 HD
ATOM     78  C   UNL A   1      43.234  32.368  34.020  1.00  0.00     0.074 A 
ATOM     79  C   UNL A   1      43.447  33.802  33.841  1.00  0.00     0.031 C 
ATOM     80  C   UNL A   1      43.278  31.313  33.155  1.00  0.00     0.037 A 
BRANCH  67  81
ATOM     81  C   UNL A   1      43.499  34.990  29.047  1.00  0.00     0.058 A 
ATOM     82  C   UNL A   1      43.564  35.995  30.032  1.00  0.00     0.135 A 
ATOM     83  C   UNL A   1      44.017  35.338  27.779  1.00  0.00     0.135 A 
ATOM     84  F   UNL A   1      43.080  35.777  31.264  1.00  0.00    -0.206 F 
ATOM     85  C   UNL A   1      44.057  37.272  29.759  1.00  0.00     0.059 A 
ATOM     86  C   UNL A   1      44.562  36.586  27.503  1.00  0.00     0.059 A 
ATOM     87  F   UNL A   1      43.926  34.527  26.719  1.00  0.00    -0.206 F 
ATOM     88  C   UNL A   1      44.546  37.557  28.488  1.00  0.00     0.060 A 
BRANCH  88  89
ATOM     89  S   UNL A   1      45.116  39.223  28.113  1.00  0.00     0.124 S 
ATOM     90  O   UNL A   1      44.826  39.317  26.688  1.00  0.00    -0.237 OA
ATOM     91  O   UNL A   1      44.279  40.032  28.994  1.00  0.00    -0.237 OA
ATOM     92  O   UNL A   1      46.532  39.181  28.468  1.00  0.00    -0.744 OA
ENDBRANCH  88  89
ENDBRANCH  67  81
BRANCH  68  93
ATOM     93  C   UNL A   1      40.682  34.605  37.315  1.00  0.00     0.058 A 
ATOM     94  C   UNL A   1      40.195  35.921  37.195  1.00  0.00     0.135 A 
ATOM     95  C   UNL A   1      40.725  34.077  38.619  1.00  0.00     0.135 A 
ATOM     96  F   UNL A   1      40.103  36.499  35.987  1.00  0.00    -0.206 F 
ATOM     97  C   UNL A   1      39.719  36.646  38.294  1.00  0.00     0.059 A 
ATOM     98  C   UNL A   1      40.260  34.782  39.730  1.00  0.00     0.059 A 
ATOM     99  F   UNL A   1      41.130  32.817  38.840  1.00  0.00    -0.206 F 
ATOM    100  C   UNL A   1      39.733  36.057  39.557  1.00  0.00     0.060 A 
BRANCH 100 101
ATOM    101  S   UNL A   1      38.945  36.911  40.945  1.00  0.00     0.124 S 
ATOM    102  O   UNL A   1      38.386  38.092  40.294  1.00  0.00    -0.237 OA
ATOM    103  O   UNL A   1      37.977  35.922  41.408  1.00  0.00    -0.237 OA
ATOM    104  O   UNL A   1      40.055  37.168  41.858  1.00  0.00    -0.744 OA
ENDBRANCH 100 101
ENDBRANCH  68  93
BRANCH  80 105
ATOM    105  C   UNL A   1      42.989  29.943  33.713  1.00  0.00     0.058 A 
ATOM    106  C   UNL A   1      41.754  29.277  33.624  1.00  0.00     0.135 A 
ATOM    107  C   UNL A   1      44.062  29.232  34.271  1.00  0.00     0.135 A 
ATOM    108  F   UNL A   1      40.700  29.851  33.024  1.00  0.00    -0.206 F 
ATOM    109  C   UNL A   1      41.588  27.975  34.105  1.00  0.00     0.059 A 
ATOM    110  C   UNL A   1      43.928  27.926  34.726  1.00  0.00     0.059 A 
ATOM    111  F   UNL A   1      45.279  29.796  34.335  1.00  0.00    -0.206 F 
ATOM    112  C   UNL A   1      42.683  27.307  34.654  1.00  0.00     0.060 A 
BRANCH 112 113
ATOM    113  S   UNL A   1      42.490  25.601  35.217  1.00  0.00     0.124 S 
ATOM    114  O   UNL A   1      41.044  25.493  35.379  1.00  0.00    -0.237 OA
ATOM    115  O   UNL A   1      43.064  24.835  34.116  1.00  0.00    -0.237 OA
ATOM    116  O   UNL A   1      43.260  25.563  36.459  1.00  0.00    -0.744 OA
ENDBRANCH 112 113
ENDBRANCH  80 105
ENDBRANCH  54  55
ENDBRANCH  47  49
ENDBRANCH  46  47
ENDBRANCH  45  46
ENDBRANCH  44  45
ENDBRANCH  43  44
ENDBRANCH  42  43
ENDBRANCH   1  42
TORSDOF 27
ENDMDL
MODEL 2
REMARK VINA RESULT:      -9.1      1.660      2.381
REMARK SMILES COc1cc([C@@H]2CC(=O)Nc3c(C(=O)OCCOCCOCCOCCOC(=O)c4ccc(-c5c6nc(c(-c7c(F)cc(S(=O)(=O)[O-])cc7F)c7ccc([nH]7)c(-c7c(F)cc(S(=O)(=O)[O-])cc7F)c7nc(c(-c8c(F)cc(S(=O)(=O)[O-])cc8F)c8ccc5[nH]8)C=C7)C=C6)cc4)cn(-c4ccc(F)cc4)c32)c(OC)c2c1OCO2
REMARK SMILES IDX 22 1 21 2 20 3 19 4 18 5 17 6 16 7 15 8 13 9 14 10 12 11
REMARK SMILES IDX 6 12 7 13 105 14 8 15 11 16 97 17 9 18 10 19 96 20 5 22 3 23
REMARK SMILES IDX 4 24 110 25 109 26 111 27 106 28 113 29 112 30 2 31 1 32
REMARK SMILES IDX 107 33 108 34 98 35 99 36 104 37 100 38 103 39 101 40 102 41
REMARK SMILES IDX 23 42 24 43 25 44 26 45 27 46 28 47 29 48 30 49 31 50 95 51
REMARK SMILES IDX 32 52 94 53 33 54 34 55 35 56 88 57 36 58 93 59 87 60 89 61
REMARK SMILES IDX 37 62 92 63 86 64 85 65 38 67 72 68 51 69 71 70 52 71 55 72
REMARK SMILES IDX 70 73 90 74 53 75 54 76 69 78 91 79 56 80 39 81 40 82 49 83
REMARK SMILES IDX 41 84 42 85 48 86 50 87 43 88 44 89 45 90 46 91 47 92 73 93
REMARK SMILES IDX 74 94 83 95 75 96 76 97 82 98 84 99 77 100 78 101 79 102
REMARK SMILES IDX 80 103 81 104 57 105 58 106 67 107 59 108 60 109 66 110
REMARK SMILES IDX 68 111 61 112 62 113 63 114 64 115 65 116
REMARK H PARENT 10 21 89 66 55 77
REMARK Flexibility Score: inf
ROOT
ATOM      1  C   UNL A   1      32.593  27.954  25.050  1.00  0.00     0.188 C 
ENDROOT
BRANCH   1   2
ATOM      2  O   UNL A   1      32.886  27.728  23.671  1.00  0.00    -0.377 OA
BRANCH   2   3
ATOM      3  C   UNL A   1      33.069  26.379  23.281  1.00  0.00     0.188 C 
BRANCH   3   4
ATOM      4  C   UNL A   1      33.577  25.454  24.411  1.00  0.00     0.188 C 
BRANCH   4   5
ATOM      5  O   UNL A   1      33.652  24.040  24.273  1.00  0.00    -0.376 OA
BRANCH   5   6
ATOM      6  C   UNL A   1      34.598  23.387  23.446  1.00  0.00     0.202 C 
BRANCH   6   7
ATOM      7  C   UNL A   1      35.722  22.495  23.998  1.00  0.00     0.261 C 
BRANCH   7   8
ATOM      8  O   UNL A   1      36.508  23.032  25.057  1.00  0.00    -0.460 OA
BRANCH   8   9
ATOM      9  C   UNL A   1      37.670  22.376  25.302  1.00  0.00     0.341 C 
ATOM     10  O   UNL A   1      38.019  21.333  24.749  1.00  0.00    -0.246 OA
BRANCH   9  11
ATOM     11  C   UNL A   1      38.522  23.111  26.215  1.00  0.00     0.102 A 
ATOM     12  C   UNL A   1      41.646  23.784  28.042  1.00  0.00     0.082 C 
ATOM     13  C   UNL A   1      41.998  22.365  28.523  1.00  0.00     0.115 C 
ATOM     14  C   UNL A   1      40.259  23.787  27.477  1.00  0.00     0.055 A 
ATOM     15  C   UNL A   1      41.429  21.224  27.683  1.00  0.00     0.225 C 
ATOM     16  C   UNL A   1      39.655  22.677  26.937  1.00  0.00     0.078 A 
ATOM     17  N   UNL A   1      39.377  24.840  27.375  1.00  0.00    -0.317 N 
ATOM     18  O   UNL A   1      41.971  20.119  27.652  1.00  0.00    -0.275 OA
ATOM     19  N   UNL A   1      40.236  21.435  27.035  1.00  0.00    -0.324 N 
ATOM     20  C   UNL A   1      38.321  24.433  26.595  1.00  0.00     0.109 A 
ATOM     21  H   UNL A   1      39.779  20.666  26.623  1.00  0.00     0.170 HD
BRANCH  12  22
ATOM     22  C   UNL A   1      42.675  24.355  27.048  1.00  0.00     0.012 A 
ATOM     23  C   UNL A   1      43.955  23.954  24.992  1.00  0.00     0.165 A 
ATOM     24  C   UNL A   1      42.910  23.622  25.857  1.00  0.00     0.059 A 
ATOM     25  C   UNL A   1      44.685  25.092  25.268  1.00  0.00     0.211 A 
ATOM     26  C   UNL A   1      44.436  25.856  26.390  1.00  0.00     0.211 A 
ATOM     27  O   UNL A   1      45.699  25.604  24.514  1.00  0.00    -0.449 OA
ATOM     28  C   UNL A   1      43.451  25.513  27.305  1.00  0.00     0.168 A 
ATOM     29  O   UNL A   1      45.281  26.924  26.464  1.00  0.00    -0.449 OA
ATOM     30  C   UNL A   1      45.995  26.813  25.227  1.00  0.00     0.468 C 
BRANCH  23  31
ATOM     31  O   UNL A   1      44.163  23.122  23.930  1.00  0.00    -0.493 OA
ATOM     32  C   UNL A   1      45.074  22.064  24.223  1.00  0.00     0.278 C 
ENDBRANCH  23  31
BRANCH  28  33
ATOM     33  O   UNL A   1      43.171  26.191  28.449  1.00  0.00    -0.492 OA
ATOM     34  C   UNL A   1      44.006  26.065  29.586  1.00  0.00     0.278 C 
ENDBRANCH  28  33
ENDBRANCH  12  22
BRANCH  17  35
ATOM     35  C   UNL A   1      39.524  26.133  27.909  1.00  0.00     0.046 A 
ATOM     36  C   UNL A   1      40.065  27.138  27.107  1.00  0.00     0.029 A 
ATOM     37  C   UNL A   1      39.160  26.384  29.236  1.00  0.00     0.029 A 
ATOM     38  C   UNL A   1      40.333  28.386  27.658  1.00  0.00     0.041 A 
ATOM     39  C   UNL A   1      39.424  27.643  29.780  1.00  0.00     0.041 A 
ATOM     40  C   UNL A   1      40.023  28.625  28.993  1.00  0.00     0.123 A 
ATOM     41  F   UNL A   1      40.303  29.821  29.525  1.00  0.00    -0.207 F 
ENDBRANCH  17  35
ENDBRANCH   9  11
ENDBRANCH   8   9
ENDBRANCH   7   8
ENDBRANCH   6   7
ENDBRANCH   5   6
ENDBRANCH   4   5
ENDBRANCH   3   4
ENDBRANCH   2   3
ENDBRANCH   1   2
BRANCH   1  42
ATOM     42  C   UNL A   1      33.223  29.182  25.758  1.00  0.00     0.188 C 
BRANCH  42  43
ATOM     43  O   UNL A   1      34.496  28.944  26.337  1.00  0.00    -0.376 OA
BRANCH  43  44
ATOM     44  C   UNL A   1      34.894  29.517  27.567  1.00  0.00     0.202 C 
BRANCH  44  45
ATOM     45  C   UNL A   1      34.463  30.942  27.891  1.00  0.00     0.261 C 
BRANCH  45  46
ATOM     46  O   UNL A   1      35.425  31.701  28.596  1.00  0.00    -0.460 OA
BRANCH  46  47
ATOM     47  C   UNL A   1      34.931  32.401  29.630  1.00  0.00     0.338 C 
ATOM     48  O   UNL A   1      33.927  33.105  29.627  1.00  0.00    -0.246 OA
BRANCH  47  49
ATOM     49  C   UNL A   1      35.886  32.313  30.732  1.00  0.00     0.060 A 
ATOM     50  C   UNL A   1      36.180  33.502  31.392  1.00  0.00     0.016 A 
ATOM     51  C   UNL A   1      36.686  31.163  30.861  1.00  0.00     0.016 A 
ATOM     52  C   UNL A   1      37.415  33.612  31.983  1.00  0.00     0.010 A 
ATOM     53  C   UNL A   1      37.922  31.277  31.447  1.00  0.00     0.010 A 
ATOM     54  C   UNL A   1      38.305  32.528  31.912  1.00  0.00    -0.014 A 
BRANCH  54  55
ATOM     55  C   UNL A   1      39.633  32.724  32.445  1.00  0.00     0.031 A 
ATOM     56  C   UNL A   1      40.590  33.108  31.391  1.00  0.00     0.074 A 
ATOM     57  C   UNL A   1      39.943  32.578  33.746  1.00  0.00     0.049 A 
ATOM     58  N   UNL A   1      41.452  32.337  30.822  1.00  0.00    -0.248 NA
ATOM     59  C   UNL A   1      40.410  34.409  30.728  1.00  0.00     0.031 C 
ATOM     60  C   UNL A   1      39.043  32.425  34.892  1.00  0.00     0.029 A 
ATOM     61  N   UNL A   1      41.172  32.600  34.326  1.00  0.00    -0.354 N 
ATOM     62  C   UNL A   1      42.101  33.133  29.892  1.00  0.00     0.074 A 
ATOM     63  C   UNL A   1      41.293  34.314  29.733  1.00  0.00     0.031 C 
ATOM     64  C   UNL A   1      39.746  32.591  36.038  1.00  0.00     0.029 A 
ATOM     65  C   UNL A   1      41.157  32.707  35.711  1.00  0.00     0.049 A 
ATOM     66  H   UNL A   1      42.007  32.545  33.806  1.00  0.00     0.167 HD
ATOM     67  C   UNL A   1      43.385  32.867  29.537  1.00  0.00     0.037 A 
ATOM     68  C   UNL A   1      42.238  32.907  36.511  1.00  0.00     0.037 A 
ATOM     69  C   UNL A   1      43.775  31.546  29.959  1.00  0.00     0.049 A 
ATOM     70  C   UNL A   1      43.424  32.445  35.746  1.00  0.00     0.074 A 
ATOM     71  C   UNL A   1      43.418  30.258  29.618  1.00  0.00     0.029 A 
ATOM     72  N   UNL A   1      44.400  31.475  31.180  1.00  0.00    -0.354 N 
ATOM     73  N   UNL A   1      43.639  31.197  35.433  1.00  0.00    -0.248 NA
ATOM     74  C   UNL A   1      44.168  33.418  34.960  1.00  0.00     0.031 C 
ATOM     75  C   UNL A   1      43.530  29.500  30.822  1.00  0.00     0.029 A 
ATOM     76  C   UNL A   1      43.998  30.341  31.834  1.00  0.00     0.049 A 
ATOM     77  H   UNL A   1      45.038  32.138  31.531  1.00  0.00     0.167 HD
ATOM     78  C   UNL A   1      44.185  31.241  34.160  1.00  0.00     0.074 A 
ATOM     79  C   UNL A   1      44.612  32.625  33.981  1.00  0.00     0.031 C 
ATOM     80  C   UNL A   1      43.972  30.219  33.279  1.00  0.00     0.037 A 
BRANCH  67  81
ATOM     81  C   UNL A   1      44.403  33.934  29.223  1.00  0.00     0.058 A 
ATOM     82  C   UNL A   1      45.094  33.881  27.997  1.00  0.00     0.135 A 
ATOM     83  C   UNL A   1      44.931  34.822  30.187  1.00  0.00     0.135 A 
ATOM     84  F   UNL A   1      44.691  33.054  27.020  1.00  0.00    -0.206 F 
ATOM     85  C   UNL A   1      46.257  34.617  27.766  1.00  0.00     0.059 A 
ATOM     86  C   UNL A   1      46.056  35.604  29.958  1.00  0.00     0.059 A 
ATOM     87  F   UNL A   1      44.447  34.899  31.432  1.00  0.00    -0.206 F 
ATOM     88  C   UNL A   1      46.733  35.469  28.758  1.00  0.00     0.060 A 
BRANCH  88  89
ATOM     89  S   UNL A   1      48.271  36.365  28.492  1.00  0.00     0.124 S 
ATOM     90  O   UNL A   1      48.656  35.898  27.166  1.00  0.00    -0.237 OA
ATOM     91  O   UNL A   1      47.828  37.753  28.580  1.00  0.00    -0.237 OA
ATOM     92  O   UNL A   1      49.117  35.913  29.593  1.00  0.00    -0.744 OA
ENDBRANCH  88  89
ENDBRANCH  67  81
BRANCH  68  93
ATOM     93  C   UNL A   1      42.361  33.761  37.722  1.00  0.00     0.058 A 
ATOM     94  C   UNL A   1      42.885  33.250  38.924  1.00  0.00     0.135 A 
ATOM     95  C   UNL A   1      42.263  35.163  37.637  1.00  0.00     0.135 A 
ATOM     96  F   UNL A   1      43.031  31.925  39.086  1.00  0.00    -0.206 F 
ATOM     97  C   UNL A   1      43.345  34.079  39.954  1.00  0.00     0.059 A 
ATOM     98  C   UNL A   1      42.710  36.010  38.651  1.00  0.00     0.059 A 
ATOM     99  F   UNL A   1      41.819  35.757  36.518  1.00  0.00    -0.206 F 
ATOM    100  C   UNL A   1      43.276  35.462  39.797  1.00  0.00     0.060 A 
BRANCH 100 101
ATOM    101  S   UNL A   1      44.041  36.537  41.037  1.00  0.00     0.124 S 
ATOM    102  O   UNL A   1      45.459  36.404  40.718  1.00  0.00    -0.237 OA
ATOM    103  O   UNL A   1      43.440  37.832  40.737  1.00  0.00    -0.237 OA
ATOM    104  O   UNL A   1      43.628  35.939  42.303  1.00  0.00    -0.744 OA
ENDBRANCH 100 101
ENDBRANCH  68  93
BRANCH  80 105
ATOM    105  C   UNL A   1      43.516  28.898  33.844  1.00  0.00     0.058 A 
ATOM    106  C   UNL A   1      44.364  27.901  34.358  1.00  0.00     0.135 A 
ATOM    107  C   UNL A   1      42.134  28.689  33.964  1.00  0.00     0.135 A 
ATOM    108  F   UNL A   1      45.696  28.061  34.364  1.00  0.00    -0.206 F 
ATOM    109  C   UNL A   1      43.856  26.731  34.930  1.00  0.00     0.059 A 
ATOM    110  C   UNL A   1      41.607  27.548  34.559  1.00  0.00     0.059 A 
ATOM    111  F   UNL A   1      41.274  29.629  33.540  1.00  0.00    -0.206 F 
ATOM    112  C   UNL A   1      42.474  26.565  35.028  1.00  0.00     0.060 A 
BRANCH 112 113
ATOM    113  S   UNL A   1      41.813  25.086  35.826  1.00  0.00     0.124 S 
ATOM    114  O   UNL A   1      42.346  24.019  34.986  1.00  0.00    -0.237 OA
ATOM    115  O   UNL A   1      42.371  25.173  37.171  1.00  0.00    -0.237 OA
ATOM    116  O   UNL A   1      40.365  25.274  35.749  1.00  0.00    -0.744 OA
ENDBRANCH 112 113
ENDBRANCH  80 105
ENDBRANCH  54  55
ENDBRANCH  47  49
ENDBRANCH  46  47
ENDBRANCH  45  46
ENDBRANCH  44  45
ENDBRANCH  43  44
ENDBRANCH  42  43
ENDBRANCH   1  42
TORSDOF 27
ENDMDL
MODEL 3
REMARK VINA RESULT:      -8.0      5.911     15.830
REMARK SMILES COc1cc([C@@H]2CC(=O)Nc3c(C(=O)OCCOCCOCCOCCOC(=O)c4ccc(-c5c6nc(c(-c7c(F)cc(S(=O)(=O)[O-])cc7F)c7ccc([nH]7)c(-c7c(F)cc(S(=O)(=O)[O-])cc7F)c7nc(c(-c8c(F)cc(S(=O)(=O)[O-])cc8F)c8ccc5[nH]8)C=C7)C=C6)cc4)cn(-c4ccc(F)cc4)c32)c(OC)c2c1OCO2
REMARK SMILES IDX 22 1 21 2 20 3 19 4 18 5 17 6 16 7 15 8 13 9 14 10 12 11
REMARK SMILES IDX 6 12 7 13 105 14 8 15 11 16 97 17 9 18 10 19 96 20 5 22 3 23
REMARK SMILES IDX 4 24 110 25 109 26 111 27 106 28 113 29 112 30 2 31 1 32
REMARK SMILES IDX 107 33 108 34 98 35 99 36 104 37 100 38 103 39 101 40 102 41
REMARK SMILES IDX 23 42 24 43 25 44 26 45 27 46 28 47 29 48 30 49 31 50 95 51
REMARK SMILES IDX 32 52 94 53 33 54 34 55 35 56 88 57 36 58 93 59 87 60 89 61
REMARK SMILES IDX 37 62 92 63 86 64 85 65 38 67 72 68 51 69 71 70 52 71 55 72
REMARK SMILES IDX 70 73 90 74 53 75 54 76 69 78 91 79 56 80 39 81 40 82 49 83
REMARK SMILES IDX 41 84 42 85 48 86 50 87 43 88 44 89 45 90 46 91 47 92 73 93
REMARK SMILES IDX 74 94 83 95 75 96 76 97 82 98 84 99 77 100 78 101 79 102
REMARK SMILES IDX 80 103 81 104 57 105 58 106 67 107 59 108 60 109 66 110
REMARK SMILES IDX 68 111 61 112 62 113 63 114 64 115 65 116
REMARK H PARENT 10 21 89 66 55 77
REMARK Flexibility Score: inf
ROOT
ATOM      1  C   UNL A   1      36.689  33.422  35.586  1.00  0.00     0.188 C 
ENDROOT
BRANCH   1   2
ATOM      2  O   UNL A   1      37.560  32.417  35.068  1.00  0.00    -0.377 OA
BRANCH   2   3
ATOM      3  C   UNL A   1      38.327  31.700  36.018  1.00  0.00     0.188 C 
BRANCH   3   4
ATOM      4  C   UNL A   1      38.580  32.466  37.338  1.00  0.00     0.188 C 
BRANCH   4   5
ATOM      5  O   UNL A   1      37.543  32.763  38.265  1.00  0.00    -0.376 OA
BRANCH   5   6
ATOM      6  C   UNL A   1      37.262  31.967  39.403  1.00  0.00     0.202 C 
BRANCH   6   7
ATOM      7  C   UNL A   1      36.060  32.218  40.328  1.00  0.00     0.261 C 
BRANCH   7   8
ATOM      8  O   UNL A   1      36.234  33.182  41.361  1.00  0.00    -0.460 OA
BRANCH   8   9
ATOM      9  C   UNL A   1      37.001  32.775  42.404  1.00  0.00     0.341 C 
ATOM     10  O   UNL A   1      38.229  32.693  42.385  1.00  0.00    -0.246 OA
BRANCH   9  11
ATOM     11  C   UNL A   1      36.212  32.556  43.600  1.00  0.00     0.102 A 
ATOM     12  C   UNL A   1      33.820  33.510  46.230  1.00  0.00     0.082 C 
ATOM     13  C   UNL A   1      34.328  34.923  46.570  1.00  0.00     0.115 C 
ATOM     14  C   UNL A   1      34.813  32.824  45.342  1.00  0.00     0.055 A 
ATOM     15  C   UNL A   1      35.092  35.633  45.455  1.00  0.00     0.225 C 
ATOM     16  C   UNL A   1      35.678  33.493  44.512  1.00  0.00     0.078 A 
ATOM     17  N   UNL A   1      35.028  31.474  45.180  1.00  0.00    -0.317 N 
ATOM     18  O   UNL A   1      35.146  36.862  45.399  1.00  0.00    -0.275 OA
ATOM     19  N   UNL A   1      35.801  34.862  44.567  1.00  0.00    -0.324 N 
ATOM     20  C   UNL A   1      35.874  31.308  44.108  1.00  0.00     0.109 A 
ATOM     21  H   UNL A   1      36.422  35.306  43.945  1.00  0.00     0.170 HD
BRANCH  12  22
ATOM     22  C   UNL A   1      32.406  33.509  45.622  1.00  0.00     0.012 A 
ATOM     23  C   UNL A   1      30.926  34.471  43.915  1.00  0.00     0.165 A 
ATOM     24  C   UNL A   1      32.205  34.254  44.432  1.00  0.00     0.059 A 
ATOM     25  C   UNL A   1      29.865  33.839  44.531  1.00  0.00     0.211 A 
ATOM     26  C   UNL A   1      30.042  33.060  45.656  1.00  0.00     0.211 A 
ATOM     27  O   UNL A   1      28.560  33.885  44.139  1.00  0.00    -0.449 OA
ATOM     28  C   UNL A   1      31.291  32.883  46.235  1.00  0.00     0.168 A 
ATOM     29  O   UNL A   1      28.859  32.545  46.097  1.00  0.00    -0.449 OA
ATOM     30  C   UNL A   1      27.955  32.982  45.075  1.00  0.00     0.468 C 
BRANCH  23  31
ATOM     31  O   UNL A   1      30.832  35.290  42.827  1.00  0.00    -0.493 OA
ATOM     32  C   UNL A   1      30.722  36.669  43.176  1.00  0.00     0.278 C 
ENDBRANCH  23  31
BRANCH  28  33
ATOM     33  O   UNL A   1      31.541  32.164  47.360  1.00  0.00    -0.492 OA
ATOM     34  C   UNL A   1      32.181  32.763  48.473  1.00  0.00     0.278 C 
ENDBRANCH  28  33
ENDBRANCH  12  22
BRANCH  17  35
ATOM     35  C   UNL A   1      34.458  30.422  45.918  1.00  0.00     0.046 A 
ATOM     36  C   UNL A   1      34.914  30.180  47.214  1.00  0.00     0.029 A 
ATOM     37  C   UNL A   1      33.474  29.616  45.336  1.00  0.00     0.029 A 
ATOM     38  C   UNL A   1      34.451  29.068  47.908  1.00  0.00     0.041 A 
ATOM     39  C   UNL A   1      33.007  28.505  46.043  1.00  0.00     0.041 A 
ATOM     40  C   UNL A   1      33.512  28.233  47.313  1.00  0.00     0.123 A 
ATOM     41  F   UNL A   1      33.085  27.150  47.977  1.00  0.00    -0.207 F 
ENDBRANCH  17  35
ENDBRANCH   9  11
ENDBRANCH   8   9
ENDBRANCH   7   8
ENDBRANCH   6   7
ENDBRANCH   5   6
ENDBRANCH   4   5
ENDBRANCH   3   4
ENDBRANCH   2   3
ENDBRANCH   1   2
BRANCH   1  42
ATOM     42  C   UNL A   1      35.687  34.113  34.624  1.00  0.00     0.188 C 
BRANCH  42  43
ATOM     43  O   UNL A   1      35.880  33.811  33.251  1.00  0.00    -0.376 OA
BRANCH  43  44
ATOM     44  C   UNL A   1      35.276  32.697  32.623  1.00  0.00     0.202 C 
BRANCH  44  45
ATOM     45  C   UNL A   1      34.698  32.863  31.223  1.00  0.00     0.261 C 
BRANCH  45  46
ATOM     46  O   UNL A   1      34.836  31.728  30.393  1.00  0.00    -0.460 OA
BRANCH  46  47
ATOM     47  C   UNL A   1      34.938  32.007  29.083  1.00  0.00     0.338 C 
ATOM     48  O   UNL A   1      34.065  32.477  28.362  1.00  0.00    -0.246 OA
BRANCH  47  49
ATOM     49  C   UNL A   1      36.228  31.505  28.613  1.00  0.00     0.060 A 
ATOM     50  C   UNL A   1      36.270  30.166  28.236  1.00  0.00     0.016 A 
ATOM     51  C   UNL A   1      37.392  32.253  28.866  1.00  0.00     0.016 A 
ATOM     52  C   UNL A   1      37.472  29.511  28.356  1.00  0.00     0.010 A 
ATOM     53  C   UNL A   1      38.590  31.594  28.991  1.00  0.00     0.010 A 
ATOM     54  C   UNL A   1      38.590  30.215  28.829  1.00  0.00    -0.014 A 
BRANCH  54  55
ATOM     55  C   UNL A   1      39.803  29.463  29.049  1.00  0.00     0.031 A 
ATOM     56  C   UNL A   1      40.105  29.328  30.486  1.00  0.00     0.074 A 
ATOM     57  C   UNL A   1      40.551  28.948  28.056  1.00  0.00     0.049 A 
ATOM     58  N   UNL A   1      40.975  30.007  31.152  1.00  0.00    -0.248 NA
ATOM     59  C   UNL A   1      39.187  28.537  31.319  1.00  0.00     0.031 C 
ATOM     60  C   UNL A   1      40.229  28.829  26.632  1.00  0.00     0.029 A 
ATOM     61  N   UNL A   1      41.770  28.352  28.143  1.00  0.00    -0.354 N 
ATOM     62  C   UNL A   1      40.883  29.546  32.456  1.00  0.00     0.074 A 
ATOM     63  C   UNL A   1      39.649  28.810  32.540  1.00  0.00     0.031 C 
ATOM     64  C   UNL A   1      41.127  28.007  26.038  1.00  0.00     0.029 A 
ATOM     65  C   UNL A   1      42.164  27.670  26.999  1.00  0.00     0.049 A 
ATOM     66  H   UNL A   1      42.330  28.400  28.953  1.00  0.00     0.167 HD
ATOM     67  C   UNL A   1      41.965  29.585  33.276  1.00  0.00     0.037 A 
ATOM     68  C   UNL A   1      43.254  26.866  26.881  1.00  0.00     0.037 A 
ATOM     69  C   UNL A   1      42.992  30.440  32.737  1.00  0.00     0.049 A 
ATOM     70  C   UNL A   1      44.202  27.276  27.947  1.00  0.00     0.074 A 
ATOM     71  C   UNL A   1      43.124  31.793  32.504  1.00  0.00     0.029 A 
ATOM     72  N   UNL A   1      43.948  29.811  31.979  1.00  0.00    -0.354 N 
ATOM     73  N   UNL A   1      44.811  28.430  27.967  1.00  0.00    -0.248 NA
ATOM     74  C   UNL A   1      44.162  26.575  29.222  1.00  0.00     0.031 C 
ATOM     75  C   UNL A   1      43.933  31.901  31.333  1.00  0.00     0.029 A 
ATOM     76  C   UNL A   1      44.302  30.616  30.929  1.00  0.00     0.049 A 
ATOM     77  H   UNL A   1      44.321  28.918  32.161  1.00  0.00     0.167 HD
ATOM     78  C   UNL A   1      44.838  28.792  29.304  1.00  0.00     0.074 A 
ATOM     79  C   UNL A   1      44.554  27.560  30.034  1.00  0.00     0.031 C 
ATOM     80  C   UNL A   1      44.804  30.108  29.666  1.00  0.00     0.037 A 
BRANCH  67  81
ATOM     81  C   UNL A   1      42.271  28.527  34.306  1.00  0.00     0.058 A 
ATOM     82  C   UNL A   1      42.310  28.888  35.667  1.00  0.00     0.135 A 
ATOM     83  C   UNL A   1      42.810  27.259  33.991  1.00  0.00     0.135 A 
ATOM     84  F   UNL A   1      41.845  30.080  36.072  1.00  0.00    -0.206 F 
ATOM     85  C   UNL A   1      42.893  28.070  36.636  1.00  0.00     0.059 A 
ATOM     86  C   UNL A   1      43.345  26.407  34.949  1.00  0.00     0.059 A 
ATOM     87  F   UNL A   1      42.940  26.828  32.732  1.00  0.00    -0.206 F 
ATOM     88  C   UNL A   1      43.414  26.835  36.263  1.00  0.00     0.060 A 
BRANCH  88  89
ATOM     89  S   UNL A   1      44.229  25.809  37.498  1.00  0.00     0.124 S 
ATOM     90  O   UNL A   1      44.041  26.602  38.706  1.00  0.00    -0.237 OA
ATOM     91  O   UNL A   1      43.459  24.572  37.415  1.00  0.00    -0.237 OA
ATOM     92  O   UNL A   1      45.601  25.721  37.007  1.00  0.00    -0.744 OA
ENDBRANCH  88  89
ENDBRANCH  67  81
BRANCH  68  93
ATOM     93  C   UNL A   1      43.390  25.576  26.153  1.00  0.00     0.058 A 
ATOM     94  C   UNL A   1      44.445  25.361  25.245  1.00  0.00     0.135 A 
ATOM     95  C   UNL A   1      42.684  24.430  26.563  1.00  0.00     0.135 A 
ATOM     96  F   UNL A   1      45.184  26.395  24.813  1.00  0.00    -0.206 F 
ATOM     97  C   UNL A   1      44.817  24.081  24.819  1.00  0.00     0.059 A 
ATOM     98  C   UNL A   1      43.033  23.144  26.150  1.00  0.00     0.059 A 
ATOM     99  F   UNL A   1      41.690  24.517  27.461  1.00  0.00    -0.206 F 
ATOM    100  C   UNL A   1      44.119  22.973  25.298  1.00  0.00     0.060 A 
BRANCH 100 101
ATOM    101  S   UNL A   1      44.714  21.310  24.905  1.00  0.00     0.124 S 
ATOM    102  O   UNL A   1      43.657  20.472  25.462  1.00  0.00    -0.237 OA
ATOM    103  O   UNL A   1      44.796  21.346  23.448  1.00  0.00    -0.237 OA
ATOM    104  O   UNL A   1      45.998  21.237  25.596  1.00  0.00    -0.744 OA
ENDBRANCH 100 101
ENDBRANCH  68  93
BRANCH  80 105
ATOM    105  C   UNL A   1      45.162  31.128  28.616  1.00  0.00     0.058 A 
ATOM    106  C   UNL A   1      44.333  31.518  27.549  1.00  0.00     0.135 A 
ATOM    107  C   UNL A   1      46.372  31.822  28.773  1.00  0.00     0.135 A 
ATOM    108  F   UNL A   1      43.120  30.969  27.380  1.00  0.00    -0.206 F 
ATOM    109  C   UNL A   1      44.711  32.525  26.657  1.00  0.00     0.059 A 
ATOM    110  C   UNL A   1      46.753  32.848  27.917  1.00  0.00     0.059 A 
ATOM    111  F   UNL A   1      47.182  31.531  29.804  1.00  0.00    -0.206 F 
ATOM    112  C   UNL A   1      45.924  33.186  26.851  1.00  0.00     0.060 A 
BRANCH 112 113
ATOM    113  S   UNL A   1      46.388  34.533  25.741  1.00  0.00     0.124 S 
ATOM    114  O   UNL A   1      46.181  35.708  26.580  1.00  0.00    -0.237 OA
ATOM    115  O   UNL A   1      47.776  34.218  25.420  1.00  0.00    -0.237 OA
ATOM    116  O   UNL A   1      45.454  34.393  24.625  1.00  0.00    -0.744 OA
ENDBRANCH 112 113
ENDBRANCH  80 105
ENDBRANCH  54  55
ENDBRANCH  47  49
ENDBRANCH  46  47
ENDBRANCH  45  46
ENDBRANCH  44  45
ENDBRANCH  43  44
ENDBRANCH  42  43
ENDBRANCH   1  42
TORSDOF 27
ENDMDL
