MODEL 1
REMARK VINA RESULT:      -9.6      0.000      0.000
REMARK SMILES Cc1c(Cl)cccc1NC(=O)NCc1cn([C@@H]2C[NH2+][C@H](C(=O)OCCOCCOCCOCCOC(=O)c3ccc(-c4c5nc(c(-c6c(F)cc(S(=O)(=O)[O-])cc6F)c6ccc([nH]6)c(-c6c(F)cc(S(=O)(=O)[O-])cc6F)c6nc(c(-c7c(F)cc(S(=O)(=O)[O-])cc7F)c7ccc4[nH]7)C=C6)C=C5)cc3)C2)nn1
REMARK SMILES IDX 28 1 27 2 26 3 25 4 24 5 23 6 21 7 22 8 20 9 17 10 18 11
REMARK SMILES IDX 104 12 19 13 16 16 14 17 15 18 106 19 105 20 13 21 12 22
REMARK SMILES IDX 9 23 10 24 11 26 8 28 1 29 2 30 3 31 4 32 5 33 7 34 6 35
REMARK SMILES IDX 29 36 30 37 31 38 32 39 33 40 34 41 35 42 36 43 37 44 38 45
REMARK SMILES IDX 39 46 103 47 40 48 102 49 41 50 42 51 43 52 96 53 44 54
REMARK SMILES IDX 101 55 95 56 97 57 45 58 100 59 94 60 93 61 46 63 80 64
REMARK SMILES IDX 59 65 79 66 60 67 63 68 78 69 98 70 61 71 62 72 77 74 99 75
REMARK SMILES IDX 64 76 47 77 48 78 57 79 49 80 50 81 56 82 58 83 51 84 52 85
REMARK SMILES IDX 53 86 54 87 55 88 81 89 82 90 91 91 83 92 84 93 90 94 92 95
REMARK SMILES IDX 85 96 86 97 87 98 88 99 89 100 65 101 66 102 75 103 67 104
REMARK SMILES IDX 68 105 74 106 76 107 69 108 70 109 71 110 72 111 73 112
REMARK H PARENT 19 14 19 15 9 25 12 27 97 62 63 73
REMARK Flexibility Score: inf
ROOT
ATOM      1  C   UNL A   1      30.525  26.564  25.045  1.00  0.00     0.188 C 
ENDROOT
BRANCH   1   2
ATOM      2  C   UNL A   1      30.524  25.400  24.027  1.00  0.00     0.188 C 
BRANCH   2   3
ATOM      3  O   UNL A   1      31.382  24.282  24.205  1.00  0.00    -0.376 OA
BRANCH   3   4
ATOM      4  C   UNL A   1      30.892  23.011  24.603  1.00  0.00     0.202 C 
BRANCH   4   5
ATOM      5  C   UNL A   1      31.618  22.069  25.586  1.00  0.00     0.261 C 
BRANCH   5   6
ATOM      6  O   UNL A   1      32.450  22.700  26.558  1.00  0.00    -0.459 OA
BRANCH   6   7
ATOM      7  C   UNL A   1      33.786  22.463  26.518  1.00  0.00     0.365 C 
ATOM      8  O   UNL A   1      34.557  22.649  27.452  1.00  0.00    -0.245 OA
BRANCH   7   9
ATOM      9  C   UNL A   1      34.167  21.780  25.182  1.00  0.00     0.295 C 
ATOM     10  C   UNL A   1      36.495  21.811  24.534  1.00  0.00     0.170 C 
ATOM     11  C   UNL A   1      35.775  23.085  24.097  1.00  0.00     0.289 C 
ATOM     12  C   UNL A   1      35.445  20.965  25.251  1.00  0.00     0.110 C 
ATOM     13  N   UNL A   1      34.354  22.750  24.081  1.00  0.00    -0.333 N 
ATOM     14  H   UNL A   1      34.097  22.329  23.187  1.00  0.00     0.347 HD
ATOM     15  H   UNL A   1      33.768  23.576  24.199  1.00  0.00     0.347 HD
BRANCH  10  16
ATOM     16  N   UNL A   1      37.624  22.102  25.381  1.00  0.00    -0.243 N 
ATOM     17  C   UNL A   1      39.537  22.091  26.372  1.00  0.00     0.102 A 
ATOM     18  C   UNL A   1      38.779  21.393  25.465  1.00  0.00     0.137 A 
ATOM     19  N   UNL A   1      38.844  23.208  26.766  1.00  0.00    -0.134 NA
ATOM     20  N   UNL A   1      37.667  23.204  26.147  1.00  0.00    -0.067 NA
BRANCH  17  21
ATOM     21  C   UNL A   1      40.924  21.787  26.763  1.00  0.00     0.178 C 
BRANCH  21  22
ATOM     22  N   UNL A   1      41.852  21.849  25.670  1.00  0.00    -0.332 N 
ATOM     23  N   UNL A   1      43.071  23.923  25.543  1.00  0.00    -0.308 N 
ATOM     24  C   UNL A   1      42.841  22.633  25.266  1.00  0.00     0.319 C 
ATOM     25  H   UNL A   1      43.928  24.211  25.154  1.00  0.00     0.171 HD
ATOM     26  O   UNL A   1      43.618  22.122  24.445  1.00  0.00    -0.248 OA
ATOM     27  H   UNL A   1      41.716  21.100  25.046  1.00  0.00     0.165 HD
BRANCH  23  28
ATOM     28  C   UNL A   1      42.454  24.988  26.224  1.00  0.00     0.047 A 
ATOM     29  C   UNL A   1      44.003  24.595  28.245  1.00  0.00     0.048 C 
ATOM     30  C   UNL A   1      42.948  25.377  27.497  1.00  0.00    -0.009 A 
ATOM     31  C   UNL A   1      42.381  26.511  28.129  1.00  0.00     0.046 A 
ATOM     32  Cl  UNL A   1      42.917  27.063  29.681  1.00  0.00    -0.084 Cl
ATOM     33  C   UNL A   1      41.338  27.222  27.538  1.00  0.00     0.021 A 
ATOM     34  C   UNL A   1      41.307  25.617  25.748  1.00  0.00     0.026 A 
ATOM     35  C   UNL A   1      40.774  26.751  26.364  1.00  0.00     0.004 A 
ENDBRANCH  23  28
ENDBRANCH  21  22
ENDBRANCH  17  21
ENDBRANCH  10  16
ENDBRANCH   7   9
ENDBRANCH   6   7
ENDBRANCH   5   6
ENDBRANCH   4   5
ENDBRANCH   3   4
ENDBRANCH   2   3
ENDBRANCH   1   2
BRANCH   1  36
ATOM     36  O   UNL A   1      31.564  26.470  25.999  1.00  0.00    -0.377 OA
BRANCH  36  37
ATOM     37  C   UNL A   1      32.263  27.673  26.281  1.00  0.00     0.188 C 
BRANCH  37  38
ATOM     38  C   UNL A   1      31.813  29.000  25.612  1.00  0.00     0.188 C 
BRANCH  38  39
ATOM     39  O   UNL A   1      32.634  30.138  25.882  1.00  0.00    -0.376 OA
BRANCH  39  40
ATOM     40  C   UNL A   1      33.265  30.294  27.144  1.00  0.00     0.202 C 
BRANCH  40  41
ATOM     41  C   UNL A   1      33.340  31.735  27.647  1.00  0.00     0.261 C 
BRANCH  41  42
ATOM     42  O   UNL A   1      34.624  32.061  28.151  1.00  0.00    -0.460 OA
BRANCH  42  43
ATOM     43  C   UNL A   1      34.633  33.001  29.102  1.00  0.00     0.338 C 
ATOM     44  O   UNL A   1      34.350  34.201  28.966  1.00  0.00    -0.246 OA
BRANCH  43  45
ATOM     45  C   UNL A   1      35.117  32.419  30.346  1.00  0.00     0.060 A 
ATOM     46  C   UNL A   1      35.073  33.279  31.441  1.00  0.00     0.016 A 
ATOM     47  C   UNL A   1      36.014  31.341  30.248  1.00  0.00     0.016 A 
ATOM     48  C   UNL A   1      36.194  33.328  32.217  1.00  0.00     0.010 A 
ATOM     49  C   UNL A   1      37.141  31.405  31.011  1.00  0.00     0.010 A 
ATOM     50  C   UNL A   1      37.256  32.482  31.883  1.00  0.00    -0.014 A 
BRANCH  50  51
ATOM     51  C   UNL A   1      38.533  32.782  32.464  1.00  0.00     0.031 A 
ATOM     52  C   UNL A   1      39.503  33.246  31.464  1.00  0.00     0.074 A 
ATOM     53  C   UNL A   1      38.734  32.683  33.788  1.00  0.00     0.049 A 
ATOM     54  N   UNL A   1      40.548  32.624  31.038  1.00  0.00    -0.248 NA
ATOM     55  C   UNL A   1      39.138  34.438  30.683  1.00  0.00     0.031 C 
ATOM     56  C   UNL A   1      37.745  32.483  34.853  1.00  0.00     0.029 A 
ATOM     57  N   UNL A   1      39.888  32.863  34.473  1.00  0.00    -0.354 N 
ATOM     58  C   UNL A   1      41.101  33.466  30.085  1.00  0.00     0.074 A 
ATOM     59  C   UNL A   1      40.090  34.434  29.753  1.00  0.00     0.031 C 
ATOM     60  C   UNL A   1      38.313  32.797  36.040  1.00  0.00     0.029 A 
ATOM     61  C   UNL A   1      39.715  33.112  35.824  1.00  0.00     0.049 A 
ATOM     62  H   UNL A   1      40.774  32.820  34.046  1.00  0.00     0.167 HD
ATOM     63  C   UNL A   1      42.435  33.464  29.835  1.00  0.00     0.037 A 
ATOM     64  C   UNL A   1      40.647  33.670  36.637  1.00  0.00     0.037 A 
ATOM     65  C   UNL A   1      43.064  32.273  30.349  1.00  0.00     0.049 A 
ATOM     66  C   UNL A   1      41.970  33.491  35.963  1.00  0.00     0.074 A 
ATOM     67  C   UNL A   1      42.907  30.923  30.097  1.00  0.00     0.029 A 
ATOM     68  N   UNL A   1      43.728  32.363  31.550  1.00  0.00    -0.354 N 
ATOM     69  N   UNL A   1      42.539  32.327  35.779  1.00  0.00    -0.248 NA
ATOM     70  C   UNL A   1      42.432  34.545  35.065  1.00  0.00     0.031 C 
ATOM     71  C   UNL A   1      43.079  30.285  31.357  1.00  0.00     0.029 A 
ATOM     72  C   UNL A   1      43.377  31.270  32.302  1.00  0.00     0.049 A 
ATOM     73  H   UNL A   1      44.344  33.082  31.821  1.00  0.00     0.167 HD
ATOM     74  C   UNL A   1      43.107  32.393  34.512  1.00  0.00     0.074 A 
ATOM     75  C   UNL A   1      43.084  33.810  34.158  1.00  0.00     0.031 C 
ATOM     76  C   UNL A   1      43.272  31.271  33.747  1.00  0.00     0.037 A 
BRANCH  63  77
ATOM     77  C   UNL A   1      43.203  34.698  29.457  1.00  0.00     0.058 A 
ATOM     78  C   UNL A   1      43.264  35.771  30.364  1.00  0.00     0.135 A 
ATOM     79  C   UNL A   1      43.649  34.977  28.143  1.00  0.00     0.135 A 
ATOM     80  F   UNL A   1      42.860  35.615  31.635  1.00  0.00    -0.206 F 
ATOM     81  C   UNL A   1      43.663  37.048  29.974  1.00  0.00     0.059 A 
ATOM     82  C   UNL A   1      44.111  36.224  27.752  1.00  0.00     0.059 A 
ATOM     83  F   UNL A   1      43.560  34.088  27.146  1.00  0.00    -0.206 F 
ATOM     84  C   UNL A   1      44.065  37.265  28.660  1.00  0.00     0.060 A 
BRANCH  84  85
ATOM     85  S   UNL A   1      44.439  38.937  28.111  1.00  0.00     0.124 S 
ATOM     86  O   UNL A   1      45.847  38.811  27.753  1.00  0.00    -0.237 OA
ATOM     87  O   UNL A   1      43.507  39.109  27.003  1.00  0.00    -0.237 OA
ATOM     88  O   UNL A   1      44.158  39.748  29.292  1.00  0.00    -0.744 OA
ENDBRANCH  84  85
ENDBRANCH  63  77
BRANCH  64  89
ATOM     89  C   UNL A   1      40.402  34.654  37.727  1.00  0.00     0.058 A 
ATOM     90  C   UNL A   1      40.790  34.388  39.051  1.00  0.00     0.135 A 
ATOM     91  C   UNL A   1      40.000  35.981  37.458  1.00  0.00     0.135 A 
ATOM     92  F   UNL A   1      41.216  33.163  39.395  1.00  0.00    -0.206 F 
ATOM     93  C   UNL A   1      40.812  35.383  40.037  1.00  0.00     0.059 A 
ATOM     94  C   UNL A   1      39.994  36.981  38.427  1.00  0.00     0.059 A 
ATOM     95  F   UNL A   1      39.684  36.381  36.219  1.00  0.00    -0.206 F 
ATOM     96  C   UNL A   1      40.425  36.682  39.710  1.00  0.00     0.060 A 
BRANCH  96  97
ATOM     97  S   UNL A   1      40.609  38.009  40.925  1.00  0.00     0.124 S 
ATOM     98  O   UNL A   1      39.246  38.150  41.424  1.00  0.00    -0.237 OA
ATOM     99  O   UNL A   1      41.577  37.440  41.857  1.00  0.00    -0.237 OA
ATOM    100  O   UNL A   1      41.102  39.131  40.129  1.00  0.00    -0.744 OA
ENDBRANCH  96  97
ENDBRANCH  64  89
BRANCH  76 101
ATOM    101  C   UNL A   1      43.077  29.927  34.403  1.00  0.00     0.058 A 
ATOM    102  C   UNL A   1      44.089  29.243  35.100  1.00  0.00     0.135 A 
ATOM    103  C   UNL A   1      41.778  29.405  34.487  1.00  0.00     0.135 A 
ATOM    104  F   UNL A   1      45.332  29.736  35.166  1.00  0.00    -0.206 F 
ATOM    105  C   UNL A   1      43.830  28.071  35.812  1.00  0.00     0.059 A 
ATOM    106  C   UNL A   1      41.490  28.255  35.220  1.00  0.00     0.059 A 
ATOM    107  F   UNL A   1      40.755  30.050  33.903  1.00  0.00    -0.206 F 
ATOM    108  C   UNL A   1      42.525  27.586  35.870  1.00  0.00     0.060 A 
BRANCH 108 109
ATOM    109  S   UNL A   1      42.175  26.128  36.876  1.00  0.00     0.124 S 
ATOM    110  O   UNL A   1      42.828  25.069  36.116  1.00  0.00    -0.237 OA
ATOM    111  O   UNL A   1      42.794  26.465  38.155  1.00  0.00    -0.237 OA
ATOM    112  O   UNL A   1      40.715  26.073  36.898  1.00  0.00    -0.744 OA
ENDBRANCH 108 109
ENDBRANCH  76 101
ENDBRANCH  50  51
ENDBRANCH  43  45
ENDBRANCH  42  43
ENDBRANCH  41  42
ENDBRANCH  40  41
ENDBRANCH  39  40
ENDBRANCH  38  39
ENDBRANCH  37  38
ENDBRANCH  36  37
ENDBRANCH   1  36
TORSDOF 27
ENDMDL
MODEL 2
REMARK VINA RESULT:      -8.6      5.005     11.029
REMARK SMILES Cc1c(Cl)cccc1NC(=O)NCc1cn([C@@H]2C[NH2+][C@H](C(=O)OCCOCCOCCOCCOC(=O)c3ccc(-c4c5nc(c(-c6c(F)cc(S(=O)(=O)[O-])cc6F)c6ccc([nH]6)c(-c6c(F)cc(S(=O)(=O)[O-])cc6F)c6nc(c(-c7c(F)cc(S(=O)(=O)[O-])cc7F)c7ccc4[nH]7)C=C6)C=C5)cc3)C2)nn1
REMARK SMILES IDX 28 1 27 2 26 3 25 4 24 5 23 6 21 7 22 8 20 9 17 10 18 11
REMARK SMILES IDX 104 12 19 13 16 16 14 17 15 18 106 19 105 20 13 21 12 22
REMARK SMILES IDX 9 23 10 24 11 26 8 28 1 29 2 30 3 31 4 32 5 33 7 34 6 35
REMARK SMILES IDX 29 36 30 37 31 38 32 39 33 40 34 41 35 42 36 43 37 44 38 45
REMARK SMILES IDX 39 46 103 47 40 48 102 49 41 50 42 51 43 52 96 53 44 54
REMARK SMILES IDX 101 55 95 56 97 57 45 58 100 59 94 60 93 61 46 63 80 64
REMARK SMILES IDX 59 65 79 66 60 67 63 68 78 69 98 70 61 71 62 72 77 74 99 75
REMARK SMILES IDX 64 76 47 77 48 78 57 79 49 80 50 81 56 82 58 83 51 84 52 85
REMARK SMILES IDX 53 86 54 87 55 88 81 89 82 90 91 91 83 92 84 93 90 94 92 95
REMARK SMILES IDX 85 96 86 97 87 98 88 99 89 100 65 101 66 102 75 103 67 104
REMARK SMILES IDX 68 105 74 106 76 107 69 108 70 109 71 110 72 111 73 112
REMARK H PARENT 19 14 19 15 9 25 12 27 97 62 63 73
REMARK Flexibility Score: inf
ROOT
ATOM      1  C   UNL A   1      38.021  33.193  34.233  1.00  0.00     0.188 C 
ENDROOT
BRANCH   1   2
ATOM      2  C   UNL A   1      37.230  34.482  33.911  1.00  0.00     0.188 C 
BRANCH   2   3
ATOM      3  O   UNL A   1      36.723  34.713  32.605  1.00  0.00    -0.376 OA
BRANCH   3   4
ATOM      4  C   UNL A   1      35.448  34.243  32.196  1.00  0.00     0.202 C 
BRANCH   4   5
ATOM      5  C   UNL A   1      34.972  32.783  32.341  1.00  0.00     0.261 C 
BRANCH   5   6
ATOM      6  O   UNL A   1      35.263  31.917  31.245  1.00  0.00    -0.459 OA
BRANCH   6   7
ATOM      7  C   UNL A   1      36.266  31.014  31.383  1.00  0.00     0.365 C 
ATOM      8  O   UNL A   1      36.288  30.117  32.218  1.00  0.00    -0.245 OA
BRANCH   7   9
ATOM      9  C   UNL A   1      37.295  31.179  30.238  1.00  0.00     0.295 C 
ATOM     10  C   UNL A   1      36.575  30.621  27.999  1.00  0.00     0.170 C 
ATOM     11  C   UNL A   1      37.067  29.387  28.753  1.00  0.00     0.289 C 
ATOM     12  C   UNL A   1      36.716  31.788  28.975  1.00  0.00     0.110 C 
ATOM     13  N   UNL A   1      37.907  29.894  29.835  1.00  0.00    -0.333 N 
ATOM     14  H   UNL A   1      38.862  30.041  29.505  1.00  0.00     0.347 HD
ATOM     15  H   UNL A   1      37.959  29.238  30.613  1.00  0.00     0.347 HD
BRANCH  10  16
ATOM     16  N   UNL A   1      35.218  30.460  27.543  1.00  0.00    -0.243 N 
ATOM     17  C   UNL A   1      33.394  29.724  26.663  1.00  0.00     0.102 A 
ATOM     18  C   UNL A   1      34.730  29.437  26.795  1.00  0.00     0.137 A 
ATOM     19  N   UNL A   1      33.113  30.870  27.365  1.00  0.00    -0.134 NA
ATOM     20  N   UNL A   1      34.246  31.312  27.904  1.00  0.00    -0.067 NA
BRANCH  17  21
ATOM     21  C   UNL A   1      32.384  28.880  26.003  1.00  0.00     0.178 C 
BRANCH  21  22
ATOM     22  N   UNL A   1      31.544  29.604  25.091  1.00  0.00    -0.332 N 
ATOM     23  N   UNL A   1      30.513  28.220  23.410  1.00  0.00    -0.308 N 
ATOM     24  C   UNL A   1      30.654  29.329  24.148  1.00  0.00     0.319 C 
ATOM     25  H   UNL A   1      29.712  28.286  22.841  1.00  0.00     0.171 HD
ATOM     26  O   UNL A   1      29.898  30.265  23.846  1.00  0.00    -0.248 OA
ATOM     27  H   UNL A   1      31.662  30.576  25.195  1.00  0.00     0.165 HD
BRANCH  23  28
ATOM     28  C   UNL A   1      31.165  26.991  23.205  1.00  0.00     0.047 A 
ATOM     29  C   UNL A   1      29.837  25.959  25.157  1.00  0.00     0.048 C 
ATOM     30  C   UNL A   1      30.791  25.867  23.988  1.00  0.00    -0.009 A 
ATOM     31  C   UNL A   1      31.388  24.614  23.707  1.00  0.00     0.046 A 
ATOM     32  Cl  UNL A   1      30.994  23.186  24.607  1.00  0.00    -0.084 Cl
ATOM     33  C   UNL A   1      32.346  24.478  22.705  1.00  0.00     0.021 A 
ATOM     34  C   UNL A   1      32.242  26.851  22.333  1.00  0.00     0.026 A 
ATOM     35  C   UNL A   1      32.802  25.605  22.043  1.00  0.00     0.004 A 
ENDBRANCH  23  28
ENDBRANCH  21  22
ENDBRANCH  17  21
ENDBRANCH  10  16
ENDBRANCH   7   9
ENDBRANCH   6   7
ENDBRANCH   5   6
ENDBRANCH   4   5
ENDBRANCH   3   4
ENDBRANCH   2   3
ENDBRANCH   1   2
BRANCH   1  36
ATOM     36  O   UNL A   1      39.003  32.884  33.263  1.00  0.00    -0.377 OA
BRANCH  36  37
ATOM     37  C   UNL A   1      40.352  33.085  33.656  1.00  0.00     0.188 C 
BRANCH  37  38
ATOM     38  C   UNL A   1      40.832  32.587  35.046  1.00  0.00     0.188 C 
BRANCH  38  39
ATOM     39  O   UNL A   1      41.180  31.203  35.120  1.00  0.00    -0.376 OA
BRANCH  39  40
ATOM     40  C   UNL A   1      40.399  30.221  34.454  1.00  0.00     0.202 C 
BRANCH  40  41
ATOM     41  C   UNL A   1      40.756  28.777  34.799  1.00  0.00     0.261 C 
BRANCH  41  42
ATOM     42  O   UNL A   1      41.401  28.669  36.056  1.00  0.00    -0.460 OA
BRANCH  42  43
ATOM     43  C   UNL A   1      41.597  27.417  36.481  1.00  0.00     0.338 C 
ATOM     44  O   UNL A   1      40.934  26.808  37.336  1.00  0.00    -0.246 OA
BRANCH  43  45
ATOM     45  C   UNL A   1      42.788  26.874  35.843  1.00  0.00     0.060 A 
ATOM     46  C   UNL A   1      43.927  27.662  35.981  1.00  0.00     0.016 A 
ATOM     47  C   UNL A   1      42.596  25.974  34.780  1.00  0.00     0.016 A 
ATOM     48  C   UNL A   1      44.658  27.872  34.848  1.00  0.00     0.010 A 
ATOM     49  C   UNL A   1      43.315  26.200  33.644  1.00  0.00     0.010 A 
ATOM     50  C   UNL A   1      44.237  27.240  33.674  1.00  0.00    -0.014 A 
BRANCH  50  51
ATOM     51  C   UNL A   1      44.781  27.732  32.441  1.00  0.00     0.031 A 
ATOM     52  C   UNL A   1      44.120  28.965  31.995  1.00  0.00     0.074 A 
ATOM     53  C   UNL A   1      45.816  27.118  31.845  1.00  0.00     0.049 A 
ATOM     54  N   UNL A   1      43.340  29.113  30.980  1.00  0.00    -0.248 NA
ATOM     55  C   UNL A   1      44.148  30.109  32.920  1.00  0.00     0.031 C 
ATOM     56  C   UNL A   1      46.678  26.053  32.370  1.00  0.00     0.029 A 
ATOM     57  N   UNL A   1      46.391  27.417  30.656  1.00  0.00    -0.354 N 
ATOM     58  C   UNL A   1      42.958  30.446  31.015  1.00  0.00     0.074 A 
ATOM     59  C   UNL A   1      43.291  30.936  32.326  1.00  0.00     0.031 C 
ATOM     60  C   UNL A   1      47.793  25.978  31.608  1.00  0.00     0.029 A 
ATOM     61  C   UNL A   1      47.669  26.907  30.498  1.00  0.00     0.049 A 
ATOM     62  H   UNL A   1      45.939  27.951  29.964  1.00  0.00     0.167 HD
ATOM     63  C   UNL A   1      42.639  31.114  29.878  1.00  0.00     0.037 A 
ATOM     64  C   UNL A   1      48.575  27.348  29.589  1.00  0.00     0.037 A 
ATOM     65  C   UNL A   1      42.368  30.207  28.792  1.00  0.00     0.049 A 
ATOM     66  C   UNL A   1      47.807  28.074  28.531  1.00  0.00     0.074 A 
ATOM     67  C   UNL A   1      41.435  29.207  28.591  1.00  0.00     0.029 A 
ATOM     68  N   UNL A   1      43.366  29.990  27.870  1.00  0.00    -0.354 N 
ATOM     69  N   UNL A   1      46.973  27.488  27.710  1.00  0.00    -0.248 NA
ATOM     70  C   UNL A   1      47.594  29.507  28.698  1.00  0.00     0.031 C 
ATOM     71  C   UNL A   1      42.125  28.190  27.873  1.00  0.00     0.029 A 
ATOM     72  C   UNL A   1      43.426  28.639  27.633  1.00  0.00     0.049 A 
ATOM     73  H   UNL A   1      43.933  30.679  27.455  1.00  0.00     0.167 HD
ATOM     74  C   UNL A   1      45.904  28.369  27.583  1.00  0.00     0.074 A 
ATOM     75  C   UNL A   1      46.383  29.630  28.143  1.00  0.00     0.031 C 
ATOM     76  C   UNL A   1      44.642  27.921  27.310  1.00  0.00     0.037 A 
BRANCH  63  77
ATOM     77  C   UNL A   1      42.933  32.574  29.673  1.00  0.00     0.058 A 
ATOM     78  C   UNL A   1      41.902  33.512  29.860  1.00  0.00     0.135 A 
ATOM     79  C   UNL A   1      44.101  33.061  29.042  1.00  0.00     0.135 A 
ATOM     80  F   UNL A   1      40.748  33.152  30.445  1.00  0.00    -0.206 F 
ATOM     81  C   UNL A   1      41.994  34.818  29.382  1.00  0.00     0.059 A 
ATOM     82  C   UNL A   1      44.239  34.373  28.617  1.00  0.00     0.059 A 
ATOM     83  F   UNL A   1      45.127  32.268  28.707  1.00  0.00    -0.206 F 
ATOM     84  C   UNL A   1      43.161  35.229  28.744  1.00  0.00     0.060 A 
BRANCH  84  85
ATOM     85  S   UNL A   1      43.232  36.863  27.995  1.00  0.00     0.124 S 
ATOM     86  O   UNL A   1      44.599  37.263  28.314  1.00  0.00    -0.237 OA
ATOM     87  O   UNL A   1      42.961  36.567  26.593  1.00  0.00    -0.237 OA
ATOM     88  O   UNL A   1      42.181  37.597  28.692  1.00  0.00    -0.744 OA
ENDBRANCH  84  85
ENDBRANCH  63  77
BRANCH  64  89
ATOM     89  C   UNL A   1      50.040  27.504  29.799  1.00  0.00     0.058 A 
ATOM     90  C   UNL A   1      50.969  26.796  29.016  1.00  0.00     0.135 A 
ATOM     91  C   UNL A   1      50.575  28.531  30.607  1.00  0.00     0.135 A 
ATOM     92  F   UNL A   1      50.551  25.822  28.194  1.00  0.00    -0.206 F 
ATOM     93  C   UNL A   1      52.334  27.110  29.009  1.00  0.00     0.059 A 
ATOM     94  C   UNL A   1      51.930  28.848  30.632  1.00  0.00     0.059 A 
ATOM     95  F   UNL A   1      49.785  29.331  31.338  1.00  0.00    -0.206 F 
ATOM     96  C   UNL A   1      52.803  28.150  29.811  1.00  0.00     0.060 A 
BRANCH  96  97
ATOM     97  S   UNL A   1      54.528  28.676  29.686  1.00  0.00     0.124 S 
ATOM     98  O   UNL A   1      55.142  27.537  29.013  1.00  0.00    -0.237 OA
ATOM     99  O   UNL A   1      54.420  29.901  28.901  1.00  0.00    -0.237 OA
ATOM    100  O   UNL A   1      54.927  28.867  31.078  1.00  0.00    -0.744 OA
ENDBRANCH  96  97
ENDBRANCH  64  89
BRANCH  76 101
ATOM    101  C   UNL A   1      44.473  26.484  26.882  1.00  0.00     0.058 A 
ATOM    102  C   UNL A   1      44.125  25.442  27.759  1.00  0.00     0.135 A 
ATOM    103  C   UNL A   1      44.484  26.188  25.511  1.00  0.00     0.135 A 
ATOM    104  F   UNL A   1      43.979  25.668  29.071  1.00  0.00    -0.206 F 
ATOM    105  C   UNL A   1      43.841  24.155  27.299  1.00  0.00     0.059 A 
ATOM    106  C   UNL A   1      44.172  24.919  25.027  1.00  0.00     0.059 A 
ATOM    107  F   UNL A   1      44.740  27.157  24.616  1.00  0.00    -0.206 F 
ATOM    108  C   UNL A   1      43.863  23.904  25.929  1.00  0.00     0.060 A 
BRANCH 108 109
ATOM    109  S   UNL A   1      43.396  22.265  25.330  1.00  0.00     0.124 S 
ATOM    110  O   UNL A   1      44.174  21.390  26.198  1.00  0.00    -0.237 OA
ATOM    111  O   UNL A   1      41.951  22.247  25.542  1.00  0.00    -0.237 OA
ATOM    112  O   UNL A   1      43.810  22.285  23.928  1.00  0.00    -0.744 OA
ENDBRANCH 108 109
ENDBRANCH  76 101
ENDBRANCH  50  51
ENDBRANCH  43  45
ENDBRANCH  42  43
ENDBRANCH  41  42
ENDBRANCH  40  41
ENDBRANCH  39  40
ENDBRANCH  38  39
ENDBRANCH  37  38
ENDBRANCH  36  37
ENDBRANCH   1  36
TORSDOF 27
ENDMDL
MODEL 3
REMARK VINA RESULT:      -8.4      6.822     13.792
REMARK SMILES Cc1c(Cl)cccc1NC(=O)NCc1cn([C@@H]2C[NH2+][C@H](C(=O)OCCOCCOCCOCCOC(=O)c3ccc(-c4c5nc(c(-c6c(F)cc(S(=O)(=O)[O-])cc6F)c6ccc([nH]6)c(-c6c(F)cc(S(=O)(=O)[O-])cc6F)c6nc(c(-c7c(F)cc(S(=O)(=O)[O-])cc7F)c7ccc4[nH]7)C=C6)C=C5)cc3)C2)nn1
REMARK SMILES IDX 28 1 27 2 26 3 25 4 24 5 23 6 21 7 22 8 20 9 17 10 18 11
REMARK SMILES IDX 104 12 19 13 16 16 14 17 15 18 106 19 105 20 13 21 12 22
REMARK SMILES IDX 9 23 10 24 11 26 8 28 1 29 2 30 3 31 4 32 5 33 7 34 6 35
REMARK SMILES IDX 29 36 30 37 31 38 32 39 33 40 34 41 35 42 36 43 37 44 38 45
REMARK SMILES IDX 39 46 103 47 40 48 102 49 41 50 42 51 43 52 96 53 44 54
REMARK SMILES IDX 101 55 95 56 97 57 45 58 100 59 94 60 93 61 46 63 80 64
REMARK SMILES IDX 59 65 79 66 60 67 63 68 78 69 98 70 61 71 62 72 77 74 99 75
REMARK SMILES IDX 64 76 47 77 48 78 57 79 49 80 50 81 56 82 58 83 51 84 52 85
REMARK SMILES IDX 53 86 54 87 55 88 81 89 82 90 91 91 83 92 84 93 90 94 92 95
REMARK SMILES IDX 85 96 86 97 87 98 88 99 89 100 65 101 66 102 75 103 67 104
REMARK SMILES IDX 68 105 74 106 76 107 69 108 70 109 71 110 72 111 73 112
REMARK H PARENT 19 14 19 15 9 25 12 27 97 62 63 73
REMARK Flexibility Score: inf
ROOT
ATOM      1  C   UNL A   1      38.062  34.314  30.729  1.00  0.00     0.188 C 
ENDROOT
BRANCH   1   2
ATOM      2  C   UNL A   1      38.661  32.978  31.226  1.00  0.00     0.188 C 
BRANCH   2   3
ATOM      3  O   UNL A   1      39.472  32.937  32.390  1.00  0.00    -0.376 OA
BRANCH   3   4
ATOM      4  C   UNL A   1      39.183  32.077  33.482  1.00  0.00     0.202 C 
BRANCH   4   5
ATOM      5  C   UNL A   1      37.885  32.135  34.314  1.00  0.00     0.261 C 
BRANCH   5   6
ATOM      6  O   UNL A   1      36.775  32.788  33.697  1.00  0.00    -0.459 OA
BRANCH   6   7
ATOM      7  C   UNL A   1      36.466  34.050  34.092  1.00  0.00     0.365 C 
ATOM      8  O   UNL A   1      37.266  34.976  34.159  1.00  0.00    -0.245 OA
BRANCH   7   9
ATOM      9  C   UNL A   1      34.937  34.187  34.290  1.00  0.00     0.295 C 
ATOM     10  C   UNL A   1      33.579  34.513  32.317  1.00  0.00     0.170 C 
ATOM     11  C   UNL A   1      34.133  35.837  32.840  1.00  0.00     0.289 C 
ATOM     12  C   UNL A   1      34.114  33.436  33.261  1.00  0.00     0.110 C 
ATOM     13  N   UNL A   1      34.482  35.594  34.237  1.00  0.00    -0.333 N 
ATOM     14  H   UNL A   1      33.667  35.728  34.837  1.00  0.00     0.347 HD
ATOM     15  H   UNL A   1      35.202  36.238  34.565  1.00  0.00     0.347 HD
BRANCH  10  16
ATOM     16  N   UNL A   1      33.970  34.275  30.951  1.00  0.00    -0.243 N 
ATOM     17  C   UNL A   1      34.932  33.570  29.156  1.00  0.00     0.102 A 
ATOM     18  C   UNL A   1      35.003  33.503  30.526  1.00  0.00     0.137 A 
ATOM     19  N   UNL A   1      33.846  34.331  28.803  1.00  0.00    -0.134 NA
ATOM     20  N   UNL A   1      33.261  34.758  29.918  1.00  0.00    -0.067 NA
BRANCH  17  21
ATOM     21  C   UNL A   1      35.784  32.837  28.205  1.00  0.00     0.178 C 
BRANCH  21  22
ATOM     22  N   UNL A   1      35.099  31.774  27.526  1.00  0.00    -0.332 N 
ATOM     23  N   UNL A   1      35.442  29.606  28.518  1.00  0.00    -0.308 N 
ATOM     24  C   UNL A   1      34.816  30.497  27.738  1.00  0.00     0.319 C 
ATOM     25  H   UNL A   1      34.953  28.751  28.525  1.00  0.00     0.171 HD
ATOM     26  O   UNL A   1      33.892  30.039  27.050  1.00  0.00    -0.248 OA
ATOM     27  H   UNL A   1      34.738  32.078  26.662  1.00  0.00     0.165 HD
BRANCH  23  28
ATOM     28  C   UNL A   1      36.588  29.525  29.330  1.00  0.00     0.047 A 
ATOM     29  C   UNL A   1      38.071  29.404  27.226  1.00  0.00     0.048 C 
ATOM     30  C   UNL A   1      37.871  29.509  28.721  1.00  0.00    -0.009 A 
ATOM     31  C   UNL A   1      39.018  29.525  29.551  1.00  0.00     0.046 A 
ATOM     32  Cl  UNL A   1      40.624  29.508  28.900  1.00  0.00    -0.084 Cl
ATOM     33  C   UNL A   1      38.905  29.526  30.940  1.00  0.00     0.021 A 
ATOM     34  C   UNL A   1      36.518  29.356  30.710  1.00  0.00     0.026 A 
ATOM     35  C   UNL A   1      37.654  29.402  31.520  1.00  0.00     0.004 A 
ENDBRANCH  23  28
ENDBRANCH  21  22
ENDBRANCH  17  21
ENDBRANCH  10  16
ENDBRANCH   7   9
ENDBRANCH   6   7
ENDBRANCH   5   6
ENDBRANCH   4   5
ENDBRANCH   3   4
ENDBRANCH   2   3
ENDBRANCH   1   2
BRANCH   1  36
ATOM     36  O   UNL A   1      38.500  34.674  29.433  1.00  0.00    -0.377 OA
BRANCH  36  37
ATOM     37  C   UNL A   1      39.855  34.377  29.130  1.00  0.00     0.188 C 
BRANCH  37  38
ATOM     38  C   UNL A   1      40.924  35.500  29.204  1.00  0.00     0.188 C 
BRANCH  38  39
ATOM     39  O   UNL A   1      42.021  35.252  30.086  1.00  0.00    -0.376 OA
BRANCH  39  40
ATOM     40  C   UNL A   1      42.847  34.110  29.913  1.00  0.00     0.202 C 
BRANCH  40  41
ATOM     41  C   UNL A   1      43.652  34.093  28.614  1.00  0.00     0.261 C 
BRANCH  41  42
ATOM     42  O   UNL A   1      45.049  34.044  28.849  1.00  0.00    -0.460 OA
BRANCH  42  43
ATOM     43  C   UNL A   1      45.801  34.560  27.872  1.00  0.00     0.338 C 
ATOM     44  O   UNL A   1      45.437  35.358  26.994  1.00  0.00    -0.246 OA
BRANCH  43  45
ATOM     45  C   UNL A   1      47.132  33.970  27.929  1.00  0.00     0.060 A 
ATOM     46  C   UNL A   1      47.661  33.619  26.690  1.00  0.00     0.016 A 
ATOM     47  C   UNL A   1      47.513  33.354  29.133  1.00  0.00     0.016 A 
ATOM     48  C   UNL A   1      48.229  32.382  26.603  1.00  0.00     0.010 A 
ATOM     49  C   UNL A   1      48.062  32.110  29.042  1.00  0.00     0.010 A 
ATOM     50  C   UNL A   1      48.280  31.606  27.765  1.00  0.00    -0.014 A 
BRANCH  50  51
ATOM     51  C   UNL A   1      48.545  30.205  27.599  1.00  0.00     0.031 A 
ATOM     52  C   UNL A   1      47.339  29.387  27.779  1.00  0.00     0.074 A 
ATOM     53  C   UNL A   1      49.768  29.765  27.261  1.00  0.00     0.049 A 
ATOM     54  N   UNL A   1      47.077  28.580  28.748  1.00  0.00    -0.248 NA
ATOM     55  C   UNL A   1      46.198  29.677  26.897  1.00  0.00     0.031 C 
ATOM     56  C   UNL A   1      50.931  30.540  26.815  1.00  0.00     0.029 A 
ATOM     57  N   UNL A   1      50.188  28.484  27.136  1.00  0.00    -0.354 N 
ATOM     58  C   UNL A   1      45.812  28.085  28.469  1.00  0.00     0.074 A 
ATOM     59  C   UNL A   1      45.242  28.948  27.469  1.00  0.00     0.031 C 
ATOM     60  C   UNL A   1      51.823  29.699  26.245  1.00  0.00     0.029 A 
ATOM     61  C   UNL A   1      51.341  28.335  26.383  1.00  0.00     0.049 A 
ATOM     62  H   UNL A   1      49.715  27.724  27.545  1.00  0.00     0.167 HD
ATOM     63  C   UNL A   1      45.433  26.851  28.888  1.00  0.00     0.037 A 
ATOM     64  C   UNL A   1      51.755  27.173  25.817  1.00  0.00     0.037 A 
ATOM     65  C   UNL A   1      46.299  26.359  29.929  1.00  0.00     0.049 A 
ATOM     66  C   UNL A   1      51.060  26.067  26.545  1.00  0.00     0.074 A 
ATOM     67  C   UNL A   1      46.621  26.807  31.197  1.00  0.00     0.029 A 
ATOM     68  N   UNL A   1      47.282  25.463  29.578  1.00  0.00    -0.354 N 
ATOM     69  N   UNL A   1      51.287  25.769  27.799  1.00  0.00    -0.248 NA
ATOM     70  C   UNL A   1      49.772  25.610  26.032  1.00  0.00     0.031 C 
ATOM     71  C   UNL A   1      48.002  26.505  31.360  1.00  0.00     0.029 A 
ATOM     72  C   UNL A   1      48.440  25.850  30.206  1.00  0.00     0.049 A 
ATOM     73  H   UNL A   1      47.175  24.685  28.985  1.00  0.00     0.167 HD
ATOM     74  C   UNL A   1      50.041  25.463  28.335  1.00  0.00     0.074 A 
ATOM     75  C   UNL A   1      49.161  25.298  27.181  1.00  0.00     0.031 C 
ATOM     76  C   UNL A   1      49.768  25.661  29.660  1.00  0.00     0.037 A 
BRANCH  63  77
ATOM     77  C   UNL A   1      44.511  25.962  28.101  1.00  0.00     0.058 A 
ATOM     78  C   UNL A   1      43.353  25.459  28.719  1.00  0.00     0.135 A 
ATOM     79  C   UNL A   1      44.855  25.370  26.863  1.00  0.00     0.135 A 
ATOM     80  F   UNL A   1      42.941  25.948  29.899  1.00  0.00    -0.206 F 
ATOM     81  C   UNL A   1      42.634  24.390  28.186  1.00  0.00     0.059 A 
ATOM     82  C   UNL A   1      44.117  24.349  26.283  1.00  0.00     0.059 A 
ATOM     83  F   UNL A   1      45.980  25.674  26.204  1.00  0.00    -0.206 F 
ATOM     84  C   UNL A   1      43.040  23.831  26.978  1.00  0.00     0.060 A 
BRANCH  84  85
ATOM     85  S   UNL A   1      42.210  22.361  26.358  1.00  0.00     0.124 S 
ATOM     86  O   UNL A   1      40.820  22.804  26.340  1.00  0.00    -0.237 OA
ATOM     87  O   UNL A   1      42.843  22.180  25.057  1.00  0.00    -0.237 OA
ATOM     88  O   UNL A   1      42.536  21.347  27.356  1.00  0.00    -0.744 OA
ENDBRANCH  84  85
ENDBRANCH  63  77
BRANCH  64  89
ATOM     89  C   UNL A   1      52.387  27.012  24.479  1.00  0.00     0.058 A 
ATOM     90  C   UNL A   1      51.651  27.202  23.297  1.00  0.00     0.135 A 
ATOM     91  C   UNL A   1      53.787  26.906  24.322  1.00  0.00     0.135 A 
ATOM     92  F   UNL A   1      50.318  27.344  23.350  1.00  0.00    -0.206 F 
ATOM     93  C   UNL A   1      52.266  27.315  22.044  1.00  0.00     0.059 A 
ATOM     94  C   UNL A   1      54.419  26.995  23.084  1.00  0.00     0.059 A 
ATOM     95  F   UNL A   1      54.605  26.803  25.378  1.00  0.00    -0.206 F 
ATOM     96  C   UNL A   1      53.655  27.224  21.950  1.00  0.00     0.060 A 
BRANCH  96  97
ATOM     97  S   UNL A   1      54.473  27.536  20.368  1.00  0.00     0.124 S 
ATOM     98  O   UNL A   1      55.788  28.000  20.795  1.00  0.00    -0.237 OA
ATOM     99  O   UNL A   1      54.431  26.222  19.736  1.00  0.00    -0.237 OA
ATOM    100  O   UNL A   1      53.627  28.551  19.744  1.00  0.00    -0.744 OA
ENDBRANCH  96  97
ENDBRANCH  64  89
BRANCH  76 101
ATOM    101  C   UNL A   1      50.920  25.963  30.586  1.00  0.00     0.058 A 
ATOM    102  C   UNL A   1      51.510  27.233  30.713  1.00  0.00     0.135 A 
ATOM    103  C   UNL A   1      51.315  24.980  31.505  1.00  0.00     0.135 A 
ATOM    104  F   UNL A   1      51.107  28.257  29.950  1.00  0.00    -0.206 F 
ATOM    105  C   UNL A   1      52.477  27.502  31.682  1.00  0.00     0.059 A 
ATOM    106  C   UNL A   1      52.254  25.236  32.502  1.00  0.00     0.059 A 
ATOM    107  F   UNL A   1      50.738  23.767  31.483  1.00  0.00    -0.206 F 
ATOM    108  C   UNL A   1      52.841  26.497  32.577  1.00  0.00     0.060 A 
BRANCH 108 109
ATOM    109  S   UNL A   1      54.017  26.878  33.893  1.00  0.00     0.124 S 
ATOM    110  O   UNL A   1      53.966  28.334  33.937  1.00  0.00    -0.237 OA
ATOM    111  O   UNL A   1      53.442  26.188  35.045  1.00  0.00    -0.237 OA
ATOM    112  O   UNL A   1      55.272  26.310  33.402  1.00  0.00    -0.744 OA
ENDBRANCH 108 109
ENDBRANCH  76 101
ENDBRANCH  50  51
ENDBRANCH  43  45
ENDBRANCH  42  43
ENDBRANCH  41  42
ENDBRANCH  40  41
ENDBRANCH  39  40
ENDBRANCH  38  39
ENDBRANCH  37  38
ENDBRANCH  36  37
ENDBRANCH   1  36
TORSDOF 27
ENDMDL
