MODEL 1
REMARK VINA RESULT:      -9.1      0.000      0.000
REMARK SMILES COc1cc(C)cc2c1[C@@H](C)[C@@H](CC(=O)N[C@@H](Cc1c[nH]c3ccccc13)C(=O)OCCOCCOCCOCCOC(=O)c1ccc(-c3c4nc(c(-c5c(F)cc(S(=O)(=O)[O-])cc5F)c5ccc([nH]5)c(-c5c(F)cc(S(=O)(=O)[O-])cc5F)c5nc(c(-c6c(F)cc(S(=O)(=O)[O-])cc6F)c6ccc3[nH]6)C=C5)C=C4)cc1)C(=O)O2
REMARK SMILES IDX 35 1 34 2 33 3 32 4 31 5 30 6 28 7 29 8 17 9 16 10 14 11
REMARK SMILES IDX 15 12 13 14 12 15 3 16 4 17 9 18 5 19 8 20 10 21 6 22 7 23
REMARK SMILES IDX 113 24 11 25 111 26 112 27 2 28 1 29 18 30 19 31 20 32 27 33
REMARK SMILES IDX 21 34 22 35 26 36 23 38 25 39 24 40 36 41 37 42 38 43 39 44
REMARK SMILES IDX 40 45 41 46 42 47 43 48 44 49 45 50 46 51 110 52 47 53
REMARK SMILES IDX 109 54 48 55 49 56 50 57 103 58 51 59 108 60 102 61 104 62
REMARK SMILES IDX 52 63 107 64 101 65 100 66 53 68 87 69 66 70 86 71 67 72
REMARK SMILES IDX 70 73 85 74 105 75 68 76 69 77 84 79 106 80 71 81 54 82
REMARK SMILES IDX 55 83 64 84 56 85 57 86 63 87 65 88 58 89 59 90 60 91 61 92
REMARK SMILES IDX 62 93 88 94 89 95 98 96 90 97 91 98 97 99 99 100 92 101
REMARK SMILES IDX 93 102 94 103 95 104 96 105 72 106 73 107 82 108 74 109
REMARK SMILES IDX 75 110 81 111 83 112 76 113 77 114 78 115 79 116 80 117
REMARK H PARENT 16 13 21 37 104 67 70 78
REMARK Flexibility Score: inf
ROOT
ATOM      1  C   UNL A   1      41.001  22.770  26.421  1.00  0.00     0.188 C 
ENDROOT
BRANCH   1   2
ATOM      2  C   UNL A   1      40.087  21.541  26.404  1.00  0.00     0.188 C 
BRANCH   2   3
ATOM      3  O   UNL A   1      38.875  21.593  25.671  1.00  0.00    -0.376 OA
BRANCH   3   4
ATOM      4  C   UNL A   1      37.873  22.545  26.036  1.00  0.00     0.202 C 
BRANCH   4   5
ATOM      5  C   UNL A   1      36.982  23.180  24.962  1.00  0.00     0.261 C 
BRANCH   5   6
ATOM      6  O   UNL A   1      35.615  23.320  25.392  1.00  0.00    -0.462 OA
BRANCH   6   7
ATOM      7  C   UNL A   1      34.696  23.080  24.435  1.00  0.00     0.329 C 
ATOM      8  O   UNL A   1      34.674  23.659  23.351  1.00  0.00    -0.250 OA
BRANCH   7   9
ATOM      9  C   UNL A   1      33.686  21.972  24.756  1.00  0.00     0.196 C 
BRANCH   9  10
ATOM     10  N   UNL A   1      32.565  22.053  25.682  1.00  0.00    -0.342 N 
ATOM     11  C   UNL A   1      32.176  23.142  26.425  1.00  0.00     0.221 C 
ATOM     12  O   UNL A   1      31.725  22.990  27.560  1.00  0.00    -0.275 OA
ATOM     13  H   UNL A   1      32.025  21.236  25.788  1.00  0.00     0.164 HD
BRANCH  11  14
ATOM     14  C   UNL A   1      32.077  24.502  25.738  1.00  0.00     0.116 C 
BRANCH  14  15
ATOM     15  C   UNL A   1      30.700  25.014  25.263  1.00  0.00     0.116 C 
ATOM     16  C   UNL A   1      32.200  28.334  24.153  1.00  0.00     0.126 A 
ATOM     17  C   UNL A   1      32.958  29.288  24.852  1.00  0.00     0.050 A 
ATOM     18  C   UNL A   1      31.476  27.358  24.846  1.00  0.00     0.041 A 
ATOM     19  C   UNL A   1      33.011  29.288  26.254  1.00  0.00    -0.044 A 
ATOM     20  C   UNL A   1      31.414  27.489  26.241  1.00  0.00     0.138 A 
ATOM     21  C   UNL A   1      30.756  26.171  24.220  1.00  0.00     0.038 C 
ATOM     22  C   UNL A   1      33.857  30.287  26.986  1.00  0.00     0.044 C 
ATOM     23  C   UNL A   1      32.189  28.405  26.951  1.00  0.00     0.051 A 
ATOM     24  O   UNL A   1      30.514  26.711  26.996  1.00  0.00    -0.426 OA
ATOM     25  C   UNL A   1      31.316  25.652  22.891  1.00  0.00     0.014 C 
ATOM     26  C   UNL A   1      29.910  25.614  26.395  1.00  0.00     0.315 C 
ATOM     27  O   UNL A   1      28.867  25.129  26.817  1.00  0.00    -0.251 OA
BRANCH  16  28
ATOM     28  O   UNL A   1      32.036  28.409  22.797  1.00  0.00    -0.496 OA
ATOM     29  C   UNL A   1      30.993  29.284  22.382  1.00  0.00     0.278 C 
ENDBRANCH  16  28
ENDBRANCH  14  15
ENDBRANCH  11  14
ENDBRANCH   9  10
BRANCH   9  30
ATOM     30  C   UNL A   1      33.261  21.294  23.463  1.00  0.00     0.074 C 
BRANCH  30  31
ATOM     31  C   UNL A   1      32.592  19.941  23.443  1.00  0.00    -0.020 A 
ATOM     32  C   UNL A   1      31.952  19.425  22.327  1.00  0.00     0.087 A 
ATOM     33  C   UNL A   1      32.743  18.756  24.250  1.00  0.00     0.003 A 
ATOM     34  N   UNL A   1      32.697  18.298  22.093  1.00  0.00    -0.361 N 
ATOM     35  C   UNL A   1      32.852  17.710  23.323  1.00  0.00     0.046 A 
ATOM     36  C   UNL A   1      32.852  18.406  25.611  1.00  0.00     0.010 A 
ATOM     37  H   UNL A   1      33.047  17.978  21.229  1.00  0.00     0.166 HD
ATOM     38  C   UNL A   1      33.093  16.377  23.659  1.00  0.00     0.026 A 
ATOM     39  C   UNL A   1      33.022  17.060  25.976  1.00  0.00     0.001 A 
ATOM     40  C   UNL A   1      33.153  16.066  25.013  1.00  0.00     0.002 A 
ENDBRANCH  30  31
ENDBRANCH   9  30
ENDBRANCH   7   9
ENDBRANCH   6   7
ENDBRANCH   5   6
ENDBRANCH   4   5
ENDBRANCH   3   4
ENDBRANCH   2   3
ENDBRANCH   1   2
BRANCH   1  41
ATOM     41  O   UNL A   1      40.605  23.855  27.233  1.00  0.00    -0.377 OA
BRANCH  41  42
ATOM     42  C   UNL A   1      41.568  24.802  27.680  1.00  0.00     0.188 C 
BRANCH  42  43
ATOM     43  C   UNL A   1      42.655  25.330  26.725  1.00  0.00     0.188 C 
BRANCH  43  44
ATOM     44  O   UNL A   1      42.252  26.396  25.880  1.00  0.00    -0.376 OA
BRANCH  44  45
ATOM     45  C   UNL A   1      41.251  27.295  26.333  1.00  0.00     0.202 C 
BRANCH  45  46
ATOM     46  C   UNL A   1      41.703  28.503  27.168  1.00  0.00     0.261 C 
BRANCH  46  47
ATOM     47  O   UNL A   1      40.673  29.368  27.677  1.00  0.00    -0.460 OA
BRANCH  47  48
ATOM     48  C   UNL A   1      40.104  29.109  28.871  1.00  0.00     0.338 C 
ATOM     49  O   UNL A   1      39.498  28.102  29.203  1.00  0.00    -0.246 OA
BRANCH  48  50
ATOM     50  C   UNL A   1      40.533  30.180  29.795  1.00  0.00     0.060 A 
ATOM     51  C   UNL A   1      41.746  30.080  30.481  1.00  0.00     0.016 A 
ATOM     52  C   UNL A   1      39.684  31.275  30.011  1.00  0.00     0.016 A 
ATOM     53  C   UNL A   1      42.125  31.095  31.361  1.00  0.00     0.010 A 
ATOM     54  C   UNL A   1      40.060  32.283  30.903  1.00  0.00     0.010 A 
ATOM     55  C   UNL A   1      41.295  32.211  31.566  1.00  0.00    -0.014 A 
BRANCH  55  56
ATOM     56  C   UNL A   1      41.807  33.381  32.320  1.00  0.00     0.031 A 
ATOM     57  C   UNL A   1      41.562  33.554  33.790  1.00  0.00     0.074 A 
ATOM     58  C   UNL A   1      42.500  34.310  31.634  1.00  0.00     0.049 A 
ATOM     59  N   UNL A   1      41.983  34.507  34.581  1.00  0.00    -0.248 NA
ATOM     60  C   UNL A   1      40.735  32.539  34.460  1.00  0.00     0.031 C 
ATOM     61  C   UNL A   1      42.765  34.261  30.193  1.00  0.00     0.029 A 
ATOM     62  N   UNL A   1      43.103  35.471  32.043  1.00  0.00    -0.354 N 
ATOM     63  C   UNL A   1      41.493  34.204  35.845  1.00  0.00     0.074 A 
ATOM     64  C   UNL A   1      40.707  32.994  35.708  1.00  0.00     0.031 C 
ATOM     65  C   UNL A   1      43.482  35.339  29.842  1.00  0.00     0.029 A 
ATOM     66  C   UNL A   1      43.710  36.164  31.023  1.00  0.00     0.049 A 
ATOM     67  H   UNL A   1      43.102  35.778  32.978  1.00  0.00     0.167 HD
ATOM     68  C   UNL A   1      41.697  34.869  37.008  1.00  0.00     0.037 A 
ATOM     69  C   UNL A   1      44.372  37.337  31.034  1.00  0.00     0.037 A 
ATOM     70  C   UNL A   1      42.487  36.072  37.132  1.00  0.00     0.049 A 
ATOM     71  C   UNL A   1      44.563  38.060  32.338  1.00  0.00     0.074 A 
ATOM     72  C   UNL A   1      42.799  36.777  38.284  1.00  0.00     0.029 A 
ATOM     73  N   UNL A   1      43.076  36.755  36.079  1.00  0.00    -0.354 N 
ATOM     74  N   UNL A   1      44.163  37.712  33.537  1.00  0.00    -0.248 NA
ATOM     75  C   UNL A   1      45.302  39.328  32.293  1.00  0.00     0.031 C 
ATOM     76  C   UNL A   1      43.532  37.912  37.921  1.00  0.00     0.029 A 
ATOM     77  C   UNL A   1      43.721  37.890  36.550  1.00  0.00     0.049 A 
ATOM     78  H   UNL A   1      43.041  36.475  35.135  1.00  0.00     0.167 HD
ATOM     79  C   UNL A   1      44.613  38.713  34.391  1.00  0.00     0.074 A 
ATOM     80  C   UNL A   1      45.340  39.662  33.576  1.00  0.00     0.031 C 
ATOM     81  C   UNL A   1      44.433  38.837  35.729  1.00  0.00     0.037 A 
BRANCH  68  82
ATOM     82  C   UNL A   1      41.086  34.319  38.268  1.00  0.00     0.058 A 
ATOM     83  C   UNL A   1      39.756  34.603  38.616  1.00  0.00     0.135 A 
ATOM     84  C   UNL A   1      41.783  33.385  39.052  1.00  0.00     0.135 A 
ATOM     85  F   UNL A   1      39.046  35.493  37.904  1.00  0.00    -0.206 F 
ATOM     86  C   UNL A   1      39.136  33.972  39.690  1.00  0.00     0.059 A 
ATOM     87  C   UNL A   1      41.175  32.726  40.118  1.00  0.00     0.059 A 
ATOM     88  F   UNL A   1      43.057  33.077  38.762  1.00  0.00    -0.206 F 
ATOM     89  C   UNL A   1      39.849  33.025  40.426  1.00  0.00     0.060 A 
BRANCH  89  90
ATOM     90  S   UNL A   1      39.000  32.162  41.766  1.00  0.00     0.124 S 
ATOM     91  O   UNL A   1      40.122  31.722  42.589  1.00  0.00    -0.237 OA
ATOM     92  O   UNL A   1      38.172  33.219  42.339  1.00  0.00    -0.237 OA
ATOM     93  O   UNL A   1      38.270  31.099  41.082  1.00  0.00    -0.744 OA
ENDBRANCH  89  90
ENDBRANCH  68  82
BRANCH  69  94
ATOM     94  C   UNL A   1      44.904  37.901  29.766  1.00  0.00     0.058 A 
ATOM     95  C   UNL A   1      44.087  38.646  28.906  1.00  0.00     0.135 A 
ATOM     96  C   UNL A   1      46.241  37.698  29.390  1.00  0.00     0.135 A 
ATOM     97  F   UNL A   1      42.801  38.865  29.223  1.00  0.00    -0.206 F 
ATOM     98  C   UNL A   1      44.567  39.146  27.700  1.00  0.00     0.059 A 
ATOM     99  C   UNL A   1      46.751  38.212  28.203  1.00  0.00     0.059 A 
ATOM    100  F   UNL A   1      47.069  37.008  30.190  1.00  0.00    -0.206 F 
ATOM    101  C   UNL A   1      45.900  38.922  27.357  1.00  0.00     0.060 A 
BRANCH 101 102
ATOM    102  S   UNL A   1      46.517  39.589  25.797  1.00  0.00     0.124 S 
ATOM    103  O   UNL A   1      47.591  40.462  26.256  1.00  0.00    -0.237 OA
ATOM    104  O   UNL A   1      46.932  38.381  25.091  1.00  0.00    -0.237 OA
ATOM    105  O   UNL A   1      45.350  40.264  25.236  1.00  0.00    -0.744 OA
ENDBRANCH 101 102
ENDBRANCH  69  94
BRANCH  81 106
ATOM    106  C   UNL A   1      45.033  40.045  36.396  1.00  0.00     0.058 A 
ATOM    107  C   UNL A   1      44.444  41.314  36.278  1.00  0.00     0.135 A 
ATOM    108  C   UNL A   1      46.188  39.930  37.188  1.00  0.00     0.135 A 
ATOM    109  F   UNL A   1      43.343  41.480  35.528  1.00  0.00    -0.206 F 
ATOM    110  C   UNL A   1      44.994  42.432  36.896  1.00  0.00     0.059 A 
ATOM    111  C   UNL A   1      46.738  41.031  37.839  1.00  0.00     0.059 A 
ATOM    112  F   UNL A   1      46.787  38.740  37.342  1.00  0.00    -0.206 F 
ATOM    113  C   UNL A   1      46.141  42.280  37.675  1.00  0.00     0.060 A 
BRANCH 113 114
ATOM    114  S   UNL A   1      46.833  43.738  38.484  1.00  0.00     0.124 S 
ATOM    115  O   UNL A   1      47.451  44.434  37.360  1.00  0.00    -0.237 OA
ATOM    116  O   UNL A   1      45.646  44.375  39.048  1.00  0.00    -0.237 OA
ATOM    117  O   UNL A   1      47.761  43.178  39.462  1.00  0.00    -0.744 OA
ENDBRANCH 113 114
ENDBRANCH  81 106
ENDBRANCH  55  56
ENDBRANCH  48  50
ENDBRANCH  47  48
ENDBRANCH  46  47
ENDBRANCH  45  46
ENDBRANCH  44  45
ENDBRANCH  43  44
ENDBRANCH  42  43
ENDBRANCH  41  42
ENDBRANCH   1  41
TORSDOF 29
ENDMDL
MODEL 2
REMARK VINA RESULT:      -8.4      1.088      2.199
REMARK SMILES COc1cc(C)cc2c1[C@@H](C)[C@@H](CC(=O)N[C@@H](Cc1c[nH]c3ccccc13)C(=O)OCCOCCOCCOCCOC(=O)c1ccc(-c3c4nc(c(-c5c(F)cc(S(=O)(=O)[O-])cc5F)c5ccc([nH]5)c(-c5c(F)cc(S(=O)(=O)[O-])cc5F)c5nc(c(-c6c(F)cc(S(=O)(=O)[O-])cc6F)c6ccc3[nH]6)C=C5)C=C4)cc1)C(=O)O2
REMARK SMILES IDX 35 1 34 2 33 3 32 4 31 5 30 6 28 7 29 8 17 9 16 10 14 11
REMARK SMILES IDX 15 12 13 14 12 15 3 16 4 17 9 18 5 19 8 20 10 21 6 22 7 23
REMARK SMILES IDX 113 24 11 25 111 26 112 27 2 28 1 29 18 30 19 31 20 32 27 33
REMARK SMILES IDX 21 34 22 35 26 36 23 38 25 39 24 40 36 41 37 42 38 43 39 44
REMARK SMILES IDX 40 45 41 46 42 47 43 48 44 49 45 50 46 51 110 52 47 53
REMARK SMILES IDX 109 54 48 55 49 56 50 57 103 58 51 59 108 60 102 61 104 62
REMARK SMILES IDX 52 63 107 64 101 65 100 66 53 68 87 69 66 70 86 71 67 72
REMARK SMILES IDX 70 73 85 74 105 75 68 76 69 77 84 79 106 80 71 81 54 82
REMARK SMILES IDX 55 83 64 84 56 85 57 86 63 87 65 88 58 89 59 90 60 91 61 92
REMARK SMILES IDX 62 93 88 94 89 95 98 96 90 97 91 98 97 99 99 100 92 101
REMARK SMILES IDX 93 102 94 103 95 104 96 105 72 106 73 107 82 108 74 109
REMARK SMILES IDX 75 110 81 111 83 112 76 113 77 114 78 115 79 116 80 117
REMARK H PARENT 16 13 21 37 104 67 70 78
REMARK Flexibility Score: inf
ROOT
ATOM      1  C   UNL A   1      39.461  22.686  26.334  1.00  0.00     0.188 C 
ENDROOT
BRANCH   1   2
ATOM      2  C   UNL A   1      38.628  21.422  26.102  1.00  0.00     0.188 C 
BRANCH   2   3
ATOM      3  O   UNL A   1      37.771  21.360  24.974  1.00  0.00    -0.376 OA
BRANCH   3   4
ATOM      4  C   UNL A   1      37.483  22.554  24.242  1.00  0.00     0.202 C 
BRANCH   4   5
ATOM      5  C   UNL A   1      36.332  22.582  23.231  1.00  0.00     0.261 C 
BRANCH   5   6
ATOM      6  O   UNL A   1      35.135  23.169  23.775  1.00  0.00    -0.462 OA
BRANCH   6   7
ATOM      7  C   UNL A   1      33.996  22.802  23.155  1.00  0.00     0.329 C 
ATOM      8  O   UNL A   1      33.732  23.087  21.988  1.00  0.00    -0.250 OA
BRANCH   7   9
ATOM      9  C   UNL A   1      33.044  21.934  23.986  1.00  0.00     0.196 C 
BRANCH   9  10
ATOM     10  N   UNL A   1      32.276  22.350  25.152  1.00  0.00    -0.342 N 
ATOM     11  C   UNL A   1      32.704  23.137  26.193  1.00  0.00     0.221 C 
ATOM     12  O   UNL A   1      32.312  22.917  27.339  1.00  0.00    -0.275 OA
ATOM     13  H   UNL A   1      31.345  22.032  25.198  1.00  0.00     0.164 HD
BRANCH  11  14
ATOM     14  C   UNL A   1      33.462  24.425  25.878  1.00  0.00     0.116 C 
BRANCH  14  15
ATOM     15  C   UNL A   1      32.854  25.784  26.287  1.00  0.00     0.116 C 
ATOM     16  C   UNL A   1      30.704  25.887  23.146  1.00  0.00     0.126 A 
ATOM     17  C   UNL A   1      31.044  25.796  21.786  1.00  0.00     0.050 A 
ATOM     18  C   UNL A   1      31.684  26.161  24.106  1.00  0.00     0.041 A 
ATOM     19  C   UNL A   1      32.367  25.974  21.356  1.00  0.00    -0.044 A 
ATOM     20  C   UNL A   1      32.958  26.499  23.629  1.00  0.00     0.138 A 
ATOM     21  C   UNL A   1      31.488  26.119  25.616  1.00  0.00     0.038 C 
ATOM     22  C   UNL A   1      32.724  25.835  19.906  1.00  0.00     0.044 C 
ATOM     23  C   UNL A   1      33.322  26.378  22.289  1.00  0.00     0.051 A 
ATOM     24  O   UNL A   1      33.933  27.029  24.498  1.00  0.00    -0.426 OA
ATOM     25  C   UNL A   1      30.400  25.175  26.141  1.00  0.00     0.014 C 
ATOM     26  C   UNL A   1      33.731  26.933  25.868  1.00  0.00     0.315 C 
ATOM     27  O   UNL A   1      34.295  27.672  26.665  1.00  0.00    -0.251 OA
BRANCH  16  28
ATOM     28  O   UNL A   1      29.399  25.848  23.558  1.00  0.00    -0.496 OA
ATOM     29  C   UNL A   1      28.732  27.104  23.507  1.00  0.00     0.278 C 
ENDBRANCH  16  28
ENDBRANCH  14  15
ENDBRANCH  11  14
ENDBRANCH   9  10
BRANCH   9  30
ATOM     30  C   UNL A   1      32.184  21.099  23.051  1.00  0.00     0.074 C 
BRANCH  30  31
ATOM     31  C   UNL A   1      32.139  19.592  23.126  1.00  0.00    -0.020 A 
ATOM     32  C   UNL A   1      32.020  18.778  22.010  1.00  0.00     0.087 A 
ATOM     33  C   UNL A   1      32.578  18.641  24.117  1.00  0.00     0.003 A 
ATOM     34  N   UNL A   1      33.188  18.063  22.078  1.00  0.00    -0.361 N 
ATOM     35  C   UNL A   1      33.297  17.681  23.391  1.00  0.00     0.046 A 
ATOM     36  C   UNL A   1      32.523  18.464  25.514  1.00  0.00     0.010 A 
ATOM     37  H   UNL A   1      33.814  17.865  21.344  1.00  0.00     0.166 HD
ATOM     38  C   UNL A   1      33.978  16.604  23.961  1.00  0.00     0.026 A 
ATOM     39  C   UNL A   1      33.139  17.347  26.103  1.00  0.00     0.001 A 
ATOM     40  C   UNL A   1      33.864  16.441  25.338  1.00  0.00     0.002 A 
ENDBRANCH  30  31
ENDBRANCH   9  30
ENDBRANCH   7   9
ENDBRANCH   6   7
ENDBRANCH   5   6
ENDBRANCH   4   5
ENDBRANCH   3   4
ENDBRANCH   2   3
ENDBRANCH   1   2
BRANCH   1  41
ATOM     41  O   UNL A   1      38.842  23.746  27.031  1.00  0.00    -0.377 OA
BRANCH  41  42
ATOM     42  C   UNL A   1      39.590  24.530  27.952  1.00  0.00     0.188 C 
BRANCH  42  43
ATOM     43  C   UNL A   1      41.102  24.747  27.754  1.00  0.00     0.188 C 
BRANCH  43  44
ATOM     44  O   UNL A   1      41.451  25.716  26.778  1.00  0.00    -0.376 OA
BRANCH  44  45
ATOM     45  C   UNL A   1      40.717  26.930  26.716  1.00  0.00     0.202 C 
BRANCH  45  46
ATOM     46  C   UNL A   1      41.395  28.202  27.246  1.00  0.00     0.261 C 
BRANCH  46  47
ATOM     47  O   UNL A   1      40.546  29.328  27.523  1.00  0.00    -0.460 OA
BRANCH  47  48
ATOM     48  C   UNL A   1      39.722  29.306  28.590  1.00  0.00     0.338 C 
ATOM     49  O   UNL A   1      38.858  28.482  28.844  1.00  0.00    -0.246 OA
BRANCH  48  50
ATOM     50  C   UNL A   1      40.197  30.349  29.525  1.00  0.00     0.060 A 
ATOM     51  C   UNL A   1      41.425  30.209  30.175  1.00  0.00     0.016 A 
ATOM     52  C   UNL A   1      39.378  31.456  29.786  1.00  0.00     0.016 A 
ATOM     53  C   UNL A   1      41.849  31.197  31.066  1.00  0.00     0.010 A 
ATOM     54  C   UNL A   1      39.799  32.436  30.688  1.00  0.00     0.010 A 
ATOM     55  C   UNL A   1      41.049  32.325  31.316  1.00  0.00    -0.014 A 
BRANCH  55  56
ATOM     56  C   UNL A   1      41.605  33.468  32.081  1.00  0.00     0.031 A 
ATOM     57  C   UNL A   1      41.378  33.629  33.555  1.00  0.00     0.074 A 
ATOM     58  C   UNL A   1      42.322  34.383  31.401  1.00  0.00     0.049 A 
ATOM     59  N   UNL A   1      41.837  34.558  34.355  1.00  0.00    -0.248 NA
ATOM     60  C   UNL A   1      40.524  32.633  34.219  1.00  0.00     0.031 C 
ATOM     61  C   UNL A   1      42.573  34.343  29.956  1.00  0.00     0.029 A 
ATOM     62  N   UNL A   1      42.966  35.517  31.819  1.00  0.00    -0.354 N 
ATOM     63  C   UNL A   1      41.348  34.254  35.619  1.00  0.00     0.074 A 
ATOM     64  C   UNL A   1      40.522  33.072  35.473  1.00  0.00     0.031 C 
ATOM     65  C   UNL A   1      43.322  35.402  29.613  1.00  0.00     0.029 A 
ATOM     66  C   UNL A   1      43.587  36.204  30.803  1.00  0.00     0.049 A 
ATOM     67  H   UNL A   1      42.983  35.812  32.758  1.00  0.00     0.167 HD
ATOM     68  C   UNL A   1      41.584  34.897  36.788  1.00  0.00     0.037 A 
ATOM     69  C   UNL A   1      44.287  37.354  30.823  1.00  0.00     0.037 A 
ATOM     70  C   UNL A   1      42.413  36.072  36.921  1.00  0.00     0.049 A 
ATOM     71  C   UNL A   1      44.512  38.054  32.135  1.00  0.00     0.074 A 
ATOM     72  C   UNL A   1      42.758  36.751  38.079  1.00  0.00     0.029 A 
ATOM     73  N   UNL A   1      43.015  36.749  35.872  1.00  0.00    -0.354 N 
ATOM     74  N   UNL A   1      44.112  37.703  33.333  1.00  0.00    -0.248 NA
ATOM     75  C   UNL A   1      45.292  39.298  32.099  1.00  0.00     0.031 C 
ATOM     76  C   UNL A   1      43.524  37.866  37.724  1.00  0.00     0.029 A 
ATOM     77  C   UNL A   1      43.701  37.855  36.352  1.00  0.00     0.049 A 
ATOM     78  H   UNL A   1      42.964  36.483  34.925  1.00  0.00     0.167 HD
ATOM     79  C   UNL A   1      44.601  38.677  34.195  1.00  0.00     0.074 A 
ATOM     80  C   UNL A   1      45.352  39.614  33.385  1.00  0.00     0.031 C 
ATOM     81  C   UNL A   1      44.437  38.789  35.536  1.00  0.00     0.037 A 
BRANCH  68  82
ATOM     82  C   UNL A   1      40.965  34.351  38.047  1.00  0.00     0.058 A 
ATOM     83  C   UNL A   1      39.671  34.723  38.443  1.00  0.00     0.135 A 
ATOM     84  C   UNL A   1      41.608  33.338  38.778  1.00  0.00     0.135 A 
ATOM     85  F   UNL A   1      39.014  35.690  37.783  1.00  0.00    -0.206 F 
ATOM     86  C   UNL A   1      39.033  34.104  39.513  1.00  0.00     0.059 A 
ATOM     87  C   UNL A   1      40.980  32.690  39.838  1.00  0.00     0.059 A 
ATOM     88  F   UNL A   1      42.846  32.943  38.440  1.00  0.00    -0.206 F 
ATOM     89  C   UNL A   1      39.690  33.078  40.195  1.00  0.00     0.060 A 
BRANCH  89  90
ATOM     90  S   UNL A   1      38.812  32.235  41.530  1.00  0.00     0.124 S 
ATOM     91  O   UNL A   1      37.637  31.724  40.831  1.00  0.00    -0.237 OA
ATOM     92  O   UNL A   1      39.783  31.231  41.952  1.00  0.00    -0.237 OA
ATOM     93  O   UNL A   1      38.553  33.299  42.495  1.00  0.00    -0.744 OA
ENDBRANCH  89  90
ENDBRANCH  68  82
BRANCH  69  94
ATOM     94  C   UNL A   1      44.826  37.917  29.558  1.00  0.00     0.058 A 
ATOM     95  C   UNL A   1      46.013  37.428  28.996  1.00  0.00     0.135 A 
ATOM     96  C   UNL A   1      44.165  38.961  28.891  1.00  0.00     0.135 A 
ATOM     97  F   UNL A   1      46.681  36.432  29.599  1.00  0.00    -0.206 F 
ATOM     98  C   UNL A   1      46.545  37.973  27.833  1.00  0.00     0.059 A 
ATOM     99  C   UNL A   1      44.662  39.503  27.711  1.00  0.00     0.059 A 
ATOM    100  F   UNL A   1      43.015  39.449  29.378  1.00  0.00    -0.206 F 
ATOM    101  C   UNL A   1      45.862  39.012  27.199  1.00  0.00     0.060 A 
BRANCH 101 102
ATOM    102  S   UNL A   1      46.554  39.702  25.680  1.00  0.00     0.124 S 
ATOM    103  O   UNL A   1      47.140  38.518  25.062  1.00  0.00    -0.237 OA
ATOM    104  O   UNL A   1      45.368  40.245  25.024  1.00  0.00    -0.237 OA
ATOM    105  O   UNL A   1      47.504  40.698  26.166  1.00  0.00    -0.744 OA
ENDBRANCH 101 102
ENDBRANCH  69  94
BRANCH  81 106
ATOM    106  C   UNL A   1      45.081  39.969  36.214  1.00  0.00     0.058 A 
ATOM    107  C   UNL A   1      46.298  39.842  36.903  1.00  0.00     0.135 A 
ATOM    108  C   UNL A   1      44.497  41.244  36.146  1.00  0.00     0.135 A 
ATOM    109  F   UNL A   1      46.895  38.643  37.003  1.00  0.00    -0.206 F 
ATOM    110  C   UNL A   1      46.898  40.931  37.527  1.00  0.00     0.059 A 
ATOM    111  C   UNL A   1      45.094  42.353  36.739  1.00  0.00     0.059 A 
ATOM    112  F   UNL A   1      43.339  41.424  35.493  1.00  0.00    -0.206 F 
ATOM    113  C   UNL A   1      46.288  42.183  37.439  1.00  0.00     0.060 A 
BRANCH 113 114
ATOM    114  S   UNL A   1      47.088  43.589  38.240  1.00  0.00     0.124 S 
ATOM    115  O   UNL A   1      47.013  43.209  39.647  1.00  0.00    -0.237 OA
ATOM    116  O   UNL A   1      48.423  43.567  37.649  1.00  0.00    -0.237 OA
ATOM    117  O   UNL A   1      46.255  44.723  37.851  1.00  0.00    -0.744 OA
ENDBRANCH 113 114
ENDBRANCH  81 106
ENDBRANCH  55  56
ENDBRANCH  48  50
ENDBRANCH  47  48
ENDBRANCH  46  47
ENDBRANCH  45  46
ENDBRANCH  44  45
ENDBRANCH  43  44
ENDBRANCH  42  43
ENDBRANCH  41  42
ENDBRANCH   1  41
TORSDOF 29
ENDMDL
MODEL 3
REMARK VINA RESULT:      -8.0      8.812     13.019
REMARK SMILES COc1cc(C)cc2c1[C@@H](C)[C@@H](CC(=O)N[C@@H](Cc1c[nH]c3ccccc13)C(=O)OCCOCCOCCOCCOC(=O)c1ccc(-c3c4nc(c(-c5c(F)cc(S(=O)(=O)[O-])cc5F)c5ccc([nH]5)c(-c5c(F)cc(S(=O)(=O)[O-])cc5F)c5nc(c(-c6c(F)cc(S(=O)(=O)[O-])cc6F)c6ccc3[nH]6)C=C5)C=C4)cc1)C(=O)O2
REMARK SMILES IDX 35 1 34 2 33 3 32 4 31 5 30 6 28 7 29 8 17 9 16 10 14 11
REMARK SMILES IDX 15 12 13 14 12 15 3 16 4 17 9 18 5 19 8 20 10 21 6 22 7 23
REMARK SMILES IDX 113 24 11 25 111 26 112 27 2 28 1 29 18 30 19 31 20 32 27 33
REMARK SMILES IDX 21 34 22 35 26 36 23 38 25 39 24 40 36 41 37 42 38 43 39 44
REMARK SMILES IDX 40 45 41 46 42 47 43 48 44 49 45 50 46 51 110 52 47 53
REMARK SMILES IDX 109 54 48 55 49 56 50 57 103 58 51 59 108 60 102 61 104 62
REMARK SMILES IDX 52 63 107 64 101 65 100 66 53 68 87 69 66 70 86 71 67 72
REMARK SMILES IDX 70 73 85 74 105 75 68 76 69 77 84 79 106 80 71 81 54 82
REMARK SMILES IDX 55 83 64 84 56 85 57 86 63 87 65 88 58 89 59 90 60 91 61 92
REMARK SMILES IDX 62 93 88 94 89 95 98 96 90 97 91 98 97 99 99 100 92 101
REMARK SMILES IDX 93 102 94 103 95 104 96 105 72 106 73 107 82 108 74 109
REMARK SMILES IDX 75 110 81 111 83 112 76 113 77 114 78 115 79 116 80 117
REMARK H PARENT 16 13 21 37 104 67 70 78
REMARK Flexibility Score: inf
ROOT
ATOM      1  C   UNL A   1      38.594  22.970  25.754  1.00  0.00     0.188 C 
ENDROOT
BRANCH   1   2
ATOM      2  C   UNL A   1      37.752  21.706  25.561  1.00  0.00     0.188 C 
BRANCH   2   3
ATOM      3  O   UNL A   1      36.661  21.735  24.656  1.00  0.00    -0.376 OA
BRANCH   3   4
ATOM      4  C   UNL A   1      36.284  22.973  24.049  1.00  0.00     0.202 C 
BRANCH   4   5
ATOM      5  C   UNL A   1      35.155  23.015  23.014  1.00  0.00     0.261 C 
BRANCH   5   6
ATOM      6  O   UNL A   1      33.871  23.282  23.610  1.00  0.00    -0.462 OA
BRANCH   6   7
ATOM      7  C   UNL A   1      33.058  22.210  23.699  1.00  0.00     0.329 C 
ATOM      8  O   UNL A   1      32.466  21.722  22.737  1.00  0.00    -0.250 OA
BRANCH   7   9
ATOM      9  C   UNL A   1      32.953  21.576  25.090  1.00  0.00     0.196 C 
BRANCH   9  10
ATOM     10  N   UNL A   1      32.518  22.229  26.317  1.00  0.00    -0.342 N 
ATOM     11  C   UNL A   1      32.673  23.552  26.657  1.00  0.00     0.221 C 
ATOM     12  O   UNL A   1      32.895  23.871  27.824  1.00  0.00    -0.275 OA
ATOM     13  H   UNL A   1      32.060  21.660  26.978  1.00  0.00     0.164 HD
BRANCH  11  14
ATOM     14  C   UNL A   1      32.322  24.621  25.624  1.00  0.00     0.116 C 
BRANCH  14  15
ATOM     15  C   UNL A   1      30.847  24.830  25.220  1.00  0.00     0.116 C 
ATOM     16  C   UNL A   1      31.533  28.425  24.171  1.00  0.00     0.126 A 
ATOM     17  C   UNL A   1      32.094  29.505  24.873  1.00  0.00     0.050 A 
ATOM     18  C   UNL A   1      31.071  27.297  24.856  1.00  0.00     0.041 A 
ATOM     19  C   UNL A   1      32.208  29.480  26.271  1.00  0.00    -0.044 A 
ATOM     20  C   UNL A   1      31.044  27.375  26.256  1.00  0.00     0.138 A 
ATOM     21  C   UNL A   1      30.601  25.997  24.216  1.00  0.00     0.038 C 
ATOM     22  C   UNL A   1      32.846  30.622  27.005  1.00  0.00     0.044 C 
ATOM     23  C   UNL A   1      31.630  28.420  26.967  1.00  0.00     0.051 A 
ATOM     24  O   UNL A   1      30.370  26.399  27.017  1.00  0.00    -0.426 OA
ATOM     25  C   UNL A   1      31.203  25.649  22.850  1.00  0.00     0.014 C 
ATOM     26  C   UNL A   1      29.995  25.212  26.400  1.00  0.00     0.315 C 
ATOM     27  O   UNL A   1      29.103  24.499  26.844  1.00  0.00    -0.251 OA
BRANCH  16  28
ATOM     28  O   UNL A   1      31.297  28.498  22.825  1.00  0.00    -0.496 OA
ATOM     29  C   UNL A   1      30.481  29.596  22.433  1.00  0.00     0.278 C 
ENDBRANCH  16  28
ENDBRANCH  14  15
ENDBRANCH  11  14
ENDBRANCH   9  10
BRANCH   9  30
ATOM     30  C   UNL A   1      32.319  20.199  24.966  1.00  0.00     0.074 C 
BRANCH  30  31
ATOM     31  C   UNL A   1      33.093  18.996  24.485  1.00  0.00    -0.020 A 
ATOM     32  C   UNL A   1      34.362  19.078  23.932  1.00  0.00     0.087 A 
ATOM     33  C   UNL A   1      33.011  17.588  24.785  1.00  0.00     0.003 A 
ATOM     34  N   UNL A   1      35.087  18.332  24.824  1.00  0.00    -0.361 N 
ATOM     35  C   UNL A   1      34.336  17.205  25.043  1.00  0.00     0.046 A 
ATOM     36  C   UNL A   1      32.028  16.588  24.925  1.00  0.00     0.010 A 
ATOM     37  H   UNL A   1      35.960  18.555  25.223  1.00  0.00     0.166 HD
ATOM     38  C   UNL A   1      34.725  15.931  25.458  1.00  0.00     0.026 A 
ATOM     39  C   UNL A   1      32.404  15.280  25.271  1.00  0.00     0.001 A 
ATOM     40  C   UNL A   1      33.730  14.962  25.545  1.00  0.00     0.002 A 
ENDBRANCH  30  31
ENDBRANCH   9  30
ENDBRANCH   7   9
ENDBRANCH   6   7
ENDBRANCH   5   6
ENDBRANCH   4   5
ENDBRANCH   3   4
ENDBRANCH   2   3
ENDBRANCH   1   2
BRANCH   1  41
ATOM     41  O   UNL A   1      38.122  23.922  26.683  1.00  0.00    -0.377 OA
BRANCH  41  42
ATOM     42  C   UNL A   1      39.031  24.586  27.552  1.00  0.00     0.188 C 
BRANCH  42  43
ATOM     43  C   UNL A   1      40.446  24.963  27.072  1.00  0.00     0.188 C 
BRANCH  43  44
ATOM     44  O   UNL A   1      40.556  26.237  26.458  1.00  0.00    -0.376 OA
BRANCH  44  45
ATOM     45  C   UNL A   1      40.309  27.401  27.234  1.00  0.00     0.202 C 
BRANCH  45  46
ATOM     46  C   UNL A   1      41.436  28.440  27.337  1.00  0.00     0.261 C 
BRANCH  46  47
ATOM     47  O   UNL A   1      41.491  29.225  28.541  1.00  0.00    -0.460 OA
BRANCH  47  48
ATOM     48  C   UNL A   1      41.290  28.640  29.739  1.00  0.00     0.338 C 
ATOM     49  O   UNL A   1      40.221  28.390  30.273  1.00  0.00    -0.246 OA
BRANCH  48  50
ATOM     50  C   UNL A   1      42.604  28.148  30.205  1.00  0.00     0.060 A 
ATOM     51  C   UNL A   1      43.114  26.936  29.734  1.00  0.00     0.016 A 
ATOM     52  C   UNL A   1      43.310  28.891  31.161  1.00  0.00     0.016 A 
ATOM     53  C   UNL A   1      44.350  26.482  30.198  1.00  0.00     0.010 A 
ATOM     54  C   UNL A   1      44.541  28.427  31.635  1.00  0.00     0.010 A 
ATOM     55  C   UNL A   1      45.080  27.231  31.137  1.00  0.00    -0.014 A 
BRANCH  55  56
ATOM     56  C   UNL A   1      46.481  26.857  31.449  1.00  0.00     0.031 A 
ATOM     57  C   UNL A   1      47.635  27.303  30.600  1.00  0.00     0.074 A 
ATOM     58  C   UNL A   1      46.693  26.079  32.527  1.00  0.00     0.049 A 
ATOM     59  N   UNL A   1      48.913  27.082  30.778  1.00  0.00    -0.248 NA
ATOM     60  C   UNL A   1      47.323  28.088  29.397  1.00  0.00     0.031 C 
ATOM     61  C   UNL A   1      45.638  25.556  33.402  1.00  0.00     0.029 A 
ATOM     62  N   UNL A   1      47.850  25.589  33.074  1.00  0.00    -0.354 N 
ATOM     63  C   UNL A   1      49.563  27.713  29.726  1.00  0.00     0.074 A 
ATOM     64  C   UNL A   1      48.533  28.295  28.889  1.00  0.00     0.031 C 
ATOM     65  C   UNL A   1      46.200  24.824  34.376  1.00  0.00     0.029 A 
ATOM     66  C   UNL A   1      47.646  24.808  34.187  1.00  0.00     0.049 A 
ATOM     67  H   UNL A   1      48.743  25.778  32.704  1.00  0.00     0.167 HD
ATOM     68  C   UNL A   1      50.895  27.806  29.496  1.00  0.00     0.037 A 
ATOM     69  C   UNL A   1      48.524  24.148  34.966  1.00  0.00     0.037 A 
ATOM     70  C   UNL A   1      51.912  27.225  30.341  1.00  0.00     0.049 A 
ATOM     71  C   UNL A   1      49.994  24.255  34.670  1.00  0.00     0.074 A 
ATOM     72  C   UNL A   1      53.289  27.324  30.217  1.00  0.00     0.029 A 
ATOM     73  N   UNL A   1      51.672  26.430  31.451  1.00  0.00    -0.354 N 
ATOM     74  N   UNL A   1      50.594  24.928  33.718  1.00  0.00    -0.248 NA
ATOM     75  C   UNL A   1      50.906  23.524  35.559  1.00  0.00     0.031 C 
ATOM     76  C   UNL A   1      53.879  26.549  31.221  1.00  0.00     0.029 A 
ATOM     77  C   UNL A   1      52.873  26.007  32.002  1.00  0.00     0.049 A 
ATOM     78  H   UNL A   1      50.779  26.201  31.799  1.00  0.00     0.167 HD
ATOM     79  C   UNL A   1      51.955  24.709  33.901  1.00  0.00     0.074 A 
ATOM     80  C   UNL A   1      52.090  23.869  35.072  1.00  0.00     0.031 C 
ATOM     81  C   UNL A   1      52.998  25.159  33.161  1.00  0.00     0.037 A 
BRANCH  68  82
ATOM     82  C   UNL A   1      51.365  28.582  28.295  1.00  0.00     0.058 A 
ATOM     83  C   UNL A   1      51.436  27.987  27.026  1.00  0.00     0.135 A 
ATOM     84  C   UNL A   1      51.602  29.964  28.385  1.00  0.00     0.135 A 
ATOM     85  F   UNL A   1      51.226  26.669  26.884  1.00  0.00    -0.206 F 
ATOM     86  C   UNL A   1      51.714  28.737  25.887  1.00  0.00     0.059 A 
ATOM     87  C   UNL A   1      51.861  30.737  27.256  1.00  0.00     0.059 A 
ATOM     88  F   UNL A   1      51.545  30.583  29.575  1.00  0.00    -0.206 F 
ATOM     89  C   UNL A   1      51.911  30.113  26.010  1.00  0.00     0.060 A 
BRANCH  89  90
ATOM     90  S   UNL A   1      52.193  31.078  24.510  1.00  0.00     0.124 S 
ATOM     91  O   UNL A   1      51.742  30.151  23.477  1.00  0.00    -0.237 OA
ATOM     92  O   UNL A   1      51.343  32.244  24.728  1.00  0.00    -0.237 OA
ATOM     93  O   UNL A   1      53.628  31.339  24.534  1.00  0.00    -0.744 OA
ENDBRANCH  89  90
ENDBRANCH  68  82
BRANCH  69  94
ATOM     94  C   UNL A   1      48.034  23.326  36.103  1.00  0.00     0.058 A 
ATOM     95  C   UNL A   1      47.829  23.891  37.369  1.00  0.00     0.135 A 
ATOM     96  C   UNL A   1      47.768  21.957  35.944  1.00  0.00     0.135 A 
ATOM     97  F   UNL A   1      48.071  25.195  37.570  1.00  0.00    -0.206 F 
ATOM     98  C   UNL A   1      47.407  23.121  38.448  1.00  0.00     0.059 A 
ATOM     99  C   UNL A   1      47.317  21.173  37.000  1.00  0.00     0.059 A 
ATOM    100  F   UNL A   1      47.929  21.375  34.746  1.00  0.00    -0.206 F 
ATOM    101  C   UNL A   1      47.155  21.762  38.253  1.00  0.00     0.060 A 
BRANCH 101 102
ATOM    102  S   UNL A   1      46.592  20.776  39.657  1.00  0.00     0.124 S 
ATOM    103  O   UNL A   1      45.647  21.687  40.293  1.00  0.00    -0.237 OA
ATOM    104  O   UNL A   1      46.011  19.611  38.997  1.00  0.00    -0.237 OA
ATOM    105  O   UNL A   1      47.821  20.519  40.401  1.00  0.00    -0.744 OA
ENDBRANCH 101 102
ENDBRANCH  69  94
BRANCH  81 106
ATOM    106  C   UNL A   1      54.379  24.750  33.596  1.00  0.00     0.058 A 
ATOM    107  C   UNL A   1      55.126  25.531  34.493  1.00  0.00     0.135 A 
ATOM    108  C   UNL A   1      54.950  23.551  33.140  1.00  0.00     0.135 A 
ATOM    109  F   UNL A   1      54.629  26.691  34.953  1.00  0.00    -0.206 F 
ATOM    110  C   UNL A   1      56.402  25.154  34.899  1.00  0.00     0.059 A 
ATOM    111  C   UNL A   1      56.213  23.139  33.556  1.00  0.00     0.059 A 
ATOM    112  F   UNL A   1      54.277  22.761  32.289  1.00  0.00    -0.206 F 
ATOM    113  C   UNL A   1      56.936  23.955  34.426  1.00  0.00     0.060 A 
BRANCH 113 114
ATOM    114  S   UNL A   1      58.587  23.471  34.975  1.00  0.00     0.124 S 
ATOM    115  O   UNL A   1      58.391  22.059  35.290  1.00  0.00    -0.237 OA
ATOM    116  O   UNL A   1      59.402  23.750  33.797  1.00  0.00    -0.237 OA
ATOM    117  O   UNL A   1      58.833  24.341  36.122  1.00  0.00    -0.744 OA
ENDBRANCH 113 114
ENDBRANCH  81 106
ENDBRANCH  55  56
ENDBRANCH  48  50
ENDBRANCH  47  48
ENDBRANCH  46  47
ENDBRANCH  45  46
ENDBRANCH  44  45
ENDBRANCH  43  44
ENDBRANCH  42  43
ENDBRANCH  41  42
ENDBRANCH   1  41
TORSDOF 29
ENDMDL
