MODEL 1
REMARK VINA RESULT:     -10.2      0.000      0.000
REMARK SMILES COc1ccc2cc([C@@H](C)C(=O)OCCOCCOCCOCCOC(=O)c3ccc(-c4c5nc(c(-c6c(F)cc(S(=O)(=O)[O-])cc6F)c6ccc([nH]6)c(-c6c(F)cc(S(=O)(=O)[O-])cc6F)c6nc(c(-c7c(F)cc(S(=O)(=O)[O-])cc7F)c7ccc4[nH]7)C=C6)C=C5)cc3)ccc2c1
REMARK SMILES IDX 20 1 19 2 18 3 17 4 16 5 15 6 14 7 13 8 11 9 12 10 9 11
REMARK SMILES IDX 10 12 8 13 3 14 4 15 97 16 5 17 96 18 6 19 95 20 7 21 94 22
REMARK SMILES IDX 2 23 1 24 21 25 22 26 23 27 24 28 25 29 26 30 27 31 28 32
REMARK SMILES IDX 29 33 93 34 30 35 92 36 31 37 32 38 33 39 86 40 34 41 91 42
REMARK SMILES IDX 85 43 87 44 35 45 90 46 84 47 83 48 36 50 70 51 49 52 69 53
REMARK SMILES IDX 50 54 53 55 68 56 88 57 51 58 52 59 67 61 89 62 54 63 37 64
REMARK SMILES IDX 38 65 47 66 39 67 40 68 46 69 48 70 41 71 42 72 43 73 44 74
REMARK SMILES IDX 45 75 71 76 72 77 81 78 73 79 74 80 80 81 82 82 75 83 76 84
REMARK SMILES IDX 77 85 78 86 79 87 55 88 56 89 65 90 57 91 58 92 64 93 66 94
REMARK SMILES IDX 59 95 60 96 61 97 62 98 63 99
REMARK H PARENT 87 49 53 60
REMARK Flexibility Score: inf
ROOT
ATOM      1  C   UNL A   1      31.450  29.344  24.825  1.00  0.00     0.188 C 
ENDROOT
BRANCH   1   2
ATOM      2  O   UNL A   1      31.312  28.110  24.140  1.00  0.00    -0.377 OA
BRANCH   2   3
ATOM      3  C   UNL A   1      30.573  27.100  24.793  1.00  0.00     0.188 C 
BRANCH   3   4
ATOM      4  C   UNL A   1      31.345  25.800  25.063  1.00  0.00     0.188 C 
BRANCH   4   5
ATOM      5  O   UNL A   1      31.314  24.715  24.144  1.00  0.00    -0.376 OA
BRANCH   5   6
ATOM      6  C   UNL A   1      32.098  24.738  22.961  1.00  0.00     0.202 C 
BRANCH   6   7
ATOM      7  C   UNL A   1      33.395  25.566  22.872  1.00  0.00     0.261 C 
BRANCH   7   8
ATOM      8  O   UNL A   1      34.444  25.248  23.809  1.00  0.00    -0.463 OA
BRANCH   8   9
ATOM      9  C   UNL A   1      34.889  23.972  23.796  1.00  0.00     0.313 C 
ATOM     10  O   UNL A   1      35.532  23.489  22.864  1.00  0.00    -0.252 OA
BRANCH   9  11
ATOM     11  C   UNL A   1      34.537  23.124  25.015  1.00  0.00     0.126 C 
ATOM     12  C   UNL A   1      35.664  23.249  26.034  1.00  0.00     0.025 C 
BRANCH  11  13
ATOM     13  C   UNL A   1      34.081  21.672  24.884  1.00  0.00    -0.033 A 
ATOM     14  C   UNL A   1      33.500  16.603  24.585  1.00  0.00     0.119 A 
ATOM     15  C   UNL A   1      34.872  16.838  24.554  1.00  0.00     0.047 A 
ATOM     16  C   UNL A   1      32.618  17.682  24.618  1.00  0.00     0.055 A 
ATOM     17  C   UNL A   1      35.359  18.151  24.610  1.00  0.00     0.012 A 
ATOM     18  C   UNL A   1      33.095  19.003  24.694  1.00  0.00    -0.015 A 
ATOM     19  C   UNL A   1      34.486  19.250  24.697  1.00  0.00    -0.018 A 
ATOM     20  C   UNL A   1      32.214  20.088  24.779  1.00  0.00     0.009 A 
ATOM     21  C   UNL A   1      34.961  20.582  24.790  1.00  0.00     0.013 A 
ATOM     22  C   UNL A   1      32.698  21.395  24.886  1.00  0.00     0.005 A 
BRANCH  14  23
ATOM     23  O   UNL A   1      32.935  15.357  24.525  1.00  0.00    -0.497 OA
ATOM     24  C   UNL A   1      32.466  14.877  25.785  1.00  0.00     0.278 C 
ENDBRANCH  14  23
ENDBRANCH  11  13
ENDBRANCH   9  11
ENDBRANCH   8   9
ENDBRANCH   7   8
ENDBRANCH   6   7
ENDBRANCH   5   6
ENDBRANCH   4   5
ENDBRANCH   3   4
ENDBRANCH   2   3
ENDBRANCH   1   2
BRANCH   1  25
ATOM     25  C   UNL A   1      32.861  29.721  25.313  1.00  0.00     0.188 C 
BRANCH  25  26
ATOM     26  O   UNL A   1      32.907  30.166  26.665  1.00  0.00    -0.376 OA
BRANCH  26  27
ATOM     27  C   UNL A   1      34.175  30.319  27.286  1.00  0.00     0.202 C 
BRANCH  27  28
ATOM     28  C   UNL A   1      34.446  31.598  28.100  1.00  0.00     0.261 C 
BRANCH  28  29
ATOM     29  O   UNL A   1      35.815  31.907  28.400  1.00  0.00    -0.460 OA
BRANCH  29  30
ATOM     30  C   UNL A   1      36.312  31.541  29.603  1.00  0.00     0.338 C 
ATOM     31  O   UNL A   1      35.771  31.655  30.681  1.00  0.00    -0.246 OA
BRANCH  30  32
ATOM     32  C   UNL A   1      37.557  30.772  29.356  1.00  0.00     0.060 A 
ATOM     33  C   UNL A   1      38.465  30.602  30.408  1.00  0.00     0.016 A 
ATOM     34  C   UNL A   1      37.821  30.218  28.101  1.00  0.00     0.016 A 
ATOM     35  C   UNL A   1      39.660  29.910  30.199  1.00  0.00     0.010 A 
ATOM     36  C   UNL A   1      39.031  29.548  27.886  1.00  0.00     0.010 A 
ATOM     37  C   UNL A   1      39.970  29.419  28.925  1.00  0.00    -0.014 A 
BRANCH  37  38
ATOM     38  C   UNL A   1      41.348  28.950  28.629  1.00  0.00     0.031 A 
ATOM     39  C   UNL A   1      42.459  29.969  28.623  1.00  0.00     0.074 A 
ATOM     40  C   UNL A   1      41.619  27.654  28.393  1.00  0.00     0.049 A 
ATOM     41  N   UNL A   1      43.719  29.823  28.309  1.00  0.00    -0.248 NA
ATOM     42  C   UNL A   1      42.094  31.339  29.026  1.00  0.00     0.031 C 
ATOM     43  C   UNL A   1      40.642  26.566  28.422  1.00  0.00     0.029 A 
ATOM     44  N   UNL A   1      42.801  27.034  28.068  1.00  0.00    -0.354 N 
ATOM     45  C   UNL A   1      44.298  31.075  28.480  1.00  0.00     0.074 A 
ATOM     46  C   UNL A   1      43.246  31.979  28.888  1.00  0.00     0.031 C 
ATOM     47  C   UNL A   1      41.261  25.415  28.102  1.00  0.00     0.029 A 
ATOM     48  C   UNL A   1      42.668  25.689  27.810  1.00  0.00     0.049 A 
ATOM     49  H   UNL A   1      43.663  27.508  28.025  1.00  0.00     0.167 HD
ATOM     50  C   UNL A   1      45.593  31.436  28.325  1.00  0.00     0.037 A 
ATOM     51  C   UNL A   1      43.570  24.794  27.355  1.00  0.00     0.037 A 
ATOM     52  C   UNL A   1      46.637  30.535  27.913  1.00  0.00     0.049 A 
ATOM     53  C   UNL A   1      44.989  25.246  27.094  1.00  0.00     0.074 A 
ATOM     54  C   UNL A   1      47.978  30.808  27.713  1.00  0.00     0.029 A 
ATOM     55  N   UNL A   1      46.458  29.189  27.639  1.00  0.00    -0.354 N 
ATOM     56  N   UNL A   1      45.525  26.431  27.266  1.00  0.00    -0.248 NA
ATOM     57  C   UNL A   1      45.927  24.236  26.581  1.00  0.00     0.031 C 
ATOM     58  C   UNL A   1      48.602  29.638  27.271  1.00  0.00     0.029 A 
ATOM     59  C   UNL A   1      47.661  28.621  27.254  1.00  0.00     0.049 A 
ATOM     60  H   UNL A   1      45.602  28.706  27.707  1.00  0.00     0.167 HD
ATOM     61  C   UNL A   1      46.867  26.298  26.915  1.00  0.00     0.074 A 
ATOM     62  C   UNL A   1      47.064  24.916  26.538  1.00  0.00     0.031 C 
ATOM     63  C   UNL A   1      47.848  27.235  26.904  1.00  0.00     0.037 A 
BRANCH  50  64
ATOM     64  C   UNL A   1      45.963  32.869  28.596  1.00  0.00     0.058 A 
ATOM     65  C   UNL A   1      46.350  33.298  29.875  1.00  0.00     0.135 A 
ATOM     66  C   UNL A   1      46.000  33.807  27.552  1.00  0.00     0.135 A 
ATOM     67  F   UNL A   1      46.310  32.448  30.915  1.00  0.00    -0.206 F 
ATOM     68  C   UNL A   1      46.759  34.606  30.110  1.00  0.00     0.059 A 
ATOM     69  C   UNL A   1      46.432  35.113  27.758  1.00  0.00     0.059 A 
ATOM     70  F   UNL A   1      45.632  33.451  26.310  1.00  0.00    -0.206 F 
ATOM     71  C   UNL A   1      46.806  35.504  29.042  1.00  0.00     0.060 A 
BRANCH  71  72
ATOM     72  S   UNL A   1      47.386  37.184  29.360  1.00  0.00     0.124 S 
ATOM     73  O   UNL A   1      48.508  37.286  28.431  1.00  0.00    -0.237 OA
ATOM     74  O   UNL A   1      46.213  37.984  29.029  1.00  0.00    -0.237 OA
ATOM     75  O   UNL A   1      47.747  37.158  30.775  1.00  0.00    -0.744 OA
ENDBRANCH  71  72
ENDBRANCH  50  64
BRANCH  51  76
ATOM     76  C   UNL A   1      43.167  23.388  27.067  1.00  0.00     0.058 A 
ATOM     77  C   UNL A   1      43.164  22.407  28.072  1.00  0.00     0.135 A 
ATOM     78  C   UNL A   1      42.836  22.983  25.765  1.00  0.00     0.135 A 
ATOM     79  F   UNL A   1      43.484  22.738  29.332  1.00  0.00    -0.206 F 
ATOM     80  C   UNL A   1      42.891  21.072  27.789  1.00  0.00     0.059 A 
ATOM     81  C   UNL A   1      42.525  21.661  25.463  1.00  0.00     0.059 A 
ATOM     82  F   UNL A   1      42.811  23.879  24.765  1.00  0.00    -0.206 F 
ATOM     83  C   UNL A   1      42.577  20.708  26.478  1.00  0.00     0.060 A 
BRANCH  83  84
ATOM     84  S   UNL A   1      42.228  18.973  26.118  1.00  0.00     0.124 S 
ATOM     85  O   UNL A   1      43.182  18.698  25.049  1.00  0.00    -0.237 OA
ATOM     86  O   UNL A   1      42.504  18.334  27.402  1.00  0.00    -0.237 OA
ATOM     87  O   UNL A   1      40.823  18.990  25.724  1.00  0.00    -0.744 OA
ENDBRANCH  83  84
ENDBRANCH  51  76
BRANCH  63  88
ATOM     88  C   UNL A   1      49.237  26.794  26.524  1.00  0.00     0.058 A 
ATOM     89  C   UNL A   1      50.137  26.280  27.470  1.00  0.00     0.135 A 
ATOM     90  C   UNL A   1      49.648  26.829  25.180  1.00  0.00     0.135 A 
ATOM     91  F   UNL A   1      49.798  26.227  28.767  1.00  0.00    -0.206 F 
ATOM     92  C   UNL A   1      51.404  25.838  27.101  1.00  0.00     0.059 A 
ATOM     93  C   UNL A   1      50.898  26.362  24.785  1.00  0.00     0.059 A 
ATOM     94  F   UNL A   1      48.822  27.301  24.232  1.00  0.00    -0.206 F 
ATOM     95  C   UNL A   1      51.773  25.878  25.755  1.00  0.00     0.060 A 
BRANCH  95  96
ATOM     96  S   UNL A   1      53.405  25.263  25.287  1.00  0.00     0.124 S 
ATOM     97  O   UNL A   1      53.259  23.830  25.524  1.00  0.00    -0.237 OA
ATOM     98  O   UNL A   1      53.501  25.668  23.889  1.00  0.00    -0.237 OA
ATOM     99  O   UNL A   1      54.307  25.960  26.200  1.00  0.00    -0.744 OA
ENDBRANCH  95  96
ENDBRANCH  63  88
ENDBRANCH  37  38
ENDBRANCH  30  32
ENDBRANCH  29  30
ENDBRANCH  28  29
ENDBRANCH  27  28
ENDBRANCH  26  27
ENDBRANCH  25  26
ENDBRANCH   1  25
TORSDOF 25
ENDMDL
MODEL 2
REMARK VINA RESULT:     -10.1      6.368     11.455
REMARK SMILES COc1ccc2cc([C@@H](C)C(=O)OCCOCCOCCOCCOC(=O)c3ccc(-c4c5nc(c(-c6c(F)cc(S(=O)(=O)[O-])cc6F)c6ccc([nH]6)c(-c6c(F)cc(S(=O)(=O)[O-])cc6F)c6nc(c(-c7c(F)cc(S(=O)(=O)[O-])cc7F)c7ccc4[nH]7)C=C6)C=C5)cc3)ccc2c1
REMARK SMILES IDX 20 1 19 2 18 3 17 4 16 5 15 6 14 7 13 8 11 9 12 10 9 11
REMARK SMILES IDX 10 12 8 13 3 14 4 15 97 16 5 17 96 18 6 19 95 20 7 21 94 22
REMARK SMILES IDX 2 23 1 24 21 25 22 26 23 27 24 28 25 29 26 30 27 31 28 32
REMARK SMILES IDX 29 33 93 34 30 35 92 36 31 37 32 38 33 39 86 40 34 41 91 42
REMARK SMILES IDX 85 43 87 44 35 45 90 46 84 47 83 48 36 50 70 51 49 52 69 53
REMARK SMILES IDX 50 54 53 55 68 56 88 57 51 58 52 59 67 61 89 62 54 63 37 64
REMARK SMILES IDX 38 65 47 66 39 67 40 68 46 69 48 70 41 71 42 72 43 73 44 74
REMARK SMILES IDX 45 75 71 76 72 77 81 78 73 79 74 80 80 81 82 82 75 83 76 84
REMARK SMILES IDX 77 85 78 86 79 87 55 88 56 89 65 90 57 91 58 92 64 93 66 94
REMARK SMILES IDX 59 95 60 96 61 97 62 98 63 99
REMARK H PARENT 87 49 53 60
REMARK Flexibility Score: inf
ROOT
ATOM      1  C   UNL A   1      41.682  21.127  27.149  1.00  0.00     0.188 C 
ENDROOT
BRANCH   1   2
ATOM      2  O   UNL A   1      40.371  21.491  26.749  1.00  0.00    -0.377 OA
BRANCH   2   3
ATOM      3  C   UNL A   1      39.898  22.747  27.190  1.00  0.00     0.188 C 
BRANCH   3   4
ATOM      4  C   UNL A   1      38.991  23.486  26.194  1.00  0.00     0.188 C 
BRANCH   4   5
ATOM      5  O   UNL A   1      37.715  22.973  25.833  1.00  0.00    -0.376 OA
BRANCH   5   6
ATOM      6  C   UNL A   1      36.632  23.846  25.548  1.00  0.00     0.202 C 
BRANCH   6   7
ATOM      7  C   UNL A   1      35.574  23.493  24.485  1.00  0.00     0.261 C 
BRANCH   7   8
ATOM      8  O   UNL A   1      34.358  24.269  24.484  1.00  0.00    -0.463 OA
BRANCH   8   9
ATOM      9  C   UNL A   1      33.536  24.090  23.426  1.00  0.00     0.313 C 
ATOM     10  O   UNL A   1      33.711  24.631  22.334  1.00  0.00    -0.252 OA
BRANCH   9  11
ATOM     11  C   UNL A   1      32.337  23.174  23.653  1.00  0.00     0.126 C 
ATOM     12  C   UNL A   1      31.356  23.882  24.579  1.00  0.00     0.025 C 
BRANCH  11  13
ATOM     13  C   UNL A   1      32.505  21.709  24.056  1.00  0.00    -0.033 A 
ATOM     14  C   UNL A   1      33.174  16.657  24.441  1.00  0.00     0.119 A 
ATOM     15  C   UNL A   1      32.999  16.922  23.085  1.00  0.00     0.047 A 
ATOM     16  C   UNL A   1      33.077  17.698  25.363  1.00  0.00     0.055 A 
ATOM     17  C   UNL A   1      32.779  18.236  22.652  1.00  0.00     0.012 A 
ATOM     18  C   UNL A   1      32.876  19.024  24.938  1.00  0.00    -0.015 A 
ATOM     19  C   UNL A   1      32.731  19.307  23.562  1.00  0.00    -0.018 A 
ATOM     20  C   UNL A   1      32.829  20.079  25.857  1.00  0.00     0.009 A 
ATOM     21  C   UNL A   1      32.545  20.647  23.139  1.00  0.00     0.013 A 
ATOM     22  C   UNL A   1      32.661  21.397  25.422  1.00  0.00     0.005 A 
BRANCH  14  23
ATOM     23  O   UNL A   1      33.383  15.405  24.956  1.00  0.00    -0.497 OA
ATOM     24  C   UNL A   1      32.298  14.920  25.746  1.00  0.00     0.278 C 
ENDBRANCH  14  23
ENDBRANCH  11  13
ENDBRANCH   9  11
ENDBRANCH   8   9
ENDBRANCH   7   8
ENDBRANCH   6   7
ENDBRANCH   5   6
ENDBRANCH   4   5
ENDBRANCH   3   4
ENDBRANCH   2   3
ENDBRANCH   1   2
BRANCH   1  25
ATOM     25  C   UNL A   1      42.726  20.934  26.034  1.00  0.00     0.188 C 
BRANCH  25  26
ATOM     26  O   UNL A   1      42.685  21.936  25.023  1.00  0.00    -0.376 OA
BRANCH  26  27
ATOM     27  C   UNL A   1      43.781  22.833  24.912  1.00  0.00     0.202 C 
BRANCH  27  28
ATOM     28  C   UNL A   1      43.539  24.329  25.193  1.00  0.00     0.261 C 
BRANCH  28  29
ATOM     29  O   UNL A   1      42.514  24.661  26.140  1.00  0.00    -0.460 OA
BRANCH  29  30
ATOM     30  C   UNL A   1      41.864  25.838  26.002  1.00  0.00     0.338 C 
ATOM     31  O   UNL A   1      41.244  26.220  25.033  1.00  0.00    -0.246 OA
BRANCH  30  32
ATOM     32  C   UNL A   1      41.857  26.502  27.329  1.00  0.00     0.060 A 
ATOM     33  C   UNL A   1      40.990  26.022  28.319  1.00  0.00     0.016 A 
ATOM     34  C   UNL A   1      42.702  27.581  27.596  1.00  0.00     0.016 A 
ATOM     35  C   UNL A   1      40.939  26.645  29.568  1.00  0.00     0.010 A 
ATOM     36  C   UNL A   1      42.630  28.222  28.838  1.00  0.00     0.010 A 
ATOM     37  C   UNL A   1      41.725  27.777  29.819  1.00  0.00    -0.014 A 
BRANCH  37  38
ATOM     38  C   UNL A   1      41.460  28.609  31.020  1.00  0.00     0.031 A 
ATOM     39  C   UNL A   1      40.353  29.630  30.948  1.00  0.00     0.074 A 
ATOM     40  C   UNL A   1      42.163  28.454  32.156  1.00  0.00     0.049 A 
ATOM     41  N   UNL A   1      39.991  30.527  31.826  1.00  0.00    -0.248 NA
ATOM     42  C   UNL A   1      39.547  29.635  29.714  1.00  0.00     0.031 C 
ATOM     43  C   UNL A   1      43.222  27.468  32.369  1.00  0.00     0.029 A 
ATOM     44  N   UNL A   1      42.099  29.139  33.346  1.00  0.00    -0.354 N 
ATOM     45  C   UNL A   1      38.916  31.199  31.256  1.00  0.00     0.074 A 
ATOM     46  C   UNL A   1      38.707  30.635  29.942  1.00  0.00     0.031 C 
ATOM     47  C   UNL A   1      43.726  27.629  33.606  1.00  0.00     0.029 A 
ATOM     48  C   UNL A   1      43.052  28.751  34.260  1.00  0.00     0.049 A 
ATOM     49  H   UNL A   1      41.433  29.841  33.527  1.00  0.00     0.167 HD
ATOM     50  C   UNL A   1      38.161  32.189  31.787  1.00  0.00     0.037 A 
ATOM     51  C   UNL A   1      43.364  29.267  35.467  1.00  0.00     0.037 A 
ATOM     52  C   UNL A   1      38.376  32.754  33.094  1.00  0.00     0.049 A 
ATOM     53  C   UNL A   1      42.570  30.440  35.995  1.00  0.00     0.074 A 
ATOM     54  C   UNL A   1      37.673  33.770  33.717  1.00  0.00     0.029 A 
ATOM     55  N   UNL A   1      39.364  32.351  33.978  1.00  0.00    -0.354 N 
ATOM     56  N   UNL A   1      41.551  31.063  35.450  1.00  0.00    -0.248 NA
ATOM     57  C   UNL A   1      42.964  30.977  37.306  1.00  0.00     0.031 C 
ATOM     58  C   UNL A   1      38.268  34.016  34.958  1.00  0.00     0.029 A 
ATOM     59  C   UNL A   1      39.301  33.111  35.134  1.00  0.00     0.049 A 
ATOM     60  H   UNL A   1      40.014  31.631  33.810  1.00  0.00     0.167 HD
ATOM     61  C   UNL A   1      41.165  32.039  36.366  1.00  0.00     0.074 A 
ATOM     62  C   UNL A   1      42.047  31.913  37.506  1.00  0.00     0.031 C 
ATOM     63  C   UNL A   1      40.172  32.958  36.273  1.00  0.00     0.037 A 
BRANCH  50  64
ATOM     64  C   UNL A   1      37.031  32.737  30.958  1.00  0.00     0.058 A 
ATOM     65  C   UNL A   1      35.705  32.331  31.167  1.00  0.00     0.135 A 
ATOM     66  C   UNL A   1      37.269  33.730  29.994  1.00  0.00     0.135 A 
ATOM     67  F   UNL A   1      35.424  31.367  32.060  1.00  0.00    -0.206 F 
ATOM     68  C   UNL A   1      34.652  32.889  30.449  1.00  0.00     0.059 A 
ATOM     69  C   UNL A   1      36.230  34.321  29.283  1.00  0.00     0.059 A 
ATOM     70  F   UNL A   1      38.521  34.149  29.749  1.00  0.00    -0.206 F 
ATOM     71  C   UNL A   1      34.924  33.890  29.515  1.00  0.00     0.060 A 
BRANCH  71  72
ATOM     72  S   UNL A   1      33.539  34.635  28.629  1.00  0.00     0.124 S 
ATOM     73  O   UNL A   1      32.586  34.858  29.711  1.00  0.00    -0.237 OA
ATOM     74  O   UNL A   1      34.145  35.833  28.058  1.00  0.00    -0.237 OA
ATOM     75  O   UNL A   1      33.160  33.606  27.664  1.00  0.00    -0.744 OA
ENDBRANCH  71  72
ENDBRANCH  50  64
BRANCH  51  76
ATOM     76  C   UNL A   1      44.509  28.723  36.252  1.00  0.00     0.058 A 
ATOM     77  C   UNL A   1      45.802  29.254  36.123  1.00  0.00     0.135 A 
ATOM     78  C   UNL A   1      44.343  27.618  37.102  1.00  0.00     0.135 A 
ATOM     79  F   UNL A   1      46.019  30.303  35.315  1.00  0.00    -0.206 F 
ATOM     80  C   UNL A   1      46.894  28.684  36.772  1.00  0.00     0.059 A 
ATOM     81  C   UNL A   1      45.413  27.052  37.788  1.00  0.00     0.059 A 
ATOM     82  F   UNL A   1      43.127  27.075  37.272  1.00  0.00    -0.206 F 
ATOM     83  C   UNL A   1      46.689  27.579  37.600  1.00  0.00     0.060 A 
BRANCH  83  84
ATOM     84  S   UNL A   1      48.111  26.843  38.435  1.00  0.00     0.124 S 
ATOM     85  O   UNL A   1      48.916  26.396  37.304  1.00  0.00    -0.237 OA
ATOM     86  O   UNL A   1      48.641  27.975  39.190  1.00  0.00    -0.237 OA
ATOM     87  O   UNL A   1      47.513  25.785  39.243  1.00  0.00    -0.744 OA
ENDBRANCH  83  84
ENDBRANCH  51  76
BRANCH  63  88
ATOM     88  C   UNL A   1      39.944  33.868  37.451  1.00  0.00     0.058 A 
ATOM     89  C   UNL A   1      40.477  35.165  37.501  1.00  0.00     0.135 A 
ATOM     90  C   UNL A   1      39.124  33.455  38.517  1.00  0.00     0.135 A 
ATOM     91  F   UNL A   1      41.269  35.609  36.513  1.00  0.00    -0.206 F 
ATOM     92  C   UNL A   1      40.227  36.012  38.577  1.00  0.00     0.059 A 
ATOM     93  C   UNL A   1      38.834  34.297  39.585  1.00  0.00     0.059 A 
ATOM     94  F   UNL A   1      38.578  32.229  38.514  1.00  0.00    -0.206 F 
ATOM     95  C   UNL A   1      39.400  35.571  39.611  1.00  0.00     0.060 A 
BRANCH  95  96
ATOM     96  S   UNL A   1      39.052  36.697  40.979  1.00  0.00     0.124 S 
ATOM     97  O   UNL A   1      38.689  37.920  40.270  1.00  0.00    -0.237 OA
ATOM     98  O   UNL A   1      37.962  36.018  41.671  1.00  0.00    -0.237 OA
ATOM     99  O   UNL A   1      40.316  36.749  41.708  1.00  0.00    -0.744 OA
ENDBRANCH  95  96
ENDBRANCH  63  88
ENDBRANCH  37  38
ENDBRANCH  30  32
ENDBRANCH  29  30
ENDBRANCH  28  29
ENDBRANCH  27  28
ENDBRANCH  26  27
ENDBRANCH  25  26
ENDBRANCH   1  25
TORSDOF 25
ENDMDL
MODEL 3
REMARK VINA RESULT:      -9.8      6.424     11.978
REMARK SMILES COc1ccc2cc([C@@H](C)C(=O)OCCOCCOCCOCCOC(=O)c3ccc(-c4c5nc(c(-c6c(F)cc(S(=O)(=O)[O-])cc6F)c6ccc([nH]6)c(-c6c(F)cc(S(=O)(=O)[O-])cc6F)c6nc(c(-c7c(F)cc(S(=O)(=O)[O-])cc7F)c7ccc4[nH]7)C=C6)C=C5)cc3)ccc2c1
REMARK SMILES IDX 20 1 19 2 18 3 17 4 16 5 15 6 14 7 13 8 11 9 12 10 9 11
REMARK SMILES IDX 10 12 8 13 3 14 4 15 97 16 5 17 96 18 6 19 95 20 7 21 94 22
REMARK SMILES IDX 2 23 1 24 21 25 22 26 23 27 24 28 25 29 26 30 27 31 28 32
REMARK SMILES IDX 29 33 93 34 30 35 92 36 31 37 32 38 33 39 86 40 34 41 91 42
REMARK SMILES IDX 85 43 87 44 35 45 90 46 84 47 83 48 36 50 70 51 49 52 69 53
REMARK SMILES IDX 50 54 53 55 68 56 88 57 51 58 52 59 67 61 89 62 54 63 37 64
REMARK SMILES IDX 38 65 47 66 39 67 40 68 46 69 48 70 41 71 42 72 43 73 44 74
REMARK SMILES IDX 45 75 71 76 72 77 81 78 73 79 74 80 80 81 82 82 75 83 76 84
REMARK SMILES IDX 77 85 78 86 79 87 55 88 56 89 65 90 57 91 58 92 64 93 66 94
REMARK SMILES IDX 59 95 60 96 61 97 62 98 63 99
REMARK H PARENT 87 49 53 60
REMARK Flexibility Score: inf
ROOT
ATOM      1  C   UNL A   1      41.776  21.634  27.315  1.00  0.00     0.188 C 
ENDROOT
BRANCH   1   2
ATOM      2  O   UNL A   1      40.389  21.927  27.291  1.00  0.00    -0.377 OA
BRANCH   2   3
ATOM      3  C   UNL A   1      40.022  23.278  27.472  1.00  0.00     0.188 C 
BRANCH   3   4
ATOM      4  C   UNL A   1      38.911  23.781  26.537  1.00  0.00     0.188 C 
BRANCH   4   5
ATOM      5  O   UNL A   1      38.105  22.877  25.792  1.00  0.00    -0.376 OA
BRANCH   5   6
ATOM      6  C   UNL A   1      36.829  23.268  25.306  1.00  0.00     0.202 C 
BRANCH   6   7
ATOM      7  C   UNL A   1      35.910  22.273  24.570  1.00  0.00     0.261 C 
BRANCH   7   8
ATOM      8  O   UNL A   1      34.672  21.919  25.219  1.00  0.00    -0.463 OA
BRANCH   8   9
ATOM      9  C   UNL A   1      33.995  20.878  24.685  1.00  0.00     0.313 C 
ATOM     10  O   UNL A   1      34.439  19.731  24.644  1.00  0.00    -0.252 OA
BRANCH   9  11
ATOM     11  C   UNL A   1      32.621  21.199  24.102  1.00  0.00     0.126 C 
ATOM     12  C   UNL A   1      32.275  20.136  23.065  1.00  0.00     0.025 C 
BRANCH  11  13
ATOM     13  C   UNL A   1      32.268  22.595  23.589  1.00  0.00    -0.033 A 
ATOM     14  C   UNL A   1      30.589  27.342  22.715  1.00  0.00     0.119 A 
ATOM     15  C   UNL A   1      29.881  26.878  23.821  1.00  0.00     0.047 A 
ATOM     16  C   UNL A   1      31.487  26.494  22.068  1.00  0.00     0.055 A 
ATOM     17  C   UNL A   1      30.111  25.585  24.307  1.00  0.00     0.012 A 
ATOM     18  C   UNL A   1      31.740  25.200  22.559  1.00  0.00    -0.015 A 
ATOM     19  C   UNL A   1      31.051  24.732  23.700  1.00  0.00    -0.018 A 
ATOM     20  C   UNL A   1      32.678  24.363  21.943  1.00  0.00     0.009 A 
ATOM     21  C   UNL A   1      31.323  23.435  24.200  1.00  0.00     0.013 A 
ATOM     22  C   UNL A   1      32.946  23.091  22.457  1.00  0.00     0.005 A 
BRANCH  14  23
ATOM     23  O   UNL A   1      30.423  28.586  22.166  1.00  0.00    -0.497 OA
ATOM     24  C   UNL A   1      29.149  29.169  22.438  1.00  0.00     0.278 C 
ENDBRANCH  14  23
ENDBRANCH  11  13
ENDBRANCH   9  11
ENDBRANCH   8   9
ENDBRANCH   7   8
ENDBRANCH   6   7
ENDBRANCH   5   6
ENDBRANCH   4   5
ENDBRANCH   3   4
ENDBRANCH   2   3
ENDBRANCH   1   2
BRANCH   1  25
ATOM     25  C   UNL A   1      42.448  21.316  25.967  1.00  0.00     0.188 C 
BRANCH  25  26
ATOM     26  O   UNL A   1      42.417  22.393  25.035  1.00  0.00    -0.376 OA
BRANCH  26  27
ATOM     27  C   UNL A   1      43.642  23.021  24.683  1.00  0.00     0.202 C 
BRANCH  27  28
ATOM     28  C   UNL A   1      43.810  24.523  24.979  1.00  0.00     0.261 C 
BRANCH  28  29
ATOM     29  O   UNL A   1      43.159  25.039  26.149  1.00  0.00    -0.460 OA
BRANCH  29  30
ATOM     30  C   UNL A   1      42.382  26.138  26.025  1.00  0.00     0.338 C 
ATOM     31  O   UNL A   1      41.704  26.448  25.069  1.00  0.00    -0.246 OA
BRANCH  30  32
ATOM     32  C   UNL A   1      42.330  26.799  27.352  1.00  0.00     0.060 A 
ATOM     33  C   UNL A   1      41.565  26.213  28.369  1.00  0.00     0.016 A 
ATOM     34  C   UNL A   1      43.033  27.981  27.593  1.00  0.00     0.016 A 
ATOM     35  C   UNL A   1      41.471  26.827  29.620  1.00  0.00     0.010 A 
ATOM     36  C   UNL A   1      42.916  28.610  28.838  1.00  0.00     0.010 A 
ATOM     37  C   UNL A   1      42.109  28.053  29.846  1.00  0.00    -0.014 A 
BRANCH  37  38
ATOM     38  C   UNL A   1      41.774  28.848  31.056  1.00  0.00     0.031 A 
ATOM     39  C   UNL A   1      40.605  29.796  30.983  1.00  0.00     0.074 A 
ATOM     40  C   UNL A   1      42.471  28.720  32.199  1.00  0.00     0.049 A 
ATOM     41  N   UNL A   1      40.174  30.654  31.869  1.00  0.00    -0.248 NA
ATOM     42  C   UNL A   1      39.817  29.769  29.738  1.00  0.00     0.031 C 
ATOM     43  C   UNL A   1      43.588  27.801  32.413  1.00  0.00     0.029 A 
ATOM     44  N   UNL A   1      42.347  29.380  33.399  1.00  0.00    -0.354 N 
ATOM     45  C   UNL A   1      39.066  31.265  31.294  1.00  0.00     0.074 A 
ATOM     46  C   UNL A   1      38.912  30.710  29.969  1.00  0.00     0.031 C 
ATOM     47  C   UNL A   1      44.063  27.974  33.660  1.00  0.00     0.029 A 
ATOM     48  C   UNL A   1      43.310  29.039  34.320  1.00  0.00     0.049 A 
ATOM     49  H   UNL A   1      41.634  30.035  33.580  1.00  0.00     0.167 HD
ATOM     50  C   UNL A   1      38.242  32.196  31.829  1.00  0.00     0.037 A 
ATOM     51  C   UNL A   1      43.572  29.555  35.539  1.00  0.00     0.037 A 
ATOM     52  C   UNL A   1      38.402  32.752  33.147  1.00  0.00     0.049 A 
ATOM     53  C   UNL A   1      42.696  30.665  36.074  1.00  0.00     0.074 A 
ATOM     54  C   UNL A   1      37.627  33.711  33.775  1.00  0.00     0.029 A 
ATOM     55  N   UNL A   1      39.402  32.399  34.039  1.00  0.00    -0.354 N 
ATOM     56  N   UNL A   1      41.647  31.230  35.523  1.00  0.00    -0.248 NA
ATOM     57  C   UNL A   1      43.038  31.206  37.399  1.00  0.00     0.031 C 
ATOM     58  C   UNL A   1      38.187  33.975  35.028  1.00  0.00     0.029 A 
ATOM     59  C   UNL A   1      39.275  33.135  35.206  1.00  0.00     0.049 A 
ATOM     60  H   UNL A   1      40.099  31.725  33.870  1.00  0.00     0.167 HD
ATOM     61  C   UNL A   1      41.187  32.165  36.448  1.00  0.00     0.074 A 
ATOM     62  C   UNL A   1      42.059  32.078  37.599  1.00  0.00     0.031 C 
ATOM     63  C   UNL A   1      40.138  33.019  36.354  1.00  0.00     0.037 A 
BRANCH  50  64
ATOM     64  C   UNL A   1      37.091  32.683  30.992  1.00  0.00     0.058 A 
ATOM     65  C   UNL A   1      37.190  33.847  30.215  1.00  0.00     0.135 A 
ATOM     66  C   UNL A   1      35.902  31.940  30.910  1.00  0.00     0.135 A 
ATOM     67  F   UNL A   1      38.295  34.609  30.274  1.00  0.00    -0.206 F 
ATOM     68  C   UNL A   1      36.151  34.260  29.387  1.00  0.00     0.059 A 
ATOM     69  C   UNL A   1      34.861  32.317  30.068  1.00  0.00     0.059 A 
ATOM     70  F   UNL A   1      35.752  30.822  31.639  1.00  0.00    -0.206 F 
ATOM     71  C   UNL A   1      34.994  33.482  29.313  1.00  0.00     0.060 A 
BRANCH  71  72
ATOM     72  S   UNL A   1      33.677  34.008  28.196  1.00  0.00     0.124 S 
ATOM     73  O   UNL A   1      33.174  32.726  27.713  1.00  0.00    -0.237 OA
ATOM     74  O   UNL A   1      32.789  34.744  29.089  1.00  0.00    -0.237 OA
ATOM     75  O   UNL A   1      34.377  34.819  27.203  1.00  0.00    -0.744 OA
ENDBRANCH  71  72
ENDBRANCH  50  64
BRANCH  51  76
ATOM     76  C   UNL A   1      44.738  29.073  36.333  1.00  0.00     0.058 A 
ATOM     77  C   UNL A   1      45.996  29.689  36.233  1.00  0.00     0.135 A 
ATOM     78  C   UNL A   1      44.633  27.945  37.161  1.00  0.00     0.135 A 
ATOM     79  F   UNL A   1      46.155  30.765  35.446  1.00  0.00    -0.206 F 
ATOM     80  C   UNL A   1      47.113  29.181  36.889  1.00  0.00     0.059 A 
ATOM     81  C   UNL A   1      45.728  27.438  37.855  1.00  0.00     0.059 A 
ATOM     82  F   UNL A   1      43.453  27.320  37.304  1.00  0.00    -0.206 F 
ATOM     83  C   UNL A   1      46.969  28.050  37.695  1.00  0.00     0.060 A 
BRANCH  83  84
ATOM     84  S   UNL A   1      48.424  27.394  38.539  1.00  0.00     0.124 S 
ATOM     85  O   UNL A   1      49.280  27.037  37.413  1.00  0.00    -0.237 OA
ATOM     86  O   UNL A   1      48.857  28.539  39.335  1.00  0.00    -0.237 OA
ATOM     87  O   UNL A   1      47.889  26.273  39.306  1.00  0.00    -0.744 OA
ENDBRANCH  83  84
ENDBRANCH  51  76
BRANCH  63  88
ATOM     88  C   UNL A   1      39.835  33.894  37.543  1.00  0.00     0.058 A 
ATOM     89  C   UNL A   1      38.977  33.477  38.572  1.00  0.00     0.135 A 
ATOM     90  C   UNL A   1      40.466  35.143  37.682  1.00  0.00     0.135 A 
ATOM     91  F   UNL A   1      38.345  32.297  38.489  1.00  0.00    -0.206 F 
ATOM     92  C   UNL A   1      38.735  34.277  39.685  1.00  0.00     0.059 A 
ATOM     93  C   UNL A   1      40.265  35.943  38.802  1.00  0.00     0.059 A 
ATOM     94  F   UNL A   1      41.306  35.585  36.733  1.00  0.00    -0.206 F 
ATOM     95  C   UNL A   1      39.389  35.506  39.794  1.00  0.00     0.060 A 
BRANCH  95  96
ATOM     96  S   UNL A   1      39.097  36.513  41.263  1.00  0.00     0.124 S 
ATOM     97  O   UNL A   1      40.405  36.481  41.908  1.00  0.00    -0.237 OA
ATOM     98  O   UNL A   1      38.704  37.795  40.689  1.00  0.00    -0.237 OA
ATOM     99  O   UNL A   1      38.036  35.795  41.964  1.00  0.00    -0.744 OA
ENDBRANCH  95  96
ENDBRANCH  63  88
ENDBRANCH  37  38
ENDBRANCH  30  32
ENDBRANCH  29  30
ENDBRANCH  28  29
ENDBRANCH  27  28
ENDBRANCH  26  27
ENDBRANCH  25  26
ENDBRANCH   1  25
TORSDOF 25
ENDMDL
