MODEL 1
REMARK VINA RESULT:      -7.4      0.000      0.000
REMARK SMILES Cc1cc(C[N@@H+]2C[C@@H](C(=O)OCCOCCOCCOCCOC(=O)c3ccc(-c4c5nc(c(-c6c(F)cc(S(=O)(=O)[O-])cc6F)c6ccc([nH]6)c(-c6c(F)cc(S(=O)(=O)[O-])cc6F)c6nc(c(-c7c(F)cc(S(=O)(=O)[O-])cc7F)c7ccc4[nH]7)C=C6)C=C5)cc3)[C@H](C3CC3)C2)on1
REMARK SMILES IDX 18 1 17 2 16 3 15 4 14 5 13 6 12 7 11 8 9 9 10 10 8 11 6 12
REMARK SMILES IDX 7 13 96 14 92 16 5 17 4 18 1 19 2 20 3 21 98 22 97 23 93 24
REMARK SMILES IDX 94 25 95 26 19 27 20 28 21 29 22 30 23 31 24 32 25 33 26 34
REMARK SMILES IDX 27 35 91 36 28 37 90 38 29 39 30 40 31 41 84 42 32 43 89 44
REMARK SMILES IDX 83 45 85 46 33 47 88 48 82 49 81 50 34 52 68 53 47 54 67 55
REMARK SMILES IDX 48 56 51 57 66 58 86 59 49 60 50 61 65 63 87 64 52 65 35 66
REMARK SMILES IDX 36 67 45 68 37 69 38 70 44 71 46 72 39 73 40 74 41 75 42 76
REMARK SMILES IDX 43 77 69 78 70 79 79 80 71 81 72 82 78 83 80 84 73 85 74 86
REMARK SMILES IDX 75 87 76 88 77 89 53 90 54 91 63 92 55 93 56 94 62 95 64 96
REMARK SMILES IDX 57 97 58 98 59 99 60 100 61 101
REMARK H PARENT 6 15 85 51 51 62
REMARK Flexibility Score: inf
ROOT
ATOM      1  C   UNL A   1      38.741  34.923  34.376  1.00  0.00     0.188 C 
ENDROOT
BRANCH   1   2
ATOM      2  O   UNL A   1      39.260  35.492  35.566  1.00  0.00    -0.377 OA
BRANCH   2   3
ATOM      3  C   UNL A   1      40.468  36.203  35.392  1.00  0.00     0.188 C 
BRANCH   3   4
ATOM      4  C   UNL A   1      41.670  35.326  34.979  1.00  0.00     0.188 C 
BRANCH   4   5
ATOM      5  O   UNL A   1      42.266  35.421  33.692  1.00  0.00    -0.376 OA
BRANCH   5   6
ATOM      6  C   UNL A   1      41.947  34.468  32.691  1.00  0.00     0.202 C 
BRANCH   6   7
ATOM      7  C   UNL A   1      42.824  33.216  32.523  1.00  0.00     0.261 C 
BRANCH   7   8
ATOM      8  O   UNL A   1      43.703  32.898  33.614  1.00  0.00    -0.463 OA
BRANCH   8   9
ATOM      9  C   UNL A   1      43.909  31.578  33.854  1.00  0.00     0.315 C 
ATOM     10  O   UNL A   1      44.980  31.010  33.666  1.00  0.00    -0.252 OA
BRANCH   9  11
ATOM     11  C   UNL A   1      42.694  30.862  34.424  1.00  0.00     0.163 C 
ATOM     12  N   UNL A   1      41.087  30.613  36.180  1.00  0.00    -0.328 N 
ATOM     13  C   UNL A   1      41.980  31.605  35.554  1.00  0.00     0.278 C 
ATOM     14  C   UNL A   1      41.744  29.309  36.033  1.00  0.00     0.267 C 
ATOM     15  H   UNL A   1      40.956  30.823  37.170  1.00  0.00     0.348 HD
ATOM     16  C   UNL A   1      42.905  29.462  35.020  1.00  0.00     0.067 C 
BRANCH  12  17
ATOM     17  C   UNL A   1      39.704  30.656  35.666  1.00  0.00     0.341 C 
BRANCH  17  18
ATOM     18  C   UNL A   1      38.681  31.119  36.640  1.00  0.00     0.191 A 
ATOM     19  C   UNL A   1      36.972  32.782  39.399  1.00  0.00     0.070 C 
ATOM     20  C   UNL A   1      37.477  31.960  38.279  1.00  0.00     0.081 A 
ATOM     21  C   UNL A   1      38.462  32.293  37.322  1.00  0.00     0.078 A 
ATOM     22  N   UNL A   1      37.045  30.705  38.115  1.00  0.00    -0.085 NA
ATOM     23  O   UNL A   1      37.795  30.181  37.077  1.00  0.00    -0.355 OA
ENDBRANCH  17  18
ENDBRANCH  12  17
BRANCH  16  24
ATOM     24  C   UNL A   1      42.986  28.278  34.080  1.00  0.00    -0.001 C 
ATOM     25  C   UNL A   1      41.858  27.780  33.211  1.00  0.00     0.004 C 
ATOM     26  C   UNL A   1      43.007  28.505  32.582  1.00  0.00     0.004 C 
ENDBRANCH  16  24
ENDBRANCH   9  11
ENDBRANCH   8   9
ENDBRANCH   7   8
ENDBRANCH   6   7
ENDBRANCH   5   6
ENDBRANCH   4   5
ENDBRANCH   3   4
ENDBRANCH   2   3
ENDBRANCH   1   2
BRANCH   1  27
ATOM     27  C   UNL A   1      37.377  34.229  34.518  1.00  0.00     0.188 C 
BRANCH  27  28
ATOM     28  O   UNL A   1      36.607  34.290  33.318  1.00  0.00    -0.376 OA
BRANCH  28  29
ATOM     29  C   UNL A   1      36.308  33.078  32.645  1.00  0.00     0.202 C 
BRANCH  29  30
ATOM     30  C   UNL A   1      36.895  32.933  31.233  1.00  0.00     0.261 C 
BRANCH  30  31
ATOM     31  O   UNL A   1      36.517  31.754  30.505  1.00  0.00    -0.460 OA
BRANCH  31  32
ATOM     32  C   UNL A   1      36.913  30.554  30.985  1.00  0.00     0.338 C 
ATOM     33  O   UNL A   1      36.219  29.731  31.555  1.00  0.00    -0.246 OA
BRANCH  32  34
ATOM     34  C   UNL A   1      38.285  30.311  30.477  1.00  0.00     0.060 A 
ATOM     35  C   UNL A   1      38.470  30.147  29.097  1.00  0.00     0.016 A 
ATOM     36  C   UNL A   1      39.386  30.342  31.336  1.00  0.00     0.016 A 
ATOM     37  C   UNL A   1      39.758  30.022  28.575  1.00  0.00     0.010 A 
ATOM     38  C   UNL A   1      40.673  30.178  30.816  1.00  0.00     0.010 A 
ATOM     39  C   UNL A   1      40.863  30.001  29.434  1.00  0.00    -0.014 A 
BRANCH  39  40
ATOM     40  C   UNL A   1      42.192  29.597  28.916  1.00  0.00     0.031 A 
ATOM     41  C   UNL A   1      42.370  28.169  28.480  1.00  0.00     0.074 A 
ATOM     42  C   UNL A   1      43.212  30.469  28.823  1.00  0.00     0.049 A 
ATOM     43  N   UNL A   1      43.439  27.561  28.039  1.00  0.00    -0.248 NA
ATOM     44  C   UNL A   1      41.173  27.311  28.552  1.00  0.00     0.031 C 
ATOM     45  C   UNL A   1      43.150  31.887  29.173  1.00  0.00     0.029 A 
ATOM     46  N   UNL A   1      44.509  30.279  28.413  1.00  0.00    -0.354 N 
ATOM     47  C   UNL A   1      43.047  26.253  27.780  1.00  0.00     0.074 A 
ATOM     48  C   UNL A   1      41.650  26.148  28.137  1.00  0.00     0.031 C 
ATOM     49  C   UNL A   1      44.364  32.436  28.979  1.00  0.00     0.029 A 
ATOM     50  C   UNL A   1      45.294  31.404  28.523  1.00  0.00     0.049 A 
ATOM     51  H   UNL A   1      44.845  29.420  28.072  1.00  0.00     0.167 HD
ATOM     52  C   UNL A   1      43.785  25.234  27.285  1.00  0.00     0.037 A 
ATOM     53  C   UNL A   1      46.615  31.568  28.306  1.00  0.00     0.037 A 
ATOM     54  C   UNL A   1      45.180  25.339  26.949  1.00  0.00     0.049 A 
ATOM     55  C   UNL A   1      47.439  30.392  27.840  1.00  0.00     0.074 A 
ATOM     56  C   UNL A   1      46.015  24.366  26.430  1.00  0.00     0.029 A 
ATOM     57  N   UNL A   1      45.950  26.482  27.113  1.00  0.00    -0.354 N 
ATOM     58  N   UNL A   1      47.052  29.167  27.571  1.00  0.00    -0.248 NA
ATOM     59  C   UNL A   1      48.879  30.620  27.652  1.00  0.00     0.031 C 
ATOM     60  C   UNL A   1      47.302  24.903  26.332  1.00  0.00     0.029 A 
ATOM     61  C   UNL A   1      47.258  26.228  26.737  1.00  0.00     0.049 A 
ATOM     62  H   UNL A   1      45.615  27.345  27.449  1.00  0.00     0.167 HD
ATOM     63  C   UNL A   1      48.195  28.486  27.161  1.00  0.00     0.074 A 
ATOM     64  C   UNL A   1      49.284  29.439  27.202  1.00  0.00     0.031 C 
ATOM     65  C   UNL A   1      48.332  27.189  26.785  1.00  0.00     0.037 A 
BRANCH  52  66
ATOM     66  C   UNL A   1      43.102  23.907  27.109  1.00  0.00     0.058 A 
ATOM     67  C   UNL A   1      42.644  23.472  25.856  1.00  0.00     0.135 A 
ATOM     68  C   UNL A   1      42.928  23.048  28.206  1.00  0.00     0.135 A 
ATOM     69  F   UNL A   1      42.764  24.264  24.779  1.00  0.00    -0.206 F 
ATOM     70  C   UNL A   1      42.017  22.240  25.699  1.00  0.00     0.059 A 
ATOM     71  C   UNL A   1      42.327  21.800  28.068  1.00  0.00     0.059 A 
ATOM     72  F   UNL A   1      43.339  23.420  29.428  1.00  0.00    -0.206 F 
ATOM     73  C   UNL A   1      41.864  21.411  26.812  1.00  0.00     0.060 A 
BRANCH  73  74
ATOM     74  S   UNL A   1      41.057  19.812  26.590  1.00  0.00     0.124 S 
ATOM     75  O   UNL A   1      40.954  19.344  27.969  1.00  0.00    -0.237 OA
ATOM     76  O   UNL A   1      39.799  20.185  25.953  1.00  0.00    -0.237 OA
ATOM     77  O   UNL A   1      41.989  19.074  25.745  1.00  0.00    -0.744 OA
ENDBRANCH  73  74
ENDBRANCH  52  66
BRANCH  53  78
ATOM     78  C   UNL A   1      47.256  32.889  28.553  1.00  0.00     0.058 A 
ATOM     79  C   UNL A   1      47.411  33.827  27.522  1.00  0.00     0.135 A 
ATOM     80  C   UNL A   1      47.746  33.232  29.824  1.00  0.00     0.135 A 
ATOM     81  F   UNL A   1      46.977  33.541  26.284  1.00  0.00    -0.206 F 
ATOM     82  C   UNL A   1      48.038  35.052  27.736  1.00  0.00     0.059 A 
ATOM     83  C   UNL A   1      48.352  34.461  30.070  1.00  0.00     0.059 A 
ATOM     84  F   UNL A   1      47.623  32.372  30.847  1.00  0.00    -0.206 F 
ATOM     85  C   UNL A   1      48.502  35.361  29.015  1.00  0.00     0.060 A 
BRANCH  85  86
ATOM     86  S   UNL A   1      49.274  36.970  29.293  1.00  0.00     0.124 S 
ATOM     87  O   UNL A   1      48.417  37.847  28.504  1.00  0.00    -0.237 OA
ATOM     88  O   UNL A   1      49.172  37.111  30.742  1.00  0.00    -0.237 OA
ATOM     89  O   UNL A   1      50.629  36.785  28.781  1.00  0.00    -0.744 OA
ENDBRANCH  85  86
ENDBRANCH  53  78
BRANCH  65  90
ATOM     90  C   UNL A   1      49.701  26.725  26.364  1.00  0.00     0.058 A 
ATOM     91  C   UNL A   1      50.539  26.015  27.238  1.00  0.00     0.135 A 
ATOM     92  C   UNL A   1      50.155  26.941  25.052  1.00  0.00     0.135 A 
ATOM     93  F   UNL A   1      50.156  25.785  28.504  1.00  0.00    -0.206 F 
ATOM     94  C   UNL A   1      51.788  25.554  26.833  1.00  0.00     0.059 A 
ATOM     95  C   UNL A   1      51.387  26.464  24.617  1.00  0.00     0.059 A 
ATOM     96  F   UNL A   1      49.388  27.603  24.172  1.00  0.00    -0.206 F 
ATOM     97  C   UNL A   1      52.202  25.782  25.519  1.00  0.00     0.060 A 
BRANCH  97  98
ATOM     98  S   UNL A   1      53.811  25.148  24.997  1.00  0.00     0.124 S 
ATOM     99  O   UNL A   1      53.565  23.710  24.969  1.00  0.00    -0.237 OA
ATOM    100  O   UNL A   1      53.990  25.785  23.695  1.00  0.00    -0.237 OA
ATOM    101  O   UNL A   1      54.716  25.610  26.045  1.00  0.00    -0.744 OA
ENDBRANCH  97  98
ENDBRANCH  65  90
ENDBRANCH  39  40
ENDBRANCH  32  34
ENDBRANCH  31  32
ENDBRANCH  30  31
ENDBRANCH  29  30
ENDBRANCH  28  29
ENDBRANCH  27  28
ENDBRANCH   1  27
TORSDOF 26
ENDMDL
MODEL 2
REMARK VINA RESULT:      -7.0      1.815      2.958
REMARK SMILES Cc1cc(C[N@@H+]2C[C@@H](C(=O)OCCOCCOCCOCCOC(=O)c3ccc(-c4c5nc(c(-c6c(F)cc(S(=O)(=O)[O-])cc6F)c6ccc([nH]6)c(-c6c(F)cc(S(=O)(=O)[O-])cc6F)c6nc(c(-c7c(F)cc(S(=O)(=O)[O-])cc7F)c7ccc4[nH]7)C=C6)C=C5)cc3)[C@H](C3CC3)C2)on1
REMARK SMILES IDX 18 1 17 2 16 3 15 4 14 5 13 6 12 7 11 8 9 9 10 10 8 11 6 12
REMARK SMILES IDX 7 13 96 14 92 16 5 17 4 18 1 19 2 20 3 21 98 22 97 23 93 24
REMARK SMILES IDX 94 25 95 26 19 27 20 28 21 29 22 30 23 31 24 32 25 33 26 34
REMARK SMILES IDX 27 35 91 36 28 37 90 38 29 39 30 40 31 41 84 42 32 43 89 44
REMARK SMILES IDX 83 45 85 46 33 47 88 48 82 49 81 50 34 52 68 53 47 54 67 55
REMARK SMILES IDX 48 56 51 57 66 58 86 59 49 60 50 61 65 63 87 64 52 65 35 66
REMARK SMILES IDX 36 67 45 68 37 69 38 70 44 71 46 72 39 73 40 74 41 75 42 76
REMARK SMILES IDX 43 77 69 78 70 79 79 80 71 81 72 82 78 83 80 84 73 85 74 86
REMARK SMILES IDX 75 87 76 88 77 89 53 90 54 91 63 92 55 93 56 94 62 95 64 96
REMARK SMILES IDX 57 97 58 98 59 99 60 100 61 101
REMARK H PARENT 6 15 85 51 51 62
REMARK Flexibility Score: inf
ROOT
ATOM      1  C   UNL A   1      37.968  34.425  33.518  1.00  0.00     0.188 C 
ENDROOT
BRANCH   1   2
ATOM      2  O   UNL A   1      38.375  34.133  34.843  1.00  0.00    -0.377 OA
BRANCH   2   3
ATOM      3  C   UNL A   1      39.538  33.336  34.932  1.00  0.00     0.188 C 
BRANCH   3   4
ATOM      4  C   UNL A   1      39.754  32.678  36.313  1.00  0.00     0.188 C 
BRANCH   4   5
ATOM      5  O   UNL A   1      39.337  31.347  36.587  1.00  0.00    -0.376 OA
BRANCH   5   6
ATOM      6  C   UNL A   1      39.366  30.369  35.561  1.00  0.00     0.202 C 
BRANCH   6   7
ATOM      7  C   UNL A   1      40.717  29.842  35.048  1.00  0.00     0.261 C 
BRANCH   7   8
ATOM      8  O   UNL A   1      41.000  28.455  35.297  1.00  0.00    -0.463 OA
BRANCH   8   9
ATOM      9  C   UNL A   1      42.036  27.920  34.602  1.00  0.00     0.315 C 
ATOM     10  O   UNL A   1      42.065  27.835  33.378  1.00  0.00    -0.252 OA
BRANCH   9  11
ATOM     11  C   UNL A   1      43.192  27.466  35.479  1.00  0.00     0.163 C 
ATOM     12  N   UNL A   1      45.536  27.477  35.964  1.00  0.00    -0.328 N 
ATOM     13  C   UNL A   1      44.479  28.276  35.318  1.00  0.00     0.278 C 
ATOM     14  C   UNL A   1      45.155  26.070  35.798  1.00  0.00     0.267 C 
ATOM     15  H   UNL A   1      46.437  27.646  35.516  1.00  0.00     0.348 HD
ATOM     16  C   UNL A   1      43.682  26.019  35.322  1.00  0.00     0.067 C 
BRANCH  12  17
ATOM     17  C   UNL A   1      45.804  27.871  37.362  1.00  0.00     0.341 C 
BRANCH  17  18
ATOM     18  C   UNL A   1      45.446  29.273  37.703  1.00  0.00     0.191 A 
ATOM     19  C   UNL A   1      45.567  32.756  38.776  1.00  0.00     0.070 C 
ATOM     20  C   UNL A   1      45.281  31.364  38.367  1.00  0.00     0.081 A 
ATOM     21  C   UNL A   1      46.106  30.478  37.639  1.00  0.00     0.078 A 
ATOM     22  N   UNL A   1      44.145  30.770  38.747  1.00  0.00    -0.085 NA
ATOM     23  O   UNL A   1      44.246  29.458  38.319  1.00  0.00    -0.355 OA
ENDBRANCH  17  18
ENDBRANCH  12  17
BRANCH  16  24
ATOM     24  C   UNL A   1      42.911  24.913  36.012  1.00  0.00    -0.001 C 
ATOM     25  C   UNL A   1      41.434  24.653  35.850  1.00  0.00     0.004 C 
ATOM     26  C   UNL A   1      42.419  23.725  35.211  1.00  0.00     0.004 C 
ENDBRANCH  16  24
ENDBRANCH   9  11
ENDBRANCH   8   9
ENDBRANCH   7   8
ENDBRANCH   6   7
ENDBRANCH   5   6
ENDBRANCH   4   5
ENDBRANCH   3   4
ENDBRANCH   2   3
ENDBRANCH   1   2
BRANCH   1  27
ATOM     27  C   UNL A   1      36.450  34.396  33.273  1.00  0.00     0.188 C 
BRANCH  27  28
ATOM     28  O   UNL A   1      36.055  33.312  32.432  1.00  0.00    -0.376 OA
BRANCH  28  29
ATOM     29  C   UNL A   1      35.859  32.038  33.019  1.00  0.00     0.202 C 
BRANCH  29  30
ATOM     30  C   UNL A   1      37.048  31.070  32.932  1.00  0.00     0.261 C 
BRANCH  30  31
ATOM     31  O   UNL A   1      36.821  29.845  32.217  1.00  0.00    -0.460 OA
BRANCH  31  32
ATOM     32  C   UNL A   1      36.786  29.892  30.866  1.00  0.00     0.338 C 
ATOM     33  O   UNL A   1      35.836  30.203  30.172  1.00  0.00    -0.246 OA
BRANCH  32  34
ATOM     34  C   UNL A   1      38.180  29.735  30.387  1.00  0.00     0.060 A 
ATOM     35  C   UNL A   1      38.448  29.932  29.025  1.00  0.00     0.016 A 
ATOM     36  C   UNL A   1      39.226  29.493  31.282  1.00  0.00     0.016 A 
ATOM     37  C   UNL A   1      39.764  29.895  28.559  1.00  0.00     0.010 A 
ATOM     38  C   UNL A   1      40.538  29.418  30.808  1.00  0.00     0.010 A 
ATOM     39  C   UNL A   1      40.811  29.603  29.441  1.00  0.00    -0.014 A 
BRANCH  39  40
ATOM     40  C   UNL A   1      42.159  29.294  28.908  1.00  0.00     0.031 A 
ATOM     41  C   UNL A   1      42.422  27.891  28.436  1.00  0.00     0.074 A 
ATOM     42  C   UNL A   1      43.123  30.229  28.831  1.00  0.00     0.049 A 
ATOM     43  N   UNL A   1      43.524  27.360  27.976  1.00  0.00    -0.248 NA
ATOM     44  C   UNL A   1      41.282  26.959  28.493  1.00  0.00     0.031 C 
ATOM     45  C   UNL A   1      42.976  31.632  29.216  1.00  0.00     0.029 A 
ATOM     46  N   UNL A   1      44.427  30.130  28.411  1.00  0.00    -0.354 N 
ATOM     47  C   UNL A   1      43.212  26.037  27.687  1.00  0.00     0.074 A 
ATOM     48  C   UNL A   1      41.826  25.837  28.047  1.00  0.00     0.031 C 
ATOM     49  C   UNL A   1      44.152  32.259  29.029  1.00  0.00     0.029 A 
ATOM     50  C   UNL A   1      45.141  31.298  28.545  1.00  0.00     0.049 A 
ATOM     51  H   UNL A   1      44.813  29.302  28.047  1.00  0.00     0.167 HD
ATOM     52  C   UNL A   1      44.008  25.077  27.164  1.00  0.00     0.037 A 
ATOM     53  C   UNL A   1      46.449  31.548  28.326  1.00  0.00     0.037 A 
ATOM     54  C   UNL A   1      45.393  25.277  26.825  1.00  0.00     0.049 A 
ATOM     55  C   UNL A   1      47.341  30.437  27.828  1.00  0.00     0.074 A 
ATOM     56  C   UNL A   1      46.283  24.370  26.278  1.00  0.00     0.029 A 
ATOM     57  N   UNL A   1      46.091  26.461  27.013  1.00  0.00    -0.354 N 
ATOM     58  N   UNL A   1      47.028  29.197  27.531  1.00  0.00    -0.248 NA
ATOM     59  C   UNL A   1      48.763  30.758  27.639  1.00  0.00     0.031 C 
ATOM     60  C   UNL A   1      47.534  24.988  26.188  1.00  0.00     0.029 A 
ATOM     61  C   UNL A   1      47.411  26.297  26.625  1.00  0.00     0.049 A 
ATOM     62  H   UNL A   1      45.706  27.293  27.371  1.00  0.00     0.167 HD
ATOM     63  C   UNL A   1      48.209  28.598  27.099  1.00  0.00     0.074 A 
ATOM     64  C   UNL A   1      49.238  29.615  27.159  1.00  0.00     0.031 C 
ATOM     65  C   UNL A   1      48.424  27.322  26.691  1.00  0.00     0.037 A 
BRANCH  52  66
ATOM     66  C   UNL A   1      43.408  23.716  26.960  1.00  0.00     0.058 A 
ATOM     67  C   UNL A   1      42.935  23.297  25.706  1.00  0.00     0.135 A 
ATOM     68  C   UNL A   1      43.329  22.807  28.027  1.00  0.00     0.135 A 
ATOM     69  F   UNL A   1      42.965  24.135  24.657  1.00  0.00    -0.206 F 
ATOM     70  C   UNL A   1      42.384  22.033  25.522  1.00  0.00     0.059 A 
ATOM     71  C   UNL A   1      42.806  21.529  27.861  1.00  0.00     0.059 A 
ATOM     72  F   UNL A   1      43.758  23.161  29.249  1.00  0.00    -0.206 F 
ATOM     73  C   UNL A   1      42.326  21.155  26.607  1.00  0.00     0.060 A 
BRANCH  73  74
ATOM     74  S   UNL A   1      41.617  19.516  26.349  1.00  0.00     0.124 S 
ATOM     75  O   UNL A   1      41.930  18.861  27.616  1.00  0.00    -0.237 OA
ATOM     76  O   UNL A   1      40.207  19.819  26.124  1.00  0.00    -0.237 OA
ATOM     77  O   UNL A   1      42.340  19.011  25.186  1.00  0.00    -0.744 OA
ENDBRANCH  73  74
ENDBRANCH  52  66
BRANCH  53  78
ATOM     78  C   UNL A   1      47.008  32.900  28.601  1.00  0.00     0.058 A 
ATOM     79  C   UNL A   1      47.486  33.246  29.874  1.00  0.00     0.135 A 
ATOM     80  C   UNL A   1      47.057  33.883  27.598  1.00  0.00     0.135 A 
ATOM     81  F   UNL A   1      47.444  32.349  30.872  1.00  0.00    -0.206 F 
ATOM     82  C   UNL A   1      47.981  34.518  30.148  1.00  0.00     0.059 A 
ATOM     83  C   UNL A   1      47.573  35.153  27.841  1.00  0.00     0.059 A 
ATOM     84  F   UNL A   1      46.616  33.605  26.362  1.00  0.00    -0.206 F 
ATOM     85  C   UNL A   1      48.023  35.465  29.123  1.00  0.00     0.060 A 
BRANCH  85  86
ATOM     86  S   UNL A   1      48.708  37.098  29.478  1.00  0.00     0.124 S 
ATOM     87  O   UNL A   1      49.516  37.341  28.290  1.00  0.00    -0.237 OA
ATOM     88  O   UNL A   1      47.503  37.912  29.609  1.00  0.00    -0.237 OA
ATOM     89  O   UNL A   1      49.452  36.888  30.716  1.00  0.00    -0.744 OA
ENDBRANCH  85  86
ENDBRANCH  53  78
BRANCH  65  90
ATOM     90  C   UNL A   1      49.816  26.953  26.254  1.00  0.00     0.058 A 
ATOM     91  C   UNL A   1      50.735  26.365  27.137  1.00  0.00     0.135 A 
ATOM     92  C   UNL A   1      50.215  27.135  24.919  1.00  0.00     0.135 A 
ATOM     93  F   UNL A   1      50.406  26.173  28.424  1.00  0.00    -0.206 F 
ATOM     94  C   UNL A   1      52.008  25.991  26.719  1.00  0.00     0.059 A 
ATOM     95  C   UNL A   1      51.472  26.742  24.472  1.00  0.00     0.059 A 
ATOM     96  F   UNL A   1      49.371  27.681  24.029  1.00  0.00    -0.206 F 
ATOM     97  C   UNL A   1      52.366  26.181  25.382  1.00  0.00     0.060 A 
BRANCH  97  98
ATOM     98  S   UNL A   1      54.009  25.658  24.844  1.00  0.00     0.124 S 
ATOM     99  O   UNL A   1      54.836  26.080  25.971  1.00  0.00    -0.237 OA
ATOM    100  O   UNL A   1      53.843  24.217  24.686  1.00  0.00    -0.237 OA
ATOM    101  O   UNL A   1      54.213  26.400  23.604  1.00  0.00    -0.744 OA
ENDBRANCH  97  98
ENDBRANCH  65  90
ENDBRANCH  39  40
ENDBRANCH  32  34
ENDBRANCH  31  32
ENDBRANCH  30  31
ENDBRANCH  29  30
ENDBRANCH  28  29
ENDBRANCH  27  28
ENDBRANCH   1  27
TORSDOF 26
ENDMDL
MODEL 3
REMARK VINA RESULT:      -6.7      3.674     10.061
REMARK SMILES Cc1cc(C[N@@H+]2C[C@@H](C(=O)OCCOCCOCCOCCOC(=O)c3ccc(-c4c5nc(c(-c6c(F)cc(S(=O)(=O)[O-])cc6F)c6ccc([nH]6)c(-c6c(F)cc(S(=O)(=O)[O-])cc6F)c6nc(c(-c7c(F)cc(S(=O)(=O)[O-])cc7F)c7ccc4[nH]7)C=C6)C=C5)cc3)[C@H](C3CC3)C2)on1
REMARK SMILES IDX 18 1 17 2 16 3 15 4 14 5 13 6 12 7 11 8 9 9 10 10 8 11 6 12
REMARK SMILES IDX 7 13 96 14 92 16 5 17 4 18 1 19 2 20 3 21 98 22 97 23 93 24
REMARK SMILES IDX 94 25 95 26 19 27 20 28 21 29 22 30 23 31 24 32 25 33 26 34
REMARK SMILES IDX 27 35 91 36 28 37 90 38 29 39 30 40 31 41 84 42 32 43 89 44
REMARK SMILES IDX 83 45 85 46 33 47 88 48 82 49 81 50 34 52 68 53 47 54 67 55
REMARK SMILES IDX 48 56 51 57 66 58 86 59 49 60 50 61 65 63 87 64 52 65 35 66
REMARK SMILES IDX 36 67 45 68 37 69 38 70 44 71 46 72 39 73 40 74 41 75 42 76
REMARK SMILES IDX 43 77 69 78 70 79 79 80 71 81 72 82 78 83 80 84 73 85 74 86
REMARK SMILES IDX 75 87 76 88 77 89 53 90 54 91 63 92 55 93 56 94 62 95 64 96
REMARK SMILES IDX 57 97 58 98 59 99 60 100 61 101
REMARK H PARENT 6 15 85 51 51 62
REMARK Flexibility Score: inf
ROOT
ATOM      1  C   UNL A   1      48.399  39.759  34.097  1.00  0.00     0.188 C 
ENDROOT
BRANCH   1   2
ATOM      2  O   UNL A   1      48.077  40.596  35.194  1.00  0.00    -0.377 OA
BRANCH   2   3
ATOM      3  C   UNL A   1      47.086  40.072  36.054  1.00  0.00     0.188 C 
BRANCH   3   4
ATOM      4  C   UNL A   1      45.722  40.791  35.967  1.00  0.00     0.188 C 
BRANCH   4   5
ATOM      5  O   UNL A   1      44.615  40.227  35.276  1.00  0.00    -0.376 OA
BRANCH   5   6
ATOM      6  C   UNL A   1      44.299  38.854  35.444  1.00  0.00     0.202 C 
BRANCH   6   7
ATOM      7  C   UNL A   1      43.364  38.158  34.441  1.00  0.00     0.261 C 
BRANCH   7   8
ATOM      8  O   UNL A   1      43.065  38.882  33.236  1.00  0.00    -0.463 OA
BRANCH   8   9
ATOM      9  C   UNL A   1      44.046  38.917  32.299  1.00  0.00     0.315 C 
ATOM     10  O   UNL A   1      45.147  38.394  32.444  1.00  0.00    -0.252 OA
BRANCH   9  11
ATOM     11  C   UNL A   1      43.646  39.635  31.020  1.00  0.00     0.163 C 
ATOM     12  N   UNL A   1      44.160  40.275  28.771  1.00  0.00    -0.328 N 
ATOM     13  C   UNL A   1      44.454  39.243  29.781  1.00  0.00     0.278 C 
ATOM     14  C   UNL A   1      43.907  41.519  29.507  1.00  0.00     0.267 C 
ATOM     15  H   UNL A   1      44.956  40.400  28.145  1.00  0.00     0.348 HD
ATOM     16  C   UNL A   1      43.730  41.169  31.005  1.00  0.00     0.067 C 
BRANCH  12  17
ATOM     17  C   UNL A   1      43.083  39.896  27.835  1.00  0.00     0.341 C 
BRANCH  17  18
ATOM     18  C   UNL A   1      42.997  38.445  27.525  1.00  0.00     0.191 A 
ATOM     19  C   UNL A   1      43.693  35.073  26.323  1.00  0.00     0.070 C 
ATOM     20  C   UNL A   1      43.185  36.364  26.833  1.00  0.00     0.081 A 
ATOM     21  C   UNL A   1      43.917  37.429  27.405  1.00  0.00     0.078 A 
ATOM     22  N   UNL A   1      41.888  36.671  26.721  1.00  0.00    -0.085 NA
ATOM     23  O   UNL A   1      41.770  37.975  27.166  1.00  0.00    -0.355 OA
ENDBRANCH  17  18
ENDBRANCH  12  17
BRANCH  16  24
ATOM     24  C   UNL A   1      42.605  41.963  31.635  1.00  0.00    -0.001 C 
ATOM     25  C   UNL A   1      42.296  42.012  33.110  1.00  0.00     0.004 C 
ATOM     26  C   UNL A   1      42.920  43.201  32.449  1.00  0.00     0.004 C 
ENDBRANCH  16  24
ENDBRANCH   9  11
ENDBRANCH   8   9
ENDBRANCH   7   8
ENDBRANCH   6   7
ENDBRANCH   5   6
ENDBRANCH   4   5
ENDBRANCH   3   4
ENDBRANCH   2   3
ENDBRANCH   1   2
BRANCH   1  27
ATOM     27  C   UNL A   1      48.148  38.258  34.317  1.00  0.00     0.188 C 
BRANCH  27  28
ATOM     28  O   UNL A   1      48.650  37.459  33.245  1.00  0.00    -0.376 OA
BRANCH  28  29
ATOM     29  C   UNL A   1      49.248  38.112  32.139  1.00  0.00     0.202 C 
BRANCH  29  30
ATOM     30  C   UNL A   1      48.303  38.477  30.984  1.00  0.00     0.261 C 
BRANCH  30  31
ATOM     31  O   UNL A   1      47.632  37.382  30.341  1.00  0.00    -0.460 OA
BRANCH  31  32
ATOM     32  C   UNL A   1      48.112  36.950  29.152  1.00  0.00     0.338 C 
ATOM     33  O   UNL A   1      48.901  37.530  28.429  1.00  0.00    -0.246 OA
BRANCH  32  34
ATOM     34  C   UNL A   1      47.695  35.535  29.003  1.00  0.00     0.060 A 
ATOM     35  C   UNL A   1      47.164  35.118  27.774  1.00  0.00     0.016 A 
ATOM     36  C   UNL A   1      47.915  34.608  30.025  1.00  0.00     0.016 A 
ATOM     37  C   UNL A   1      46.859  33.772  27.565  1.00  0.00     0.010 A 
ATOM     38  C   UNL A   1      47.573  33.268  29.827  1.00  0.00     0.010 A 
ATOM     39  C   UNL A   1      47.029  32.846  28.601  1.00  0.00    -0.014 A 
BRANCH  39  40
ATOM     40  C   UNL A   1      46.456  31.485  28.474  1.00  0.00     0.031 A 
ATOM     41  C   UNL A   1      47.337  30.403  27.914  1.00  0.00     0.074 A 
ATOM     42  C   UNL A   1      45.195  31.208  28.854  1.00  0.00     0.049 A 
ATOM     43  N   UNL A   1      47.058  29.152  27.659  1.00  0.00    -0.248 NA
ATOM     44  C   UNL A   1      48.723  30.789  27.596  1.00  0.00     0.031 C 
ATOM     45  C   UNL A   1      44.261  32.161  29.450  1.00  0.00     0.029 A 
ATOM     46  N   UNL A   1      44.482  30.038  28.779  1.00  0.00    -0.354 N 
ATOM     47  C   UNL A   1      48.230  28.600  27.156  1.00  0.00     0.074 A 
ATOM     48  C   UNL A   1      49.215  29.658  27.115  1.00  0.00     0.031 C 
ATOM     49  C   UNL A   1      43.088  31.539  29.672  1.00  0.00     0.029 A 
ATOM     50  C   UNL A   1      43.179  30.156  29.204  1.00  0.00     0.049 A 
ATOM     51  H   UNL A   1      44.866  29.192  28.454  1.00  0.00     0.167 HD
ATOM     52  C   UNL A   1      48.464  27.327  26.767  1.00  0.00     0.037 A 
ATOM     53  C   UNL A   1      42.172  29.258  29.189  1.00  0.00     0.037 A 
ATOM     54  C   UNL A   1      47.474  26.283  26.792  1.00  0.00     0.049 A 
ATOM     55  C   UNL A   1      42.433  27.866  28.665  1.00  0.00     0.074 A 
ATOM     56  C   UNL A   1      47.616  24.956  26.429  1.00  0.00     0.029 A 
ATOM     57  N   UNL A   1      46.156  26.452  27.189  1.00  0.00    -0.354 N 
ATOM     58  N   UNL A   1      43.553  27.348  28.217  1.00  0.00    -0.248 NA
ATOM     59  C   UNL A   1      41.292  26.939  28.640  1.00  0.00     0.031 C 
ATOM     60  C   UNL A   1      46.369  24.335  26.553  1.00  0.00     0.029 A 
ATOM     61  C   UNL A   1      45.464  25.260  27.048  1.00  0.00     0.049 A 
ATOM     62  H   UNL A   1      45.769  27.294  27.521  1.00  0.00     0.167 HD
ATOM     63  C   UNL A   1      43.256  26.030  27.880  1.00  0.00     0.074 A 
ATOM     64  C   UNL A   1      41.857  25.826  28.190  1.00  0.00     0.031 C 
ATOM     65  C   UNL A   1      44.068  25.074  27.361  1.00  0.00     0.037 A 
BRANCH  52  66
ATOM     66  C   UNL A   1      49.836  27.003  26.249  1.00  0.00     0.058 A 
ATOM     67  C   UNL A   1      50.879  26.619  27.108  1.00  0.00     0.135 A 
ATOM     68  C   UNL A   1      50.106  27.051  24.872  1.00  0.00     0.135 A 
ATOM     69  F   UNL A   1      50.683  26.581  28.435  1.00  0.00    -0.206 F 
ATOM     70  C   UNL A   1      52.146  26.316  26.621  1.00  0.00     0.059 A 
ATOM     71  C   UNL A   1      51.358  26.726  24.360  1.00  0.00     0.059 A 
ATOM     72  F   UNL A   1      49.147  27.420  24.008  1.00  0.00    -0.206 F 
ATOM     73  C   UNL A   1      52.375  26.372  25.245  1.00  0.00     0.060 A 
BRANCH  73  74
ATOM     74  S   UNL A   1      54.022  25.966  24.629  1.00  0.00     0.124 S 
ATOM     75  O   UNL A   1      54.040  24.514  24.776  1.00  0.00    -0.237 OA
ATOM     76  O   UNL A   1      53.973  26.464  23.259  1.00  0.00    -0.237 OA
ATOM     77  O   UNL A   1      54.911  26.698  25.527  1.00  0.00    -0.744 OA
ENDBRANCH  73  74
ENDBRANCH  52  66
BRANCH  53  78
ATOM     78  C   UNL A   1      40.814  29.647  29.657  1.00  0.00     0.058 A 
ATOM     79  C   UNL A   1      39.779  29.914  28.749  1.00  0.00     0.135 A 
ATOM     80  C   UNL A   1      40.529  29.779  31.027  1.00  0.00     0.135 A 
ATOM     81  F   UNL A   1      40.004  29.821  27.430  1.00  0.00    -0.206 F 
ATOM     82  C   UNL A   1      38.515  30.310  29.179  1.00  0.00     0.059 A 
ATOM     83  C   UNL A   1      39.266  30.146  31.481  1.00  0.00     0.059 A 
ATOM     84  F   UNL A   1      41.483  29.532  31.939  1.00  0.00    -0.206 F 
ATOM     85  C   UNL A   1      38.267  30.420  30.548  1.00  0.00     0.060 A 
BRANCH  85  86
ATOM     86  S   UNL A   1      36.612  30.891  31.095  1.00  0.00     0.124 S 
ATOM     87  O   UNL A   1      36.856  32.210  31.667  1.00  0.00    -0.237 OA
ATOM     88  O   UNL A   1      35.859  30.867  29.845  1.00  0.00    -0.237 OA
ATOM     89  O   UNL A   1      36.263  29.843  32.050  1.00  0.00    -0.744 OA
ENDBRANCH  85  86
ENDBRANCH  53  78
BRANCH  65  90
ATOM     90  C   UNL A   1      43.475  23.713  27.114  1.00  0.00     0.058 A 
ATOM     91  C   UNL A   1      43.080  23.302  25.831  1.00  0.00     0.135 A 
ATOM     92  C   UNL A   1      43.357  22.786  28.163  1.00  0.00     0.135 A 
ATOM     93  F   UNL A   1      43.168  24.149  24.794  1.00  0.00    -0.206 F 
ATOM     94  C   UNL A   1      42.568  22.029  25.600  1.00  0.00     0.059 A 
ATOM     95  C   UNL A   1      42.875  21.499  27.951  1.00  0.00     0.059 A 
ATOM     96  F   UNL A   1      43.732  23.122  29.408  1.00  0.00    -0.206 F 
ATOM     97  C   UNL A   1      42.472  21.133  26.667  1.00  0.00     0.060 A 
BRANCH  97  98
ATOM     98  S   UNL A   1      41.839  19.472  26.348  1.00  0.00     0.124 S 
ATOM     99  O   UNL A   1      40.411  19.728  26.188  1.00  0.00    -0.237 OA
ATOM    100  O   UNL A   1      42.554  19.093  25.133  1.00  0.00    -0.237 OA
ATOM    101  O   UNL A   1      42.213  18.728  27.547  1.00  0.00    -0.744 OA
ENDBRANCH  97  98
ENDBRANCH  65  90
ENDBRANCH  39  40
ENDBRANCH  32  34
ENDBRANCH  31  32
ENDBRANCH  30  31
ENDBRANCH  29  30
ENDBRANCH  28  29
ENDBRANCH  27  28
ENDBRANCH   1  27
TORSDOF 26
ENDMDL
