MODEL 1
REMARK VINA RESULT:      -9.8      0.000      0.000
REMARK SMILES Cc1ccc(C[C@@H](Cc2cc(F)cc(Br)c2)C(=O)OCCOCCOCCOCCOC(=O)c2ccc(-c3c4nc(c(-c5c(F)cc(S(=O)(=O)[O-])cc5F)c5ccc([nH]5)c(-c5c(F)cc(S(=O)(=O)[O-])cc5F)c5nc(c(-c6c(F)cc(S(=O)(=O)[O-])cc6F)c6ccc3[nH]6)C=C5)C=C4)cc2)cc1
REMARK SMILES IDX 26 1 25 2 24 3 23 4 22 5 21 6 20 7 19 8 17 9 18 10 7 11 6 12
REMARK SMILES IDX 5 13 1 14 2 15 3 16 101 17 4 18 100 19 8 20 9 21 10 22 16 23
REMARK SMILES IDX 11 24 14 25 12 26 13 27 15 28 27 29 28 30 29 31 30 32 31 33
REMARK SMILES IDX 32 34 33 35 34 36 35 37 99 38 36 39 98 40 37 41 38 42 39 43
REMARK SMILES IDX 92 44 40 45 97 46 91 47 93 48 41 49 96 50 90 51 89 52 42 54
REMARK SMILES IDX 76 55 55 56 75 57 56 58 59 59 74 60 94 61 57 62 58 63 73 65
REMARK SMILES IDX 95 66 60 67 43 68 44 69 53 70 45 71 46 72 52 73 54 74 47 75
REMARK SMILES IDX 48 76 49 77 50 78 51 79 77 80 78 81 87 82 79 83 80 84 86 85
REMARK SMILES IDX 88 86 81 87 82 88 83 89 84 90 85 91 61 92 62 93 71 94 63 95
REMARK SMILES IDX 64 96 70 97 72 98 65 99 66 100 67 101 68 102 69 103
REMARK H PARENT 93 53 59 64
REMARK Flexibility Score: inf
ROOT
ATOM      1  C   UNL A   1      39.824  21.348  26.560  1.00  0.00     0.188 C 
ENDROOT
BRANCH   1   2
ATOM      2  O   UNL A   1      38.832  20.824  25.717  1.00  0.00    -0.377 OA
BRANCH   2   3
ATOM      3  C   UNL A   1      37.802  21.626  25.195  1.00  0.00     0.188 C 
BRANCH   3   4
ATOM      4  C   UNL A   1      36.332  21.227  25.335  1.00  0.00     0.188 C 
BRANCH   4   5
ATOM      5  O   UNL A   1      35.447  21.442  24.243  1.00  0.00    -0.376 OA
BRANCH   5   6
ATOM      6  C   UNL A   1      35.234  22.790  23.846  1.00  0.00     0.202 C 
BRANCH   6   7
ATOM      7  C   UNL A   1      34.014  23.064  22.963  1.00  0.00     0.261 C 
BRANCH   7   8
ATOM      8  O   UNL A   1      33.126  24.059  23.551  1.00  0.00    -0.463 OA
BRANCH   8   9
ATOM      9  C   UNL A   1      31.807  23.929  23.270  1.00  0.00     0.309 C 
ATOM     10  O   UNL A   1      31.269  22.851  23.033  1.00  0.00    -0.252 OA
BRANCH   9  11
ATOM     11  C   UNL A   1      31.010  25.240  23.236  1.00  0.00     0.108 C 
BRANCH  11  12
ATOM     12  C   UNL A   1      30.070  25.545  24.440  1.00  0.00     0.051 C 
BRANCH  12  13
ATOM     13  C   UNL A   1      30.779  25.028  25.684  1.00  0.00    -0.047 A 
ATOM     14  C   UNL A   1      33.699  22.482  27.445  1.00  0.00     0.044 C 
ATOM     15  C   UNL A   1      32.633  23.450  27.035  1.00  0.00    -0.051 A 
ATOM     16  C   UNL A   1      31.320  22.996  26.854  1.00  0.00     0.004 A 
ATOM     17  C   UNL A   1      32.956  24.768  26.694  1.00  0.00     0.004 A 
ATOM     18  C   UNL A   1      30.381  23.800  26.218  1.00  0.00     0.004 A 
ATOM     19  C   UNL A   1      32.026  25.566  26.031  1.00  0.00     0.004 A 
ENDBRANCH  12  13
ENDBRANCH  11  12
BRANCH  11  20
ATOM     20  C   UNL A   1      31.852  26.488  22.725  1.00  0.00     0.051 C 
BRANCH  20  21
ATOM     21  C   UNL A   1      31.366  27.869  23.071  1.00  0.00    -0.043 A 
ATOM     22  C   UNL A   1      30.204  28.507  22.599  1.00  0.00     0.043 A 
ATOM     23  C   UNL A   1      32.122  28.563  23.966  1.00  0.00     0.019 A 
ATOM     24  C   UNL A   1      29.753  29.708  23.183  1.00  0.00     0.124 A 
ATOM     25  C   UNL A   1      31.484  29.521  24.702  1.00  0.00     0.021 A 
ATOM     26  F   UNL A   1      28.659  30.322  22.715  1.00  0.00    -0.207 F 
ATOM     27  C   UNL A   1      30.347  30.188  24.323  1.00  0.00     0.055 A 
ATOM     28  Br  UNL A   1      31.898  29.239  26.450  1.00  0.00    -0.051 Br
ENDBRANCH  20  21
ENDBRANCH  11  20
ENDBRANCH   9  11
ENDBRANCH   8   9
ENDBRANCH   7   8
ENDBRANCH   6   7
ENDBRANCH   5   6
ENDBRANCH   4   5
ENDBRANCH   3   4
ENDBRANCH   2   3
ENDBRANCH   1   2
BRANCH   1  29
ATOM     29  C   UNL A   1      41.259  21.127  26.071  1.00  0.00     0.188 C 
BRANCH  29  30
ATOM     30  O   UNL A   1      42.129  22.238  25.988  1.00  0.00    -0.376 OA
BRANCH  30  31
ATOM     31  C   UNL A   1      42.478  22.845  27.231  1.00  0.00     0.202 C 
BRANCH  31  32
ATOM     32  C   UNL A   1      41.928  24.244  27.652  1.00  0.00     0.261 C 
BRANCH  32  33
ATOM     33  O   UNL A   1      41.271  25.065  26.650  1.00  0.00    -0.460 OA
BRANCH  33  34
ATOM     34  C   UNL A   1      39.943  25.402  26.807  1.00  0.00     0.338 C 
ATOM     35  O   UNL A   1      38.976  24.705  26.655  1.00  0.00    -0.246 OA
BRANCH  34  36
ATOM     36  C   UNL A   1      39.917  26.696  27.573  1.00  0.00     0.060 A 
ATOM     37  C   UNL A   1      40.576  27.856  27.173  1.00  0.00     0.016 A 
ATOM     38  C   UNL A   1      39.479  26.600  28.886  1.00  0.00     0.016 A 
ATOM     39  C   UNL A   1      41.088  28.723  28.154  1.00  0.00     0.010 A 
ATOM     40  C   UNL A   1      40.154  27.324  29.856  1.00  0.00     0.010 A 
ATOM     41  C   UNL A   1      41.109  28.275  29.486  1.00  0.00    -0.014 A 
BRANCH  41  42
ATOM     42  C   UNL A   1      42.376  28.244  30.299  1.00  0.00     0.031 A 
ATOM     43  C   UNL A   1      43.618  27.532  29.857  1.00  0.00     0.074 A 
ATOM     44  C   UNL A   1      42.401  29.165  31.293  1.00  0.00     0.049 A 
ATOM     45  N   UNL A   1      44.728  27.376  30.510  1.00  0.00    -0.248 NA
ATOM     46  C   UNL A   1      43.670  26.883  28.548  1.00  0.00     0.031 C 
ATOM     47  C   UNL A   1      43.470  29.776  32.039  1.00  0.00     0.029 A 
ATOM     48  N   UNL A   1      41.291  29.636  31.974  1.00  0.00    -0.354 N 
ATOM     49  C   UNL A   1      45.644  26.720  29.682  1.00  0.00     0.074 A 
ATOM     50  C   UNL A   1      44.951  26.527  28.439  1.00  0.00     0.031 C 
ATOM     51  C   UNL A   1      43.027  30.203  33.226  1.00  0.00     0.029 A 
ATOM     52  C   UNL A   1      41.661  29.858  33.287  1.00  0.00     0.049 A 
ATOM     53  H   UNL A   1      40.397  29.784  31.590  1.00  0.00     0.167 HD
ATOM     54  C   UNL A   1      46.860  26.285  30.136  1.00  0.00     0.037 A 
ATOM     55  C   UNL A   1      41.096  29.135  34.265  1.00  0.00     0.037 A 
ATOM     56  C   UNL A   1      46.773  26.012  31.586  1.00  0.00     0.049 A 
ATOM     57  C   UNL A   1      41.856  27.766  34.647  1.00  0.00     0.074 A 
ATOM     58  C   UNL A   1      47.557  26.265  32.692  1.00  0.00     0.029 A 
ATOM     59  N   UNL A   1      45.592  25.401  32.103  1.00  0.00    -0.354 N 
ATOM     60  N   UNL A   1      42.687  27.029  33.886  1.00  0.00    -0.248 NA
ATOM     61  C   UNL A   1      41.819  27.210  36.007  1.00  0.00     0.031 C 
ATOM     62  C   UNL A   1      46.834  25.863  33.842  1.00  0.00     0.029 A 
ATOM     63  C   UNL A   1      45.524  25.510  33.480  1.00  0.00     0.049 A 
ATOM     64  H   UNL A   1      44.910  24.956  31.549  1.00  0.00     0.167 HD
ATOM     65  C   UNL A   1      43.306  25.972  34.641  1.00  0.00     0.074 A 
ATOM     66  C   UNL A   1      42.681  26.170  35.955  1.00  0.00     0.031 C 
ATOM     67  C   UNL A   1      44.391  25.095  34.356  1.00  0.00     0.037 A 
BRANCH  54  68
ATOM     68  C   UNL A   1      48.159  26.155  29.268  1.00  0.00     0.058 A 
ATOM     69  C   UNL A   1      49.229  27.088  29.372  1.00  0.00     0.135 A 
ATOM     70  C   UNL A   1      48.404  25.201  28.250  1.00  0.00     0.135 A 
ATOM     71  F   UNL A   1      49.174  28.135  30.197  1.00  0.00    -0.206 F 
ATOM     72  C   UNL A   1      50.409  27.057  28.603  1.00  0.00     0.059 A 
ATOM     73  C   UNL A   1      49.570  25.156  27.451  1.00  0.00     0.059 A 
ATOM     74  F   UNL A   1      47.535  24.233  27.960  1.00  0.00    -0.206 F 
ATOM     75  C   UNL A   1      50.580  26.079  27.644  1.00  0.00     0.060 A 
BRANCH  75  76
ATOM     76  S   UNL A   1      52.117  26.025  26.696  1.00  0.00     0.124 S 
ATOM     77  O   UNL A   1      52.003  27.207  25.847  1.00  0.00    -0.237 OA
ATOM     78  O   UNL A   1      53.128  26.095  27.746  1.00  0.00    -0.237 OA
ATOM     79  O   UNL A   1      52.040  24.747  25.993  1.00  0.00    -0.744 OA
ENDBRANCH  75  76
ENDBRANCH  54  68
BRANCH  55  80
ATOM     80  C   UNL A   1      39.817  30.003  34.464  1.00  0.00     0.058 A 
ATOM     81  C   UNL A   1      40.069  31.324  34.992  1.00  0.00     0.135 A 
ATOM     82  C   UNL A   1      38.824  30.013  33.444  1.00  0.00     0.135 A 
ATOM     83  F   UNL A   1      41.010  31.473  35.941  1.00  0.00    -0.206 F 
ATOM     84  C   UNL A   1      39.593  32.523  34.400  1.00  0.00     0.059 A 
ATOM     85  C   UNL A   1      38.304  31.211  32.868  1.00  0.00     0.059 A 
ATOM     86  F   UNL A   1      38.492  28.862  32.837  1.00  0.00    -0.206 F 
ATOM     87  C   UNL A   1      38.733  32.462  33.313  1.00  0.00     0.060 A 
BRANCH  87  88
ATOM     88  S   UNL A   1      38.301  33.989  32.400  1.00  0.00     0.124 S 
ATOM     89  O   UNL A   1      39.258  33.969  31.300  1.00  0.00    -0.237 OA
ATOM     90  O   UNL A   1      36.908  33.770  32.020  1.00  0.00    -0.237 OA
ATOM     91  O   UNL A   1      38.510  35.034  33.396  1.00  0.00    -0.744 OA
ENDBRANCH  87  88
ENDBRANCH  55  80
BRANCH  67  92
ATOM     92  C   UNL A   1      44.794  23.790  35.146  1.00  0.00     0.058 A 
ATOM     93  C   UNL A   1      44.796  22.491  34.624  1.00  0.00     0.135 A 
ATOM     94  C   UNL A   1      45.337  23.858  36.481  1.00  0.00     0.135 A 
ATOM     95  F   UNL A   1      44.482  22.258  33.343  1.00  0.00    -0.206 F 
ATOM     96  C   UNL A   1      45.207  21.370  35.372  1.00  0.00     0.059 A 
ATOM     97  C   UNL A   1      45.706  22.764  37.252  1.00  0.00     0.059 A 
ATOM     98  F   UNL A   1      45.644  25.010  37.093  1.00  0.00    -0.206 F 
ATOM     99  C   UNL A   1      45.653  21.515  36.685  1.00  0.00     0.060 A 
BRANCH  99 100
ATOM    100  S   UNL A   1      46.348  20.112  37.579  1.00  0.00     0.124 S 
ATOM    101  O   UNL A   1      46.222  20.549  38.965  1.00  0.00    -0.237 OA
ATOM    102  O   UNL A   1      45.462  19.028  37.169  1.00  0.00    -0.237 OA
ATOM    103  O   UNL A   1      47.714  20.019  37.073  1.00  0.00    -0.744 OA
ENDBRANCH  99 100
ENDBRANCH  67  92
ENDBRANCH  41  42
ENDBRANCH  34  36
ENDBRANCH  33  34
ENDBRANCH  32  33
ENDBRANCH  31  32
ENDBRANCH  30  31
ENDBRANCH  29  30
ENDBRANCH   1  29
TORSDOF 27
ENDMDL
MODEL 2
REMARK VINA RESULT:      -9.7      5.838     11.968
REMARK SMILES Cc1ccc(C[C@@H](Cc2cc(F)cc(Br)c2)C(=O)OCCOCCOCCOCCOC(=O)c2ccc(-c3c4nc(c(-c5c(F)cc(S(=O)(=O)[O-])cc5F)c5ccc([nH]5)c(-c5c(F)cc(S(=O)(=O)[O-])cc5F)c5nc(c(-c6c(F)cc(S(=O)(=O)[O-])cc6F)c6ccc3[nH]6)C=C5)C=C4)cc2)cc1
REMARK SMILES IDX 26 1 25 2 24 3 23 4 22 5 21 6 20 7 19 8 17 9 18 10 7 11 6 12
REMARK SMILES IDX 5 13 1 14 2 15 3 16 101 17 4 18 100 19 8 20 9 21 10 22 16 23
REMARK SMILES IDX 11 24 14 25 12 26 13 27 15 28 27 29 28 30 29 31 30 32 31 33
REMARK SMILES IDX 32 34 33 35 34 36 35 37 99 38 36 39 98 40 37 41 38 42 39 43
REMARK SMILES IDX 92 44 40 45 97 46 91 47 93 48 41 49 96 50 90 51 89 52 42 54
REMARK SMILES IDX 76 55 55 56 75 57 56 58 59 59 74 60 94 61 57 62 58 63 73 65
REMARK SMILES IDX 95 66 60 67 43 68 44 69 53 70 45 71 46 72 52 73 54 74 47 75
REMARK SMILES IDX 48 76 49 77 50 78 51 79 77 80 78 81 87 82 79 83 80 84 86 85
REMARK SMILES IDX 88 86 81 87 82 88 83 89 84 90 85 91 61 92 62 93 71 94 63 95
REMARK SMILES IDX 64 96 70 97 72 98 65 99 66 100 67 101 68 102 69 103
REMARK H PARENT 93 53 59 64
REMARK Flexibility Score: inf
ROOT
ATOM      1  C   UNL A   1      35.250  33.473  28.457  1.00  0.00     0.188 C 
ENDROOT
BRANCH   1   2
ATOM      2  O   UNL A   1      34.058  32.909  27.974  1.00  0.00    -0.377 OA
BRANCH   2   3
ATOM      3  C   UNL A   1      33.894  31.518  27.850  1.00  0.00     0.188 C 
BRANCH   3   4
ATOM      4  C   UNL A   1      35.097  30.576  27.768  1.00  0.00     0.188 C 
BRANCH   4   5
ATOM      5  O   UNL A   1      34.908  29.245  27.308  1.00  0.00    -0.376 OA
BRANCH   5   6
ATOM      6  C   UNL A   1      33.757  29.000  26.509  1.00  0.00     0.202 C 
BRANCH   6   7
ATOM      7  C   UNL A   1      33.366  27.536  26.295  1.00  0.00     0.261 C 
BRANCH   7   8
ATOM      8  O   UNL A   1      32.333  27.390  25.278  1.00  0.00    -0.463 OA
BRANCH   8   9
ATOM      9  C   UNL A   1      31.295  26.575  25.587  1.00  0.00     0.309 C 
ATOM     10  O   UNL A   1      30.623  26.694  26.607  1.00  0.00    -0.252 OA
BRANCH   9  11
ATOM     11  C   UNL A   1      31.018  25.452  24.579  1.00  0.00     0.108 C 
BRANCH  11  12
ATOM     12  C   UNL A   1      29.828  25.644  23.591  1.00  0.00     0.051 C 
BRANCH  12  13
ATOM     13  C   UNL A   1      29.584  27.143  23.496  1.00  0.00    -0.047 A 
ATOM     14  C   UNL A   1      28.201  30.496  21.270  1.00  0.00     0.044 C 
ATOM     15  C   UNL A   1      28.729  29.464  22.219  1.00  0.00    -0.051 A 
ATOM     16  C   UNL A   1      30.067  29.062  22.127  1.00  0.00     0.004 A 
ATOM     17  C   UNL A   1      27.870  28.796  23.099  1.00  0.00     0.004 A 
ATOM     18  C   UNL A   1      30.506  27.927  22.799  1.00  0.00     0.004 A 
ATOM     19  C   UNL A   1      28.299  27.643  23.752  1.00  0.00     0.004 A 
ENDBRANCH  12  13
ENDBRANCH  11  12
BRANCH  11  20
ATOM     20  C   UNL A   1      32.331  24.848  23.917  1.00  0.00     0.051 C 
BRANCH  20  21
ATOM     21  C   UNL A   1      32.708  23.428  24.239  1.00  0.00    -0.043 A 
ATOM     22  C   UNL A   1      32.322  22.265  23.547  1.00  0.00     0.043 A 
ATOM     23  C   UNL A   1      33.543  23.256  25.302  1.00  0.00     0.019 A 
ATOM     24  C   UNL A   1      32.935  21.025  23.821  1.00  0.00     0.124 A 
ATOM     25  C   UNL A   1      34.322  22.133  25.300  1.00  0.00     0.021 A 
ATOM     26  F   UNL A   1      32.549  19.919  23.175  1.00  0.00    -0.207 F 
ATOM     27  C   UNL A   1      34.026  20.962  24.650  1.00  0.00     0.055 A 
ATOM     28  Br  UNL A   1      36.035  22.652  25.621  1.00  0.00    -0.051 Br
ENDBRANCH  20  21
ENDBRANCH  11  20
ENDBRANCH   9  11
ENDBRANCH   8   9
ENDBRANCH   7   8
ENDBRANCH   6   7
ENDBRANCH   5   6
ENDBRANCH   4   5
ENDBRANCH   3   4
ENDBRANCH   2   3
ENDBRANCH   1   2
BRANCH   1  29
ATOM     29  C   UNL A   1      35.135  34.117  29.843  1.00  0.00     0.188 C 
BRANCH  29  30
ATOM     30  O   UNL A   1      34.077  33.720  30.692  1.00  0.00    -0.376 OA
BRANCH  30  31
ATOM     31  C   UNL A   1      34.124  34.235  32.021  1.00  0.00     0.202 C 
BRANCH  31  32
ATOM     32  C   UNL A   1      34.145  33.299  33.271  1.00  0.00     0.261 C 
BRANCH  32  33
ATOM     33  O   UNL A   1      35.239  33.425  34.217  1.00  0.00    -0.460 OA
BRANCH  33  34
ATOM     34  C   UNL A   1      36.434  33.981  33.810  1.00  0.00     0.338 C 
ATOM     35  O   UNL A   1      36.837  35.097  34.001  1.00  0.00    -0.246 OA
BRANCH  34  36
ATOM     36  C   UNL A   1      37.324  32.839  33.404  1.00  0.00     0.060 A 
ATOM     37  C   UNL A   1      38.013  32.027  34.300  1.00  0.00     0.016 A 
ATOM     38  C   UNL A   1      37.705  32.830  32.069  1.00  0.00     0.016 A 
ATOM     39  C   UNL A   1      39.265  31.506  33.927  1.00  0.00     0.010 A 
ATOM     40  C   UNL A   1      39.018  32.505  31.767  1.00  0.00     0.010 A 
ATOM     41  C   UNL A   1      39.865  32.006  32.759  1.00  0.00    -0.014 A 
BRANCH  41  42
ATOM     42  C   UNL A   1      41.249  32.601  32.763  1.00  0.00     0.031 A 
ATOM     43  C   UNL A   1      41.561  33.948  33.343  1.00  0.00     0.074 A 
ATOM     44  C   UNL A   1      42.225  31.700  32.494  1.00  0.00     0.049 A 
ATOM     45  N   UNL A   1      42.692  34.584  33.327  1.00  0.00    -0.248 NA
ATOM     46  C   UNL A   1      40.517  34.724  34.010  1.00  0.00     0.031 C 
ATOM     47  C   UNL A   1      43.639  31.675  32.762  1.00  0.00     0.029 A 
ATOM     48  N   UNL A   1      42.080  30.584  31.688  1.00  0.00    -0.354 N 
ATOM     49  C   UNL A   1      42.547  35.767  34.058  1.00  0.00     0.074 A 
ATOM     50  C   UNL A   1      41.193  35.746  34.536  1.00  0.00     0.031 C 
ATOM     51  C   UNL A   1      44.266  30.881  31.887  1.00  0.00     0.029 A 
ATOM     52  C   UNL A   1      43.272  30.388  31.016  1.00  0.00     0.049 A 
ATOM     53  H   UNL A   1      41.272  30.028  31.608  1.00  0.00     0.167 HD
ATOM     54  C   UNL A   1      43.525  36.723  34.104  1.00  0.00     0.037 A 
ATOM     55  C   UNL A   1      43.304  30.497  29.680  1.00  0.00     0.037 A 
ATOM     56  C   UNL A   1      44.338  36.652  32.872  1.00  0.00     0.049 A 
ATOM     57  C   UNL A   1      43.623  31.968  29.107  1.00  0.00     0.074 A 
ATOM     58  C   UNL A   1      45.682  36.699  32.566  1.00  0.00     0.029 A 
ATOM     59  N   UNL A   1      43.685  36.403  31.628  1.00  0.00    -0.354 N 
ATOM     60  N   UNL A   1      43.439  33.159  29.708  1.00  0.00    -0.248 NA
ATOM     61  C   UNL A   1      44.318  32.172  27.828  1.00  0.00     0.031 C 
ATOM     62  C   UNL A   1      45.826  36.429  31.183  1.00  0.00     0.029 A 
ATOM     63  C   UNL A   1      44.587  36.046  30.643  1.00  0.00     0.049 A 
ATOM     64  H   UNL A   1      42.714  36.477  31.489  1.00  0.00     0.167 HD
ATOM     65  C   UNL A   1      44.012  34.237  28.946  1.00  0.00     0.074 A 
ATOM     66  C   UNL A   1      44.525  33.506  27.781  1.00  0.00     0.031 C 
ATOM     67  C   UNL A   1      44.269  35.603  29.256  1.00  0.00     0.037 A 
BRANCH  54  68
ATOM     68  C   UNL A   1      43.784  37.699  35.304  1.00  0.00     0.058 A 
ATOM     69  C   UNL A   1      44.170  39.054  35.101  1.00  0.00     0.135 A 
ATOM     70  C   UNL A   1      43.764  37.369  36.682  1.00  0.00     0.135 A 
ATOM     71  F   UNL A   1      44.352  39.560  33.881  1.00  0.00    -0.206 F 
ATOM     72  C   UNL A   1      44.452  39.977  36.127  1.00  0.00     0.059 A 
ATOM     73  C   UNL A   1      44.061  38.269  37.731  1.00  0.00     0.059 A 
ATOM     74  F   UNL A   1      43.444  36.150  37.115  1.00  0.00    -0.206 F 
ATOM     75  C   UNL A   1      44.389  39.582  37.448  1.00  0.00     0.060 A 
BRANCH  75  76
ATOM     76  S   UNL A   1      44.711  40.788  38.753  1.00  0.00     0.124 S 
ATOM     77  O   UNL A   1      43.732  40.417  39.770  1.00  0.00    -0.237 OA
ATOM     78  O   UNL A   1      46.105  40.515  39.086  1.00  0.00    -0.237 OA
ATOM     79  O   UNL A   1      44.469  42.072  38.099  1.00  0.00    -0.744 OA
ENDBRANCH  75  76
ENDBRANCH  54  68
BRANCH  55  80
ATOM     80  C   UNL A   1      42.856  29.044  29.334  1.00  0.00     0.058 A 
ATOM     81  C   UNL A   1      41.649  28.965  28.544  1.00  0.00     0.135 A 
ATOM     82  C   UNL A   1      43.836  28.102  28.912  1.00  0.00     0.135 A 
ATOM     83  F   UNL A   1      40.646  29.822  28.807  1.00  0.00    -0.206 F 
ATOM     84  C   UNL A   1      41.535  28.234  27.332  1.00  0.00     0.059 A 
ATOM     85  C   UNL A   1      43.717  27.328  27.719  1.00  0.00     0.059 A 
ATOM     86  F   UNL A   1      45.025  28.066  29.535  1.00  0.00    -0.206 F 
ATOM     87  C   UNL A   1      42.589  27.439  26.905  1.00  0.00     0.060 A 
BRANCH  87  88
ATOM     88  S   UNL A   1      42.548  26.682  25.239  1.00  0.00     0.124 S 
ATOM     89  O   UNL A   1      41.265  25.989  25.249  1.00  0.00    -0.237 OA
ATOM     90  O   UNL A   1      42.630  27.834  24.345  1.00  0.00    -0.237 OA
ATOM     91  O   UNL A   1      43.727  25.822  25.243  1.00  0.00    -0.744 OA
ENDBRANCH  87  88
ENDBRANCH  55  80
BRANCH  67  92
ATOM     92  C   UNL A   1      44.639  36.755  28.243  1.00  0.00     0.058 A 
ATOM     93  C   UNL A   1      43.797  37.809  27.868  1.00  0.00     0.135 A 
ATOM     94  C   UNL A   1      45.971  36.885  27.708  1.00  0.00     0.135 A 
ATOM     95  F   UNL A   1      42.575  37.944  28.401  1.00  0.00    -0.206 F 
ATOM     96  C   UNL A   1      44.203  38.832  26.989  1.00  0.00     0.059 A 
ATOM     97  C   UNL A   1      46.381  37.859  26.805  1.00  0.00     0.059 A 
ATOM     98  F   UNL A   1      47.003  36.129  28.108  1.00  0.00    -0.206 F 
ATOM     99  C   UNL A   1      45.492  38.845  26.457  1.00  0.00     0.060 A 
BRANCH  99 100
ATOM    100  S   UNL A   1      46.069  40.245  25.480  1.00  0.00     0.124 S 
ATOM    101  O   UNL A   1      46.674  39.579  24.332  1.00  0.00    -0.237 OA
ATOM    102  O   UNL A   1      44.825  40.961  25.219  1.00  0.00    -0.237 OA
ATOM    103  O   UNL A   1      47.002  40.931  26.370  1.00  0.00    -0.744 OA
ENDBRANCH  99 100
ENDBRANCH  67  92
ENDBRANCH  41  42
ENDBRANCH  34  36
ENDBRANCH  33  34
ENDBRANCH  32  33
ENDBRANCH  31  32
ENDBRANCH  30  31
ENDBRANCH  29  30
ENDBRANCH   1  29
TORSDOF 27
ENDMDL
MODEL 3
REMARK VINA RESULT:      -9.0      4.260     10.629
REMARK SMILES Cc1ccc(C[C@@H](Cc2cc(F)cc(Br)c2)C(=O)OCCOCCOCCOCCOC(=O)c2ccc(-c3c4nc(c(-c5c(F)cc(S(=O)(=O)[O-])cc5F)c5ccc([nH]5)c(-c5c(F)cc(S(=O)(=O)[O-])cc5F)c5nc(c(-c6c(F)cc(S(=O)(=O)[O-])cc6F)c6ccc3[nH]6)C=C5)C=C4)cc2)cc1
REMARK SMILES IDX 26 1 25 2 24 3 23 4 22 5 21 6 20 7 19 8 17 9 18 10 7 11 6 12
REMARK SMILES IDX 5 13 1 14 2 15 3 16 101 17 4 18 100 19 8 20 9 21 10 22 16 23
REMARK SMILES IDX 11 24 14 25 12 26 13 27 15 28 27 29 28 30 29 31 30 32 31 33
REMARK SMILES IDX 32 34 33 35 34 36 35 37 99 38 36 39 98 40 37 41 38 42 39 43
REMARK SMILES IDX 92 44 40 45 97 46 91 47 93 48 41 49 96 50 90 51 89 52 42 54
REMARK SMILES IDX 76 55 55 56 75 57 56 58 59 59 74 60 94 61 57 62 58 63 73 65
REMARK SMILES IDX 95 66 60 67 43 68 44 69 53 70 45 71 46 72 52 73 54 74 47 75
REMARK SMILES IDX 48 76 49 77 50 78 51 79 77 80 78 81 87 82 79 83 80 84 86 85
REMARK SMILES IDX 88 86 81 87 82 88 83 89 84 90 85 91 61 92 62 93 71 94 63 95
REMARK SMILES IDX 64 96 70 97 72 98 65 99 66 100 67 101 68 102 69 103
REMARK H PARENT 93 53 59 64
REMARK Flexibility Score: inf
ROOT
ATOM      1  C   UNL A   1      39.308  21.272  25.844  1.00  0.00     0.188 C 
ENDROOT
BRANCH   1   2
ATOM      2  O   UNL A   1      37.949  21.621  25.839  1.00  0.00    -0.377 OA
BRANCH   2   3
ATOM      3  C   UNL A   1      37.526  22.958  25.732  1.00  0.00     0.188 C 
BRANCH   3   4
ATOM      4  C   UNL A   1      36.042  23.327  25.723  1.00  0.00     0.188 C 
BRANCH   4   5
ATOM      5  O   UNL A   1      35.332  23.323  24.491  1.00  0.00    -0.376 OA
BRANCH   5   6
ATOM      6  C   UNL A   1      34.084  24.002  24.467  1.00  0.00     0.202 C 
BRANCH   6   7
ATOM      7  C   UNL A   1      33.592  24.494  23.104  1.00  0.00     0.261 C 
BRANCH   7   8
ATOM      8  O   UNL A   1      33.376  25.935  23.090  1.00  0.00    -0.463 OA
BRANCH   8   9
ATOM      9  C   UNL A   1      32.601  26.417  22.087  1.00  0.00     0.309 C 
ATOM     10  O   UNL A   1      32.573  25.931  20.961  1.00  0.00    -0.252 OA
BRANCH   9  11
ATOM     11  C   UNL A   1      31.760  27.652  22.442  1.00  0.00     0.108 C 
BRANCH  11  12
ATOM     12  C   UNL A   1      30.395  27.416  23.154  1.00  0.00     0.051 C 
BRANCH  12  13
ATOM     13  C   UNL A   1      29.446  28.485  22.633  1.00  0.00    -0.047 A 
ATOM     14  C   UNL A   1      27.701  32.346  23.031  1.00  0.00     0.044 C 
ATOM     15  C   UNL A   1      28.193  30.970  22.702  1.00  0.00    -0.051 A 
ATOM     16  C   UNL A   1      27.584  29.858  23.297  1.00  0.00     0.004 A 
ATOM     17  C   UNL A   1      29.340  30.789  21.921  1.00  0.00     0.004 A 
ATOM     18  C   UNL A   1      28.187  28.607  23.227  1.00  0.00     0.004 A 
ATOM     19  C   UNL A   1      29.961  29.543  21.872  1.00  0.00     0.004 A 
ENDBRANCH  12  13
ENDBRANCH  11  12
BRANCH  11  20
ATOM     20  C   UNL A   1      32.611  28.857  23.032  1.00  0.00     0.051 C 
BRANCH  20  21
ATOM     21  C   UNL A   1      32.739  28.980  24.526  1.00  0.00    -0.043 A 
ATOM     22  C   UNL A   1      33.836  28.602  25.322  1.00  0.00     0.043 A 
ATOM     23  C   UNL A   1      31.685  29.551  25.172  1.00  0.00     0.019 A 
ATOM     24  C   UNL A   1      33.911  28.986  26.676  1.00  0.00     0.124 A 
ATOM     25  C   UNL A   1      31.951  30.168  26.363  1.00  0.00     0.021 A 
ATOM     26  F   UNL A   1      34.947  28.605  27.433  1.00  0.00    -0.207 F 
ATOM     27  C   UNL A   1      32.998  29.868  27.197  1.00  0.00     0.055 A 
ATOM     28  Br  UNL A   1      31.216  31.830  26.297  1.00  0.00    -0.051 Br
ENDBRANCH  20  21
ENDBRANCH  11  20
ENDBRANCH   9  11
ENDBRANCH   8   9
ENDBRANCH   7   8
ENDBRANCH   6   7
ENDBRANCH   5   6
ENDBRANCH   4   5
ENDBRANCH   3   4
ENDBRANCH   2   3
ENDBRANCH   1   2
BRANCH   1  29
ATOM     29  C   UNL A   1      39.587  19.788  25.583  1.00  0.00     0.188 C 
BRANCH  29  30
ATOM     30  O   UNL A   1      40.885  19.286  25.827  1.00  0.00    -0.376 OA
BRANCH  30  31
ATOM     31  C   UNL A   1      41.548  19.815  26.974  1.00  0.00     0.202 C 
BRANCH  31  32
ATOM     32  C   UNL A   1      42.454  21.084  26.893  1.00  0.00     0.261 C 
BRANCH  32  33
ATOM     33  O   UNL A   1      42.828  21.591  25.585  1.00  0.00    -0.460 OA
BRANCH  33  34
ATOM     34  C   UNL A   1      42.920  22.951  25.381  1.00  0.00     0.338 C 
ATOM     35  O   UNL A   1      42.042  23.771  25.423  1.00  0.00    -0.246 OA
BRANCH  34  36
ATOM     36  C   UNL A   1      44.381  23.300  25.466  1.00  0.00     0.060 A 
ATOM     37  C   UNL A   1      45.281  22.696  26.339  1.00  0.00     0.016 A 
ATOM     38  C   UNL A   1      44.740  24.499  24.866  1.00  0.00     0.016 A 
ATOM     39  C   UNL A   1      46.343  23.456  26.860  1.00  0.00     0.010 A 
ATOM     40  C   UNL A   1      45.644  25.315  25.525  1.00  0.00     0.010 A 
ATOM     41  C   UNL A   1      46.323  24.846  26.654  1.00  0.00    -0.014 A 
BRANCH  41  42
ATOM     42  C   UNL A   1      46.398  25.826  27.795  1.00  0.00     0.031 A 
ATOM     43  C   UNL A   1      45.213  26.593  28.298  1.00  0.00     0.074 A 
ATOM     44  C   UNL A   1      47.536  25.718  28.523  1.00  0.00     0.049 A 
ATOM     45  N   UNL A   1      45.184  27.512  29.214  1.00  0.00    -0.248 NA
ATOM     46  C   UNL A   1      43.886  26.357  27.731  1.00  0.00     0.031 C 
ATOM     47  C   UNL A   1      47.886  26.113  29.863  1.00  0.00     0.029 A 
ATOM     48  N   UNL A   1      48.764  25.312  28.030  1.00  0.00    -0.354 N 
ATOM     49  C   UNL A   1      43.854  27.892  29.419  1.00  0.00     0.074 A 
ATOM     50  C   UNL A   1      43.087  27.066  28.529  1.00  0.00     0.031 C 
ATOM     51  C   UNL A   1      49.207  26.287  29.969  1.00  0.00     0.029 A 
ATOM     52  C   UNL A   1      49.745  26.028  28.691  1.00  0.00     0.049 A 
ATOM     53  H   UNL A   1      48.913  24.634  27.332  1.00  0.00     0.167 HD
ATOM     54  C   UNL A   1      43.511  28.946  30.222  1.00  0.00     0.037 A 
ATOM     55  C   UNL A   1      50.523  26.876  28.002  1.00  0.00     0.037 A 
ATOM     56  C   UNL A   1      44.623  29.918  30.259  1.00  0.00     0.049 A 
ATOM     57  C   UNL A   1      49.980  28.389  27.892  1.00  0.00     0.074 A 
ATOM     58  C   UNL A   1      45.260  30.662  31.230  1.00  0.00     0.029 A 
ATOM     59  N   UNL A   1      45.348  30.182  29.058  1.00  0.00    -0.354 N 
ATOM     60  N   UNL A   1      48.712  28.833  27.995  1.00  0.00    -0.248 NA
ATOM     61  C   UNL A   1      50.890  29.537  27.790  1.00  0.00     0.031 C 
ATOM     62  C   UNL A   1      46.369  31.308  30.630  1.00  0.00     0.029 A 
ATOM     63  C   UNL A   1      46.535  30.843  29.316  1.00  0.00     0.049 A 
ATOM     64  H   UNL A   1      45.040  29.926  28.159  1.00  0.00     0.167 HD
ATOM     65  C   UNL A   1      48.651  30.270  28.020  1.00  0.00     0.074 A 
ATOM     66  C   UNL A   1      50.072  30.609  27.872  1.00  0.00     0.031 C 
ATOM     67  C   UNL A   1      47.602  31.182  28.332  1.00  0.00     0.037 A 
BRANCH  54  68
ATOM     68  C   UNL A   1      42.172  29.074  31.029  1.00  0.00     0.058 A 
ATOM     69  C   UNL A   1      40.929  29.333  30.387  1.00  0.00     0.135 A 
ATOM     70  C   UNL A   1      42.028  29.043  32.438  1.00  0.00     0.135 A 
ATOM     71  F   UNL A   1      40.839  29.504  29.068  1.00  0.00    -0.206 F 
ATOM     72  C   UNL A   1      39.695  29.495  31.047  1.00  0.00     0.059 A 
ATOM     73  C   UNL A   1      40.807  29.220  33.128  1.00  0.00     0.059 A 
ATOM     74  F   UNL A   1      43.061  28.829  33.253  1.00  0.00    -0.206 F 
ATOM     75  C   UNL A   1      39.636  29.429  32.425  1.00  0.00     0.060 A 
BRANCH  75  76
ATOM     76  S   UNL A   1      38.040  29.594  33.254  1.00  0.00     0.124 S 
ATOM     77  O   UNL A   1      38.431  29.861  34.635  1.00  0.00    -0.237 OA
ATOM     78  O   UNL A   1      37.437  30.715  32.540  1.00  0.00    -0.237 OA
ATOM     79  O   UNL A   1      37.403  28.299  33.030  1.00  0.00    -0.744 OA
ENDBRANCH  75  76
ENDBRANCH  54  68
BRANCH  55  80
ATOM     80  C   UNL A   1      51.586  25.846  27.514  1.00  0.00     0.058 A 
ATOM     81  C   UNL A   1      51.594  25.629  26.085  1.00  0.00     0.135 A 
ATOM     82  C   UNL A   1      52.901  25.903  28.055  1.00  0.00     0.135 A 
ATOM     83  F   UNL A   1      50.420  25.588  25.430  1.00  0.00    -0.206 F 
ATOM     84  C   UNL A   1      52.752  25.725  25.270  1.00  0.00     0.059 A 
ATOM     85  C   UNL A   1      54.079  25.956  27.250  1.00  0.00     0.059 A 
ATOM     86  F   UNL A   1      53.063  26.121  29.370  1.00  0.00    -0.206 F 
ATOM     87  C   UNL A   1      53.994  25.922  25.858  1.00  0.00     0.060 A 
BRANCH  87  88
ATOM     88  S   UNL A   1      55.455  26.279  24.813  1.00  0.00     0.124 S 
ATOM     89  O   UNL A   1      56.273  25.089  25.014  1.00  0.00    -0.237 OA
ATOM     90  O   UNL A   1      54.884  26.427  23.477  1.00  0.00    -0.237 OA
ATOM     91  O   UNL A   1      55.979  27.509  25.397  1.00  0.00    -0.744 OA
ENDBRANCH  87  88
ENDBRANCH  55  80
BRANCH  67  92
ATOM     92  C   UNL A   1      47.574  32.734  28.048  1.00  0.00     0.058 A 
ATOM     93  C   UNL A   1      48.368  33.693  28.690  1.00  0.00     0.135 A 
ATOM     94  C   UNL A   1      46.791  33.287  26.970  1.00  0.00     0.135 A 
ATOM     95  F   UNL A   1      49.281  33.338  29.604  1.00  0.00    -0.206 F 
ATOM     96  C   UNL A   1      48.325  35.062  28.360  1.00  0.00     0.059 A 
ATOM     97  C   UNL A   1      46.699  34.637  26.657  1.00  0.00     0.059 A 
ATOM     98  F   UNL A   1      46.135  32.535  26.075  1.00  0.00    -0.206 F 
ATOM     99  C   UNL A   1      47.484  35.525  27.349  1.00  0.00     0.060 A 
BRANCH  99 100
ATOM    100  S   UNL A   1      47.560  37.241  26.805  1.00  0.00     0.124 S 
ATOM    101  O   UNL A   1      48.936  37.344  26.331  1.00  0.00    -0.237 OA
ATOM    102  O   UNL A   1      46.526  37.276  25.776  1.00  0.00    -0.237 OA
ATOM    103  O   UNL A   1      47.256  38.004  28.013  1.00  0.00    -0.744 OA
ENDBRANCH  99 100
ENDBRANCH  67  92
ENDBRANCH  41  42
ENDBRANCH  34  36
ENDBRANCH  33  34
ENDBRANCH  32  33
ENDBRANCH  31  32
ENDBRANCH  30  31
ENDBRANCH  29  30
ENDBRANCH   1  29
TORSDOF 27
ENDMDL
