MODEL 1
REMARK VINA RESULT:      -8.5      0.000      0.000
REMARK SMILES CN(Cc1ccncc1)C(=O)c1cccn1CC(=O)OCCOCCOCCOCCOC(=O)c1ccc(-c2c3nc(c(-c4c(F)cc(S(=O)(=O)[O-])cc4F)c4ccc([nH]4)c(-c4c(F)cc(S(=O)(=O)[O-])cc4F)c4nc(c(-c5c(F)cc(S(=O)(=O)[O-])cc5F)c5ccc2[nH]5)C=C4)C=C3)cc1
REMARK SMILES IDX 25 1 24 2 23 3 22 4 21 5 20 6 18 7 19 8 17 9 16 10 12 11
REMARK SMILES IDX 13 12 14 13 15 14 10 15 11 16 2 17 1 18 3 19 4 20 5 21 9 22
REMARK SMILES IDX 6 23 8 24 7 25 26 26 27 27 28 28 29 29 30 30 31 31 32 32
REMARK SMILES IDX 33 33 34 34 35 35 36 36 100 37 37 38 99 39 38 40 39 41 40 42
REMARK SMILES IDX 93 43 41 44 98 45 92 46 94 47 42 48 97 49 91 50 90 51 43 53
REMARK SMILES IDX 77 54 56 55 76 56 57 57 60 58 75 59 95 60 58 61 59 62 74 64
REMARK SMILES IDX 96 65 61 66 44 67 45 68 54 69 46 70 47 71 53 72 55 73 48 74
REMARK SMILES IDX 49 75 50 76 51 77 52 78 78 79 79 80 88 81 80 82 81 83 87 84
REMARK SMILES IDX 89 85 82 86 83 87 84 88 85 89 86 90 62 91 63 92 72 93 64 94
REMARK SMILES IDX 65 95 71 96 73 97 66 98 67 99 68 100 69 101 70 102
REMARK H PARENT 94 52 60 63
REMARK Flexibility Score: inf
ROOT
ATOM      1  C   UNL A   1      50.568  21.198  33.939  1.00  0.00     0.188 C 
ENDROOT
BRANCH   1   2
ATOM      2  C   UNL A   1      49.924  20.512  35.171  1.00  0.00     0.188 C 
BRANCH   2   3
ATOM      3  O   UNL A   1      48.671  20.941  35.701  1.00  0.00    -0.376 OA
BRANCH   3   4
ATOM      4  C   UNL A   1      48.631  22.140  36.448  1.00  0.00     0.202 C 
BRANCH   4   5
ATOM      5  C   UNL A   1      48.978  22.007  37.941  1.00  0.00     0.261 C 
BRANCH   5   6
ATOM      6  O   UNL A   1      47.866  22.166  38.849  1.00  0.00    -0.462 OA
BRANCH   6   7
ATOM      7  C   UNL A   1      46.964  21.154  38.918  1.00  0.00     0.326 C 
ATOM      8  O   UNL A   1      45.773  21.285  38.638  1.00  0.00    -0.250 OA
BRANCH   7   9
ATOM      9  C   UNL A   1      47.533  19.798  39.306  1.00  0.00     0.244 C 
BRANCH   9  10
ATOM     10  N   UNL A   1      46.598  18.699  39.575  1.00  0.00    -0.332 N 
ATOM     11  C   UNL A   1      46.186  18.196  40.814  1.00  0.00     0.107 A 
ATOM     12  C   UNL A   1      45.599  16.975  40.494  1.00  0.00     0.033 A 
ATOM     13  C   UNL A   1      45.282  16.969  39.116  1.00  0.00     0.020 A 
ATOM     14  C   UNL A   1      45.866  18.084  38.577  1.00  0.00     0.087 A 
BRANCH  11  15
ATOM     15  C   UNL A   1      46.361  18.924  42.075  1.00  0.00     0.270 C 
ATOM     16  O   UNL A   1      45.928  20.076  42.170  1.00  0.00    -0.267 OA
BRANCH  15  17
ATOM     17  N   UNL A   1      46.875  18.305  43.229  1.00  0.00    -0.336 N 
ATOM     18  C   UNL A   1      48.316  18.086  43.273  1.00  0.00     0.147 C 
BRANCH  17  19
ATOM     19  C   UNL A   1      46.115  17.777  44.360  1.00  0.00     0.155 C 
BRANCH  19  20
ATOM     20  C   UNL A   1      44.993  16.799  44.083  1.00  0.00    -0.026 A 
ATOM     21  C   UNL A   1      45.192  15.454  44.437  1.00  0.00     0.025 A 
ATOM     22  C   UNL A   1      43.846  17.112  43.349  1.00  0.00     0.025 A 
ATOM     23  C   UNL A   1      44.287  14.497  44.002  1.00  0.00     0.111 A 
ATOM     24  C   UNL A   1      43.015  16.080  42.933  1.00  0.00     0.111 A 
ATOM     25  N   UNL A   1      43.211  14.782  43.245  1.00  0.00    -0.265 NA
ENDBRANCH  19  20
ENDBRANCH  17  19
ENDBRANCH  15  17
ENDBRANCH  11  15
ENDBRANCH   9  10
ENDBRANCH   7   9
ENDBRANCH   6   7
ENDBRANCH   5   6
ENDBRANCH   4   5
ENDBRANCH   3   4
ENDBRANCH   2   3
ENDBRANCH   1   2
BRANCH   1  26
ATOM     26  O   UNL A   1      51.514  22.224  34.206  1.00  0.00    -0.377 OA
BRANCH  26  27
ATOM     27  C   UNL A   1      50.953  23.513  34.406  1.00  0.00     0.188 C 
BRANCH  27  28
ATOM     28  C   UNL A   1      50.024  23.933  33.261  1.00  0.00     0.188 C 
BRANCH  28  29
ATOM     29  O   UNL A   1      48.647  23.927  33.622  1.00  0.00    -0.376 OA
BRANCH  29  30
ATOM     30  C   UNL A   1      47.947  25.136  33.858  1.00  0.00     0.202 C 
BRANCH  30  31
ATOM     31  C   UNL A   1      48.417  25.982  35.048  1.00  0.00     0.261 C 
BRANCH  31  32
ATOM     32  O   UNL A   1      47.476  26.150  36.103  1.00  0.00    -0.460 OA
BRANCH  32  33
ATOM     33  C   UNL A   1      47.134  27.432  36.322  1.00  0.00     0.338 C 
ATOM     34  O   UNL A   1      47.593  28.217  37.125  1.00  0.00    -0.246 OA
BRANCH  33  35
ATOM     35  C   UNL A   1      45.974  27.781  35.533  1.00  0.00     0.060 A 
ATOM     36  C   UNL A   1      44.913  26.875  35.588  1.00  0.00     0.016 A 
ATOM     37  C   UNL A   1      46.202  28.654  34.465  1.00  0.00     0.016 A 
ATOM     38  C   UNL A   1      44.149  26.722  34.461  1.00  0.00     0.010 A 
ATOM     39  C   UNL A   1      45.465  28.466  33.322  1.00  0.00     0.010 A 
ATOM     40  C   UNL A   1      44.470  27.480  33.325  1.00  0.00    -0.014 A 
BRANCH  40  41
ATOM     41  C   UNL A   1      43.568  27.368  32.185  1.00  0.00     0.031 A 
ATOM     42  C   UNL A   1      42.330  28.251  32.450  1.00  0.00     0.074 A 
ATOM     43  C   UNL A   1      43.959  26.486  31.209  1.00  0.00     0.049 A 
ATOM     44  N   UNL A   1      41.121  28.127  32.009  1.00  0.00    -0.248 NA
ATOM     45  C   UNL A   1      42.408  29.385  33.427  1.00  0.00     0.031 C 
ATOM     46  C   UNL A   1      45.253  25.753  31.175  1.00  0.00     0.029 A 
ATOM     47  N   UNL A   1      43.369  26.014  30.056  1.00  0.00    -0.354 N 
ATOM     48  C   UNL A   1      40.394  29.264  32.426  1.00  0.00     0.074 A 
ATOM     49  C   UNL A   1      41.190  29.926  33.406  1.00  0.00     0.031 C 
ATOM     50  C   UNL A   1      45.299  24.885  30.136  1.00  0.00     0.029 A 
ATOM     51  C   UNL A   1      44.072  24.982  29.367  1.00  0.00     0.049 A 
ATOM     52  H   UNL A   1      42.511  26.369  29.728  1.00  0.00     0.167 HD
ATOM     53  C   UNL A   1      39.241  29.655  31.814  1.00  0.00     0.037 A 
ATOM     54  C   UNL A   1      43.663  24.243  28.283  1.00  0.00     0.037 A 
ATOM     55  C   UNL A   1      38.918  28.713  30.797  1.00  0.00     0.049 A 
ATOM     56  C   UNL A   1      42.425  24.906  27.856  1.00  0.00     0.074 A 
ATOM     57  C   UNL A   1      38.466  27.423  30.879  1.00  0.00     0.029 A 
ATOM     58  N   UNL A   1      39.468  28.937  29.556  1.00  0.00    -0.354 N 
ATOM     59  N   UNL A   1      42.369  26.050  27.241  1.00  0.00    -0.248 NA
ATOM     60  C   UNL A   1      41.143  24.301  28.243  1.00  0.00     0.031 C 
ATOM     61  C   UNL A   1      39.200  26.773  29.873  1.00  0.00     0.029 A 
ATOM     62  C   UNL A   1      39.830  27.715  29.049  1.00  0.00     0.049 A 
ATOM     63  H   UNL A   1      39.581  29.810  29.115  1.00  0.00     0.167 HD
ATOM     64  C   UNL A   1      41.076  26.438  27.482  1.00  0.00     0.074 A 
ATOM     65  C   UNL A   1      40.326  25.230  27.757  1.00  0.00     0.031 C 
ATOM     66  C   UNL A   1      40.831  27.665  28.010  1.00  0.00     0.037 A 
BRANCH  53  67
ATOM     67  C   UNL A   1      38.450  30.929  31.831  1.00  0.00     0.058 A 
ATOM     68  C   UNL A   1      37.644  31.169  32.972  1.00  0.00     0.135 A 
ATOM     69  C   UNL A   1      38.153  31.684  30.689  1.00  0.00     0.135 A 
ATOM     70  F   UNL A   1      37.907  30.562  34.142  1.00  0.00    -0.206 F 
ATOM     71  C   UNL A   1      36.503  31.955  32.926  1.00  0.00     0.059 A 
ATOM     72  C   UNL A   1      37.038  32.524  30.638  1.00  0.00     0.059 A 
ATOM     73  F   UNL A   1      38.883  31.567  29.572  1.00  0.00    -0.206 F 
ATOM     74  C   UNL A   1      36.184  32.597  31.739  1.00  0.00     0.060 A 
BRANCH  74  75
ATOM     75  S   UNL A   1      34.622  33.494  31.657  1.00  0.00     0.124 S 
ATOM     76  O   UNL A   1      35.024  34.828  32.088  1.00  0.00    -0.237 OA
ATOM     77  O   UNL A   1      34.266  33.366  30.247  1.00  0.00    -0.237 OA
ATOM     78  O   UNL A   1      33.766  32.757  32.581  1.00  0.00    -0.744 OA
ENDBRANCH  74  75
ENDBRANCH  53  67
BRANCH  54  79
ATOM     79  C   UNL A   1      44.028  22.983  27.508  1.00  0.00     0.058 A 
ATOM     80  C   UNL A   1      43.196  21.894  27.220  1.00  0.00     0.135 A 
ATOM     81  C   UNL A   1      45.318  22.889  26.896  1.00  0.00     0.135 A 
ATOM     82  F   UNL A   1      42.013  21.756  27.833  1.00  0.00    -0.206 F 
ATOM     83  C   UNL A   1      43.554  20.895  26.281  1.00  0.00     0.059 A 
ATOM     84  C   UNL A   1      45.670  21.955  25.928  1.00  0.00     0.059 A 
ATOM     85  F   UNL A   1      46.314  23.732  27.194  1.00  0.00    -0.206 F 
ATOM     86  C   UNL A   1      44.767  20.971  25.596  1.00  0.00     0.060 A 
BRANCH  86  87
ATOM     87  S   UNL A   1      45.141  19.898  24.188  1.00  0.00     0.124 S 
ATOM     88  O   UNL A   1      46.595  19.813  24.243  1.00  0.00    -0.237 OA
ATOM     89  O   UNL A   1      44.416  18.677  24.522  1.00  0.00    -0.237 OA
ATOM     90  O   UNL A   1      44.598  20.640  23.050  1.00  0.00    -0.744 OA
ENDBRANCH  86  87
ENDBRANCH  54  79
BRANCH  66  91
ATOM     91  C   UNL A   1      41.864  28.730  27.687  1.00  0.00     0.058 A 
ATOM     92  C   UNL A   1      42.102  29.073  26.346  1.00  0.00     0.135 A 
ATOM     93  C   UNL A   1      42.680  29.373  28.635  1.00  0.00     0.135 A 
ATOM     94  F   UNL A   1      41.364  28.512  25.374  1.00  0.00    -0.206 F 
ATOM     95  C   UNL A   1      43.079  29.998  25.969  1.00  0.00     0.059 A 
ATOM     96  C   UNL A   1      43.668  30.303  28.288  1.00  0.00     0.059 A 
ATOM     97  F   UNL A   1      42.538  29.118  29.936  1.00  0.00    -0.206 F 
ATOM     98  C   UNL A   1      43.858  30.615  26.947  1.00  0.00     0.060 A 
BRANCH  98  99
ATOM     99  S   UNL A   1      45.087  31.842  26.441  1.00  0.00     0.124 S 
ATOM    100  O   UNL A   1      46.105  31.020  25.796  1.00  0.00    -0.237 OA
ATOM    101  O   UNL A   1      44.310  32.697  25.550  1.00  0.00    -0.237 OA
ATOM    102  O   UNL A   1      45.496  32.462  27.698  1.00  0.00    -0.744 OA
ENDBRANCH  98  99
ENDBRANCH  66  91
ENDBRANCH  40  41
ENDBRANCH  33  35
ENDBRANCH  32  33
ENDBRANCH  31  32
ENDBRANCH  30  31
ENDBRANCH  29  30
ENDBRANCH  28  29
ENDBRANCH  27  28
ENDBRANCH  26  27
ENDBRANCH   1  26
TORSDOF 28
ENDMDL
MODEL 2
REMARK VINA RESULT:      -8.0      5.447     13.987
REMARK SMILES CN(Cc1ccncc1)C(=O)c1cccn1CC(=O)OCCOCCOCCOCCOC(=O)c1ccc(-c2c3nc(c(-c4c(F)cc(S(=O)(=O)[O-])cc4F)c4ccc([nH]4)c(-c4c(F)cc(S(=O)(=O)[O-])cc4F)c4nc(c(-c5c(F)cc(S(=O)(=O)[O-])cc5F)c5ccc2[nH]5)C=C4)C=C3)cc1
REMARK SMILES IDX 25 1 24 2 23 3 22 4 21 5 20 6 18 7 19 8 17 9 16 10 12 11
REMARK SMILES IDX 13 12 14 13 15 14 10 15 11 16 2 17 1 18 3 19 4 20 5 21 9 22
REMARK SMILES IDX 6 23 8 24 7 25 26 26 27 27 28 28 29 29 30 30 31 31 32 32
REMARK SMILES IDX 33 33 34 34 35 35 36 36 100 37 37 38 99 39 38 40 39 41 40 42
REMARK SMILES IDX 93 43 41 44 98 45 92 46 94 47 42 48 97 49 91 50 90 51 43 53
REMARK SMILES IDX 77 54 56 55 76 56 57 57 60 58 75 59 95 60 58 61 59 62 74 64
REMARK SMILES IDX 96 65 61 66 44 67 45 68 54 69 46 70 47 71 53 72 55 73 48 74
REMARK SMILES IDX 49 75 50 76 51 77 52 78 78 79 79 80 88 81 80 82 81 83 87 84
REMARK SMILES IDX 89 85 82 86 83 87 84 88 85 89 86 90 62 91 63 92 72 93 64 94
REMARK SMILES IDX 65 95 71 96 73 97 66 98 67 99 68 100 69 101 70 102
REMARK H PARENT 94 52 60 63
REMARK Flexibility Score: inf
ROOT
ATOM      1  C   UNL A   1      40.550  24.456  27.076  1.00  0.00     0.188 C 
ENDROOT
BRANCH   1   2
ATOM      2  C   UNL A   1      39.199  23.709  27.216  1.00  0.00     0.188 C 
BRANCH   2   3
ATOM      3  O   UNL A   1      38.388  23.402  26.083  1.00  0.00    -0.376 OA
BRANCH   3   4
ATOM      4  C   UNL A   1      38.213  22.045  25.729  1.00  0.00     0.202 C 
BRANCH   4   5
ATOM      5  C   UNL A   1      36.889  21.706  25.025  1.00  0.00     0.261 C 
BRANCH   5   6
ATOM      6  O   UNL A   1      35.793  21.362  25.903  1.00  0.00    -0.462 OA
BRANCH   6   7
ATOM      7  C   UNL A   1      35.016  22.376  26.360  1.00  0.00     0.326 C 
ATOM      8  O   UNL A   1      35.298  23.565  26.215  1.00  0.00    -0.250 OA
BRANCH   7   9
ATOM      9  C   UNL A   1      33.714  21.955  27.021  1.00  0.00     0.244 C 
BRANCH   9  10
ATOM     10  N   UNL A   1      32.459  22.532  26.524  1.00  0.00    -0.332 N 
ATOM     11  C   UNL A   1      31.950  22.504  25.221  1.00  0.00     0.107 A 
ATOM     12  C   UNL A   1      30.950  23.473  25.239  1.00  0.00     0.033 A 
ATOM     13  C   UNL A   1      30.590  23.731  26.581  1.00  0.00     0.020 A 
ATOM     14  C   UNL A   1      31.511  23.086  27.363  1.00  0.00     0.087 A 
BRANCH  11  15
ATOM     15  C   UNL A   1      32.431  21.580  24.189  1.00  0.00     0.270 C 
ATOM     16  O   UNL A   1      32.528  20.378  24.456  1.00  0.00    -0.267 OA
BRANCH  15  17
ATOM     17  N   UNL A   1      32.650  21.991  22.862  1.00  0.00    -0.336 N 
ATOM     18  C   UNL A   1      31.878  21.313  21.826  1.00  0.00     0.147 C 
BRANCH  17  19
ATOM     19  C   UNL A   1      33.628  22.969  22.390  1.00  0.00     0.155 C 
BRANCH  19  20
ATOM     20  C   UNL A   1      33.289  24.441  22.502  1.00  0.00    -0.026 A 
ATOM     21  C   UNL A   1      33.885  25.175  23.540  1.00  0.00     0.025 A 
ATOM     22  C   UNL A   1      32.298  25.074  21.747  1.00  0.00     0.025 A 
ATOM     23  C   UNL A   1      33.434  26.458  23.809  1.00  0.00     0.111 A 
ATOM     24  C   UNL A   1      31.892  26.351  22.113  1.00  0.00     0.111 A 
ATOM     25  N   UNL A   1      32.439  27.055  23.125  1.00  0.00    -0.265 NA
ENDBRANCH  19  20
ENDBRANCH  17  19
ENDBRANCH  15  17
ENDBRANCH  11  15
ENDBRANCH   9  10
ENDBRANCH   7   9
ENDBRANCH   6   7
ENDBRANCH   5   6
ENDBRANCH   4   5
ENDBRANCH   3   4
ENDBRANCH   2   3
ENDBRANCH   1   2
BRANCH   1  26
ATOM     26  O   UNL A   1      40.537  25.850  27.350  1.00  0.00    -0.377 OA
BRANCH  26  27
ATOM     27  C   UNL A   1      41.123  26.659  26.340  1.00  0.00     0.188 C 
BRANCH  27  28
ATOM     28  C   UNL A   1      41.766  25.830  25.223  1.00  0.00     0.188 C 
BRANCH  28  29
ATOM     29  O   UNL A   1      43.185  25.941  25.184  1.00  0.00    -0.376 OA
BRANCH  29  30
ATOM     30  C   UNL A   1      44.013  24.799  25.310  1.00  0.00     0.202 C 
BRANCH  30  31
ATOM     31  C   UNL A   1      45.522  25.052  25.417  1.00  0.00     0.261 C 
BRANCH  31  32
ATOM     32  O   UNL A   1      46.233  24.207  26.316  1.00  0.00    -0.460 OA
BRANCH  32  33
ATOM     33  C   UNL A   1      45.436  23.490  27.126  1.00  0.00     0.338 C 
ATOM     34  O   UNL A   1      44.701  22.564  26.850  1.00  0.00    -0.246 OA
BRANCH  33  35
ATOM     35  C   UNL A   1      45.431  24.061  28.454  1.00  0.00     0.060 A 
ATOM     36  C   UNL A   1      44.448  23.571  29.317  1.00  0.00     0.016 A 
ATOM     37  C   UNL A   1      46.023  25.321  28.580  1.00  0.00     0.016 A 
ATOM     38  C   UNL A   1      43.922  24.438  30.239  1.00  0.00     0.010 A 
ATOM     39  C   UNL A   1      45.463  26.201  29.472  1.00  0.00     0.010 A 
ATOM     40  C   UNL A   1      44.398  25.757  30.267  1.00  0.00    -0.014 A 
BRANCH  40  41
ATOM     41  C   UNL A   1      43.891  26.616  31.331  1.00  0.00     0.031 A 
ATOM     42  C   UNL A   1      44.516  26.161  32.667  1.00  0.00     0.074 A 
ATOM     43  C   UNL A   1      42.957  27.544  30.945  1.00  0.00     0.049 A 
ATOM     44  N   UNL A   1      44.055  26.269  33.870  1.00  0.00    -0.248 NA
ATOM     45  C   UNL A   1      45.794  25.378  32.675  1.00  0.00     0.031 C 
ATOM     46  C   UNL A   1      42.530  27.809  29.546  1.00  0.00     0.029 A 
ATOM     47  N   UNL A   1      42.171  28.448  31.627  1.00  0.00    -0.354 N 
ATOM     48  C   UNL A   1      45.062  25.825  34.757  1.00  0.00     0.074 A 
ATOM     49  C   UNL A   1      46.044  25.162  33.966  1.00  0.00     0.031 C 
ATOM     50  C   UNL A   1      41.523  28.714  29.502  1.00  0.00     0.029 A 
ATOM     51  C   UNL A   1      41.212  29.159  30.847  1.00  0.00     0.049 A 
ATOM     52  H   UNL A   1      42.266  28.593  32.596  1.00  0.00     0.167 HD
ATOM     53  C   UNL A   1      45.077  26.174  36.074  1.00  0.00     0.037 A 
ATOM     54  C   UNL A   1      40.221  30.010  31.276  1.00  0.00     0.037 A 
ATOM     55  C   UNL A   1      43.921  26.958  36.355  1.00  0.00     0.049 A 
ATOM     56  C   UNL A   1      40.512  30.194  32.703  1.00  0.00     0.074 A 
ATOM     57  C   UNL A   1      42.600  26.610  36.437  1.00  0.00     0.029 A 
ATOM     58  N   UNL A   1      44.036  28.314  36.156  1.00  0.00    -0.354 N 
ATOM     59  N   UNL A   1      41.488  30.909  33.176  1.00  0.00    -0.248 NA
ATOM     60  C   UNL A   1      39.720  29.430  33.677  1.00  0.00     0.031 C 
ATOM     61  C   UNL A   1      41.957  27.680  35.793  1.00  0.00     0.029 A 
ATOM     62  C   UNL A   1      42.853  28.742  35.612  1.00  0.00     0.049 A 
ATOM     63  H   UNL A   1      44.820  28.871  36.364  1.00  0.00     0.167 HD
ATOM     64  C   UNL A   1      41.621  30.404  34.444  1.00  0.00     0.074 A 
ATOM     65  C   UNL A   1      40.347  29.807  34.787  1.00  0.00     0.031 C 
ATOM     66  C   UNL A   1      42.839  29.984  34.875  1.00  0.00     0.037 A 
BRANCH  53  67
ATOM     67  C   UNL A   1      46.129  26.116  37.140  1.00  0.00     0.058 A 
ATOM     68  C   UNL A   1      47.348  26.790  36.878  1.00  0.00     0.135 A 
ATOM     69  C   UNL A   1      46.153  25.164  38.168  1.00  0.00     0.135 A 
ATOM     70  F   UNL A   1      47.405  27.783  35.974  1.00  0.00    -0.206 F 
ATOM     71  C   UNL A   1      48.549  26.409  37.456  1.00  0.00     0.059 A 
ATOM     72  C   UNL A   1      47.344  24.803  38.802  1.00  0.00     0.059 A 
ATOM     73  F   UNL A   1      45.044  24.504  38.527  1.00  0.00    -0.206 F 
ATOM     74  C   UNL A   1      48.544  25.383  38.389  1.00  0.00     0.060 A 
BRANCH  74  75
ATOM     75  S   UNL A   1      50.131  24.806  39.019  1.00  0.00     0.124 S 
ATOM     76  O   UNL A   1      50.693  24.147  37.845  1.00  0.00    -0.237 OA
ATOM     77  O   UNL A   1      50.779  26.053  39.414  1.00  0.00    -0.237 OA
ATOM     78  O   UNL A   1      49.752  23.929  40.122  1.00  0.00    -0.744 OA
ENDBRANCH  74  75
ENDBRANCH  53  67
BRANCH  54  79
ATOM     79  C   UNL A   1      38.955  30.693  30.776  1.00  0.00     0.058 A 
ATOM     80  C   UNL A   1      38.806  32.036  30.405  1.00  0.00     0.135 A 
ATOM     81  C   UNL A   1      37.782  29.907  30.542  1.00  0.00     0.135 A 
ATOM     82  F   UNL A   1      39.756  32.935  30.694  1.00  0.00    -0.206 F 
ATOM     83  C   UNL A   1      37.661  32.509  29.715  1.00  0.00     0.059 A 
ATOM     84  C   UNL A   1      36.675  30.331  29.816  1.00  0.00     0.059 A 
ATOM     85  F   UNL A   1      37.661  28.653  30.995  1.00  0.00    -0.206 F 
ATOM     86  C   UNL A   1      36.631  31.633  29.372  1.00  0.00     0.060 A 
BRANCH  86  87
ATOM     87  S   UNL A   1      35.299  32.115  28.246  1.00  0.00     0.124 S 
ATOM     88  O   UNL A   1      35.924  33.175  27.465  1.00  0.00    -0.237 OA
ATOM     89  O   UNL A   1      35.025  30.871  27.534  1.00  0.00    -0.237 OA
ATOM     90  O   UNL A   1      34.236  32.546  29.154  1.00  0.00    -0.744 OA
ENDBRANCH  86  87
ENDBRANCH  54  79
BRANCH  66  91
ATOM     91  C   UNL A   1      44.029  30.680  34.238  1.00  0.00     0.058 A 
ATOM     92  C   UNL A   1      44.187  32.066  34.408  1.00  0.00     0.135 A 
ATOM     93  C   UNL A   1      44.978  30.055  33.409  1.00  0.00     0.135 A 
ATOM     94  F   UNL A   1      43.330  32.742  35.189  1.00  0.00    -0.206 F 
ATOM     95  C   UNL A   1      45.222  32.783  33.802  1.00  0.00     0.059 A 
ATOM     96  C   UNL A   1      46.025  30.748  32.788  1.00  0.00     0.059 A 
ATOM     97  F   UNL A   1      44.918  28.743  33.180  1.00  0.00    -0.206 F 
ATOM     98  C   UNL A   1      46.142  32.116  32.995  1.00  0.00     0.060 A 
BRANCH  98  99
ATOM     99  S   UNL A   1      47.499  33.058  32.257  1.00  0.00     0.124 S 
ATOM    100  O   UNL A   1      46.853  33.700  31.117  1.00  0.00    -0.237 OA
ATOM    101  O   UNL A   1      47.879  33.947  33.349  1.00  0.00    -0.237 OA
ATOM    102  O   UNL A   1      48.484  32.035  31.915  1.00  0.00    -0.744 OA
ENDBRANCH  98  99
ENDBRANCH  66  91
ENDBRANCH  40  41
ENDBRANCH  33  35
ENDBRANCH  32  33
ENDBRANCH  31  32
ENDBRANCH  30  31
ENDBRANCH  29  30
ENDBRANCH  28  29
ENDBRANCH  27  28
ENDBRANCH  26  27
ENDBRANCH   1  26
TORSDOF 28
ENDMDL
MODEL 3
REMARK VINA RESULT:      -8.0      8.652     13.304
REMARK SMILES CN(Cc1ccncc1)C(=O)c1cccn1CC(=O)OCCOCCOCCOCCOC(=O)c1ccc(-c2c3nc(c(-c4c(F)cc(S(=O)(=O)[O-])cc4F)c4ccc([nH]4)c(-c4c(F)cc(S(=O)(=O)[O-])cc4F)c4nc(c(-c5c(F)cc(S(=O)(=O)[O-])cc5F)c5ccc2[nH]5)C=C4)C=C3)cc1
REMARK SMILES IDX 25 1 24 2 23 3 22 4 21 5 20 6 18 7 19 8 17 9 16 10 12 11
REMARK SMILES IDX 13 12 14 13 15 14 10 15 11 16 2 17 1 18 3 19 4 20 5 21 9 22
REMARK SMILES IDX 6 23 8 24 7 25 26 26 27 27 28 28 29 29 30 30 31 31 32 32
REMARK SMILES IDX 33 33 34 34 35 35 36 36 100 37 37 38 99 39 38 40 39 41 40 42
REMARK SMILES IDX 93 43 41 44 98 45 92 46 94 47 42 48 97 49 91 50 90 51 43 53
REMARK SMILES IDX 77 54 56 55 76 56 57 57 60 58 75 59 95 60 58 61 59 62 74 64
REMARK SMILES IDX 96 65 61 66 44 67 45 68 54 69 46 70 47 71 53 72 55 73 48 74
REMARK SMILES IDX 49 75 50 76 51 77 52 78 78 79 79 80 88 81 80 82 81 83 87 84
REMARK SMILES IDX 89 85 82 86 83 87 84 88 85 89 86 90 62 91 63 92 72 93 64 94
REMARK SMILES IDX 65 95 71 96 73 97 66 98 67 99 68 100 69 101 70 102
REMARK H PARENT 94 52 60 63
REMARK Flexibility Score: inf
ROOT
ATOM      1  C   UNL A   1      37.377  33.362  41.793  1.00  0.00     0.188 C 
ENDROOT
BRANCH   1   2
ATOM      2  C   UNL A   1      36.216  32.504  41.227  1.00  0.00     0.188 C 
BRANCH   2   3
ATOM      3  O   UNL A   1      36.021  32.334  39.824  1.00  0.00    -0.376 OA
BRANCH   3   4
ATOM      4  C   UNL A   1      36.939  31.531  39.110  1.00  0.00     0.202 C 
BRANCH   4   5
ATOM      5  C   UNL A   1      37.586  32.190  37.881  1.00  0.00     0.261 C 
BRANCH   5   6
ATOM      6  O   UNL A   1      37.519  31.419  36.660  1.00  0.00    -0.462 OA
BRANCH   6   7
ATOM      7  C   UNL A   1      38.317  31.805  35.633  1.00  0.00     0.326 C 
ATOM      8  O   UNL A   1      39.244  32.604  35.757  1.00  0.00    -0.250 OA
BRANCH   7   9
ATOM      9  C   UNL A   1      38.039  31.129  34.300  1.00  0.00     0.244 C 
BRANCH   9  10
ATOM     10  N   UNL A   1      38.956  31.384  33.182  1.00  0.00    -0.332 N 
ATOM     11  C   UNL A   1      38.869  32.378  32.200  1.00  0.00     0.107 A 
ATOM     12  C   UNL A   1      39.764  31.952  31.223  1.00  0.00     0.033 A 
ATOM     13  C   UNL A   1      40.651  31.012  31.795  1.00  0.00     0.020 A 
ATOM     14  C   UNL A   1      40.158  30.718  33.039  1.00  0.00     0.087 A 
BRANCH  11  15
ATOM     15  C   UNL A   1      38.015  33.563  32.330  1.00  0.00     0.270 C 
ATOM     16  O   UNL A   1      38.390  34.499  33.043  1.00  0.00    -0.267 OA
BRANCH  15  17
ATOM     17  N   UNL A   1      36.854  33.735  31.556  1.00  0.00    -0.336 N 
ATOM     18  C   UNL A   1      37.042  34.039  30.142  1.00  0.00     0.147 C 
BRANCH  17  19
ATOM     19  C   UNL A   1      35.470  33.725  32.027  1.00  0.00     0.155 C 
BRANCH  19  20
ATOM     20  C   UNL A   1      34.578  34.896  31.673  1.00  0.00    -0.026 A 
ATOM     21  C   UNL A   1      34.418  35.912  32.629  1.00  0.00     0.025 A 
ATOM     22  C   UNL A   1      33.774  34.949  30.531  1.00  0.00     0.025 A 
ATOM     23  C   UNL A   1      33.445  36.880  32.434  1.00  0.00     0.111 A 
ATOM     24  C   UNL A   1      32.806  35.941  30.440  1.00  0.00     0.111 A 
ATOM     25  N   UNL A   1      32.626  36.906  31.365  1.00  0.00    -0.265 NA
ENDBRANCH  19  20
ENDBRANCH  17  19
ENDBRANCH  15  17
ENDBRANCH  11  15
ENDBRANCH   9  10
ENDBRANCH   7   9
ENDBRANCH   6   7
ENDBRANCH   5   6
ENDBRANCH   4   5
ENDBRANCH   3   4
ENDBRANCH   2   3
ENDBRANCH   1   2
BRANCH   1  26
ATOM     26  O   UNL A   1      38.560  33.427  41.009  1.00  0.00    -0.377 OA
BRANCH  26  27
ATOM     27  C   UNL A   1      39.395  34.542  41.285  1.00  0.00     0.188 C 
BRANCH  27  28
ATOM     28  C   UNL A   1      38.721  35.877  40.948  1.00  0.00     0.188 C 
BRANCH  28  29
ATOM     29  O   UNL A   1      39.154  36.430  39.710  1.00  0.00    -0.376 OA
BRANCH  29  30
ATOM     30  C   UNL A   1      39.779  35.623  38.726  1.00  0.00     0.202 C 
BRANCH  30  31
ATOM     31  C   UNL A   1      40.999  36.224  38.018  1.00  0.00     0.261 C 
BRANCH  31  32
ATOM     32  O   UNL A   1      41.494  35.492  36.902  1.00  0.00    -0.460 OA
BRANCH  32  33
ATOM     33  C   UNL A   1      42.698  35.910  36.474  1.00  0.00     0.338 C 
ATOM     34  O   UNL A   1      43.368  36.840  36.872  1.00  0.00    -0.246 OA
BRANCH  33  35
ATOM     35  C   UNL A   1      43.097  35.167  35.300  1.00  0.00     0.060 A 
ATOM     36  C   UNL A   1      44.396  35.407  34.848  1.00  0.00     0.016 A 
ATOM     37  C   UNL A   1      42.057  34.709  34.485  1.00  0.00     0.016 A 
ATOM     38  C   UNL A   1      44.621  35.342  33.497  1.00  0.00     0.010 A 
ATOM     39  C   UNL A   1      42.273  34.691  33.129  1.00  0.00     0.010 A 
ATOM     40  C   UNL A   1      43.544  35.040  32.652  1.00  0.00    -0.014 A 
BRANCH  40  41
ATOM     41  C   UNL A   1      43.847  34.875  31.235  1.00  0.00     0.031 A 
ATOM     42  C   UNL A   1      43.615  36.226  30.524  1.00  0.00     0.074 A 
ATOM     43  C   UNL A   1      44.180  33.602  30.847  1.00  0.00     0.049 A 
ATOM     44  N   UNL A   1      43.296  36.464  29.294  1.00  0.00    -0.248 NA
ATOM     45  C   UNL A   1      43.638  37.504  31.307  1.00  0.00     0.031 C 
ATOM     46  C   UNL A   1      44.367  32.442  31.760  1.00  0.00     0.029 A 
ATOM     47  N   UNL A   1      44.425  33.008  29.628  1.00  0.00    -0.354 N 
ATOM     48  C   UNL A   1      43.338  37.863  29.104  1.00  0.00     0.074 A 
ATOM     49  C   UNL A   1      43.413  38.453  30.399  1.00  0.00     0.031 C 
ATOM     50  C   UNL A   1      44.595  31.302  31.065  1.00  0.00     0.029 A 
ATOM     51  C   UNL A   1      44.618  31.595  29.644  1.00  0.00     0.049 A 
ATOM     52  H   UNL A   1      44.464  33.530  28.794  1.00  0.00     0.167 HD
ATOM     53  C   UNL A   1      43.457  38.426  27.868  1.00  0.00     0.037 A 
ATOM     54  C   UNL A   1      44.745  30.736  28.579  1.00  0.00     0.037 A 
ATOM     55  C   UNL A   1      43.461  37.392  26.890  1.00  0.00     0.049 A 
ATOM     56  C   UNL A   1      44.857  31.630  27.421  1.00  0.00     0.074 A 
ATOM     57  C   UNL A   1      42.457  36.573  26.447  1.00  0.00     0.029 A 
ATOM     58  N   UNL A   1      44.683  36.840  26.585  1.00  0.00    -0.354 N 
ATOM     59  N   UNL A   1      45.909  32.333  27.124  1.00  0.00    -0.248 NA
ATOM     60  C   UNL A   1      43.664  31.842  26.589  1.00  0.00     0.031 C 
ATOM     61  C   UNL A   1      43.099  35.329  26.334  1.00  0.00     0.029 A 
ATOM     62  C   UNL A   1      44.488  35.492  26.425  1.00  0.00     0.049 A 
ATOM     63  H   UNL A   1      45.537  37.322  26.498  1.00  0.00     0.167 HD
ATOM     64  C   UNL A   1      45.383  33.296  26.302  1.00  0.00     0.074 A 
ATOM     65  C   UNL A   1      44.160  32.748  25.752  1.00  0.00     0.031 C 
ATOM     66  C   UNL A   1      45.620  34.607  26.566  1.00  0.00     0.037 A 
BRANCH  53  67
ATOM     67  C   UNL A   1      43.821  39.803  27.398  1.00  0.00     0.058 A 
ATOM     68  C   UNL A   1      42.857  40.492  26.620  1.00  0.00     0.135 A 
ATOM     69  C   UNL A   1      45.132  40.291  27.339  1.00  0.00     0.135 A 
ATOM     70  F   UNL A   1      41.557  40.156  26.680  1.00  0.00    -0.206 F 
ATOM     71  C   UNL A   1      43.203  41.467  25.698  1.00  0.00     0.059 A 
ATOM     72  C   UNL A   1      45.493  41.312  26.456  1.00  0.00     0.059 A 
ATOM     73  F   UNL A   1      46.110  39.741  28.072  1.00  0.00    -0.206 F 
ATOM     74  C   UNL A   1      44.534  41.842  25.593  1.00  0.00     0.060 A 
BRANCH  74  75
ATOM     75  S   UNL A   1      44.984  43.005  24.290  1.00  0.00     0.124 S 
ATOM     76  O   UNL A   1      44.003  44.066  24.490  1.00  0.00    -0.237 OA
ATOM     77  O   UNL A   1      46.360  43.343  24.640  1.00  0.00    -0.237 OA
ATOM     78  O   UNL A   1      44.831  42.215  23.073  1.00  0.00    -0.744 OA
ENDBRANCH  74  75
ENDBRANCH  53  67
BRANCH  54  79
ATOM     79  C   UNL A   1      44.712  29.248  28.254  1.00  0.00     0.058 A 
ATOM     80  C   UNL A   1      45.734  28.484  27.675  1.00  0.00     0.135 A 
ATOM     81  C   UNL A   1      43.579  28.469  28.652  1.00  0.00     0.135 A 
ATOM     82  F   UNL A   1      46.798  29.076  27.116  1.00  0.00    -0.206 F 
ATOM     83  C   UNL A   1      45.700  27.067  27.649  1.00  0.00     0.059 A 
ATOM     84  C   UNL A   1      43.545  27.081  28.692  1.00  0.00     0.059 A 
ATOM     85  F   UNL A   1      42.433  29.031  29.054  1.00  0.00    -0.206 F 
ATOM     86  C   UNL A   1      44.629  26.376  28.217  1.00  0.00     0.060 A 
BRANCH  86  87
ATOM     87  S   UNL A   1      44.672  24.586  28.473  1.00  0.00     0.124 S 
ATOM     88  O   UNL A   1      43.837  24.098  27.382  1.00  0.00    -0.237 OA
ATOM     89  O   UNL A   1      46.096  24.288  28.372  1.00  0.00    -0.237 OA
ATOM     90  O   UNL A   1      44.108  24.427  29.814  1.00  0.00    -0.744 OA
ENDBRANCH  86  87
ENDBRANCH  54  79
BRANCH  66  91
ATOM     91  C   UNL A   1      46.921  34.899  27.293  1.00  0.00     0.058 A 
ATOM     92  C   UNL A   1      48.141  34.599  26.665  1.00  0.00     0.135 A 
ATOM     93  C   UNL A   1      47.015  35.392  28.607  1.00  0.00     0.135 A 
ATOM     94  F   UNL A   1      48.145  34.130  25.407  1.00  0.00    -0.206 F 
ATOM     95  C   UNL A   1      49.375  34.783  27.295  1.00  0.00     0.059 A 
ATOM     96  C   UNL A   1      48.237  35.586  29.265  1.00  0.00     0.059 A 
ATOM     97  F   UNL A   1      45.916  35.706  29.294  1.00  0.00    -0.206 F 
ATOM     98  C   UNL A   1      49.417  35.282  28.596  1.00  0.00     0.060 A 
BRANCH  98  99
ATOM     99  S   UNL A   1      51.026  35.554  29.376  1.00  0.00     0.124 S 
ATOM    100  O   UNL A   1      50.998  36.983  29.666  1.00  0.00    -0.237 OA
ATOM    101  O   UNL A   1      50.952  34.673  30.537  1.00  0.00    -0.237 OA
ATOM    102  O   UNL A   1      51.981  35.148  28.349  1.00  0.00    -0.744 OA
ENDBRANCH  98  99
ENDBRANCH  66  91
ENDBRANCH  40  41
ENDBRANCH  33  35
ENDBRANCH  32  33
ENDBRANCH  31  32
ENDBRANCH  30  31
ENDBRANCH  29  30
ENDBRANCH  28  29
ENDBRANCH  27  28
ENDBRANCH  26  27
ENDBRANCH   1  26
TORSDOF 28
ENDMDL
