MODEL 1
REMARK VINA RESULT:      -9.3      0.000      0.000
REMARK SMILES CC(C)(C[NH+]1CCC(C(N)=S)CC1)C(=O)OCCOCCOCCOCCOC(=O)c1ccc(-c2c3nc(c(-c4c(F)cc(S(=O)(=O)[O-])cc4F)c4ccc([nH]4)c(-c4c(F)cc(S(=O)(=O)[O-])cc4F)c4nc(c(-c5c(F)cc(S(=O)(=O)[O-])cc5F)c5ccc2[nH]5)C=C4)C=C3)cc1
REMARK SMILES IDX 21 1 20 2 19 3 18 4 17 5 16 6 14 7 15 8 2 9 1 10 3 11 4 12
REMARK SMILES IDX 5 13 6 14 13 15 7 17 12 18 8 19 9 20 11 21 10 22 22 25 23 26
REMARK SMILES IDX 24 27 25 28 26 29 27 30 28 31 29 32 30 33 31 34 32 35 96 36
REMARK SMILES IDX 33 37 95 38 34 39 35 40 36 41 89 42 37 43 94 44 88 45 90 46
REMARK SMILES IDX 38 47 93 48 87 49 86 50 39 52 73 53 52 54 72 55 53 56 56 57
REMARK SMILES IDX 71 58 91 59 54 60 55 61 70 63 92 64 57 65 40 66 41 67 50 68
REMARK SMILES IDX 42 69 43 70 49 71 51 72 44 73 45 74 46 75 47 76 48 77 74 78
REMARK SMILES IDX 75 79 84 80 76 81 77 82 83 83 85 84 78 85 79 86 80 87 81 88
REMARK SMILES IDX 82 89 58 90 59 91 68 92 60 93 61 94 67 95 69 96 62 97 63 98
REMARK SMILES IDX 64 99 65 100 66 101
REMARK H PARENT 5 16 10 23 10 24 90 51 56 62
REMARK Flexibility Score: inf
ROOT
ATOM      1  C   UNL A   1      32.855  30.592  27.257  1.00  0.00     0.188 C 
ENDROOT
BRANCH   1   2
ATOM      2  C   UNL A   1      32.106  29.998  26.062  1.00  0.00     0.188 C 
BRANCH   2   3
ATOM      3  O   UNL A   1      32.518  28.682  25.683  1.00  0.00    -0.376 OA
BRANCH   3   4
ATOM      4  C   UNL A   1      31.511  27.791  25.207  1.00  0.00     0.202 C 
BRANCH   4   5
ATOM      5  C   UNL A   1      31.654  26.301  25.560  1.00  0.00     0.261 C 
BRANCH   5   6
ATOM      6  O   UNL A   1      31.930  25.377  24.483  1.00  0.00    -0.463 OA
BRANCH   6   7
ATOM      7  C   UNL A   1      33.239  25.312  24.124  1.00  0.00     0.317 C 
ATOM      8  O   UNL A   1      33.788  26.167  23.430  1.00  0.00    -0.251 OA
BRANCH   7   9
ATOM      9  C   UNL A   1      33.964  24.014  24.506  1.00  0.00     0.111 C 
ATOM     10  C   UNL A   1      34.947  24.363  25.641  1.00  0.00     0.029 C 
ATOM     11  C   UNL A   1      34.829  23.704  23.253  1.00  0.00     0.029 C 
BRANCH   9  12
ATOM     12  C   UNL A   1      33.117  22.717  24.766  1.00  0.00     0.280 C 
BRANCH  12  13
ATOM     13  N   UNL A   1      33.418  21.334  24.341  1.00  0.00    -0.334 N 
ATOM     14  C   UNL A   1      34.338  20.553  25.152  1.00  0.00     0.262 C 
ATOM     15  C   UNL A   1      32.249  20.637  23.806  1.00  0.00     0.262 C 
ATOM     16  H   UNL A   1      34.037  21.464  23.542  1.00  0.00     0.348 HD
ATOM     17  C   UNL A   1      34.604  19.141  24.623  1.00  0.00     0.072 C 
ATOM     18  C   UNL A   1      32.523  19.205  23.328  1.00  0.00     0.072 C 
ATOM     19  C   UNL A   1      33.261  18.445  24.427  1.00  0.00     0.058 C 
BRANCH  19  20
ATOM     20  C   UNL A   1      33.408  16.943  24.251  1.00  0.00     0.076 C 
ATOM     21  S   UNL A   1      33.007  15.789  25.379  1.00  0.00    -0.066 S 
BRANCH  20  22
ATOM     22  N   UNL A   1      33.878  16.553  23.024  1.00  0.00    -0.393 N 
ATOM     23  H   UNL A   1      33.246  16.316  22.307  1.00  0.00     0.157 HD
ATOM     24  H   UNL A   1      34.848  16.509  22.860  1.00  0.00     0.157 HD
ENDBRANCH  20  22
ENDBRANCH  19  20
ENDBRANCH  12  13
ENDBRANCH   9  12
ENDBRANCH   7   9
ENDBRANCH   6   7
ENDBRANCH   5   6
ENDBRANCH   4   5
ENDBRANCH   3   4
ENDBRANCH   2   3
ENDBRANCH   1   2
BRANCH   1  25
ATOM     25  O   UNL A   1      34.204  30.825  26.876  1.00  0.00    -0.377 OA
BRANCH  25  26
ATOM     26  C   UNL A   1      35.036  31.640  27.694  1.00  0.00     0.188 C 
BRANCH  26  27
ATOM     27  C   UNL A   1      34.463  32.196  29.001  1.00  0.00     0.188 C 
BRANCH  27  28
ATOM     28  O   UNL A   1      35.040  33.402  29.504  1.00  0.00    -0.376 OA
BRANCH  28  29
ATOM     29  C   UNL A   1      35.649  33.359  30.791  1.00  0.00     0.202 C 
BRANCH  29  30
ATOM     30  C   UNL A   1      34.946  32.566  31.896  1.00  0.00     0.261 C 
BRANCH  30  31
ATOM     31  O   UNL A   1      35.402  31.206  31.965  1.00  0.00    -0.460 OA
BRANCH  31  32
ATOM     32  C   UNL A   1      36.642  31.075  32.484  1.00  0.00     0.338 C 
ATOM     33  O   UNL A   1      37.031  31.477  33.573  1.00  0.00    -0.246 OA
BRANCH  32  34
ATOM     34  C   UNL A   1      37.464  30.188  31.649  1.00  0.00     0.060 A 
ATOM     35  C   UNL A   1      38.585  29.624  32.268  1.00  0.00     0.016 A 
ATOM     36  C   UNL A   1      37.246  30.036  30.276  1.00  0.00     0.016 A 
ATOM     37  C   UNL A   1      39.553  29.000  31.503  1.00  0.00     0.010 A 
ATOM     38  C   UNL A   1      38.236  29.424  29.499  1.00  0.00     0.010 A 
ATOM     39  C   UNL A   1      39.422  28.980  30.109  1.00  0.00    -0.014 A 
BRANCH  39  40
ATOM     40  C   UNL A   1      40.676  28.795  29.345  1.00  0.00     0.031 A 
ATOM     41  C   UNL A   1      41.654  29.943  29.324  1.00  0.00     0.074 A 
ATOM     42  C   UNL A   1      41.010  27.586  28.866  1.00  0.00     0.049 A 
ATOM     43  N   UNL A   1      42.890  29.974  28.904  1.00  0.00    -0.248 NA
ATOM     44  C   UNL A   1      41.179  31.225  29.878  1.00  0.00     0.031 C 
ATOM     45  C   UNL A   1      40.155  26.400  28.901  1.00  0.00     0.029 A 
ATOM     46  N   UNL A   1      42.175  27.148  28.294  1.00  0.00    -0.354 N 
ATOM     47  C   UNL A   1      43.341  31.266  29.153  1.00  0.00     0.074 A 
ATOM     48  C   UNL A   1      42.241  32.002  29.731  1.00  0.00     0.031 C 
ATOM     49  C   UNL A   1      40.832  25.361  28.381  1.00  0.00     0.029 A 
ATOM     50  C   UNL A   1      42.161  25.813  27.972  1.00  0.00     0.049 A 
ATOM     51  H   UNL A   1      42.948  27.735  28.129  1.00  0.00     0.167 HD
ATOM     52  C   UNL A   1      44.570  31.789  28.933  1.00  0.00     0.037 A 
ATOM     53  C   UNL A   1      43.120  25.048  27.419  1.00  0.00     0.037 A 
ATOM     54  C   UNL A   1      45.655  31.047  28.352  1.00  0.00     0.049 A 
ATOM     55  C   UNL A   1      44.467  25.662  27.145  1.00  0.00     0.074 A 
ATOM     56  C   UNL A   1      46.931  31.479  28.042  1.00  0.00     0.029 A 
ATOM     57  N   UNL A   1      45.584  29.709  27.992  1.00  0.00    -0.354 N 
ATOM     58  N   UNL A   1      44.877  26.888  27.375  1.00  0.00    -0.248 NA
ATOM     59  C   UNL A   1      45.489  24.788  26.554  1.00  0.00     0.031 C 
ATOM     60  C   UNL A   1      47.624  30.408  27.465  1.00  0.00     0.029 A 
ATOM     61  C   UNL A   1      46.791  29.299  27.457  1.00  0.00     0.049 A 
ATOM     62  H   UNL A   1      44.792  29.135  28.102  1.00  0.00     0.167 HD
ATOM     63  C   UNL A   1      46.210  26.926  26.981  1.00  0.00     0.074 A 
ATOM     64  C   UNL A   1      46.540  25.595  26.511  1.00  0.00     0.031 C 
ATOM     65  C   UNL A   1      47.086  27.963  27.003  1.00  0.00     0.037 A 
BRANCH  52  66
ATOM     66  C   UNL A   1      44.783  33.234  29.288  1.00  0.00     0.058 A 
ATOM     67  C   UNL A   1      44.499  34.269  28.382  1.00  0.00     0.135 A 
ATOM     68  C   UNL A   1      45.278  33.589  30.553  1.00  0.00     0.135 A 
ATOM     69  F   UNL A   1      44.051  33.984  27.149  1.00  0.00    -0.206 F 
ATOM     70  C   UNL A   1      44.715  35.605  28.713  1.00  0.00     0.059 A 
ATOM     71  C   UNL A   1      45.482  34.918  30.912  1.00  0.00     0.059 A 
ATOM     72  F   UNL A   1      45.578  32.638  31.451  1.00  0.00    -0.206 F 
ATOM     73  C   UNL A   1      45.209  35.918  29.980  1.00  0.00     0.060 A 
BRANCH  73  74
ATOM     74  S   UNL A   1      45.481  37.654  30.401  1.00  0.00     0.124 S 
ATOM     75  O   UNL A   1      44.338  38.293  29.755  1.00  0.00    -0.237 OA
ATOM     76  O   UNL A   1      45.454  37.631  31.859  1.00  0.00    -0.237 OA
ATOM     77  O   UNL A   1      46.782  37.947  29.807  1.00  0.00    -0.744 OA
ENDBRANCH  73  74
ENDBRANCH  52  66
BRANCH  53  78
ATOM     78  C   UNL A   1      42.839  23.624  27.094  1.00  0.00     0.058 A 
ATOM     79  C   UNL A   1      42.653  23.192  25.773  1.00  0.00     0.135 A 
ATOM     80  C   UNL A   1      42.760  22.660  28.112  1.00  0.00     0.135 A 
ATOM     81  F   UNL A   1      42.713  24.074  24.764  1.00  0.00    -0.206 F 
ATOM     82  C   UNL A   1      42.382  21.859  25.473  1.00  0.00     0.059 A 
ATOM     83  C   UNL A   1      42.515  21.320  27.837  1.00  0.00     0.059 A 
ATOM     84  F   UNL A   1      42.945  23.019  29.392  1.00  0.00    -0.206 F 
ATOM     85  C   UNL A   1      42.315  20.930  26.514  1.00  0.00     0.060 A 
BRANCH  85  86
ATOM     86  S   UNL A   1      42.015  19.193  26.117  1.00  0.00     0.124 S 
ATOM     87  O   UNL A   1      42.344  18.543  27.380  1.00  0.00    -0.237 OA
ATOM     88  O   UNL A   1      40.602  19.200  25.750  1.00  0.00    -0.237 OA
ATOM     89  O   UNL A   1      42.938  18.939  25.015  1.00  0.00    -0.744 OA
ENDBRANCH  85  86
ENDBRANCH  53  78
BRANCH  65  90
ATOM     90  C   UNL A   1      48.485  27.680  26.540  1.00  0.00     0.058 A 
ATOM     91  C   UNL A   1      48.818  27.647  25.178  1.00  0.00     0.135 A 
ATOM     92  C   UNL A   1      49.510  27.465  27.477  1.00  0.00     0.135 A 
ATOM     93  F   UNL A   1      47.872  27.848  24.246  1.00  0.00    -0.206 F 
ATOM     94  C   UNL A   1      50.112  27.368  24.756  1.00  0.00     0.059 A 
ATOM     95  C   UNL A   1      50.817  27.210  27.077  1.00  0.00     0.059 A 
ATOM     96  F   UNL A   1      49.245  27.504  28.792  1.00  0.00    -0.206 F 
ATOM     97  C   UNL A   1      51.104  27.144  25.714  1.00  0.00     0.060 A 
BRANCH  97  98
ATOM     98  S   UNL A   1      52.781  26.777  25.159  1.00  0.00     0.124 S 
ATOM     99  O   UNL A   1      52.554  26.414  23.764  1.00  0.00    -0.237 OA
ATOM    100  O   UNL A   1      53.472  28.044  25.380  1.00  0.00    -0.237 OA
ATOM    101  O   UNL A   1      53.195  25.684  26.034  1.00  0.00    -0.744 OA
ENDBRANCH  97  98
ENDBRANCH  65  90
ENDBRANCH  39  40
ENDBRANCH  32  34
ENDBRANCH  31  32
ENDBRANCH  30  31
ENDBRANCH  29  30
ENDBRANCH  28  29
ENDBRANCH  27  28
ENDBRANCH  26  27
ENDBRANCH  25  26
ENDBRANCH   1  25
TORSDOF 27
ENDMDL
MODEL 2
REMARK VINA RESULT:      -9.3      5.252     11.337
REMARK SMILES CC(C)(C[NH+]1CCC(C(N)=S)CC1)C(=O)OCCOCCOCCOCCOC(=O)c1ccc(-c2c3nc(c(-c4c(F)cc(S(=O)(=O)[O-])cc4F)c4ccc([nH]4)c(-c4c(F)cc(S(=O)(=O)[O-])cc4F)c4nc(c(-c5c(F)cc(S(=O)(=O)[O-])cc5F)c5ccc2[nH]5)C=C4)C=C3)cc1
REMARK SMILES IDX 21 1 20 2 19 3 18 4 17 5 16 6 14 7 15 8 2 9 1 10 3 11 4 12
REMARK SMILES IDX 5 13 6 14 13 15 7 17 12 18 8 19 9 20 11 21 10 22 22 25 23 26
REMARK SMILES IDX 24 27 25 28 26 29 27 30 28 31 29 32 30 33 31 34 32 35 96 36
REMARK SMILES IDX 33 37 95 38 34 39 35 40 36 41 89 42 37 43 94 44 88 45 90 46
REMARK SMILES IDX 38 47 93 48 87 49 86 50 39 52 73 53 52 54 72 55 53 56 56 57
REMARK SMILES IDX 71 58 91 59 54 60 55 61 70 63 92 64 57 65 40 66 41 67 50 68
REMARK SMILES IDX 42 69 43 70 49 71 51 72 44 73 45 74 46 75 47 76 48 77 74 78
REMARK SMILES IDX 75 79 84 80 76 81 77 82 83 83 85 84 78 85 79 86 80 87 81 88
REMARK SMILES IDX 82 89 58 90 59 91 68 92 60 93 61 94 67 95 69 96 62 97 63 98
REMARK SMILES IDX 64 99 65 100 66 101
REMARK H PARENT 5 16 10 23 10 24 90 51 56 62
REMARK Flexibility Score: inf
ROOT
ATOM      1  C   UNL A   1      39.334  22.985  26.206  1.00  0.00     0.188 C 
ENDROOT
BRANCH   1   2
ATOM      2  C   UNL A   1      37.806  22.981  26.130  1.00  0.00     0.188 C 
BRANCH   2   3
ATOM      3  O   UNL A   1      37.260  22.386  24.950  1.00  0.00    -0.376 OA
BRANCH   3   4
ATOM      4  C   UNL A   1      36.902  21.007  25.015  1.00  0.00     0.202 C 
BRANCH   4   5
ATOM      5  C   UNL A   1      35.409  20.652  24.917  1.00  0.00     0.261 C 
BRANCH   5   6
ATOM      6  O   UNL A   1      34.450  21.707  25.152  1.00  0.00    -0.463 OA
BRANCH   6   7
ATOM      7  C   UNL A   1      33.878  22.203  24.024  1.00  0.00     0.317 C 
ATOM      8  O   UNL A   1      34.501  22.851  23.184  1.00  0.00    -0.251 OA
BRANCH   7   9
ATOM      9  C   UNL A   1      32.353  22.043  23.931  1.00  0.00     0.111 C 
ATOM     10  C   UNL A   1      31.888  21.386  25.245  1.00  0.00     0.029 C 
ATOM     11  C   UNL A   1      32.172  20.977  22.816  1.00  0.00     0.029 C 
BRANCH   9  12
ATOM     12  C   UNL A   1      31.485  23.273  23.484  1.00  0.00     0.280 C 
BRANCH  12  13
ATOM     13  N   UNL A   1      31.618  24.682  23.908  1.00  0.00    -0.334 N 
ATOM     14  C   UNL A   1      32.048  24.951  25.271  1.00  0.00     0.262 C 
ATOM     15  C   UNL A   1      32.163  25.543  22.858  1.00  0.00     0.262 C 
ATOM     16  H   UNL A   1      30.651  24.985  24.023  1.00  0.00     0.348 HD
ATOM     17  C   UNL A   1      32.138  26.438  25.625  1.00  0.00     0.072 C 
ATOM     18  C   UNL A   1      32.293  27.021  23.248  1.00  0.00     0.072 C 
ATOM     19  C   UNL A   1      33.021  27.122  24.587  1.00  0.00     0.058 C 
BRANCH  19  20
ATOM     20  C   UNL A   1      33.468  28.505  25.029  1.00  0.00     0.076 C 
ATOM     21  S   UNL A   1      34.033  28.907  26.540  1.00  0.00    -0.066 S 
BRANCH  20  22
ATOM     22  N   UNL A   1      33.422  29.462  24.049  1.00  0.00    -0.393 N 
ATOM     23  H   UNL A   1      33.272  29.200  23.112  1.00  0.00     0.157 HD
ATOM     24  H   UNL A   1      33.541  30.411  24.282  1.00  0.00     0.157 HD
ENDBRANCH  20  22
ENDBRANCH  19  20
ENDBRANCH  12  13
ENDBRANCH   9  12
ENDBRANCH   7   9
ENDBRANCH   6   7
ENDBRANCH   5   6
ENDBRANCH   4   5
ENDBRANCH   3   4
ENDBRANCH   2   3
ENDBRANCH   1   2
BRANCH   1  25
ATOM     25  O   UNL A   1      39.757  21.809  26.882  1.00  0.00    -0.377 OA
BRANCH  25  26
ATOM     26  C   UNL A   1      41.025  21.784  27.526  1.00  0.00     0.188 C 
BRANCH  26  27
ATOM     27  C   UNL A   1      42.191  21.079  26.825  1.00  0.00     0.188 C 
BRANCH  27  28
ATOM     28  O   UNL A   1      43.361  21.857  26.564  1.00  0.00    -0.376 OA
BRANCH  28  29
ATOM     29  C   UNL A   1      43.940  21.766  25.265  1.00  0.00     0.202 C 
BRANCH  29  30
ATOM     30  C   UNL A   1      44.269  23.068  24.530  1.00  0.00     0.261 C 
BRANCH  30  31
ATOM     31  O   UNL A   1      43.290  24.091  24.769  1.00  0.00    -0.460 OA
BRANCH  31  32
ATOM     32  C   UNL A   1      43.822  25.277  25.136  1.00  0.00     0.338 C 
ATOM     33  O   UNL A   1      44.875  25.764  24.745  1.00  0.00    -0.246 OA
BRANCH  32  34
ATOM     34  C   UNL A   1      42.867  26.046  25.945  1.00  0.00     0.060 A 
ATOM     35  C   UNL A   1      43.197  27.387  26.178  1.00  0.00     0.016 A 
ATOM     36  C   UNL A   1      41.776  25.451  26.586  1.00  0.00     0.016 A 
ATOM     37  C   UNL A   1      42.509  28.110  27.135  1.00  0.00     0.010 A 
ATOM     38  C   UNL A   1      41.094  26.175  27.570  1.00  0.00     0.010 A 
ATOM     39  C   UNL A   1      41.518  27.476  27.895  1.00  0.00    -0.014 A 
BRANCH  39  40
ATOM     40  C   UNL A   1      41.208  28.100  29.201  1.00  0.00     0.031 A 
ATOM     41  C   UNL A   1      42.162  27.841  30.339  1.00  0.00     0.074 A 
ATOM     42  C   UNL A   1      40.232  29.016  29.304  1.00  0.00     0.049 A 
ATOM     43  N   UNL A   1      42.233  28.414  31.511  1.00  0.00    -0.248 NA
ATOM     44  C   UNL A   1      43.196  26.813  30.114  1.00  0.00     0.031 C 
ATOM     45  C   UNL A   1      39.301  29.380  28.236  1.00  0.00     0.029 A 
ATOM     46  N   UNL A   1      39.889  29.836  30.346  1.00  0.00    -0.354 N 
ATOM     47  C   UNL A   1      43.318  27.827  32.153  1.00  0.00     0.074 A 
ATOM     48  C   UNL A   1      43.861  26.832  31.258  1.00  0.00     0.031 C 
ATOM     49  C   UNL A   1      38.497  30.363  28.677  1.00  0.00     0.029 A 
ATOM     50  C   UNL A   1      38.853  30.689  30.057  1.00  0.00     0.049 A 
ATOM     51  H   UNL A   1      40.342  29.814  31.220  1.00  0.00     0.167 HD
ATOM     52  C   UNL A   1      43.828  28.105  33.375  1.00  0.00     0.037 A 
ATOM     53  C   UNL A   1      38.270  31.630  30.822  1.00  0.00     0.037 A 
ATOM     54  C   UNL A   1      43.275  29.095  34.258  1.00  0.00     0.049 A 
ATOM     55  C   UNL A   1      38.828  31.894  32.195  1.00  0.00     0.074 A 
ATOM     56  C   UNL A   1      43.678  29.437  35.536  1.00  0.00     0.029 A 
ATOM     57  N   UNL A   1      42.191  29.905  33.947  1.00  0.00    -0.354 N 
ATOM     58  N   UNL A   1      39.848  31.325  32.794  1.00  0.00    -0.248 NA
ATOM     59  C   UNL A   1      38.171  32.939  32.991  1.00  0.00     0.031 C 
ATOM     60  C   UNL A   1      42.817  30.434  36.011  1.00  0.00     0.029 A 
ATOM     61  C   UNL A   1      41.906  30.741  35.010  1.00  0.00     0.049 A 
ATOM     62  H   UNL A   1      41.699  29.886  33.095  1.00  0.00     0.167 HD
ATOM     63  C   UNL A   1      39.971  31.959  34.026  1.00  0.00     0.074 A 
ATOM     64  C   UNL A   1      38.928  32.964  34.079  1.00  0.00     0.031 C 
ATOM     65  C   UNL A   1      40.862  31.735  35.025  1.00  0.00     0.037 A 
BRANCH  52  66
ATOM     66  C   UNL A   1      45.014  27.302  33.833  1.00  0.00     0.058 A 
ATOM     67  C   UNL A   1      44.864  26.077  34.504  1.00  0.00     0.135 A 
ATOM     68  C   UNL A   1      46.318  27.763  33.595  1.00  0.00     0.135 A 
ATOM     69  F   UNL A   1      43.639  25.604  34.782  1.00  0.00    -0.206 F 
ATOM     70  C   UNL A   1      45.967  25.347  34.939  1.00  0.00     0.059 A 
ATOM     71  C   UNL A   1      47.435  27.040  34.002  1.00  0.00     0.059 A 
ATOM     72  F   UNL A   1      46.516  28.934  32.969  1.00  0.00    -0.206 F 
ATOM     73  C   UNL A   1      47.249  25.838  34.685  1.00  0.00     0.060 A 
BRANCH  73  74
ATOM     74  S   UNL A   1      48.673  24.881  35.249  1.00  0.00     0.124 S 
ATOM     75  O   UNL A   1      48.274  23.524  34.888  1.00  0.00    -0.237 OA
ATOM     76  O   UNL A   1      49.764  25.451  34.466  1.00  0.00    -0.237 OA
ATOM     77  O   UNL A   1      48.724  25.160  36.681  1.00  0.00    -0.744 OA
ENDBRANCH  73  74
ENDBRANCH  52  66
BRANCH  53  78
ATOM     78  C   UNL A   1      37.099  32.388  30.304  1.00  0.00     0.058 A 
ATOM     79  C   UNL A   1      37.251  33.468  29.422  1.00  0.00     0.135 A 
ATOM     80  C   UNL A   1      35.794  32.033  30.682  1.00  0.00     0.135 A 
ATOM     81  F   UNL A   1      38.477  33.850  29.035  1.00  0.00    -0.206 F 
ATOM     82  C   UNL A   1      36.153  34.179  28.946  1.00  0.00     0.059 A 
ATOM     83  C   UNL A   1      34.681  32.712  30.201  1.00  0.00     0.059 A 
ATOM     84  F   UNL A   1      35.593  30.998  31.513  1.00  0.00    -0.206 F 
ATOM     85  C   UNL A   1      34.871  33.792  29.341  1.00  0.00     0.060 A 
BRANCH  85  86
ATOM     86  S   UNL A   1      33.446  34.685  28.680  1.00  0.00     0.124 S 
ATOM     87  O   UNL A   1      32.632  34.864  29.876  1.00  0.00    -0.237 OA
ATOM     88  O   UNL A   1      34.062  35.893  28.139  1.00  0.00    -0.237 OA
ATOM     89  O   UNL A   1      32.910  33.765  27.682  1.00  0.00    -0.744 OA
ENDBRANCH  85  86
ENDBRANCH  53  78
BRANCH  65  90
ATOM     90  C   UNL A   1      40.763  32.618  36.234  1.00  0.00     0.058 A 
ATOM     91  C   UNL A   1      41.671  33.663  36.460  1.00  0.00     0.135 A 
ATOM     92  C   UNL A   1      39.728  32.429  37.166  1.00  0.00     0.135 A 
ATOM     93  F   UNL A   1      42.676  33.883  35.597  1.00  0.00    -0.206 F 
ATOM     94  C   UNL A   1      41.583  34.467  37.590  1.00  0.00     0.059 A 
ATOM     95  C   UNL A   1      39.606  33.238  38.290  1.00  0.00     0.059 A 
ATOM     96  F   UNL A   1      38.824  31.454  36.985  1.00  0.00    -0.206 F 
ATOM     97  C   UNL A   1      40.551  34.241  38.504  1.00  0.00     0.060 A 
BRANCH  97  98
ATOM     98  S   UNL A   1      40.446  35.285  39.972  1.00  0.00     0.124 S 
ATOM     99  O   UNL A   1      41.829  35.271  40.439  1.00  0.00    -0.237 OA
ATOM    100  O   UNL A   1      39.974  36.554  39.425  1.00  0.00    -0.237 OA
ATOM    101  O   UNL A   1      39.489  34.580  40.819  1.00  0.00    -0.744 OA
ENDBRANCH  97  98
ENDBRANCH  65  90
ENDBRANCH  39  40
ENDBRANCH  32  34
ENDBRANCH  31  32
ENDBRANCH  30  31
ENDBRANCH  29  30
ENDBRANCH  28  29
ENDBRANCH  27  28
ENDBRANCH  26  27
ENDBRANCH  25  26
ENDBRANCH   1  25
TORSDOF 27
ENDMDL
MODEL 3
REMARK VINA RESULT:      -9.3      1.476      2.305
REMARK SMILES CC(C)(C[NH+]1CCC(C(N)=S)CC1)C(=O)OCCOCCOCCOCCOC(=O)c1ccc(-c2c3nc(c(-c4c(F)cc(S(=O)(=O)[O-])cc4F)c4ccc([nH]4)c(-c4c(F)cc(S(=O)(=O)[O-])cc4F)c4nc(c(-c5c(F)cc(S(=O)(=O)[O-])cc5F)c5ccc2[nH]5)C=C4)C=C3)cc1
REMARK SMILES IDX 21 1 20 2 19 3 18 4 17 5 16 6 14 7 15 8 2 9 1 10 3 11 4 12
REMARK SMILES IDX 5 13 6 14 13 15 7 17 12 18 8 19 9 20 11 21 10 22 22 25 23 26
REMARK SMILES IDX 24 27 25 28 26 29 27 30 28 31 29 32 30 33 31 34 32 35 96 36
REMARK SMILES IDX 33 37 95 38 34 39 35 40 36 41 89 42 37 43 94 44 88 45 90 46
REMARK SMILES IDX 38 47 93 48 87 49 86 50 39 52 73 53 52 54 72 55 53 56 56 57
REMARK SMILES IDX 71 58 91 59 54 60 55 61 70 63 92 64 57 65 40 66 41 67 50 68
REMARK SMILES IDX 42 69 43 70 49 71 51 72 44 73 45 74 46 75 47 76 48 77 74 78
REMARK SMILES IDX 75 79 84 80 76 81 77 82 83 83 85 84 78 85 79 86 80 87 81 88
REMARK SMILES IDX 82 89 58 90 59 91 68 92 60 93 61 94 67 95 69 96 62 97 63 98
REMARK SMILES IDX 64 99 65 100 66 101
REMARK H PARENT 5 16 10 23 10 24 90 51 56 62
REMARK Flexibility Score: inf
ROOT
ATOM      1  C   UNL A   1      33.926  31.449  28.005  1.00  0.00     0.188 C 
ENDROOT
BRANCH   1   2
ATOM      2  C   UNL A   1      34.181  30.411  26.911  1.00  0.00     0.188 C 
BRANCH   2   3
ATOM      3  O   UNL A   1      33.044  30.082  26.109  1.00  0.00    -0.376 OA
BRANCH   3   4
ATOM      4  C   UNL A   1      32.053  29.236  26.690  1.00  0.00     0.202 C 
BRANCH   4   5
ATOM      5  C   UNL A   1      31.712  27.929  25.955  1.00  0.00     0.261 C 
BRANCH   5   6
ATOM      6  O   UNL A   1      32.408  27.651  24.719  1.00  0.00    -0.463 OA
BRANCH   6   7
ATOM      7  C   UNL A   1      31.986  26.529  24.080  1.00  0.00     0.317 C 
ATOM      8  O   UNL A   1      31.096  25.801  24.518  1.00  0.00    -0.251 OA
BRANCH   7   9
ATOM      9  C   UNL A   1      32.801  26.127  22.842  1.00  0.00     0.111 C 
ATOM     10  C   UNL A   1      33.639  27.355  22.436  1.00  0.00     0.029 C 
ATOM     11  C   UNL A   1      31.718  25.948  21.743  1.00  0.00     0.029 C 
BRANCH   9  12
ATOM     12  C   UNL A   1      33.606  24.779  22.866  1.00  0.00     0.280 C 
BRANCH  12  13
ATOM     13  N   UNL A   1      33.352  23.583  23.696  1.00  0.00    -0.334 N 
ATOM     14  C   UNL A   1      32.178  22.779  23.399  1.00  0.00     0.262 C 
ATOM     15  C   UNL A   1      34.578  22.864  24.047  1.00  0.00     0.262 C 
ATOM     16  H   UNL A   1      33.015  23.974  24.574  1.00  0.00     0.348 HD
ATOM     17  C   UNL A   1      31.987  21.573  24.323  1.00  0.00     0.072 C 
ATOM     18  C   UNL A   1      34.362  21.629  24.931  1.00  0.00     0.072 C 
ATOM     19  C   UNL A   1      33.274  20.755  24.311  1.00  0.00     0.058 C 
BRANCH  19  20
ATOM     20  C   UNL A   1      33.083  19.367  24.898  1.00  0.00     0.076 C 
ATOM     21  S   UNL A   1      33.002  17.949  24.033  1.00  0.00    -0.066 S 
BRANCH  20  22
ATOM     22  N   UNL A   1      33.019  19.328  26.266  1.00  0.00    -0.393 N 
ATOM     23  H   UNL A   1      33.844  19.384  26.800  1.00  0.00     0.157 HD
ATOM     24  H   UNL A   1      32.147  19.242  26.716  1.00  0.00     0.157 HD
ENDBRANCH  20  22
ENDBRANCH  19  20
ENDBRANCH  12  13
ENDBRANCH   9  12
ENDBRANCH   7   9
ENDBRANCH   6   7
ENDBRANCH   5   6
ENDBRANCH   4   5
ENDBRANCH   3   4
ENDBRANCH   2   3
ENDBRANCH   1   2
BRANCH   1  25
ATOM     25  O   UNL A   1      35.145  31.690  28.695  1.00  0.00    -0.377 OA
BRANCH  25  26
ATOM     26  C   UNL A   1      35.622  33.022  28.837  1.00  0.00     0.188 C 
BRANCH  26  27
ATOM     27  C   UNL A   1      34.945  33.941  29.858  1.00  0.00     0.188 C 
BRANCH  27  28
ATOM     28  O   UNL A   1      35.221  33.697  31.238  1.00  0.00    -0.376 OA
BRANCH  28  29
ATOM     29  C   UNL A   1      35.240  32.343  31.681  1.00  0.00     0.202 C 
BRANCH  29  30
ATOM     30  C   UNL A   1      36.514  31.822  32.352  1.00  0.00     0.261 C 
BRANCH  30  31
ATOM     31  O   UNL A   1      36.544  30.389  32.425  1.00  0.00    -0.460 OA
BRANCH  31  32
ATOM     32  C   UNL A   1      36.847  29.791  31.252  1.00  0.00     0.338 C 
ATOM     33  O   UNL A   1      36.068  29.242  30.483  1.00  0.00    -0.246 OA
BRANCH  32  34
ATOM     34  C   UNL A   1      38.246  30.048  30.884  1.00  0.00     0.060 A 
ATOM     35  C   UNL A   1      38.467  30.485  29.572  1.00  0.00     0.016 A 
ATOM     36  C   UNL A   1      39.314  29.728  31.726  1.00  0.00     0.016 A 
ATOM     37  C   UNL A   1      39.750  30.496  29.057  1.00  0.00     0.010 A 
ATOM     38  C   UNL A   1      40.611  29.718  31.198  1.00  0.00     0.010 A 
ATOM     39  C   UNL A   1      40.811  30.026  29.841  1.00  0.00    -0.014 A 
BRANCH  39  40
ATOM     40  C   UNL A   1      42.009  29.572  29.101  1.00  0.00     0.031 A 
ATOM     41  C   UNL A   1      43.180  30.520  29.025  1.00  0.00     0.074 A 
ATOM     42  C   UNL A   1      42.116  28.297  28.694  1.00  0.00     0.049 A 
ATOM     43  N   UNL A   1      44.401  30.300  28.616  1.00  0.00    -0.248 NA
ATOM     44  C   UNL A   1      42.948  31.896  29.501  1.00  0.00     0.031 C 
ATOM     45  C   UNL A   1      41.059  27.291  28.786  1.00  0.00     0.029 A 
ATOM     46  N   UNL A   1      43.181  27.622  28.158  1.00  0.00    -0.354 N 
ATOM     47  C   UNL A   1      45.081  31.500  28.796  1.00  0.00     0.074 A 
ATOM     48  C   UNL A   1      44.134  32.456  29.321  1.00  0.00     0.031 C 
ATOM     49  C   UNL A   1      41.534  26.118  28.332  1.00  0.00     0.029 A 
ATOM     50  C   UNL A   1      42.923  26.296  27.912  1.00  0.00     0.049 A 
ATOM     51  H   UNL A   1      44.048  28.048  27.968  1.00  0.00     0.167 HD
ATOM     52  C   UNL A   1      46.383  31.777  28.559  1.00  0.00     0.037 A 
ATOM     53  C   UNL A   1      43.726  25.338  27.411  1.00  0.00     0.037 A 
ATOM     54  C   UNL A   1      47.314  30.818  28.031  1.00  0.00     0.049 A 
ATOM     55  C   UNL A   1      45.162  25.680  27.116  1.00  0.00     0.074 A 
ATOM     56  C   UNL A   1      48.648  30.992  27.709  1.00  0.00     0.029 A 
ATOM     57  N   UNL A   1      47.000  29.496  27.746  1.00  0.00    -0.354 N 
ATOM     58  N   UNL A   1      45.789  26.822  27.281  1.00  0.00    -0.248 NA
ATOM     59  C   UNL A   1      46.006  24.602  26.585  1.00  0.00     0.031 C 
ATOM     60  C   UNL A   1      49.133  29.781  27.200  1.00  0.00     0.029 A 
ATOM     61  C   UNL A   1      48.112  28.843  27.246  1.00  0.00     0.049 A 
ATOM     62  H   UNL A   1      46.116  29.084  27.880  1.00  0.00     0.167 HD
ATOM     63  C   UNL A   1      47.106  26.593  26.898  1.00  0.00     0.074 A 
ATOM     64  C   UNL A   1      47.187  25.200  26.507  1.00  0.00     0.031 C 
ATOM     65  C   UNL A   1      48.157  27.453  26.871  1.00  0.00     0.037 A 
BRANCH  52  66
ATOM     66  C   UNL A   1      46.858  33.177  28.834  1.00  0.00     0.058 A 
ATOM     67  C   UNL A   1      46.781  34.189  27.864  1.00  0.00     0.135 A 
ATOM     68  C   UNL A   1      47.395  33.511  30.087  1.00  0.00     0.135 A 
ATOM     69  F   UNL A   1      46.302  33.917  26.640  1.00  0.00    -0.206 F 
ATOM     70  C   UNL A   1      47.238  35.480  28.121  1.00  0.00     0.059 A 
ATOM     71  C   UNL A   1      47.838  34.798  30.373  1.00  0.00     0.059 A 
ATOM     72  F   UNL A   1      47.503  32.577  31.046  1.00  0.00    -0.206 F 
ATOM     73  C   UNL A   1      47.766  35.773  29.379  1.00  0.00     0.060 A 
BRANCH  73  74
ATOM     74  S   UNL A   1      48.352  37.451  29.705  1.00  0.00     0.124 S 
ATOM     75  O   UNL A   1      47.129  38.102  30.166  1.00  0.00    -0.237 OA
ATOM     76  O   UNL A   1      49.377  37.234  30.720  1.00  0.00    -0.237 OA
ATOM     77  O   UNL A   1      48.847  37.896  28.406  1.00  0.00    -0.744 OA
ENDBRANCH  73  74
ENDBRANCH  52  66
BRANCH  53  78
ATOM     78  C   UNL A   1      43.189  23.974  27.164  1.00  0.00     0.058 A 
ATOM     79  C   UNL A   1      42.707  23.587  25.904  1.00  0.00     0.135 A 
ATOM     80  C   UNL A   1      43.156  23.020  28.195  1.00  0.00     0.135 A 
ATOM     81  F   UNL A   1      42.711  24.462  24.888  1.00  0.00    -0.206 F 
ATOM     82  C   UNL A   1      42.198  22.311  25.678  1.00  0.00     0.059 A 
ATOM     83  C   UNL A   1      42.676  21.733  27.988  1.00  0.00     0.059 A 
ATOM     84  F   UNL A   1      43.618  23.335  29.415  1.00  0.00    -0.206 F 
ATOM     85  C   UNL A   1      42.187  21.390  26.728  1.00  0.00     0.060 A 
BRANCH  85  86
ATOM     86  S   UNL A   1      41.574  19.719  26.419  1.00  0.00     0.124 S 
ATOM     87  O   UNL A   1      41.905  19.049  27.670  1.00  0.00    -0.237 OA
ATOM     88  O   UNL A   1      40.154  19.952  26.174  1.00  0.00    -0.237 OA
ATOM     89  O   UNL A   1      42.340  19.294  25.251  1.00  0.00    -0.744 OA
ENDBRANCH  85  86
ENDBRANCH  53  78
BRANCH  65  90
ATOM     90  C   UNL A   1      49.480  26.894  26.438  1.00  0.00     0.058 A 
ATOM     91  C   UNL A   1      50.335  26.243  27.339  1.00  0.00     0.135 A 
ATOM     92  C   UNL A   1      49.884  26.990  25.096  1.00  0.00     0.135 A 
ATOM     93  F   UNL A   1      49.992  26.126  28.632  1.00  0.00    -0.206 F 
ATOM     94  C   UNL A   1      51.567  25.742  26.935  1.00  0.00     0.059 A 
ATOM     95  C   UNL A   1      51.100  26.473  24.664  1.00  0.00     0.059 A 
ATOM     96  F   UNL A   1      49.092  27.589  24.192  1.00  0.00    -0.206 F 
ATOM     97  C   UNL A   1      51.944  25.869  25.596  1.00  0.00     0.060 A 
BRANCH  97  98
ATOM     98  S   UNL A   1      53.547  25.222  25.079  1.00  0.00     0.124 S 
ATOM     99  O   UNL A   1      54.449  25.912  25.995  1.00  0.00    -0.237 OA
ATOM    100  O   UNL A   1      53.395  23.787  25.299  1.00  0.00    -0.237 OA
ATOM    101  O   UNL A   1      53.640  25.628  23.680  1.00  0.00    -0.744 OA
ENDBRANCH  97  98
ENDBRANCH  65  90
ENDBRANCH  39  40
ENDBRANCH  32  34
ENDBRANCH  31  32
ENDBRANCH  30  31
ENDBRANCH  29  30
ENDBRANCH  28  29
ENDBRANCH  27  28
ENDBRANCH  26  27
ENDBRANCH  25  26
ENDBRANCH   1  25
TORSDOF 27
ENDMDL
