MODEL 1
REMARK VINA RESULT:      -8.4      0.000      0.000
REMARK SMILES O=C1CC[C@@H](CC(=O)N2CCC(Oc3ccccc3)(C(=O)OCCOCCOCCOCCOC(=O)c3ccc(-c4c5nc(c(-c6c(F)cc(S(=O)(=O)[O-])cc6F)c6ccc([nH]6)c(-c6c(F)cc(S(=O)(=O)[O-])cc6F)c6nc(c(-c7c(F)cc(S(=O)(=O)[O-])cc7F)c7ccc4[nH]7)C=C6)C=C5)cc3)CC2)N1
REMARK SMILES IDX 29 1 28 2 27 3 26 4 25 5 24 6 23 7 22 8 20 9 21 10 12 11
REMARK SMILES IDX 7 12 8 13 9 14 10 15 104 16 11 17 103 18 6 19 5 20 1 21 2 22
REMARK SMILES IDX 3 23 105 24 4 25 13 27 14 28 15 29 19 30 16 31 18 32 17 33
REMARK SMILES IDX 30 34 31 35 32 36 33 37 34 38 35 39 36 40 37 41 38 42 102 43
REMARK SMILES IDX 39 44 101 45 40 46 41 47 42 48 95 49 43 50 100 51 94 52
REMARK SMILES IDX 96 53 44 54 99 55 93 56 92 57 45 59 79 60 58 61 78 62 59 63
REMARK SMILES IDX 62 64 77 65 97 66 60 67 61 68 76 70 98 71 63 72 46 73 47 74
REMARK SMILES IDX 56 75 48 76 49 77 55 78 57 79 50 80 51 81 52 82 53 83 54 84
REMARK SMILES IDX 80 85 81 86 90 87 82 88 83 89 89 90 91 91 84 92 85 93 86 94
REMARK SMILES IDX 87 95 88 96 64 97 65 98 74 99 66 100 67 101 73 102 75 103
REMARK SMILES IDX 68 104 69 105 70 106 71 107 72 108
REMARK H PARENT 105 26 96 58 62 69
REMARK Flexibility Score: inf
ROOT
ATOM      1  C   UNL A   1      33.074  37.026  30.054  1.00  0.00     0.188 C 
ENDROOT
BRANCH   1   2
ATOM      2  O   UNL A   1      32.391  36.800  31.274  1.00  0.00    -0.377 OA
BRANCH   2   3
ATOM      3  C   UNL A   1      32.773  35.687  32.044  1.00  0.00     0.188 C 
BRANCH   3   4
ATOM      4  C   UNL A   1      34.275  35.506  32.274  1.00  0.00     0.188 C 
BRANCH   4   5
ATOM      5  O   UNL A   1      34.840  34.207  32.306  1.00  0.00    -0.376 OA
BRANCH   5   6
ATOM      6  C   UNL A   1      34.828  33.446  33.508  1.00  0.00     0.202 C 
BRANCH   6   7
ATOM      7  C   UNL A   1      35.279  34.076  34.842  1.00  0.00     0.261 C 
BRANCH   7   8
ATOM      8  O   UNL A   1      36.654  34.522  34.946  1.00  0.00    -0.460 OA
BRANCH   8   9
ATOM      9  C   UNL A   1      37.558  33.600  35.378  1.00  0.00     0.350 C 
ATOM     10  O   UNL A   1      37.257  32.687  36.146  1.00  0.00    -0.247 OA
BRANCH   9  11
ATOM     11  C   UNL A   1      39.013  33.783  34.833  1.00  0.00     0.209 C 
ATOM     12  C   UNL A   1      41.174  30.042  34.031  1.00  0.00     0.224 C 
ATOM     13  O   UNL A   1      41.823  30.006  32.971  1.00  0.00    -0.275 OA
ATOM     14  N   UNL A   1      40.349  31.130  34.275  1.00  0.00    -0.342 N 
ATOM     15  C   UNL A   1      40.036  32.002  33.137  1.00  0.00     0.124 C 
ATOM     16  C   UNL A   1      39.855  31.525  35.569  1.00  0.00     0.124 C 
ATOM     17  C   UNL A   1      39.308  33.346  33.380  1.00  0.00     0.082 C 
ATOM     18  C   UNL A   1      39.939  33.020  35.796  1.00  0.00     0.082 C 
BRANCH  12  19
ATOM     19  C   UNL A   1      41.238  28.753  34.875  1.00  0.00     0.125 C 
BRANCH  19  20
ATOM     20  C   UNL A   1      41.966  27.432  34.650  1.00  0.00     0.091 C 
ATOM     21  O   UNL A   1      44.736  26.408  32.761  1.00  0.00    -0.275 OA
ATOM     22  C   UNL A   1      43.937  26.662  33.645  1.00  0.00     0.220 C 
ATOM     23  C   UNL A   1      44.118  26.391  35.116  1.00  0.00     0.102 C 
ATOM     24  N   UNL A   1      42.728  27.293  33.450  1.00  0.00    -0.353 N 
ATOM     25  C   UNL A   1      42.880  26.984  35.785  1.00  0.00     0.035 C 
ATOM     26  H   UNL A   1      42.419  27.613  32.572  1.00  0.00     0.163 HD
ENDBRANCH  19  20
ENDBRANCH  12  19
BRANCH  11  27
ATOM     27  O   UNL A   1      39.083  35.241  34.930  1.00  0.00    -0.475 OA
BRANCH  27  28
ATOM     28  C   UNL A   1      40.030  35.728  35.782  1.00  0.00     0.121 A 
ATOM     29  C   UNL A   1      41.321  35.953  35.308  1.00  0.00     0.046 A 
ATOM     30  C   UNL A   1      39.722  35.947  37.122  1.00  0.00     0.046 A 
ATOM     31  C   UNL A   1      42.277  36.506  36.157  1.00  0.00     0.004 A 
ATOM     32  C   UNL A   1      40.673  36.512  37.966  1.00  0.00     0.004 A 
ATOM     33  C   UNL A   1      41.947  36.803  37.481  1.00  0.00     0.000 A 
ENDBRANCH  27  28
ENDBRANCH  11  27
ENDBRANCH   9  11
ENDBRANCH   8   9
ENDBRANCH   7   8
ENDBRANCH   6   7
ENDBRANCH   5   6
ENDBRANCH   4   5
ENDBRANCH   3   4
ENDBRANCH   2   3
ENDBRANCH   1   2
BRANCH   1  34
ATOM     34  C   UNL A   1      32.864  36.029  28.905  1.00  0.00     0.188 C 
BRANCH  34  35
ATOM     35  O   UNL A   1      33.999  35.213  28.630  1.00  0.00    -0.376 OA
BRANCH  35  36
ATOM     36  C   UNL A   1      33.838  33.802  28.581  1.00  0.00     0.202 C 
BRANCH  36  37
ATOM     37  C   UNL A   1      35.007  32.912  29.043  1.00  0.00     0.261 C 
BRANCH  37  38
ATOM     38  O   UNL A   1      34.717  31.533  29.313  1.00  0.00    -0.460 OA
BRANCH  38  39
ATOM     39  C   UNL A   1      34.914  30.629  28.323  1.00  0.00     0.338 C 
ATOM     40  O   UNL A   1      34.175  30.389  27.399  1.00  0.00    -0.246 OA
BRANCH  39  41
ATOM     41  C   UNL A   1      36.312  30.142  28.444  1.00  0.00     0.060 A 
ATOM     42  C   UNL A   1      36.762  29.717  29.701  1.00  0.00     0.016 A 
ATOM     43  C   UNL A   1      37.155  30.073  27.332  1.00  0.00     0.016 A 
ATOM     44  C   UNL A   1      38.066  29.245  29.853  1.00  0.00     0.010 A 
ATOM     45  C   UNL A   1      38.471  29.626  27.492  1.00  0.00     0.010 A 
ATOM     46  C   UNL A   1      38.941  29.237  28.760  1.00  0.00    -0.014 A 
BRANCH  46  47
ATOM     47  C   UNL A   1      40.387  29.002  28.994  1.00  0.00     0.031 A 
ATOM     48  C   UNL A   1      40.956  27.652  28.653  1.00  0.00     0.074 A 
ATOM     49  C   UNL A   1      41.190  29.979  29.449  1.00  0.00     0.049 A 
ATOM     50  N   UNL A   1      42.188  27.222  28.740  1.00  0.00    -0.248 NA
ATOM     51  C   UNL A   1      40.004  26.653  28.140  1.00  0.00     0.031 C 
ATOM     52  C   UNL A   1      40.765  31.338  29.777  1.00  0.00     0.029 A 
ATOM     53  N   UNL A   1      42.538  29.976  29.709  1.00  0.00    -0.354 N 
ATOM     54  C   UNL A   1      42.160  25.905  28.293  1.00  0.00     0.074 A 
ATOM     55  C   UNL A   1      40.783  25.597  27.973  1.00  0.00     0.031 C 
ATOM     56  C   UNL A   1      41.832  32.040  30.199  1.00  0.00     0.029 A 
ATOM     57  C   UNL A   1      43.010  31.172  30.194  1.00  0.00     0.049 A 
ATOM     58  H   UNL A   1      43.113  29.191  29.562  1.00  0.00     0.167 HD
ATOM     59  C   UNL A   1      43.190  25.035  28.153  1.00  0.00     0.037 A 
ATOM     60  C   UNL A   1      44.248  31.520  30.601  1.00  0.00     0.037 A 
ATOM     61  C   UNL A   1      44.555  25.345  28.490  1.00  0.00     0.049 A 
ATOM     62  C   UNL A   1      45.366  30.513  30.510  1.00  0.00     0.074 A 
ATOM     63  C   UNL A   1      45.674  24.540  28.372  1.00  0.00     0.029 A 
ATOM     64  N   UNL A   1      44.985  26.550  29.030  1.00  0.00    -0.354 N 
ATOM     65  N   UNL A   1      45.334  29.282  30.055  1.00  0.00    -0.248 NA
ATOM     66  C   UNL A   1      46.688  30.944  30.983  1.00  0.00     0.031 C 
ATOM     67  C   UNL A   1      46.770  25.235  28.897  1.00  0.00     0.029 A 
ATOM     68  C   UNL A   1      46.347  26.498  29.282  1.00  0.00     0.049 A 
ATOM     69  H   UNL A   1      44.408  27.327  29.206  1.00  0.00     0.167 HD
ATOM     70  C   UNL A   1      46.635  28.799  30.165  1.00  0.00     0.074 A 
ATOM     71  C   UNL A   1      47.431  29.879  30.713  1.00  0.00     0.031 C 
ATOM     72  C   UNL A   1      47.127  27.577  29.840  1.00  0.00     0.037 A 
BRANCH  59  73
ATOM     73  C   UNL A   1      42.864  23.655  27.650  1.00  0.00     0.058 A 
ATOM     74  C   UNL A   1      42.559  22.597  28.521  1.00  0.00     0.135 A 
ATOM     75  C   UNL A   1      42.855  23.387  26.271  1.00  0.00     0.135 A 
ATOM     76  F   UNL A   1      42.571  22.789  29.850  1.00  0.00    -0.206 F 
ATOM     77  C   UNL A   1      42.296  21.314  28.048  1.00  0.00     0.059 A 
ATOM     78  C   UNL A   1      42.563  22.120  25.773  1.00  0.00     0.059 A 
ATOM     79  F   UNL A   1      43.141  24.358  25.390  1.00  0.00    -0.206 F 
ATOM     80  C   UNL A   1      42.304  21.086  26.671  1.00  0.00     0.060 A 
BRANCH  80  81
ATOM     81  S   UNL A   1      41.979  19.414  26.072  1.00  0.00     0.124 S 
ATOM     82  O   UNL A   1      42.478  18.607  27.182  1.00  0.00    -0.237 OA
ATOM     83  O   UNL A   1      40.530  19.422  25.896  1.00  0.00    -0.237 OA
ATOM     84  O   UNL A   1      42.757  19.335  24.841  1.00  0.00    -0.744 OA
ENDBRANCH  80  81
ENDBRANCH  59  73
BRANCH  60  85
ATOM     85  C   UNL A   1      44.496  32.889  31.130  1.00  0.00     0.058 A 
ATOM     86  C   UNL A   1      44.349  33.178  32.495  1.00  0.00     0.135 A 
ATOM     87  C   UNL A   1      44.899  33.934  30.282  1.00  0.00     0.135 A 
ATOM     88  F   UNL A   1      43.949  32.219  33.344  1.00  0.00    -0.206 F 
ATOM     89  C   UNL A   1      44.591  34.452  33.002  1.00  0.00     0.059 A 
ATOM     90  C   UNL A   1      45.174  35.208  30.769  1.00  0.00     0.059 A 
ATOM     91  F   UNL A   1      45.058  33.710  28.969  1.00  0.00    -0.206 F 
ATOM     92  C   UNL A   1      45.013  35.459  32.131  1.00  0.00     0.060 A 
BRANCH  92  93
ATOM     93  S   UNL A   1      45.398  37.086  32.813  1.00  0.00     0.124 S 
ATOM     94  O   UNL A   1      46.769  37.281  32.360  1.00  0.00    -0.237 OA
ATOM     95  O   UNL A   1      44.388  37.927  32.178  1.00  0.00    -0.237 OA
ATOM     96  O   UNL A   1      45.229  36.895  34.252  1.00  0.00    -0.744 OA
ENDBRANCH  92  93
ENDBRANCH  60  85
BRANCH  72  97
ATOM     97  C   UNL A   1      48.602  27.344  30.049  1.00  0.00     0.058 A 
ATOM     98  C   UNL A   1      49.543  27.609  29.042  1.00  0.00     0.135 A 
ATOM     99  C   UNL A   1      49.082  26.881  31.286  1.00  0.00     0.135 A 
ATOM    100  F   UNL A   1      49.141  28.050  27.839  1.00  0.00    -0.206 F 
ATOM    101  C   UNL A   1      50.903  27.387  29.240  1.00  0.00     0.059 A 
ATOM    102  C   UNL A   1      50.440  26.684  31.517  1.00  0.00     0.059 A 
ATOM    103  F   UNL A   1      48.228  26.625  32.290  1.00  0.00    -0.206 F 
ATOM    104  C   UNL A   1      51.341  26.923  30.481  1.00  0.00     0.060 A 
BRANCH 104 105
ATOM    105  S   UNL A   1      53.109  26.647  30.727  1.00  0.00     0.124 S 
ATOM    106  O   UNL A   1      53.518  27.901  31.351  1.00  0.00    -0.237 OA
ATOM    107  O   UNL A   1      53.124  25.473  31.594  1.00  0.00    -0.237 OA
ATOM    108  O   UNL A   1      53.611  26.427  29.374  1.00  0.00    -0.744 OA
ENDBRANCH 104 105
ENDBRANCH  72  97
ENDBRANCH  46  47
ENDBRANCH  39  41
ENDBRANCH  38  39
ENDBRANCH  37  38
ENDBRANCH  36  37
ENDBRANCH  35  36
ENDBRANCH  34  35
ENDBRANCH   1  34
TORSDOF 27
ENDMDL
MODEL 2
REMARK VINA RESULT:      -8.1      5.571     13.479
REMARK SMILES O=C1CC[C@@H](CC(=O)N2CCC(Oc3ccccc3)(C(=O)OCCOCCOCCOCCOC(=O)c3ccc(-c4c5nc(c(-c6c(F)cc(S(=O)(=O)[O-])cc6F)c6ccc([nH]6)c(-c6c(F)cc(S(=O)(=O)[O-])cc6F)c6nc(c(-c7c(F)cc(S(=O)(=O)[O-])cc7F)c7ccc4[nH]7)C=C6)C=C5)cc3)CC2)N1
REMARK SMILES IDX 29 1 28 2 27 3 26 4 25 5 24 6 23 7 22 8 20 9 21 10 12 11
REMARK SMILES IDX 7 12 8 13 9 14 10 15 104 16 11 17 103 18 6 19 5 20 1 21 2 22
REMARK SMILES IDX 3 23 105 24 4 25 13 27 14 28 15 29 19 30 16 31 18 32 17 33
REMARK SMILES IDX 30 34 31 35 32 36 33 37 34 38 35 39 36 40 37 41 38 42 102 43
REMARK SMILES IDX 39 44 101 45 40 46 41 47 42 48 95 49 43 50 100 51 94 52
REMARK SMILES IDX 96 53 44 54 99 55 93 56 92 57 45 59 79 60 58 61 78 62 59 63
REMARK SMILES IDX 62 64 77 65 97 66 60 67 61 68 76 70 98 71 63 72 46 73 47 74
REMARK SMILES IDX 56 75 48 76 49 77 55 78 57 79 50 80 51 81 52 82 53 83 54 84
REMARK SMILES IDX 80 85 81 86 90 87 82 88 83 89 89 90 91 91 84 92 85 93 86 94
REMARK SMILES IDX 87 95 88 96 64 97 65 98 74 99 66 100 67 101 73 102 75 103
REMARK SMILES IDX 68 104 69 105 70 106 71 107 72 108
REMARK H PARENT 105 26 96 58 62 69
REMARK Flexibility Score: inf
ROOT
ATOM      1  C   UNL A   1      40.417  21.451  27.375  1.00  0.00     0.188 C 
ENDROOT
BRANCH   1   2
ATOM      2  O   UNL A   1      40.133  22.636  26.654  1.00  0.00    -0.377 OA
BRANCH   2   3
ATOM      3  C   UNL A   1      38.782  22.984  26.469  1.00  0.00     0.188 C 
BRANCH   3   4
ATOM      4  C   UNL A   1      38.065  22.317  25.294  1.00  0.00     0.188 C 
BRANCH   4   5
ATOM      5  O   UNL A   1      36.663  22.449  25.147  1.00  0.00    -0.376 OA
BRANCH   5   6
ATOM      6  C   UNL A   1      35.958  23.466  25.850  1.00  0.00     0.202 C 
BRANCH   6   7
ATOM      7  C   UNL A   1      34.739  23.114  26.728  1.00  0.00     0.261 C 
BRANCH   7   8
ATOM      8  O   UNL A   1      33.432  23.540  26.270  1.00  0.00    -0.460 OA
BRANCH   8   9
ATOM      9  C   UNL A   1      32.477  22.573  26.178  1.00  0.00     0.350 C 
ATOM     10  O   UNL A   1      31.892  22.126  27.164  1.00  0.00    -0.247 OA
BRANCH   9  11
ATOM     11  C   UNL A   1      32.177  22.063  24.730  1.00  0.00     0.209 C 
ATOM     12  C   UNL A   1      32.657  25.077  21.569  1.00  0.00     0.224 C 
ATOM     13  O   UNL A   1      33.236  24.695  20.538  1.00  0.00    -0.275 OA
ATOM     14  N   UNL A   1      32.605  24.225  22.663  1.00  0.00    -0.342 N 
ATOM     15  C   UNL A   1      33.512  23.072  22.658  1.00  0.00     0.124 C 
ATOM     16  C   UNL A   1      31.670  24.329  23.753  1.00  0.00     0.124 C 
ATOM     17  C   UNL A   1      33.354  21.969  23.732  1.00  0.00     0.082 C 
ATOM     18  C   UNL A   1      31.091  22.989  24.157  1.00  0.00     0.082 C 
BRANCH  12  19
ATOM     19  C   UNL A   1      32.217  26.555  21.556  1.00  0.00     0.125 C 
BRANCH  19  20
ATOM     20  C   UNL A   1      32.515  27.707  22.510  1.00  0.00     0.091 C 
ATOM     21  O   UNL A   1      31.639  28.495  25.812  1.00  0.00    -0.275 OA
ATOM     22  C   UNL A   1      32.221  28.235  24.773  1.00  0.00     0.220 C 
ATOM     23  C   UNL A   1      33.713  28.142  24.585  1.00  0.00     0.102 C 
ATOM     24  N   UNL A   1      31.599  27.932  23.582  1.00  0.00    -0.353 N 
ATOM     25  C   UNL A   1      33.904  27.698  23.137  1.00  0.00     0.035 C 
ATOM     26  H   UNL A   1      30.621  27.879  23.479  1.00  0.00     0.163 HD
ENDBRANCH  19  20
ENDBRANCH  12  19
BRANCH  11  27
ATOM     27  O   UNL A   1      31.724  20.717  25.080  1.00  0.00    -0.475 OA
BRANCH  27  28
ATOM     28  C   UNL A   1      32.397  19.696  24.478  1.00  0.00     0.121 A 
ATOM     29  C   UNL A   1      31.952  19.219  23.247  1.00  0.00     0.046 A 
ATOM     30  C   UNL A   1      33.485  19.103  25.113  1.00  0.00     0.046 A 
ATOM     31  C   UNL A   1      32.670  18.216  22.599  1.00  0.00     0.004 A 
ATOM     32  C   UNL A   1      34.211  18.111  24.459  1.00  0.00     0.004 A 
ATOM     33  C   UNL A   1      33.810  17.676  23.196  1.00  0.00     0.000 A 
ENDBRANCH  27  28
ENDBRANCH  11  27
ENDBRANCH   9  11
ENDBRANCH   8   9
ENDBRANCH   7   8
ENDBRANCH   6   7
ENDBRANCH   5   6
ENDBRANCH   4   5
ENDBRANCH   3   4
ENDBRANCH   2   3
ENDBRANCH   1   2
BRANCH   1  34
ATOM     34  C   UNL A   1      41.872  20.960  27.423  1.00  0.00     0.188 C 
BRANCH  34  35
ATOM     35  O   UNL A   1      42.826  21.928  26.996  1.00  0.00    -0.376 OA
BRANCH  35  36
ATOM     36  C   UNL A   1      43.221  21.950  25.631  1.00  0.00     0.202 C 
BRANCH  36  37
ATOM     37  C   UNL A   1      43.370  23.314  24.931  1.00  0.00     0.261 C 
BRANCH  37  38
ATOM     38  O   UNL A   1      43.187  24.489  25.734  1.00  0.00    -0.460 OA
BRANCH  38  39
ATOM     39  C   UNL A   1      44.175  25.416  25.751  1.00  0.00     0.338 C 
ATOM     40  O   UNL A   1      44.974  25.643  24.875  1.00  0.00    -0.246 OA
BRANCH  39  41
ATOM     41  C   UNL A   1      43.960  26.266  26.949  1.00  0.00     0.060 A 
ATOM     42  C   UNL A   1      43.174  25.759  27.992  1.00  0.00     0.016 A 
ATOM     43  C   UNL A   1      44.550  27.527  27.060  1.00  0.00     0.016 A 
ATOM     44  C   UNL A   1      42.956  26.524  29.139  1.00  0.00     0.010 A 
ATOM     45  C   UNL A   1      44.306  28.305  28.197  1.00  0.00     0.010 A 
ATOM     46  C   UNL A   1      43.485  27.817  29.229  1.00  0.00    -0.014 A 
BRANCH  46  47
ATOM     47  C   UNL A   1      43.017  28.713  30.315  1.00  0.00     0.031 A 
ATOM     48  C   UNL A   1      43.865  28.840  31.552  1.00  0.00     0.074 A 
ATOM     49  C   UNL A   1      41.894  29.441  30.187  1.00  0.00     0.049 A 
ATOM     50  N   UNL A   1      43.681  29.580  32.614  1.00  0.00    -0.248 NA
ATOM     51  C   UNL A   1      45.087  28.022  31.592  1.00  0.00     0.031 C 
ATOM     52  C   UNL A   1      41.011  29.434  29.023  1.00  0.00     0.029 A 
ATOM     53  N   UNL A   1      41.307  30.332  31.050  1.00  0.00    -0.354 N 
ATOM     54  C   UNL A   1      44.763  29.319  33.448  1.00  0.00     0.074 A 
ATOM     55  C   UNL A   1      45.577  28.324  32.784  1.00  0.00     0.031 C 
ATOM     56  C   UNL A   1      39.990  30.281  29.245  1.00  0.00     0.029 A 
ATOM     57  C   UNL A   1      40.134  30.870  30.576  1.00  0.00     0.049 A 
ATOM     58  H   UNL A   1      41.689  30.566  31.926  1.00  0.00     0.167 HD
ATOM     59  C   UNL A   1      45.057  29.865  34.652  1.00  0.00     0.037 A 
ATOM     60  C   UNL A   1      39.270  31.727  31.158  1.00  0.00     0.037 A 
ATOM     61  C   UNL A   1      44.232  30.843  35.314  1.00  0.00     0.049 A 
ATOM     62  C   UNL A   1      39.575  32.265  32.532  1.00  0.00     0.074 A 
ATOM     63  C   UNL A   1      44.448  31.470  36.528  1.00  0.00     0.029 A 
ATOM     64  N   UNL A   1      43.024  31.323  34.826  1.00  0.00    -0.354 N 
ATOM     65  N   UNL A   1      40.619  32.036  33.296  1.00  0.00    -0.248 NA
ATOM     66  C   UNL A   1      38.590  33.181  33.121  1.00  0.00     0.031 C 
ATOM     67  C   UNL A   1      43.342  32.281  36.804  1.00  0.00     0.029 A 
ATOM     68  C   UNL A   1      42.466  32.212  35.731  1.00  0.00     0.049 A 
ATOM     69  H   UNL A   1      42.623  31.069  33.964  1.00  0.00     0.167 HD
ATOM     70  C   UNL A   1      40.426  32.798  34.445  1.00  0.00     0.074 A 
ATOM     71  C   UNL A   1      39.175  33.507  34.266  1.00  0.00     0.031 C 
ATOM     72  C   UNL A   1      41.212  32.903  35.546  1.00  0.00     0.037 A 
BRANCH  59  73
ATOM     73  C   UNL A   1      46.303  29.383  35.343  1.00  0.00     0.058 A 
ATOM     74  C   UNL A   1      46.292  28.287  36.221  1.00  0.00     0.135 A 
ATOM     75  C   UNL A   1      47.532  30.028  35.123  1.00  0.00     0.135 A 
ATOM     76  F   UNL A   1      45.143  27.643  36.486  1.00  0.00    -0.206 F 
ATOM     77  C   UNL A   1      47.443  27.872  36.885  1.00  0.00     0.059 A 
ATOM     78  C   UNL A   1      48.702  29.611  35.750  1.00  0.00     0.059 A 
ATOM     79  F   UNL A   1      47.603  31.083  34.296  1.00  0.00    -0.206 F 
ATOM     80  C   UNL A   1      48.643  28.543  36.645  1.00  0.00     0.060 A 
BRANCH  80  81
ATOM     81  S   UNL A   1      50.123  28.005  37.527  1.00  0.00     0.124 S 
ATOM     82  O   UNL A   1      49.567  27.024  38.455  1.00  0.00    -0.237 OA
ATOM     83  O   UNL A   1      50.947  27.462  36.451  1.00  0.00    -0.237 OA
ATOM     84  O   UNL A   1      50.622  29.233  38.137  1.00  0.00    -0.744 OA
ENDBRANCH  80  81
ENDBRANCH  59  73
BRANCH  60  85
ATOM     85  C   UNL A   1      38.032  32.132  30.438  1.00  0.00     0.058 A 
ATOM     86  C   UNL A   1      36.849  31.386  30.550  1.00  0.00     0.135 A 
ATOM     87  C   UNL A   1      38.002  33.283  29.633  1.00  0.00     0.135 A 
ATOM     88  F   UNL A   1      36.829  30.268  31.293  1.00  0.00    -0.206 F 
ATOM     89  C   UNL A   1      35.682  31.763  29.892  1.00  0.00     0.059 A 
ATOM     90  C   UNL A   1      36.841  33.696  28.988  1.00  0.00     0.059 A 
ATOM     91  F   UNL A   1      39.105  34.034  29.495  1.00  0.00    -0.206 F 
ATOM     92  C   UNL A   1      35.686  32.927  29.120  1.00  0.00     0.060 A 
BRANCH  92  93
ATOM     93  S   UNL A   1      34.145  33.447  28.334  1.00  0.00     0.124 S 
ATOM     94  O   UNL A   1      33.630  32.182  27.827  1.00  0.00    -0.237 OA
ATOM     95  O   UNL A   1      33.416  34.032  29.456  1.00  0.00    -0.237 OA
ATOM     96  O   UNL A   1      34.591  34.401  27.321  1.00  0.00    -0.744 OA
ENDBRANCH  92  93
ENDBRANCH  60  85
BRANCH  72  97
ATOM     97  C   UNL A   1      40.755  33.836  36.639  1.00  0.00     0.058 A 
ATOM     98  C   UNL A   1      39.935  33.399  37.691  1.00  0.00     0.135 A 
ATOM     99  C   UNL A   1      41.170  35.179  36.649  1.00  0.00     0.135 A 
ATOM    100  F   UNL A   1      39.506  32.127  37.730  1.00  0.00    -0.206 F 
ATOM    101  C   UNL A   1      39.512  34.267  38.693  1.00  0.00     0.059 A 
ATOM    102  C   UNL A   1      40.787  36.055  37.659  1.00  0.00     0.059 A 
ATOM    103  F   UNL A   1      41.966  35.648  35.676  1.00  0.00    -0.206 F 
ATOM    104  C   UNL A   1      39.942  35.595  38.668  1.00  0.00     0.060 A 
BRANCH 104 105
ATOM    105  S   UNL A   1      39.393  36.708  39.979  1.00  0.00     0.124 S 
ATOM    106  O   UNL A   1      40.602  36.830  40.787  1.00  0.00    -0.237 OA
ATOM    107  O   UNL A   1      39.005  37.901  39.234  1.00  0.00    -0.237 OA
ATOM    108  O   UNL A   1      38.292  35.981  40.604  1.00  0.00    -0.744 OA
ENDBRANCH 104 105
ENDBRANCH  72  97
ENDBRANCH  46  47
ENDBRANCH  39  41
ENDBRANCH  38  39
ENDBRANCH  37  38
ENDBRANCH  36  37
ENDBRANCH  35  36
ENDBRANCH  34  35
ENDBRANCH   1  34
TORSDOF 27
ENDMDL
MODEL 3
REMARK VINA RESULT:      -7.8      5.238     12.051
REMARK SMILES O=C1CC[C@@H](CC(=O)N2CCC(Oc3ccccc3)(C(=O)OCCOCCOCCOCCOC(=O)c3ccc(-c4c5nc(c(-c6c(F)cc(S(=O)(=O)[O-])cc6F)c6ccc([nH]6)c(-c6c(F)cc(S(=O)(=O)[O-])cc6F)c6nc(c(-c7c(F)cc(S(=O)(=O)[O-])cc7F)c7ccc4[nH]7)C=C6)C=C5)cc3)CC2)N1
REMARK SMILES IDX 29 1 28 2 27 3 26 4 25 5 24 6 23 7 22 8 20 9 21 10 12 11
REMARK SMILES IDX 7 12 8 13 9 14 10 15 104 16 11 17 103 18 6 19 5 20 1 21 2 22
REMARK SMILES IDX 3 23 105 24 4 25 13 27 14 28 15 29 19 30 16 31 18 32 17 33
REMARK SMILES IDX 30 34 31 35 32 36 33 37 34 38 35 39 36 40 37 41 38 42 102 43
REMARK SMILES IDX 39 44 101 45 40 46 41 47 42 48 95 49 43 50 100 51 94 52
REMARK SMILES IDX 96 53 44 54 99 55 93 56 92 57 45 59 79 60 58 61 78 62 59 63
REMARK SMILES IDX 62 64 77 65 97 66 60 67 61 68 76 70 98 71 63 72 46 73 47 74
REMARK SMILES IDX 56 75 48 76 49 77 55 78 57 79 50 80 51 81 52 82 53 83 54 84
REMARK SMILES IDX 80 85 81 86 90 87 82 88 83 89 89 90 91 91 84 92 85 93 86 94
REMARK SMILES IDX 87 95 88 96 64 97 65 98 74 99 66 100 67 101 73 102 75 103
REMARK SMILES IDX 68 104 69 105 70 106 71 107 72 108
REMARK H PARENT 105 26 96 58 62 69
REMARK Flexibility Score: inf
ROOT
ATOM      1  C   UNL A   1      31.488  27.782  25.955  1.00  0.00     0.188 C 
ENDROOT
BRANCH   1   2
ATOM      2  O   UNL A   1      31.795  28.263  24.659  1.00  0.00    -0.377 OA
BRANCH   2   3
ATOM      3  C   UNL A   1      32.797  27.597  23.932  1.00  0.00     0.188 C 
BRANCH   3   4
ATOM      4  C   UNL A   1      32.320  26.582  22.892  1.00  0.00     0.188 C 
BRANCH   4   5
ATOM      5  O   UNL A   1      30.991  26.093  22.930  1.00  0.00    -0.376 OA
BRANCH   5   6
ATOM      6  C   UNL A   1      30.738  24.710  23.145  1.00  0.00     0.202 C 
BRANCH   6   7
ATOM      7  C   UNL A   1      30.747  24.121  24.572  1.00  0.00     0.261 C 
BRANCH   7   8
ATOM      8  O   UNL A   1      32.027  23.990  25.238  1.00  0.00    -0.460 OA
BRANCH   8   9
ATOM      9  C   UNL A   1      32.292  22.782  25.809  1.00  0.00     0.350 C 
ATOM     10  O   UNL A   1      31.780  22.426  26.870  1.00  0.00    -0.247 OA
BRANCH   9  11
ATOM     11  C   UNL A   1      33.298  21.877  25.026  1.00  0.00     0.209 C 
ATOM     12  C   UNL A   1      37.540  22.759  25.758  1.00  0.00     0.224 C 
ATOM     13  O   UNL A   1      38.280  21.773  25.916  1.00  0.00    -0.275 OA
ATOM     14  N   UNL A   1      36.169  22.561  25.674  1.00  0.00    -0.342 N 
ATOM     15  C   UNL A   1      35.653  21.257  26.105  1.00  0.00     0.124 C 
ATOM     16  C   UNL A   1      35.228  23.494  25.111  1.00  0.00     0.124 C 
ATOM     17  C   UNL A   1      34.174  20.891  25.834  1.00  0.00     0.082 C 
ATOM     18  C   UNL A   1      34.203  22.824  24.220  1.00  0.00     0.082 C 
BRANCH  12  19
ATOM     19  C   UNL A   1      38.248  24.125  25.859  1.00  0.00     0.125 C 
BRANCH  19  20
ATOM     20  C   UNL A   1      39.531  24.550  26.566  1.00  0.00     0.091 C 
ATOM     21  O   UNL A   1      41.686  27.308  26.367  1.00  0.00    -0.275 OA
ATOM     22  C   UNL A   1      40.909  26.438  26.719  1.00  0.00     0.220 C 
ATOM     23  C   UNL A   1      40.330  26.264  28.100  1.00  0.00     0.102 C 
ATOM     24  N   UNL A   1      40.384  25.472  25.888  1.00  0.00    -0.353 N 
ATOM     25  C   UNL A   1      39.353  25.097  27.977  1.00  0.00     0.035 C 
ATOM     26  H   UNL A   1      40.581  25.423  24.925  1.00  0.00     0.163 HD
ENDBRANCH  19  20
ENDBRANCH  12  19
BRANCH  11  27
ATOM     27  O   UNL A   1      32.322  21.128  24.234  1.00  0.00    -0.475 OA
BRANCH  27  28
ATOM     28  C   UNL A   1      32.503  19.777  24.203  1.00  0.00     0.121 A 
ATOM     29  C   UNL A   1      32.648  19.136  22.975  1.00  0.00     0.046 A 
ATOM     30  C   UNL A   1      32.492  19.041  25.386  1.00  0.00     0.046 A 
ATOM     31  C   UNL A   1      32.893  17.765  22.940  1.00  0.00     0.004 A 
ATOM     32  C   UNL A   1      32.751  17.674  25.352  1.00  0.00     0.004 A 
ATOM     33  C   UNL A   1      32.963  17.038  24.130  1.00  0.00     0.000 A 
ENDBRANCH  27  28
ENDBRANCH  11  27
ENDBRANCH   9  11
ENDBRANCH   8   9
ENDBRANCH   7   8
ENDBRANCH   6   7
ENDBRANCH   5   6
ENDBRANCH   4   5
ENDBRANCH   3   4
ENDBRANCH   2   3
ENDBRANCH   1   2
BRANCH   1  34
ATOM     34  C   UNL A   1      31.864  28.654  27.163  1.00  0.00     0.188 C 
BRANCH  34  35
ATOM     35  O   UNL A   1      33.196  28.457  27.629  1.00  0.00    -0.376 OA
BRANCH  35  36
ATOM     36  C   UNL A   1      34.253  29.186  27.021  1.00  0.00     0.202 C 
BRANCH  36  37
ATOM     37  C   UNL A   1      34.175  30.724  27.011  1.00  0.00     0.261 C 
BRANCH  37  38
ATOM     38  O   UNL A   1      34.071  31.385  28.281  1.00  0.00    -0.460 OA
BRANCH  38  39
ATOM     39  C   UNL A   1      34.609  32.622  28.408  1.00  0.00     0.338 C 
ATOM     40  O   UNL A   1      34.121  33.667  28.052  1.00  0.00    -0.246 OA
BRANCH  39  41
ATOM     41  C   UNL A   1      35.809  32.493  29.273  1.00  0.00     0.060 A 
ATOM     42  C   UNL A   1      36.933  33.273  28.971  1.00  0.00     0.016 A 
ATOM     43  C   UNL A   1      35.817  31.645  30.383  1.00  0.00     0.016 A 
ATOM     44  C   UNL A   1      38.077  33.187  29.766  1.00  0.00     0.010 A 
ATOM     45  C   UNL A   1      36.974  31.539  31.161  1.00  0.00     0.010 A 
ATOM     46  C   UNL A   1      38.119  32.288  30.838  1.00  0.00    -0.014 A 
BRANCH  46  47
ATOM     47  C   UNL A   1      39.421  32.006  31.492  1.00  0.00     0.031 A 
ATOM     48  C   UNL A   1      39.699  32.632  32.831  1.00  0.00     0.074 A 
ATOM     49  C   UNL A   1      40.316  31.171  30.937  1.00  0.00     0.049 A 
ATOM     50  N   UNL A   1      40.745  32.509  33.606  1.00  0.00    -0.248 NA
ATOM     51  C   UNL A   1      38.651  33.515  33.370  1.00  0.00     0.031 C 
ATOM     52  C   UNL A   1      40.145  30.473  29.664  1.00  0.00     0.029 A 
ATOM     53  N   UNL A   1      41.550  30.764  31.381  1.00  0.00    -0.354 N 
ATOM     54  C   UNL A   1      40.482  33.296  34.723  1.00  0.00     0.074 A 
ATOM     55  C   UNL A   1      39.195  33.921  34.505  1.00  0.00     0.031 C 
ATOM     56  C   UNL A   1      41.238  29.725  29.426  1.00  0.00     0.029 A 
ATOM     57  C   UNL A   1      42.194  29.910  30.517  1.00  0.00     0.049 A 
ATOM     58  H   UNL A   1      41.938  31.056  32.237  1.00  0.00     0.167 HD
ATOM     59  C   UNL A   1      41.238  33.473  35.832  1.00  0.00     0.037 A 
ATOM     60  C   UNL A   1      43.421  29.355  30.594  1.00  0.00     0.037 A 
ATOM     61  C   UNL A   1      42.526  32.861  36.034  1.00  0.00     0.049 A 
ATOM     62  C   UNL A   1      44.281  29.627  31.802  1.00  0.00     0.074 A 
ATOM     63  C   UNL A   1      43.366  32.964  37.128  1.00  0.00     0.029 A 
ATOM     64  N   UNL A   1      43.169  32.045  35.113  1.00  0.00    -0.354 N 
ATOM     65  N   UNL A   1      44.007  30.346  32.866  1.00  0.00    -0.248 NA
ATOM     66  C   UNL A   1      45.613  29.008  31.822  1.00  0.00     0.031 C 
ATOM     67  C   UNL A   1      44.543  32.262  36.844  1.00  0.00     0.029 A 
ATOM     68  C   UNL A   1      44.410  31.665  35.599  1.00  0.00     0.049 A 
ATOM     69  H   UNL A   1      42.798  31.774  34.242  1.00  0.00     0.167 HD
ATOM     70  C   UNL A   1      45.123  30.246  33.692  1.00  0.00     0.074 A 
ATOM     71  C   UNL A   1      46.067  29.383  33.010  1.00  0.00     0.031 C 
ATOM     72  C   UNL A   1      45.346  30.815  34.904  1.00  0.00     0.037 A 
BRANCH  59  73
ATOM     73  C   UNL A   1      40.704  34.399  36.892  1.00  0.00     0.058 A 
ATOM     74  C   UNL A   1      40.955  35.781  36.870  1.00  0.00     0.135 A 
ATOM     75  C   UNL A   1      39.925  33.896  37.947  1.00  0.00     0.135 A 
ATOM     76  F   UNL A   1      41.710  36.316  35.896  1.00  0.00    -0.206 F 
ATOM     77  C   UNL A   1      40.489  36.624  37.874  1.00  0.00     0.059 A 
ATOM     78  C   UNL A   1      39.420  34.724  38.945  1.00  0.00     0.059 A 
ATOM     79  F   UNL A   1      39.654  32.583  38.021  1.00  0.00    -0.206 F 
ATOM     80  C   UNL A   1      39.724  36.084  38.910  1.00  0.00     0.060 A 
BRANCH  80  81
ATOM     81  S   UNL A   1      39.141  37.186  40.216  1.00  0.00     0.124 S 
ATOM     82  O   UNL A   1      38.448  38.211  39.441  1.00  0.00    -0.237 OA
ATOM     83  O   UNL A   1      38.287  36.306  41.008  1.00  0.00    -0.237 OA
ATOM     84  O   UNL A   1      40.370  37.619  40.871  1.00  0.00    -0.744 OA
ENDBRANCH  80  81
ENDBRANCH  59  73
BRANCH  60  85
ATOM     85  C   UNL A   1      43.909  28.482  29.492  1.00  0.00     0.058 A 
ATOM     86  C   UNL A   1      44.543  29.022  28.364  1.00  0.00     0.135 A 
ATOM     87  C   UNL A   1      43.762  27.086  29.550  1.00  0.00     0.135 A 
ATOM     88  F   UNL A   1      44.693  30.351  28.251  1.00  0.00    -0.206 F 
ATOM     89  C   UNL A   1      45.015  28.214  27.333  1.00  0.00     0.059 A 
ATOM     90  C   UNL A   1      44.249  26.255  28.547  1.00  0.00     0.059 A 
ATOM     91  F   UNL A   1      43.165  26.518  30.610  1.00  0.00    -0.206 F 
ATOM     92  C   UNL A   1      44.872  26.829  27.439  1.00  0.00     0.060 A 
BRANCH  92  93
ATOM     93  S   UNL A   1      45.556  25.787  26.133  1.00  0.00     0.124 S 
ATOM     94  O   UNL A   1      44.450  24.875  25.871  1.00  0.00    -0.237 OA
ATOM     95  O   UNL A   1      45.842  26.764  25.086  1.00  0.00    -0.237 OA
ATOM     96  O   UNL A   1      46.732  25.190  26.761  1.00  0.00    -0.744 OA
ENDBRANCH  92  93
ENDBRANCH  60  85
BRANCH  72  97
ATOM     97  C   UNL A   1      46.656  30.506  35.585  1.00  0.00     0.058 A 
ATOM     98  C   UNL A   1      46.814  29.382  36.412  1.00  0.00     0.135 A 
ATOM     99  C   UNL A   1      47.777  31.329  35.381  1.00  0.00     0.135 A 
ATOM    100  F   UNL A   1      45.776  28.563  36.645  1.00  0.00    -0.206 F 
ATOM    101  C   UNL A   1      48.024  29.106  37.041  1.00  0.00     0.059 A 
ATOM    102  C   UNL A   1      49.005  31.052  35.973  1.00  0.00     0.059 A 
ATOM    103  F   UNL A   1      47.688  32.409  34.588  1.00  0.00    -0.206 F 
ATOM    104  C   UNL A   1      49.114  29.948  36.816  1.00  0.00     0.060 A 
BRANCH 104 105
ATOM    105  S   UNL A   1      50.680  29.573  37.632  1.00  0.00     0.124 S 
ATOM    106  O   UNL A   1      51.530  30.657  37.151  1.00  0.00    -0.237 OA
ATOM    107  O   UNL A   1      50.318  29.631  39.045  1.00  0.00    -0.237 OA
ATOM    108  O   UNL A   1      51.016  28.244  37.132  1.00  0.00    -0.744 OA
ENDBRANCH 104 105
ENDBRANCH  72  97
ENDBRANCH  46  47
ENDBRANCH  39  41
ENDBRANCH  38  39
ENDBRANCH  37  38
ENDBRANCH  36  37
ENDBRANCH  35  36
ENDBRANCH  34  35
ENDBRANCH   1  34
TORSDOF 27
ENDMDL
