MODEL 1
REMARK VINA RESULT:      -8.9      0.000      0.000
REMARK SMILES C[C@H](NC(=O)c1ccc(C(C)(C)C)cc1)C(=O)N[C@@H](C(=O)OCCOCCOCCOCCOC(=O)c1ccc(-c2c3nc(c(-c4c(F)cc(S(=O)(=O)[O-])cc4F)c4ccc([nH]4)c(-c4c(F)cc(S(=O)(=O)[O-])cc4F)c4nc(c(-c5c(F)cc(S(=O)(=O)[O-])cc5F)c5ccc2[nH]5)C=C4)C=C3)cc1)[C@H](C)O
REMARK SMILES IDX 27 1 26 2 25 3 24 4 23 5 22 6 20 7 21 8 19 9 18 10 16 11
REMARK SMILES IDX 17 12 2 14 1 15 3 16 4 17 5 19 6 20 7 21 15 22 8 23 14 24
REMARK SMILES IDX 9 25 10 26 11 27 12 28 13 29 103 30 104 31 105 32 28 34
REMARK SMILES IDX 29 35 30 36 31 37 32 38 33 39 34 40 35 41 36 42 37 43 38 44
REMARK SMILES IDX 102 45 39 46 101 47 40 48 41 49 42 50 95 51 43 52 100 53
REMARK SMILES IDX 94 54 96 55 44 56 99 57 93 58 92 59 45 61 79 62 58 63 78 64
REMARK SMILES IDX 59 65 62 66 77 67 97 68 60 69 61 70 76 72 98 73 63 74 46 75
REMARK SMILES IDX 47 76 56 77 48 78 49 79 55 80 57 81 50 82 51 83 52 84 53 85
REMARK SMILES IDX 54 86 80 87 81 88 90 89 82 90 83 91 89 92 91 93 84 94 85 95
REMARK SMILES IDX 86 96 87 97 88 98 64 99 65 100 74 101 66 102 67 103 73 104
REMARK SMILES IDX 75 105 68 106 69 107 70 108 71 109 72 110
REMARK H PARENT 18 13 3 18 105 33 96 60 62 71
REMARK Flexibility Score: inf
ROOT
ATOM      1  C   UNL A   1      45.127  24.148  28.449  1.00  0.00     0.188 C 
ENDROOT
BRANCH   1   2
ATOM      2  C   UNL A   1      44.338  22.987  29.060  1.00  0.00     0.188 C 
BRANCH   2   3
ATOM      3  O   UNL A   1      43.476  22.193  28.272  1.00  0.00    -0.376 OA
BRANCH   3   4
ATOM      4  C   UNL A   1      42.163  22.622  27.932  1.00  0.00     0.202 C 
BRANCH   4   5
ATOM      5  C   UNL A   1      40.904  21.738  28.029  1.00  0.00     0.261 C 
BRANCH   5   6
ATOM      6  O   UNL A   1      39.686  22.298  27.520  1.00  0.00    -0.462 OA
BRANCH   6   7
ATOM      7  C   UNL A   1      39.229  21.771  26.358  1.00  0.00     0.331 C 
ATOM      8  O   UNL A   1      39.672  20.744  25.852  1.00  0.00    -0.250 OA
BRANCH   7   9
ATOM      9  C   UNL A   1      38.062  22.582  25.749  1.00  0.00     0.221 C 
BRANCH   9  10
ATOM     10  N   UNL A   1      37.789  22.425  24.294  1.00  0.00    -0.339 N 
ATOM     11  C   UNL A   1      36.636  22.601  23.584  1.00  0.00     0.243 C 
ATOM     12  O   UNL A   1      36.704  22.732  22.363  1.00  0.00    -0.273 OA
ATOM     13  H   UNL A   1      38.567  22.151  23.756  1.00  0.00     0.164 HD
BRANCH  11  14
ATOM     14  C   UNL A   1      35.312  22.677  24.341  1.00  0.00     0.168 C 
ATOM     15  C   UNL A   1      35.143  21.384  25.143  1.00  0.00     0.041 C 
BRANCH  14  16
ATOM     16  N   UNL A   1      34.360  23.026  23.269  1.00  0.00    -0.341 N 
ATOM     17  C   UNL A   1      33.558  24.094  23.010  1.00  0.00     0.251 C 
ATOM     18  H   UNL A   1      34.289  22.325  22.583  1.00  0.00     0.164 HD
ATOM     19  O   UNL A   1      32.733  24.032  22.105  1.00  0.00    -0.269 OA
BRANCH  17  20
ATOM     20  C   UNL A   1      33.608  25.262  23.889  1.00  0.00     0.039 A 
ATOM     21  C   UNL A   1      33.211  26.491  23.370  1.00  0.00     0.014 A 
ATOM     22  C   UNL A   1      33.967  25.131  25.226  1.00  0.00     0.014 A 
ATOM     23  C   UNL A   1      33.086  27.580  24.228  1.00  0.00     0.005 A 
ATOM     24  C   UNL A   1      33.815  26.217  26.083  1.00  0.00     0.005 A 
ATOM     25  C   UNL A   1      33.343  27.456  25.609  1.00  0.00    -0.043 A 
BRANCH  25  26
ATOM     26  C   UNL A   1      33.144  28.659  26.539  1.00  0.00    -0.013 C 
ATOM     27  C   UNL A   1      33.039  29.926  25.672  1.00  0.00     0.016 C 
ATOM     28  C   UNL A   1      31.853  28.490  27.373  1.00  0.00     0.016 C 
ATOM     29  C   UNL A   1      34.300  28.858  27.545  1.00  0.00     0.016 C 
ENDBRANCH  25  26
ENDBRANCH  17  20
ENDBRANCH  14  16
ENDBRANCH  11  14
ENDBRANCH   9  10
BRANCH   9  30
ATOM     30  C   UNL A   1      38.014  24.088  26.201  1.00  0.00     0.145 C 
ATOM     31  C   UNL A   1      39.314  24.899  26.160  1.00  0.00     0.041 C 
BRANCH  30  32
ATOM     32  O   UNL A   1      37.396  24.341  27.463  1.00  0.00    -0.391 OA
ATOM     33  H   UNL A   1      37.366  23.520  27.978  1.00  0.00     0.211 HD
ENDBRANCH  30  32
ENDBRANCH   9  30
ENDBRANCH   7   9
ENDBRANCH   6   7
ENDBRANCH   5   6
ENDBRANCH   4   5
ENDBRANCH   3   4
ENDBRANCH   2   3
ENDBRANCH   1   2
BRANCH   1  34
ATOM     34  O   UNL A   1      45.910  23.838  27.320  1.00  0.00    -0.377 OA
BRANCH  34  35
ATOM     35  C   UNL A   1      45.583  22.655  26.598  1.00  0.00     0.188 C 
BRANCH  35  36
ATOM     36  C   UNL A   1      45.454  22.722  25.060  1.00  0.00     0.188 C 
BRANCH  36  37
ATOM     37  O   UNL A   1      44.121  22.824  24.578  1.00  0.00    -0.376 OA
BRANCH  37  38
ATOM     38  C   UNL A   1      43.235  23.771  25.157  1.00  0.00     0.202 C 
BRANCH  38  39
ATOM     39  C   UNL A   1      43.309  25.237  24.700  1.00  0.00     0.261 C 
BRANCH  39  40
ATOM     40  O   UNL A   1      43.668  26.209  25.689  1.00  0.00    -0.460 OA
BRANCH  40  41
ATOM     41  C   UNL A   1      43.012  27.387  25.701  1.00  0.00     0.338 C 
ATOM     42  O   UNL A   1      42.445  27.924  24.764  1.00  0.00    -0.246 OA
BRANCH  41  43
ATOM     43  C   UNL A   1      42.918  27.821  27.109  1.00  0.00     0.060 A 
ATOM     44  C   UNL A   1      42.451  26.920  28.078  1.00  0.00     0.016 A 
ATOM     45  C   UNL A   1      43.303  29.114  27.467  1.00  0.00     0.016 A 
ATOM     46  C   UNL A   1      42.324  27.328  29.406  1.00  0.00     0.010 A 
ATOM     47  C   UNL A   1      43.149  29.529  28.789  1.00  0.00     0.010 A 
ATOM     48  C   UNL A   1      42.619  28.651  29.753  1.00  0.00    -0.014 A 
BRANCH  48  49
ATOM     49  C   UNL A   1      42.138  29.218  31.034  1.00  0.00     0.031 A 
ATOM     50  C   UNL A   1      40.862  30.016  30.998  1.00  0.00     0.074 A 
ATOM     51  C   UNL A   1      42.824  29.071  32.179  1.00  0.00     0.049 A 
ATOM     52  N   UNL A   1      40.327  30.771  31.918  1.00  0.00    -0.248 NA
ATOM     53  C   UNL A   1      40.097  29.963  29.739  1.00  0.00     0.031 C 
ATOM     54  C   UNL A   1      44.034  28.271  32.347  1.00  0.00     0.029 A 
ATOM     55  N   UNL A   1      42.607  29.623  33.418  1.00  0.00    -0.354 N 
ATOM     56  C   UNL A   1      39.179  31.304  31.343  1.00  0.00     0.074 A 
ATOM     57  C   UNL A   1      39.104  30.802  29.990  1.00  0.00     0.031 C 
ATOM     58  C   UNL A   1      44.473  28.409  33.612  1.00  0.00     0.029 A 
ATOM     59  C   UNL A   1      43.603  29.345  34.324  1.00  0.00     0.049 A 
ATOM     60  H   UNL A   1      41.815  30.166  33.636  1.00  0.00     0.167 HD
ATOM     61  C   UNL A   1      38.271  32.139  31.897  1.00  0.00     0.037 A 
ATOM     62  C   UNL A   1      43.806  29.828  35.567  1.00  0.00     0.037 A 
ATOM     63  C   UNL A   1      38.362  32.632  33.244  1.00  0.00     0.049 A 
ATOM     64  C   UNL A   1      42.825  30.823  36.139  1.00  0.00     0.074 A 
ATOM     65  C   UNL A   1      37.494  33.478  33.910  1.00  0.00     0.029 A 
ATOM     66  N   UNL A   1      39.387  32.329  34.129  1.00  0.00    -0.354 N 
ATOM     67  N   UNL A   1      41.742  31.324  35.592  1.00  0.00    -0.248 NA
ATOM     68  C   UNL A   1      43.092  31.322  37.497  1.00  0.00     0.031 C 
ATOM     69  C   UNL A   1      38.023  33.734  35.177  1.00  0.00     0.029 A 
ATOM     70  C   UNL A   1      39.184  32.989  35.328  1.00  0.00     0.049 A 
ATOM     71  H   UNL A   1      40.146  31.734  33.932  1.00  0.00     0.167 HD
ATOM     72  C   UNL A   1      41.176  32.157  36.553  1.00  0.00     0.074 A 
ATOM     73  C   UNL A   1      42.041  32.101  37.713  1.00  0.00     0.031 C 
ATOM     74  C   UNL A   1      40.038  32.891  36.486  1.00  0.00     0.037 A 
BRANCH  61  75
ATOM     75  C   UNL A   1      37.129  32.602  31.035  1.00  0.00     0.058 A 
ATOM     76  C   UNL A   1      35.877  31.968  31.057  1.00  0.00     0.135 A 
ATOM     77  C   UNL A   1      37.284  33.716  30.194  1.00  0.00     0.135 A 
ATOM     78  F   UNL A   1      35.680  30.884  31.825  1.00  0.00    -0.206 F 
ATOM     79  C   UNL A   1      34.826  32.407  30.257  1.00  0.00     0.059 A 
ATOM     80  C   UNL A   1      36.238  34.192  29.410  1.00  0.00     0.059 A 
ATOM     81  F   UNL A   1      38.462  34.356  30.128  1.00  0.00    -0.206 F 
ATOM     82  C   UNL A   1      35.016  33.521  29.440  1.00  0.00     0.060 A 
BRANCH  82  83
ATOM     83  S   UNL A   1      33.640  34.083  28.416  1.00  0.00     0.124 S 
ATOM     84  O   UNL A   1      34.315  34.990  27.492  1.00  0.00    -0.237 OA
ATOM     85  O   UNL A   1      33.156  32.835  27.835  1.00  0.00    -0.237 OA
ATOM     86  O   UNL A   1      32.740  34.719  29.372  1.00  0.00    -0.744 OA
ENDBRANCH  82  83
ENDBRANCH  61  75
BRANCH  62  87
ATOM     87  C   UNL A   1      44.998  29.397  36.349  1.00  0.00     0.058 A 
ATOM     88  C   UNL A   1      46.223  30.071  36.232  1.00  0.00     0.135 A 
ATOM     89  C   UNL A   1      44.940  28.301  37.224  1.00  0.00     0.135 A 
ATOM     90  F   UNL A   1      46.335  31.116  35.398  1.00  0.00    -0.206 F 
ATOM     91  C   UNL A   1      47.349  29.666  36.939  1.00  0.00     0.059 A 
ATOM     92  C   UNL A   1      46.045  27.896  37.966  1.00  0.00     0.059 A 
ATOM     93  F   UNL A   1      43.791  27.624  37.380  1.00  0.00    -0.206 F 
ATOM     94  C   UNL A   1      47.250  28.578  37.808  1.00  0.00     0.060 A 
BRANCH  94  95
ATOM     95  S   UNL A   1      48.711  28.086  38.749  1.00  0.00     0.124 S 
ATOM     96  O   UNL A   1      48.120  27.682  40.020  1.00  0.00    -0.237 OA
ATOM     97  O   UNL A   1      49.254  27.010  37.927  1.00  0.00    -0.237 OA
ATOM     98  O   UNL A   1      49.513  29.305  38.787  1.00  0.00    -0.744 OA
ENDBRANCH  94  95
ENDBRANCH  62  87
BRANCH  74  99
ATOM     99  C   UNL A   1      39.598  33.638  37.716  1.00  0.00     0.058 A 
ATOM    100  C   UNL A   1      38.687  33.096  38.634  1.00  0.00     0.135 A 
ATOM    101  C   UNL A   1      40.201  34.867  38.037  1.00  0.00     0.135 A 
ATOM    102  F   UNL A   1      38.078  31.929  38.373  1.00  0.00    -0.206 F 
ATOM    103  C   UNL A   1      38.387  33.746  39.828  1.00  0.00     0.059 A 
ATOM    104  C   UNL A   1      39.940  35.519  39.237  1.00  0.00     0.059 A 
ATOM    105  F   UNL A   1      41.089  35.423  37.198  1.00  0.00    -0.206 F 
ATOM    106  C   UNL A   1      39.030  34.950  40.127  1.00  0.00     0.060 A 
BRANCH 106 107
ATOM    107  S   UNL A   1      38.698  35.737  41.718  1.00  0.00     0.124 S 
ATOM    108  O   UNL A   1      38.720  37.151  41.358  1.00  0.00    -0.237 OA
ATOM    109  O   UNL A   1      37.391  35.192  42.067  1.00  0.00    -0.237 OA
ATOM    110  O   UNL A   1      39.804  35.287  42.559  1.00  0.00    -0.744 OA
ENDBRANCH 106 107
ENDBRANCH  74  99
ENDBRANCH  48  49
ENDBRANCH  41  43
ENDBRANCH  40  41
ENDBRANCH  39  40
ENDBRANCH  38  39
ENDBRANCH  37  38
ENDBRANCH  36  37
ENDBRANCH  35  36
ENDBRANCH  34  35
ENDBRANCH   1  34
TORSDOF 30
ENDMDL
MODEL 2
REMARK VINA RESULT:      -8.0      1.944      3.681
REMARK SMILES C[C@H](NC(=O)c1ccc(C(C)(C)C)cc1)C(=O)N[C@@H](C(=O)OCCOCCOCCOCCOC(=O)c1ccc(-c2c3nc(c(-c4c(F)cc(S(=O)(=O)[O-])cc4F)c4ccc([nH]4)c(-c4c(F)cc(S(=O)(=O)[O-])cc4F)c4nc(c(-c5c(F)cc(S(=O)(=O)[O-])cc5F)c5ccc2[nH]5)C=C4)C=C3)cc1)[C@H](C)O
REMARK SMILES IDX 27 1 26 2 25 3 24 4 23 5 22 6 20 7 21 8 19 9 18 10 16 11
REMARK SMILES IDX 17 12 2 14 1 15 3 16 4 17 5 19 6 20 7 21 15 22 8 23 14 24
REMARK SMILES IDX 9 25 10 26 11 27 12 28 13 29 103 30 104 31 105 32 28 34
REMARK SMILES IDX 29 35 30 36 31 37 32 38 33 39 34 40 35 41 36 42 37 43 38 44
REMARK SMILES IDX 102 45 39 46 101 47 40 48 41 49 42 50 95 51 43 52 100 53
REMARK SMILES IDX 94 54 96 55 44 56 99 57 93 58 92 59 45 61 79 62 58 63 78 64
REMARK SMILES IDX 59 65 62 66 77 67 97 68 60 69 61 70 76 72 98 73 63 74 46 75
REMARK SMILES IDX 47 76 56 77 48 78 49 79 55 80 57 81 50 82 51 83 52 84 53 85
REMARK SMILES IDX 54 86 80 87 81 88 90 89 82 90 83 91 89 92 91 93 84 94 85 95
REMARK SMILES IDX 86 96 87 97 88 98 64 99 65 100 74 101 66 102 67 103 73 104
REMARK SMILES IDX 75 105 68 106 69 107 70 108 71 109 72 110
REMARK H PARENT 18 13 3 18 105 33 96 60 62 71
REMARK Flexibility Score: inf
ROOT
ATOM      1  C   UNL A   1      44.785  23.662  28.535  1.00  0.00     0.188 C 
ENDROOT
BRANCH   1   2
ATOM      2  C   UNL A   1      43.296  23.671  28.893  1.00  0.00     0.188 C 
BRANCH   2   3
ATOM      3  O   UNL A   1      42.376  24.467  28.176  1.00  0.00    -0.376 OA
BRANCH   3   4
ATOM      4  C   UNL A   1      41.081  23.991  27.831  1.00  0.00     0.202 C 
BRANCH   4   5
ATOM      5  C   UNL A   1      40.315  24.394  26.555  1.00  0.00     0.261 C 
BRANCH   5   6
ATOM      6  O   UNL A   1      38.894  24.201  26.574  1.00  0.00    -0.462 OA
BRANCH   6   7
ATOM      7  C   UNL A   1      38.455  22.972  26.208  1.00  0.00     0.331 C 
ATOM      8  O   UNL A   1      39.140  21.956  26.267  1.00  0.00    -0.250 OA
BRANCH   7   9
ATOM      9  C   UNL A   1      36.982  22.976  25.739  1.00  0.00     0.221 C 
BRANCH   9  10
ATOM     10  N   UNL A   1      35.921  23.092  26.777  1.00  0.00    -0.339 N 
ATOM     11  C   UNL A   1      34.587  23.356  26.655  1.00  0.00     0.243 C 
ATOM     12  O   UNL A   1      33.840  23.090  27.596  1.00  0.00    -0.273 OA
ATOM     13  H   UNL A   1      36.232  22.955  27.701  1.00  0.00     0.164 HD
BRANCH  11  14
ATOM     14  C   UNL A   1      34.068  23.925  25.337  1.00  0.00     0.168 C 
ATOM     15  C   UNL A   1      34.836  25.214  25.036  1.00  0.00     0.041 C 
BRANCH  14  16
ATOM     16  N   UNL A   1      32.610  23.955  25.563  1.00  0.00    -0.341 N 
ATOM     17  C   UNL A   1      31.604  23.046  25.454  1.00  0.00     0.251 C 
ATOM     18  H   UNL A   1      32.291  24.837  25.860  1.00  0.00     0.164 HD
ATOM     19  O   UNL A   1      30.438  23.411  25.554  1.00  0.00    -0.269 OA
BRANCH  17  20
ATOM     20  C   UNL A   1      31.920  21.662  25.103  1.00  0.00     0.039 A 
ATOM     21  C   UNL A   1      32.161  21.361  23.765  1.00  0.00     0.014 A 
ATOM     22  C   UNL A   1      32.053  20.691  26.090  1.00  0.00     0.014 A 
ATOM     23  C   UNL A   1      32.629  20.095  23.429  1.00  0.00     0.005 A 
ATOM     24  C   UNL A   1      32.547  19.434  25.750  1.00  0.00     0.005 A 
ATOM     25  C   UNL A   1      32.874  19.119  24.418  1.00  0.00    -0.043 A 
BRANCH  25  26
ATOM     26  C   UNL A   1      33.442  17.750  24.022  1.00  0.00    -0.013 C 
ATOM     27  C   UNL A   1      33.047  17.468  22.562  1.00  0.00     0.016 C 
ATOM     28  C   UNL A   1      34.983  17.747  24.156  1.00  0.00     0.016 C 
ATOM     29  C   UNL A   1      32.917  16.590  24.897  1.00  0.00     0.016 C 
ENDBRANCH  25  26
ENDBRANCH  17  20
ENDBRANCH  14  16
ENDBRANCH  11  14
ENDBRANCH   9  10
BRANCH   9  30
ATOM     30  C   UNL A   1      36.640  21.881  24.662  1.00  0.00     0.145 C 
ATOM     31  C   UNL A   1      36.020  20.563  25.141  1.00  0.00     0.041 C 
BRANCH  30  32
ATOM     32  O   UNL A   1      37.690  21.550  23.754  1.00  0.00    -0.391 OA
ATOM     33  H   UNL A   1      38.541  21.585  24.218  1.00  0.00     0.211 HD
ENDBRANCH  30  32
ENDBRANCH   9  30
ENDBRANCH   7   9
ENDBRANCH   6   7
ENDBRANCH   5   6
ENDBRANCH   4   5
ENDBRANCH   3   4
ENDBRANCH   2   3
ENDBRANCH   1   2
BRANCH   1  34
ATOM     34  O   UNL A   1      45.180  22.738  27.549  1.00  0.00    -0.377 OA
BRANCH  34  35
ATOM     35  C   UNL A   1      44.853  23.040  26.197  1.00  0.00     0.188 C 
BRANCH  35  36
ATOM     36  C   UNL A   1      45.922  23.688  25.290  1.00  0.00     0.188 C 
BRANCH  36  37
ATOM     37  O   UNL A   1      45.505  24.877  24.633  1.00  0.00    -0.376 OA
BRANCH  37  38
ATOM     38  C   UNL A   1      45.278  26.056  25.393  1.00  0.00     0.202 C 
BRANCH  38  39
ATOM     39  C   UNL A   1      46.300  27.202  25.313  1.00  0.00     0.261 C 
BRANCH  39  40
ATOM     40  O   UNL A   1      46.420  28.045  26.465  1.00  0.00    -0.460 OA
BRANCH  40  41
ATOM     41  C   UNL A   1      46.144  29.359  26.331  1.00  0.00     0.338 C 
ATOM     42  O   UNL A   1      46.481  30.093  25.417  1.00  0.00    -0.246 OA
BRANCH  41  43
ATOM     43  C   UNL A   1      45.176  29.712  27.389  1.00  0.00     0.060 A 
ATOM     44  C   UNL A   1      45.192  31.004  27.933  1.00  0.00     0.016 A 
ATOM     45  C   UNL A   1      44.250  28.765  27.830  1.00  0.00     0.016 A 
ATOM     46  C   UNL A   1      44.307  31.340  28.959  1.00  0.00     0.010 A 
ATOM     47  C   UNL A   1      43.386  29.093  28.873  1.00  0.00     0.010 A 
ATOM     48  C   UNL A   1      43.441  30.367  29.469  1.00  0.00    -0.014 A 
BRANCH  48  49
ATOM     49  C   UNL A   1      42.781  30.561  30.780  1.00  0.00     0.031 A 
ATOM     50  C   UNL A   1      41.363  31.064  30.771  1.00  0.00     0.074 A 
ATOM     51  C   UNL A   1      43.424  30.343  31.940  1.00  0.00     0.049 A 
ATOM     52  N   UNL A   1      40.627  31.498  31.757  1.00  0.00    -0.248 NA
ATOM     53  C   UNL A   1      40.693  31.097  29.458  1.00  0.00     0.031 C 
ATOM     54  C   UNL A   1      44.773  29.798  32.073  1.00  0.00     0.029 A 
ATOM     55  N   UNL A   1      43.027  30.586  33.231  1.00  0.00    -0.354 N 
ATOM     56  C   UNL A   1      39.419  31.878  31.184  1.00  0.00     0.074 A 
ATOM     57  C   UNL A   1      39.526  31.643  29.762  1.00  0.00     0.031 C 
ATOM     58  C   UNL A   1      45.106  29.778  33.376  1.00  0.00     0.029 A 
ATOM     59  C   UNL A   1      44.014  30.354  34.161  1.00  0.00     0.049 A 
ATOM     60  H   UNL A   1      42.124  30.898  33.469  1.00  0.00     0.167 HD
ATOM     61  C   UNL A   1      38.320  32.379  31.792  1.00  0.00     0.037 A 
ATOM     62  C   UNL A   1      44.041  30.619  35.483  1.00  0.00     0.037 A 
ATOM     63  C   UNL A   1      38.231  32.610  33.209  1.00  0.00     0.049 A 
ATOM     64  C   UNL A   1      42.835  31.256  36.131  1.00  0.00     0.074 A 
ATOM     65  C   UNL A   1      37.164  33.110  33.931  1.00  0.00     0.029 A 
ATOM     66  N   UNL A   1      39.252  32.365  34.115  1.00  0.00    -0.354 N 
ATOM     67  N   UNL A   1      41.696  31.614  35.585  1.00  0.00    -0.248 NA
ATOM     68  C   UNL A   1      42.914  31.527  37.575  1.00  0.00     0.031 C 
ATOM     69  C   UNL A   1      37.558  33.221  35.267  1.00  0.00     0.029 A 
ATOM     70  C   UNL A   1      38.846  32.722  35.389  1.00  0.00     0.049 A 
ATOM     71  H   UNL A   1      40.134  31.992  33.886  1.00  0.00     0.167 HD
ATOM     72  C   UNL A   1      40.910  32.107  36.623  1.00  0.00     0.074 A 
ATOM     73  C   UNL A   1      41.706  32.011  37.829  1.00  0.00     0.031 C 
ATOM     74  C   UNL A   1      39.642  32.584  36.584  1.00  0.00     0.037 A 
BRANCH  61  75
ATOM     75  C   UNL A   1      37.148  32.750  30.926  1.00  0.00     0.058 A 
ATOM     76  C   UNL A   1      37.127  33.934  30.172  1.00  0.00     0.135 A 
ATOM     77  C   UNL A   1      36.040  31.892  30.830  1.00  0.00     0.135 A 
ATOM     78  F   UNL A   1      38.148  34.802  30.244  1.00  0.00    -0.206 F 
ATOM     79  C   UNL A   1      36.037  34.265  29.372  1.00  0.00     0.059 A 
ATOM     80  C   UNL A   1      34.955  32.187  30.012  1.00  0.00     0.059 A 
ATOM     81  F   UNL A   1      36.005  30.751  31.536  1.00  0.00    -0.206 F 
ATOM     82  C   UNL A   1      34.958  33.384  29.296  1.00  0.00     0.060 A 
BRANCH  82  83
ATOM     83  S   UNL A   1      33.558  33.825  28.247  1.00  0.00     0.124 S 
ATOM     84  O   UNL A   1      33.112  32.512  27.788  1.00  0.00    -0.237 OA
ATOM     85  O   UNL A   1      32.668  34.502  29.185  1.00  0.00    -0.237 OA
ATOM     86  O   UNL A   1      34.153  34.677  27.223  1.00  0.00    -0.744 OA
ENDBRANCH  82  83
ENDBRANCH  61  75
BRANCH  62  87
ATOM     87  C   UNL A   1      45.258  30.306  36.282  1.00  0.00     0.058 A 
ATOM     88  C   UNL A   1      45.543  28.992  36.682  1.00  0.00     0.135 A 
ATOM     89  C   UNL A   1      46.158  31.313  36.667  1.00  0.00     0.135 A 
ATOM     90  F   UNL A   1      44.708  27.996  36.352  1.00  0.00    -0.206 F 
ATOM     91  C   UNL A   1      46.665  28.688  37.446  1.00  0.00     0.059 A 
ATOM     92  C   UNL A   1      47.303  31.030  37.406  1.00  0.00     0.059 A 
ATOM     93  F   UNL A   1      45.938  32.587  36.306  1.00  0.00    -0.206 F 
ATOM     94  C   UNL A   1      47.542  29.715  37.802  1.00  0.00     0.060 A 
BRANCH  94  95
ATOM     95  S   UNL A   1      49.013  29.301  38.763  1.00  0.00     0.124 S 
ATOM     96  O   UNL A   1      48.793  27.887  39.044  1.00  0.00    -0.237 OA
ATOM     97  O   UNL A   1      50.087  29.605  37.822  1.00  0.00    -0.237 OA
ATOM     98  O   UNL A   1      48.925  30.193  39.914  1.00  0.00    -0.744 OA
ENDBRANCH  94  95
ENDBRANCH  62  87
BRANCH  74  99
ATOM     99  C   UNL A   1      38.985  32.969  37.882  1.00  0.00     0.058 A 
ATOM    100  C   UNL A   1      38.049  32.142  38.520  1.00  0.00     0.135 A 
ATOM    101  C   UNL A   1      39.399  34.133  38.553  1.00  0.00     0.135 A 
ATOM    102  F   UNL A   1      37.616  31.023  37.921  1.00  0.00    -0.206 F 
ATOM    103  C   UNL A   1      37.547  32.455  39.780  1.00  0.00     0.059 A 
ATOM    104  C   UNL A   1      38.933  34.449  39.824  1.00  0.00     0.059 A 
ATOM    105  F   UNL A   1      40.301  34.953  37.990  1.00  0.00    -0.206 F 
ATOM    106  C   UNL A   1      38.005  33.604  40.431  1.00  0.00     0.060 A 
BRANCH 106 107
ATOM    107  S   UNL A   1      37.411  33.951  42.099  1.00  0.00     0.124 S 
ATOM    108  O   UNL A   1      36.121  33.268  42.101  1.00  0.00    -0.237 OA
ATOM    109  O   UNL A   1      38.449  33.348  42.930  1.00  0.00    -0.237 OA
ATOM    110  O   UNL A   1      37.349  35.409  42.145  1.00  0.00    -0.744 OA
ENDBRANCH 106 107
ENDBRANCH  74  99
ENDBRANCH  48  49
ENDBRANCH  41  43
ENDBRANCH  40  41
ENDBRANCH  39  40
ENDBRANCH  38  39
ENDBRANCH  37  38
ENDBRANCH  36  37
ENDBRANCH  35  36
ENDBRANCH  34  35
ENDBRANCH   1  34
TORSDOF 30
ENDMDL
MODEL 3
REMARK VINA RESULT:      -8.0      4.956      6.410
REMARK SMILES C[C@H](NC(=O)c1ccc(C(C)(C)C)cc1)C(=O)N[C@@H](C(=O)OCCOCCOCCOCCOC(=O)c1ccc(-c2c3nc(c(-c4c(F)cc(S(=O)(=O)[O-])cc4F)c4ccc([nH]4)c(-c4c(F)cc(S(=O)(=O)[O-])cc4F)c4nc(c(-c5c(F)cc(S(=O)(=O)[O-])cc5F)c5ccc2[nH]5)C=C4)C=C3)cc1)[C@H](C)O
REMARK SMILES IDX 27 1 26 2 25 3 24 4 23 5 22 6 20 7 21 8 19 9 18 10 16 11
REMARK SMILES IDX 17 12 2 14 1 15 3 16 4 17 5 19 6 20 7 21 15 22 8 23 14 24
REMARK SMILES IDX 9 25 10 26 11 27 12 28 13 29 103 30 104 31 105 32 28 34
REMARK SMILES IDX 29 35 30 36 31 37 32 38 33 39 34 40 35 41 36 42 37 43 38 44
REMARK SMILES IDX 102 45 39 46 101 47 40 48 41 49 42 50 95 51 43 52 100 53
REMARK SMILES IDX 94 54 96 55 44 56 99 57 93 58 92 59 45 61 79 62 58 63 78 64
REMARK SMILES IDX 59 65 62 66 77 67 97 68 60 69 61 70 76 72 98 73 63 74 46 75
REMARK SMILES IDX 47 76 56 77 48 78 49 79 55 80 57 81 50 82 51 83 52 84 53 85
REMARK SMILES IDX 54 86 80 87 81 88 90 89 82 90 83 91 89 92 91 93 84 94 85 95
REMARK SMILES IDX 86 96 87 97 88 98 64 99 65 100 74 101 66 102 67 103 73 104
REMARK SMILES IDX 75 105 68 106 69 107 70 108 71 109 72 110
REMARK H PARENT 18 13 3 18 105 33 96 60 62 71
REMARK Flexibility Score: inf
ROOT
ATOM      1  C   UNL A   1      44.447  23.913  28.540  1.00  0.00     0.188 C 
ENDROOT
BRANCH   1   2
ATOM      2  C   UNL A   1      43.028  24.254  29.005  1.00  0.00     0.188 C 
BRANCH   2   3
ATOM      3  O   UNL A   1      42.199  25.115  28.253  1.00  0.00    -0.376 OA
BRANCH   3   4
ATOM      4  C   UNL A   1      40.825  24.825  28.028  1.00  0.00     0.202 C 
BRANCH   4   5
ATOM      5  C   UNL A   1      40.098  25.039  26.686  1.00  0.00     0.261 C 
BRANCH   5   6
ATOM      6  O   UNL A   1      38.749  24.559  26.605  1.00  0.00    -0.462 OA
BRANCH   6   7
ATOM      7  C   UNL A   1      38.595  23.286  26.162  1.00  0.00     0.331 C 
ATOM      8  O   UNL A   1      39.499  22.458  26.137  1.00  0.00    -0.250 OA
BRANCH   7   9
ATOM      9  C   UNL A   1      37.146  22.976  25.722  1.00  0.00     0.221 C 
BRANCH   9  10
ATOM     10  N   UNL A   1      36.096  23.989  26.017  1.00  0.00    -0.339 N 
ATOM     11  C   UNL A   1      34.825  24.116  25.533  1.00  0.00     0.243 C 
ATOM     12  O   UNL A   1      34.025  24.825  26.141  1.00  0.00    -0.273 OA
ATOM     13  H   UNL A   1      36.361  24.680  26.666  1.00  0.00     0.164 HD
BRANCH  11  14
ATOM     14  C   UNL A   1      34.434  23.332  24.282  1.00  0.00     0.168 C 
ATOM     15  C   UNL A   1      35.238  23.881  23.101  1.00  0.00     0.041 C 
BRANCH  14  16
ATOM     16  N   UNL A   1      32.962  23.432  24.300  1.00  0.00    -0.341 N 
ATOM     17  C   UNL A   1      31.940  22.534  24.294  1.00  0.00     0.251 C 
ATOM     18  H   UNL A   1      32.646  24.363  24.320  1.00  0.00     0.164 HD
ATOM     19  O   UNL A   1      30.787  22.923  24.144  1.00  0.00    -0.269 OA
BRANCH  17  20
ATOM     20  C   UNL A   1      32.239  21.103  24.350  1.00  0.00     0.039 A 
ATOM     21  C   UNL A   1      32.204  20.378  23.162  1.00  0.00     0.014 A 
ATOM     22  C   UNL A   1      32.624  20.503  25.544  1.00  0.00     0.014 A 
ATOM     23  C   UNL A   1      32.649  19.059  23.160  1.00  0.00     0.005 A 
ATOM     24  C   UNL A   1      33.093  19.192  25.530  1.00  0.00     0.005 A 
ATOM     25  C   UNL A   1      33.143  18.453  24.334  1.00  0.00    -0.043 A 
BRANCH  25  26
ATOM     26  C   UNL A   1      33.678  17.015  24.289  1.00  0.00    -0.013 C 
ATOM     27  C   UNL A   1      32.554  16.068  24.743  1.00  0.00     0.016 C 
ATOM     28  C   UNL A   1      34.121  16.649  22.853  1.00  0.00     0.016 C 
ATOM     29  C   UNL A   1      34.902  16.785  25.204  1.00  0.00     0.016 C 
ENDBRANCH  25  26
ENDBRANCH  17  20
ENDBRANCH  14  16
ENDBRANCH  11  14
ENDBRANCH   9  10
BRANCH   9  30
ATOM     30  C   UNL A   1      36.667  21.514  26.052  1.00  0.00     0.145 C 
ATOM     31  C   UNL A   1      36.432  20.548  24.885  1.00  0.00     0.041 C 
BRANCH  30  32
ATOM     32  O   UNL A   1      35.541  21.408  26.923  1.00  0.00    -0.391 OA
ATOM     33  H   UNL A   1      35.829  21.539  27.839  1.00  0.00     0.211 HD
ENDBRANCH  30  32
ENDBRANCH   9  30
ENDBRANCH   7   9
ENDBRANCH   6   7
ENDBRANCH   5   6
ENDBRANCH   4   5
ENDBRANCH   3   4
ENDBRANCH   2   3
ENDBRANCH   1   2
BRANCH   1  34
ATOM     34  O   UNL A   1      44.570  22.789  27.701  1.00  0.00    -0.377 OA
BRANCH  34  35
ATOM     35  C   UNL A   1      44.240  22.956  26.326  1.00  0.00     0.188 C 
BRANCH  35  36
ATOM     36  C   UNL A   1      45.357  22.847  25.265  1.00  0.00     0.188 C 
BRANCH  36  37
ATOM     37  O   UNL A   1      45.502  23.990  24.432  1.00  0.00    -0.376 OA
BRANCH  37  38
ATOM     38  C   UNL A   1      45.959  25.212  24.992  1.00  0.00     0.202 C 
BRANCH  38  39
ATOM     39  C   UNL A   1      47.403  25.663  24.719  1.00  0.00     0.261 C 
BRANCH  39  40
ATOM     40  O   UNL A   1      48.009  26.523  25.691  1.00  0.00    -0.460 OA
BRANCH  40  41
ATOM     41  C   UNL A   1      48.406  27.752  25.303  1.00  0.00     0.338 C 
ATOM     42  O   UNL A   1      49.089  28.034  24.333  1.00  0.00    -0.246 OA
BRANCH  41  43
ATOM     43  C   UNL A   1      47.691  28.730  26.148  1.00  0.00     0.060 A 
ATOM     44  C   UNL A   1      48.402  29.450  27.120  1.00  0.00     0.016 A 
ATOM     45  C   UNL A   1      46.323  28.937  25.968  1.00  0.00     0.016 A 
ATOM     46  C   UNL A   1      47.732  30.350  27.949  1.00  0.00     0.010 A 
ATOM     47  C   UNL A   1      45.650  29.816  26.815  1.00  0.00     0.010 A 
ATOM     48  C   UNL A   1      46.345  30.492  27.836  1.00  0.00    -0.014 A 
BRANCH  48  49
ATOM     49  C   UNL A   1      45.562  31.122  28.923  1.00  0.00     0.031 A 
ATOM     50  C   UNL A   1      45.404  32.618  28.882  1.00  0.00     0.074 A 
ATOM     51  C   UNL A   1      45.046  30.406  29.936  1.00  0.00     0.049 A 
ATOM     52  N   UNL A   1      44.942  33.432  29.792  1.00  0.00    -0.248 NA
ATOM     53  C   UNL A   1      45.847  33.285  27.644  1.00  0.00     0.031 C 
ATOM     54  C   UNL A   1      45.081  28.950  30.050  1.00  0.00     0.029 A 
ATOM     55  N   UNL A   1      44.412  30.820  31.081  1.00  0.00    -0.354 N 
ATOM     56  C   UNL A   1      45.062  34.706  29.249  1.00  0.00     0.074 A 
ATOM     57  C   UNL A   1      45.657  34.561  27.940  1.00  0.00     0.031 C 
ATOM     58  C   UNL A   1      44.522  28.593  31.220  1.00  0.00     0.029 A 
ATOM     59  C   UNL A   1      44.136  29.796  31.956  1.00  0.00     0.049 A 
ATOM     60  H   UNL A   1      44.179  31.760  31.260  1.00  0.00     0.167 HD
ATOM     61  C   UNL A   1      44.708  35.890  29.797  1.00  0.00     0.037 A 
ATOM     62  C   UNL A   1      43.668  29.837  33.221  1.00  0.00     0.037 A 
ATOM     63  C   UNL A   1      44.119  36.018  31.103  1.00  0.00     0.049 A 
ATOM     64  C   UNL A   1      43.354  31.175  33.847  1.00  0.00     0.074 A 
ATOM     65  C   UNL A   1      43.716  37.169  31.754  1.00  0.00     0.029 A 
ATOM     66  N   UNL A   1      43.858  34.958  31.959  1.00  0.00    -0.354 N 
ATOM     67  N   UNL A   1      43.470  32.376  33.331  1.00  0.00    -0.248 NA
ATOM     68  C   UNL A   1      42.848  31.166  35.228  1.00  0.00     0.031 C 
ATOM     69  C   UNL A   1      43.265  36.812  33.027  1.00  0.00     0.029 A 
ATOM     70  C   UNL A   1      43.318  35.430  33.142  1.00  0.00     0.049 A 
ATOM     71  H   UNL A   1      44.032  34.011  31.755  1.00  0.00     0.167 HD
ATOM     72  C   UNL A   1      43.008  33.258  34.304  1.00  0.00     0.074 A 
ATOM     73  C   UNL A   1      42.620  32.455  35.443  1.00  0.00     0.031 C 
ATOM     74  C   UNL A   1      42.903  34.610  34.253  1.00  0.00     0.037 A 
BRANCH  61  75
ATOM     75  C   UNL A   1      44.985  37.139  29.007  1.00  0.00     0.058 A 
ATOM     76  C   UNL A   1      46.218  37.807  29.080  1.00  0.00     0.135 A 
ATOM     77  C   UNL A   1      44.009  37.660  28.141  1.00  0.00     0.135 A 
ATOM     78  F   UNL A   1      47.178  37.366  29.908  1.00  0.00    -0.206 F 
ATOM     79  C   UNL A   1      46.464  38.960  28.342  1.00  0.00     0.059 A 
ATOM     80  C   UNL A   1      44.245  38.793  27.370  1.00  0.00     0.059 A 
ATOM     81  F   UNL A   1      42.809  37.066  28.039  1.00  0.00    -0.206 F 
ATOM     82  C   UNL A   1      45.472  39.443  27.488  1.00  0.00     0.060 A 
BRANCH  82  83
ATOM     83  S   UNL A   1      45.812  40.935  26.530  1.00  0.00     0.124 S 
ATOM     84  O   UNL A   1      45.142  41.955  27.332  1.00  0.00    -0.237 OA
ATOM     85  O   UNL A   1      47.270  40.983  26.537  1.00  0.00    -0.237 OA
ATOM     86  O   UNL A   1      45.201  40.656  25.235  1.00  0.00    -0.744 OA
ENDBRANCH  82  83
ENDBRANCH  61  75
BRANCH  62  87
ATOM     87  C   UNL A   1      43.486  28.575  33.990  1.00  0.00     0.058 A 
ATOM     88  C   UNL A   1      44.555  27.992  34.688  1.00  0.00     0.135 A 
ATOM     89  C   UNL A   1      42.245  27.922  34.039  1.00  0.00     0.135 A 
ATOM     90  F   UNL A   1      45.766  28.569  34.661  1.00  0.00    -0.206 F 
ATOM     91  C   UNL A   1      44.405  26.803  35.392  1.00  0.00     0.059 A 
ATOM     92  C   UNL A   1      42.062  26.746  34.761  1.00  0.00     0.059 A 
ATOM     93  F   UNL A   1      41.186  28.438  33.395  1.00  0.00    -0.206 F 
ATOM     94  C   UNL A   1      43.152  26.187  35.426  1.00  0.00     0.060 A 
BRANCH  94  95
ATOM     95  S   UNL A   1      42.963  24.663  36.375  1.00  0.00     0.124 S 
ATOM     96  O   UNL A   1      41.513  24.506  36.394  1.00  0.00    -0.237 OA
ATOM     97  O   UNL A   1      43.698  23.703  35.559  1.00  0.00    -0.237 OA
ATOM     98  O   UNL A   1      43.578  24.987  37.659  1.00  0.00    -0.744 OA
ENDBRANCH  94  95
ENDBRANCH  62  87
BRANCH  74  99
ATOM     99  C   UNL A   1      42.274  35.320  35.421  1.00  0.00     0.058 A 
ATOM    100  C   UNL A   1      40.885  35.387  35.595  1.00  0.00     0.135 A 
ATOM    101  C   UNL A   1      43.090  35.832  36.445  1.00  0.00     0.135 A 
ATOM    102  F   UNL A   1      40.061  34.917  34.646  1.00  0.00    -0.206 F 
ATOM    103  C   UNL A   1      40.324  35.937  36.745  1.00  0.00     0.059 A 
ATOM    104  C   UNL A   1      42.552  36.360  37.614  1.00  0.00     0.059 A 
ATOM    105  F   UNL A   1      44.427  35.783  36.333  1.00  0.00    -0.206 F 
ATOM    106  C   UNL A   1      41.167  36.408  37.755  1.00  0.00     0.060 A 
BRANCH 106 107
ATOM    107  S   UNL A   1      40.427  37.039  39.276  1.00  0.00     0.124 S 
ATOM    108  O   UNL A   1      40.325  35.826  40.080  1.00  0.00    -0.237 OA
ATOM    109  O   UNL A   1      41.417  38.014  39.722  1.00  0.00    -0.237 OA
ATOM    110  O   UNL A   1      39.157  37.605  38.829  1.00  0.00    -0.744 OA
ENDBRANCH 106 107
ENDBRANCH  74  99
ENDBRANCH  48  49
ENDBRANCH  41  43
ENDBRANCH  40  41
ENDBRANCH  39  40
ENDBRANCH  38  39
ENDBRANCH  37  38
ENDBRANCH  36  37
ENDBRANCH  35  36
ENDBRANCH  34  35
ENDBRANCH   1  34
TORSDOF 30
ENDMDL
