MODEL 1
REMARK VINA RESULT:      -9.1      0.000      0.000
REMARK SMILES O=C(Cc1cncnc1N1CCC2(CC1)OCCC[C@@H]2O)OCCOCCOCCOCCOC(=O)c1ccc(-c2c3nc(c(-c4c(F)cc(S(=O)(=O)[O-])cc4F)c4ccc([nH]4)c(-c4c(F)cc(S(=O)(=O)[O-])cc4F)c4nc(c(-c5c(F)cc(S(=O)(=O)[O-])cc5F)c5ccc2[nH]5)C=C4)C=C3)cc1
REMARK SMILES IDX 28 1 27 2 26 3 25 4 24 5 23 6 22 7 2 8 1 9 3 10 4 11 5 12
REMARK SMILES IDX 9 13 6 14 8 15 7 16 10 17 11 18 15 19 12 20 14 21 13 22
REMARK SMILES IDX 16 23 20 24 17 25 19 26 18 27 21 28 29 30 30 31 31 32 32 33
REMARK SMILES IDX 33 34 34 35 35 36 36 37 37 38 38 39 102 40 39 41 101 42
REMARK SMILES IDX 40 43 41 44 42 45 95 46 43 47 100 48 94 49 96 50 44 51 99 52
REMARK SMILES IDX 93 53 92 54 45 56 79 57 58 58 78 59 59 60 62 61 77 62 97 63
REMARK SMILES IDX 60 64 61 65 76 67 98 68 63 69 46 70 47 71 56 72 48 73 49 74
REMARK SMILES IDX 55 75 57 76 50 77 51 78 52 79 53 80 54 81 80 82 81 83 90 84
REMARK SMILES IDX 82 85 83 86 89 87 91 88 84 89 85 90 86 91 87 92 88 93 64 94
REMARK SMILES IDX 65 95 74 96 66 97 67 98 73 99 75 100 68 101 69 102 70 103
REMARK SMILES IDX 71 104 72 105
REMARK H PARENT 21 29 96 55 62 66
REMARK Flexibility Score: inf
ROOT
ATOM      1  O   UNL A   1      34.529  23.441  24.160  1.00  0.00    -0.377 OA
ENDROOT
BRANCH   1   2
ATOM      2  C   UNL A   1      33.805  22.875  23.081  1.00  0.00     0.188 C 
BRANCH   2   3
ATOM      3  C   UNL A   1      33.247  23.829  21.989  1.00  0.00     0.188 C 
BRANCH   3   4
ATOM      4  O   UNL A   1      33.843  25.084  21.698  1.00  0.00    -0.376 OA
BRANCH   4   5
ATOM      5  C   UNL A   1      33.545  26.299  22.359  1.00  0.00     0.202 C 
BRANCH   5   6
ATOM      6  C   UNL A   1      32.938  27.490  21.639  1.00  0.00     0.261 C 
BRANCH   6   7
ATOM      7  O   UNL A   1      32.180  28.329  22.515  1.00  0.00    -0.463 OA
BRANCH   7   8
ATOM      8  C   UNL A   1      30.827  28.436  22.531  1.00  0.00     0.310 C 
ATOM      9  O   UNL A   1      30.232  29.056  21.650  1.00  0.00    -0.252 OA
BRANCH   8  10
ATOM     10  C   UNL A   1      30.096  27.863  23.697  1.00  0.00     0.163 C 
BRANCH  10  11
ATOM     11  C   UNL A   1      30.545  26.496  24.114  1.00  0.00     0.024 A 
ATOM     12  C   UNL A   1      29.971  25.407  23.480  1.00  0.00     0.121 A 
ATOM     13  C   UNL A   1      31.451  26.222  25.144  1.00  0.00     0.135 A 
ATOM     14  N   UNL A   1      30.211  24.138  23.822  1.00  0.00    -0.244 NA
ATOM     15  N   UNL A   1      31.704  24.959  25.512  1.00  0.00    -0.219 NA
ATOM     16  C   UNL A   1      31.076  23.982  24.834  1.00  0.00     0.224 A 
BRANCH  13  17
ATOM     17  N   UNL A   1      32.073  27.264  25.822  1.00  0.00    -0.356 N 
ATOM     18  C   UNL A   1      33.532  27.281  25.753  1.00  0.00     0.121 C 
ATOM     19  C   UNL A   1      31.612  27.602  27.176  1.00  0.00     0.121 C 
ATOM     20  C   UNL A   1      34.000  28.722  25.958  1.00  0.00     0.060 C 
ATOM     21  C   UNL A   1      31.915  29.086  27.417  1.00  0.00     0.060 C 
ATOM     22  C   UNL A   1      33.407  29.428  27.211  1.00  0.00     0.097 C 
ATOM     23  O   UNL A   1      34.030  28.952  28.419  1.00  0.00    -0.372 OA
ATOM     24  C   UNL A   1      33.579  30.975  27.035  1.00  0.00     0.146 C 
ATOM     25  C   UNL A   1      35.359  29.382  28.684  1.00  0.00     0.161 C 
ATOM     26  C   UNL A   1      35.028  31.408  27.250  1.00  0.00     0.037 C 
ATOM     27  C   UNL A   1      35.528  30.891  28.592  1.00  0.00     0.031 C 
BRANCH  24  28
ATOM     28  O   UNL A   1      32.752  31.707  27.947  1.00  0.00    -0.390 OA
ATOM     29  H   UNL A   1      33.221  32.504  28.238  1.00  0.00     0.211 HD
ENDBRANCH  24  28
ENDBRANCH  13  17
ENDBRANCH  10  11
ENDBRANCH   8  10
ENDBRANCH   7   8
ENDBRANCH   6   7
ENDBRANCH   5   6
ENDBRANCH   4   5
ENDBRANCH   3   4
ENDBRANCH   2   3
ENDBRANCH   1   2
BRANCH   1  30
ATOM     30  C   UNL A   1      35.230  22.496  24.950  1.00  0.00     0.188 C 
BRANCH  30  31
ATOM     31  C   UNL A   1      36.692  22.895  25.217  1.00  0.00     0.188 C 
BRANCH  31  32
ATOM     32  O   UNL A   1      37.514  22.145  26.097  1.00  0.00    -0.376 OA
BRANCH  32  33
ATOM     33  C   UNL A   1      38.921  22.135  25.894  1.00  0.00     0.202 C 
BRANCH  33  34
ATOM     34  C   UNL A   1      39.852  23.136  26.610  1.00  0.00     0.261 C 
BRANCH  34  35
ATOM     35  O   UNL A   1      39.497  24.524  26.554  1.00  0.00    -0.460 OA
BRANCH  35  36
ATOM     36  C   UNL A   1      40.543  25.375  26.409  1.00  0.00     0.338 C 
ATOM     37  O   UNL A   1      41.136  25.642  25.383  1.00  0.00    -0.246 OA
BRANCH  36  38
ATOM     38  C   UNL A   1      40.743  26.108  27.677  1.00  0.00     0.060 A 
ATOM     39  C   UNL A   1      39.745  26.030  28.661  1.00  0.00     0.016 A 
ATOM     40  C   UNL A   1      41.863  26.918  27.864  1.00  0.00     0.016 A 
ATOM     41  C   UNL A   1      39.844  26.783  29.823  1.00  0.00     0.010 A 
ATOM     42  C   UNL A   1      41.936  27.716  29.007  1.00  0.00     0.010 A 
ATOM     43  C   UNL A   1      40.904  27.680  29.963  1.00  0.00    -0.014 A 
BRANCH  43  44
ATOM     44  C   UNL A   1      40.778  28.769  30.955  1.00  0.00     0.031 A 
ATOM     45  C   UNL A   1      41.707  28.744  32.138  1.00  0.00     0.074 A 
ATOM     46  C   UNL A   1      39.900  29.771  30.785  1.00  0.00     0.049 A 
ATOM     47  N   UNL A   1      41.749  29.532  33.178  1.00  0.00    -0.248 NA
ATOM     48  C   UNL A   1      42.724  27.678  32.148  1.00  0.00     0.031 C 
ATOM     49  C   UNL A   1      39.008  29.927  29.637  1.00  0.00     0.029 A 
ATOM     50  N   UNL A   1      39.611  30.840  31.590  1.00  0.00    -0.354 N 
ATOM     51  C   UNL A   1      42.782  29.048  33.973  1.00  0.00     0.074 A 
ATOM     52  C   UNL A   1      43.325  27.885  33.308  1.00  0.00     0.031 C 
ATOM     53  C   UNL A   1      38.251  31.023  29.824  1.00  0.00     0.029 A 
ATOM     54  C   UNL A   1      38.580  31.615  31.120  1.00  0.00     0.049 A 
ATOM     55  H   UNL A   1      40.095  31.035  32.425  1.00  0.00     0.167 HD
ATOM     56  C   UNL A   1      43.235  29.533  35.152  1.00  0.00     0.037 A 
ATOM     57  C   UNL A   1      37.953  32.661  31.695  1.00  0.00     0.037 A 
ATOM     58  C   UNL A   1      42.676  30.689  35.801  1.00  0.00     0.049 A 
ATOM     59  C   UNL A   1      38.417  33.135  33.049  1.00  0.00     0.074 A 
ATOM     60  C   UNL A   1      43.059  31.275  36.994  1.00  0.00     0.029 A 
ATOM     61  N   UNL A   1      41.609  31.430  35.314  1.00  0.00    -0.354 N 
ATOM     62  N   UNL A   1      39.396  32.675  33.795  1.00  0.00    -0.248 NA
ATOM     63  C   UNL A   1      37.694  34.269  33.640  1.00  0.00     0.031 C 
ATOM     64  C   UNL A   1      42.183  32.333  37.257  1.00  0.00     0.029 A 
ATOM     65  C   UNL A   1      41.298  32.450  36.196  1.00  0.00     0.049 A 
ATOM     66  H   UNL A   1      41.141  31.256  34.465  1.00  0.00     0.167 HD
ATOM     67  C   UNL A   1      39.423  33.482  34.929  1.00  0.00     0.074 A 
ATOM     68  C   UNL A   1      38.371  34.464  34.765  1.00  0.00     0.031 C 
ATOM     69  C   UNL A   1      40.246  33.420  36.008  1.00  0.00     0.037 A 
BRANCH  56  70
ATOM     70  C   UNL A   1      44.352  28.786  35.830  1.00  0.00     0.058 A 
ATOM     71  C   UNL A   1      45.702  29.099  35.606  1.00  0.00     0.135 A 
ATOM     72  C   UNL A   1      44.063  27.745  36.727  1.00  0.00     0.135 A 
ATOM     73  F   UNL A   1      46.038  30.069  34.742  1.00  0.00    -0.206 F 
ATOM     74  C   UNL A   1      46.727  28.387  36.225  1.00  0.00     0.059 A 
ATOM     75  C   UNL A   1      45.070  27.040  37.380  1.00  0.00     0.059 A 
ATOM     76  F   UNL A   1      42.790  27.397  36.973  1.00  0.00    -0.206 F 
ATOM     77  C   UNL A   1      46.399  27.361  37.111  1.00  0.00     0.060 A 
BRANCH  77  78
ATOM     78  S   UNL A   1      47.738  26.450  37.909  1.00  0.00     0.124 S 
ATOM     79  O   UNL A   1      48.153  27.389  38.947  1.00  0.00    -0.237 OA
ATOM     80  O   UNL A   1      47.059  25.247  38.380  1.00  0.00    -0.237 OA
ATOM     81  O   UNL A   1      48.699  26.241  36.832  1.00  0.00    -0.744 OA
ENDBRANCH  77  78
ENDBRANCH  56  70
BRANCH  57  82
ATOM     82  C   UNL A   1      36.811  33.314  31.001  1.00  0.00     0.058 A 
ATOM     83  C   UNL A   1      35.501  33.201  31.491  1.00  0.00     0.135 A 
ATOM     84  C   UNL A   1      37.008  34.076  29.838  1.00  0.00     0.135 A 
ATOM     85  F   UNL A   1      35.258  32.473  32.591  1.00  0.00    -0.206 F 
ATOM     86  C   UNL A   1      34.427  33.812  30.851  1.00  0.00     0.059 A 
ATOM     87  C   UNL A   1      35.955  34.720  29.196  1.00  0.00     0.059 A 
ATOM     88  F   UNL A   1      38.241  34.221  29.329  1.00  0.00    -0.206 F 
ATOM     89  C   UNL A   1      34.666  34.575  29.706  1.00  0.00     0.060 A 
BRANCH  89  90
ATOM     90  S   UNL A   1      33.273  35.408  28.914  1.00  0.00     0.124 S 
ATOM     91  O   UNL A   1      33.909  36.609  28.385  1.00  0.00    -0.237 OA
ATOM     92  O   UNL A   1      32.849  34.422  27.924  1.00  0.00    -0.237 OA
ATOM     93  O   UNL A   1      32.337  35.621  30.015  1.00  0.00    -0.744 OA
ENDBRANCH  89  90
ENDBRANCH  57  82
BRANCH  69  94
ATOM     94  C   UNL A   1      40.070  34.464  37.078  1.00  0.00     0.058 A 
ATOM     95  C   UNL A   1      40.767  35.682  37.047  1.00  0.00     0.135 A 
ATOM     96  C   UNL A   1      39.143  34.267  38.115  1.00  0.00     0.135 A 
ATOM     97  F   UNL A   1      41.667  35.922  36.081  1.00  0.00    -0.206 F 
ATOM     98  C   UNL A   1      40.570  36.656  38.020  1.00  0.00     0.059 A 
ATOM     99  C   UNL A   1      38.907  35.240  39.080  1.00  0.00     0.059 A 
ATOM    100  F   UNL A   1      38.440  33.125  38.186  1.00  0.00    -0.206 F 
ATOM    101  C   UNL A   1      39.635  36.427  39.032  1.00  0.00     0.060 A 
BRANCH 101 102
ATOM    102  S   UNL A   1      39.365  37.715  40.268  1.00  0.00     0.124 S 
ATOM    103  O   UNL A   1      38.208  38.412  39.717  1.00  0.00    -0.237 OA
ATOM    104  O   UNL A   1      39.122  36.938  41.479  1.00  0.00    -0.237 OA
ATOM    105  O   UNL A   1      40.616  38.469  40.254  1.00  0.00    -0.744 OA
ENDBRANCH 101 102
ENDBRANCH  69  94
ENDBRANCH  43  44
ENDBRANCH  36  38
ENDBRANCH  35  36
ENDBRANCH  34  35
ENDBRANCH  33  34
ENDBRANCH  32  33
ENDBRANCH  31  32
ENDBRANCH  30  31
ENDBRANCH   1  30
TORSDOF 26
ENDMDL
MODEL 2
REMARK VINA RESULT:      -8.7      6.156     11.713
REMARK SMILES O=C(Cc1cncnc1N1CCC2(CC1)OCCC[C@@H]2O)OCCOCCOCCOCCOC(=O)c1ccc(-c2c3nc(c(-c4c(F)cc(S(=O)(=O)[O-])cc4F)c4ccc([nH]4)c(-c4c(F)cc(S(=O)(=O)[O-])cc4F)c4nc(c(-c5c(F)cc(S(=O)(=O)[O-])cc5F)c5ccc2[nH]5)C=C4)C=C3)cc1
REMARK SMILES IDX 28 1 27 2 26 3 25 4 24 5 23 6 22 7 2 8 1 9 3 10 4 11 5 12
REMARK SMILES IDX 9 13 6 14 8 15 7 16 10 17 11 18 15 19 12 20 14 21 13 22
REMARK SMILES IDX 16 23 20 24 17 25 19 26 18 27 21 28 29 30 30 31 31 32 32 33
REMARK SMILES IDX 33 34 34 35 35 36 36 37 37 38 38 39 102 40 39 41 101 42
REMARK SMILES IDX 40 43 41 44 42 45 95 46 43 47 100 48 94 49 96 50 44 51 99 52
REMARK SMILES IDX 93 53 92 54 45 56 79 57 58 58 78 59 59 60 62 61 77 62 97 63
REMARK SMILES IDX 60 64 61 65 76 67 98 68 63 69 46 70 47 71 56 72 48 73 49 74
REMARK SMILES IDX 55 75 57 76 50 77 51 78 52 79 53 80 54 81 80 82 81 83 90 84
REMARK SMILES IDX 82 85 83 86 89 87 91 88 84 89 85 90 86 91 87 92 88 93 64 94
REMARK SMILES IDX 65 95 74 96 66 97 67 98 73 99 75 100 68 101 69 102 70 103
REMARK SMILES IDX 71 104 72 105
REMARK H PARENT 21 29 96 55 62 66
REMARK Flexibility Score: inf
ROOT
ATOM      1  O   UNL A   1      31.382  28.438  25.958  1.00  0.00    -0.377 OA
ENDROOT
BRANCH   1   2
ATOM      2  C   UNL A   1      31.066  29.300  24.877  1.00  0.00     0.188 C 
BRANCH   2   3
ATOM      3  C   UNL A   1      32.102  29.448  23.727  1.00  0.00     0.188 C 
BRANCH   3   4
ATOM      4  O   UNL A   1      33.486  29.194  23.914  1.00  0.00    -0.376 OA
BRANCH   4   5
ATOM      5  C   UNL A   1      34.224  28.184  23.254  1.00  0.00     0.202 C 
BRANCH   5   6
ATOM      6  C   UNL A   1      33.839  27.657  21.884  1.00  0.00     0.261 C 
BRANCH   6   7
ATOM      7  O   UNL A   1      32.721  26.766  21.935  1.00  0.00    -0.463 OA
BRANCH   7   8
ATOM      8  C   UNL A   1      32.647  25.559  21.320  1.00  0.00     0.310 C 
ATOM      9  O   UNL A   1      32.953  25.433  20.135  1.00  0.00    -0.252 OA
BRANCH   8  10
ATOM     10  C   UNL A   1      32.091  24.414  22.097  1.00  0.00     0.163 C 
BRANCH  10  11
ATOM     11  C   UNL A   1      31.370  24.795  23.354  1.00  0.00     0.024 A 
ATOM     12  C   UNL A   1      30.196  25.519  23.230  1.00  0.00     0.121 A 
ATOM     13  C   UNL A   1      31.820  24.539  24.653  1.00  0.00     0.135 A 
ATOM     14  N   UNL A   1      29.509  26.002  24.268  1.00  0.00    -0.244 NA
ATOM     15  N   UNL A   1      31.153  25.017  25.712  1.00  0.00    -0.219 NA
ATOM     16  C   UNL A   1      30.033  25.721  25.469  1.00  0.00     0.224 A 
BRANCH  13  17
ATOM     17  N   UNL A   1      32.987  23.811  24.857  1.00  0.00    -0.356 N 
ATOM     18  C   UNL A   1      33.307  22.827  23.827  1.00  0.00     0.121 C 
ATOM     19  C   UNL A   1      33.256  23.271  26.197  1.00  0.00     0.121 C 
ATOM     20  C   UNL A   1      34.818  22.600  23.840  1.00  0.00     0.060 C 
ATOM     21  C   UNL A   1      34.778  23.144  26.352  1.00  0.00     0.060 C 
ATOM     22  C   UNL A   1      35.418  22.285  25.240  1.00  0.00     0.097 C 
ATOM     23  O   UNL A   1      35.116  20.936  25.644  1.00  0.00    -0.372 OA
ATOM     24  C   UNL A   1      36.961  22.547  25.188  1.00  0.00     0.146 C 
ATOM     25  C   UNL A   1      35.821  19.885  24.995  1.00  0.00     0.161 C 
ATOM     26  C   UNL A   1      37.693  21.446  24.424  1.00  0.00     0.037 C 
ATOM     27  C   UNL A   1      37.329  20.085  25.002  1.00  0.00     0.031 C 
BRANCH  24  28
ATOM     28  O   UNL A   1      37.528  22.635  26.500  1.00  0.00    -0.390 OA
ATOM     29  H   UNL A   1      38.494  22.684  26.431  1.00  0.00     0.211 HD
ENDBRANCH  24  28
ENDBRANCH  13  17
ENDBRANCH  10  11
ENDBRANCH   8  10
ENDBRANCH   7   8
ENDBRANCH   6   7
ENDBRANCH   5   6
ENDBRANCH   4   5
ENDBRANCH   3   4
ENDBRANCH   2   3
ENDBRANCH   1   2
BRANCH   1  30
ATOM     30  C   UNL A   1      32.453  28.890  26.768  1.00  0.00     0.188 C 
BRANCH  30  31
ATOM     31  C   UNL A   1      32.266  30.332  27.271  1.00  0.00     0.188 C 
BRANCH  31  32
ATOM     32  O   UNL A   1      33.093  31.389  26.810  1.00  0.00    -0.376 OA
BRANCH  32  33
ATOM     33  C   UNL A   1      33.645  32.299  27.752  1.00  0.00     0.202 C 
BRANCH  33  34
ATOM     34  C   UNL A   1      35.132  32.243  28.160  1.00  0.00     0.261 C 
BRANCH  34  35
ATOM     35  O   UNL A   1      35.587  31.064  28.836  1.00  0.00    -0.460 OA
BRANCH  35  36
ATOM     36  C   UNL A   1      36.591  31.267  29.725  1.00  0.00     0.338 C 
ATOM     37  O   UNL A   1      36.551  31.937  30.738  1.00  0.00    -0.246 OA
BRANCH  36  38
ATOM     38  C   UNL A   1      37.720  30.375  29.385  1.00  0.00     0.060 A 
ATOM     39  C   UNL A   1      38.563  29.939  30.420  1.00  0.00     0.016 A 
ATOM     40  C   UNL A   1      37.987  30.035  28.059  1.00  0.00     0.016 A 
ATOM     41  C   UNL A   1      39.693  29.186  30.133  1.00  0.00     0.010 A 
ATOM     42  C   UNL A   1      39.152  29.324  27.766  1.00  0.00     0.010 A 
ATOM     43  C   UNL A   1      40.027  28.939  28.800  1.00  0.00    -0.014 A 
BRANCH  43  44
ATOM     44  C   UNL A   1      41.414  28.540  28.484  1.00  0.00     0.031 A 
ATOM     45  C   UNL A   1      42.468  29.614  28.499  1.00  0.00     0.074 A 
ATOM     46  C   UNL A   1      41.734  27.260  28.238  1.00  0.00     0.049 A 
ATOM     47  N   UNL A   1      43.733  29.541  28.187  1.00  0.00    -0.248 NA
ATOM     48  C   UNL A   1      42.027  30.956  28.922  1.00  0.00     0.031 C 
ATOM     49  C   UNL A   1      40.802  26.134  28.272  1.00  0.00     0.029 A 
ATOM     50  N   UNL A   1      42.936  26.697  27.899  1.00  0.00    -0.354 N 
ATOM     51  C   UNL A   1      44.236  30.826  28.357  1.00  0.00     0.074 A 
ATOM     52  C   UNL A   1      43.135  31.664  28.778  1.00  0.00     0.031 C 
ATOM     53  C   UNL A   1      41.467  25.012  27.943  1.00  0.00     0.029 A 
ATOM     54  C   UNL A   1      42.856  25.352  27.637  1.00  0.00     0.049 A 
ATOM     55  H   UNL A   1      43.777  27.207  27.849  1.00  0.00     0.167 HD
ATOM     56  C   UNL A   1      45.503  31.265  28.179  1.00  0.00     0.037 A 
ATOM     57  C   UNL A   1      43.794  24.505  27.168  1.00  0.00     0.037 A 
ATOM     58  C   UNL A   1      46.584  30.415  27.754  1.00  0.00     0.049 A 
ATOM     59  C   UNL A   1      45.180  25.032  26.895  1.00  0.00     0.074 A 
ATOM     60  C   UNL A   1      47.909  30.749  27.546  1.00  0.00     0.029 A 
ATOM     61  N   UNL A   1      46.459  29.064  27.463  1.00  0.00    -0.354 N 
ATOM     62  N   UNL A   1      45.651  26.247  27.059  1.00  0.00    -0.248 NA
ATOM     63  C   UNL A   1      46.163  24.074  26.372  1.00  0.00     0.031 C 
ATOM     64  C   UNL A   1      48.573  29.613  27.072  1.00  0.00     0.029 A 
ATOM     65  C   UNL A   1      47.677  28.554  27.048  1.00  0.00     0.049 A 
ATOM     66  H   UNL A   1      45.627  28.544  27.541  1.00  0.00     0.167 HD
ATOM     67  C   UNL A   1      46.991  26.192  26.688  1.00  0.00     0.074 A 
ATOM     68  C   UNL A   1      47.257  24.821  26.301  1.00  0.00     0.031 C 
ATOM     69  C   UNL A   1      47.919  27.182  26.671  1.00  0.00     0.037 A 
BRANCH  56  70
ATOM     70  C   UNL A   1      45.771  32.730  28.396  1.00  0.00     0.058 A 
ATOM     71  C   UNL A   1      46.198  33.235  29.634  1.00  0.00     0.135 A 
ATOM     72  C   UNL A   1      45.604  33.642  27.341  1.00  0.00     0.135 A 
ATOM     73  F   UNL A   1      46.352  32.413  30.684  1.00  0.00    -0.206 F 
ATOM     74  C   UNL A   1      46.423  34.595  29.827  1.00  0.00     0.059 A 
ATOM     75  C   UNL A   1      45.853  35.002  27.502  1.00  0.00     0.059 A 
ATOM     76  F   UNL A   1      45.189  33.216  26.137  1.00  0.00    -0.206 F 
ATOM     77  C   UNL A   1      46.249  35.470  28.753  1.00  0.00     0.060 A 
BRANCH  77  78
ATOM     78  S   UNL A   1      46.549  37.230  29.017  1.00  0.00     0.124 S 
ATOM     79  O   UNL A   1      45.350  37.823  28.432  1.00  0.00    -0.237 OA
ATOM     80  O   UNL A   1      46.651  37.314  30.471  1.00  0.00    -0.237 OA
ATOM     81  O   UNL A   1      47.789  37.479  28.290  1.00  0.00    -0.744 OA
ENDBRANCH  77  78
ENDBRANCH  56  70
BRANCH  57  82
ATOM     82  C   UNL A   1      43.446  23.082  26.912  1.00  0.00     0.058 A 
ATOM     83  C   UNL A   1      43.073  22.225  27.957  1.00  0.00     0.135 A 
ATOM     84  C   UNL A   1      43.468  22.552  25.610  1.00  0.00     0.135 A 
ATOM     85  F   UNL A   1      43.049  22.679  29.219  1.00  0.00    -0.206 F 
ATOM     86  C   UNL A   1      42.741  20.893  27.726  1.00  0.00     0.059 A 
ATOM     87  C   UNL A   1      43.113  21.233  25.350  1.00  0.00     0.059 A 
ATOM     88  F   UNL A   1      43.814  23.329  24.573  1.00  0.00    -0.206 F 
ATOM     89  C   UNL A   1      42.759  20.408  26.417  1.00  0.00     0.060 A 
BRANCH  89  90
ATOM     90  S   UNL A   1      42.274  18.693  26.122  1.00  0.00     0.124 S 
ATOM     91  O   UNL A   1      42.590  18.073  27.404  1.00  0.00    -0.237 OA
ATOM     92  O   UNL A   1      40.854  18.826  25.810  1.00  0.00    -0.237 OA
ATOM     93  O   UNL A   1      43.119  18.291  25.001  1.00  0.00    -0.744 OA
ENDBRANCH  89  90
ENDBRANCH  57  82
BRANCH  69  94
ATOM     94  C   UNL A   1      49.320  26.816  26.259  1.00  0.00     0.058 A 
ATOM     95  C   UNL A   1      50.265  26.343  27.183  1.00  0.00     0.135 A 
ATOM     96  C   UNL A   1      49.701  26.883  24.908  1.00  0.00     0.135 A 
ATOM     97  F   UNL A   1      49.956  26.263  28.486  1.00  0.00    -0.206 F 
ATOM     98  C   UNL A   1      51.546  25.972  26.786  1.00  0.00     0.059 A 
ATOM     99  C   UNL A   1      50.965  26.486  24.484  1.00  0.00     0.059 A 
ATOM    100  F   UNL A   1      48.832  27.316  23.981  1.00  0.00    -0.206 F 
ATOM    101  C   UNL A   1      51.886  26.045  25.433  1.00  0.00     0.060 A 
BRANCH 101 102
ATOM    102  S   UNL A   1      53.539  25.527  24.928  1.00  0.00     0.124 S 
ATOM    103  O   UNL A   1      53.549  25.908  23.520  1.00  0.00    -0.237 OA
ATOM    104  O   UNL A   1      54.395  26.319  25.806  1.00  0.00    -0.237 OA
ATOM    105  O   UNL A   1      53.542  24.091  25.189  1.00  0.00    -0.744 OA
ENDBRANCH 101 102
ENDBRANCH  69  94
ENDBRANCH  43  44
ENDBRANCH  36  38
ENDBRANCH  35  36
ENDBRANCH  34  35
ENDBRANCH  33  34
ENDBRANCH  32  33
ENDBRANCH  31  32
ENDBRANCH  30  31
ENDBRANCH   1  30
TORSDOF 26
ENDMDL
MODEL 3
REMARK VINA RESULT:      -8.7      4.832      9.173
REMARK SMILES O=C(Cc1cncnc1N1CCC2(CC1)OCCC[C@@H]2O)OCCOCCOCCOCCOC(=O)c1ccc(-c2c3nc(c(-c4c(F)cc(S(=O)(=O)[O-])cc4F)c4ccc([nH]4)c(-c4c(F)cc(S(=O)(=O)[O-])cc4F)c4nc(c(-c5c(F)cc(S(=O)(=O)[O-])cc5F)c5ccc2[nH]5)C=C4)C=C3)cc1
REMARK SMILES IDX 28 1 27 2 26 3 25 4 24 5 23 6 22 7 2 8 1 9 3 10 4 11 5 12
REMARK SMILES IDX 9 13 6 14 8 15 7 16 10 17 11 18 15 19 12 20 14 21 13 22
REMARK SMILES IDX 16 23 20 24 17 25 19 26 18 27 21 28 29 30 30 31 31 32 32 33
REMARK SMILES IDX 33 34 34 35 35 36 36 37 37 38 38 39 102 40 39 41 101 42
REMARK SMILES IDX 40 43 41 44 42 45 95 46 43 47 100 48 94 49 96 50 44 51 99 52
REMARK SMILES IDX 93 53 92 54 45 56 79 57 58 58 78 59 59 60 62 61 77 62 97 63
REMARK SMILES IDX 60 64 61 65 76 67 98 68 63 69 46 70 47 71 56 72 48 73 49 74
REMARK SMILES IDX 55 75 57 76 50 77 51 78 52 79 53 80 54 81 80 82 81 83 90 84
REMARK SMILES IDX 82 85 83 86 89 87 91 88 84 89 85 90 86 91 87 92 88 93 64 94
REMARK SMILES IDX 65 95 74 96 66 97 67 98 73 99 75 100 68 101 69 102 70 103
REMARK SMILES IDX 71 104 72 105
REMARK H PARENT 21 29 96 55 62 66
REMARK Flexibility Score: inf
ROOT
ATOM      1  O   UNL A   1      34.476  23.868  26.156  1.00  0.00    -0.377 OA
ENDROOT
BRANCH   1   2
ATOM      2  C   UNL A   1      34.470  25.058  25.386  1.00  0.00     0.188 C 
BRANCH   2   3
ATOM      3  C   UNL A   1      33.908  26.353  26.038  1.00  0.00     0.188 C 
BRANCH   3   4
ATOM      4  O   UNL A   1      33.147  27.303  25.308  1.00  0.00    -0.376 OA
BRANCH   4   5
ATOM      5  C   UNL A   1      33.679  28.238  24.389  1.00  0.00     0.202 C 
BRANCH   5   6
ATOM      6  C   UNL A   1      34.014  27.869  22.955  1.00  0.00     0.261 C 
BRANCH   6   7
ATOM      7  O   UNL A   1      32.887  27.340  22.250  1.00  0.00    -0.463 OA
BRANCH   7   8
ATOM      8  C   UNL A   1      32.688  26.031  21.949  1.00  0.00     0.310 C 
ATOM      9  O   UNL A   1      33.580  25.359  21.432  1.00  0.00    -0.252 OA
BRANCH   8  10
ATOM     10  C   UNL A   1      31.330  25.462  22.175  1.00  0.00     0.163 C 
BRANCH  10  11
ATOM     11  C   UNL A   1      30.964  25.252  23.613  1.00  0.00     0.024 A 
ATOM     12  C   UNL A   1      31.423  24.103  24.235  1.00  0.00     0.121 A 
ATOM     13  C   UNL A   1      30.135  26.090  24.366  1.00  0.00     0.135 A 
ATOM     14  N   UNL A   1      31.092  23.750  25.479  1.00  0.00    -0.244 NA
ATOM     15  N   UNL A   1      29.781  25.755  25.615  1.00  0.00    -0.219 NA
ATOM     16  C   UNL A   1      30.277  24.607  26.109  1.00  0.00     0.224 A 
BRANCH  13  17
ATOM     17  N   UNL A   1      29.641  27.265  23.812  1.00  0.00    -0.356 N 
ATOM     18  C   UNL A   1      30.237  28.500  24.314  1.00  0.00     0.121 C 
ATOM     19  C   UNL A   1      28.187  27.414  23.654  1.00  0.00     0.121 C 
ATOM     20  C   UNL A   1      30.088  29.572  23.235  1.00  0.00     0.060 C 
ATOM     21  C   UNL A   1      27.941  28.375  22.483  1.00  0.00     0.060 C 
ATOM     22  C   UNL A   1      28.647  29.735  22.673  1.00  0.00     0.097 C 
ATOM     23  O   UNL A   1      27.797  30.425  23.610  1.00  0.00    -0.372 OA
ATOM     24  C   UNL A   1      28.733  30.485  21.301  1.00  0.00     0.146 C 
ATOM     25  C   UNL A   1      28.000  31.823  23.771  1.00  0.00     0.161 C 
ATOM     26  C   UNL A   1      29.024  31.973  21.491  1.00  0.00     0.037 C 
ATOM     27  C   UNL A   1      28.010  32.580  22.451  1.00  0.00     0.031 C 
BRANCH  24  28
ATOM     28  O   UNL A   1      27.519  30.359  20.550  1.00  0.00    -0.390 OA
ATOM     29  H   UNL A   1      27.626  29.667  19.879  1.00  0.00     0.211 HD
ENDBRANCH  24  28
ENDBRANCH  13  17
ENDBRANCH  10  11
ENDBRANCH   8  10
ENDBRANCH   7   8
ENDBRANCH   6   7
ENDBRANCH   5   6
ENDBRANCH   4   5
ENDBRANCH   3   4
ENDBRANCH   2   3
ENDBRANCH   1   2
BRANCH   1  30
ATOM     30  C   UNL A   1      34.686  22.688  25.399  1.00  0.00     0.188 C 
BRANCH  30  31
ATOM     31  C   UNL A   1      35.572  21.656  26.120  1.00  0.00     0.188 C 
BRANCH  31  32
ATOM     32  O   UNL A   1      36.605  20.964  25.436  1.00  0.00    -0.376 OA
BRANCH  32  33
ATOM     33  C   UNL A   1      37.728  21.692  24.956  1.00  0.00     0.202 C 
BRANCH  33  34
ATOM     34  C   UNL A   1      39.020  21.834  25.787  1.00  0.00     0.261 C 
BRANCH  34  35
ATOM     35  O   UNL A   1      39.012  22.784  26.861  1.00  0.00    -0.460 OA
BRANCH  35  36
ATOM     36  C   UNL A   1      38.721  24.057  26.494  1.00  0.00     0.338 C 
ATOM     37  O   UNL A   1      37.679  24.465  26.021  1.00  0.00    -0.246 OA
BRANCH  36  38
ATOM     38  C   UNL A   1      39.812  24.947  26.945  1.00  0.00     0.060 A 
ATOM     39  C   UNL A   1      40.141  24.964  28.310  1.00  0.00     0.016 A 
ATOM     40  C   UNL A   1      40.449  25.806  26.049  1.00  0.00     0.016 A 
ATOM     41  C   UNL A   1      41.086  25.858  28.792  1.00  0.00     0.010 A 
ATOM     42  C   UNL A   1      41.360  26.742  26.543  1.00  0.00     0.010 A 
ATOM     43  C   UNL A   1      41.643  26.796  27.920  1.00  0.00    -0.014 A 
BRANCH  43  44
ATOM     44  C   UNL A   1      42.288  27.996  28.495  1.00  0.00     0.031 A 
ATOM     45  C   UNL A   1      41.391  29.069  29.050  1.00  0.00     0.074 A 
ATOM     46  C   UNL A   1      43.624  28.106  28.564  1.00  0.00     0.049 A 
ATOM     47  N   UNL A   1      41.699  30.240  29.536  1.00  0.00    -0.248 NA
ATOM     48  C   UNL A   1      39.946  28.777  29.051  1.00  0.00     0.031 C 
ATOM     49  C   UNL A   1      44.579  27.091  28.123  1.00  0.00     0.029 A 
ATOM     50  N   UNL A   1      44.405  29.133  29.024  1.00  0.00    -0.354 N 
ATOM     51  C   UNL A   1      40.490  30.832  29.883  1.00  0.00     0.074 A 
ATOM     52  C   UNL A   1      39.441  29.902  29.531  1.00  0.00     0.031 C 
ATOM     53  C   UNL A   1      45.826  27.559  28.315  1.00  0.00     0.029 A 
ATOM     54  C   UNL A   1      45.749  28.917  28.852  1.00  0.00     0.049 A 
ATOM     55  H   UNL A   1      44.038  29.947  29.438  1.00  0.00     0.167 HD
ATOM     56  C   UNL A   1      40.277  32.044  30.445  1.00  0.00     0.037 A 
ATOM     57  C   UNL A   1      46.792  29.743  29.070  1.00  0.00     0.037 A 
ATOM     58  C   UNL A   1      41.335  32.959  30.783  1.00  0.00     0.049 A 
ATOM     59  C   UNL A   1      46.528  31.122  29.619  1.00  0.00     0.074 A 
ATOM     60  C   UNL A   1      41.237  34.210  31.363  1.00  0.00     0.029 A 
ATOM     61  N   UNL A   1      42.685  32.722  30.562  1.00  0.00    -0.354 N 
ATOM     62  N   UNL A   1      45.383  31.676  29.947  1.00  0.00    -0.248 NA
ATOM     63  C   UNL A   1      47.695  31.989  29.828  1.00  0.00     0.031 C 
ATOM     64  C   UNL A   1      42.524  34.755  31.436  1.00  0.00     0.029 A 
ATOM     65  C   UNL A   1      43.430  33.816  30.966  1.00  0.00     0.049 A 
ATOM     66  H   UNL A   1      43.057  31.897  30.176  1.00  0.00     0.167 HD
ATOM     67  C   UNL A   1      45.696  32.944  30.428  1.00  0.00     0.074 A 
ATOM     68  C   UNL A   1      47.137  33.071  30.357  1.00  0.00     0.031 C 
ATOM     69  C   UNL A   1      44.867  33.917  30.889  1.00  0.00     0.037 A 
BRANCH  56  70
ATOM     70  C   UNL A   1      38.851  32.462  30.682  1.00  0.00     0.058 A 
ATOM     71  C   UNL A   1      38.126  32.040  31.808  1.00  0.00     0.135 A 
ATOM     72  C   UNL A   1      38.201  33.307  29.767  1.00  0.00     0.135 A 
ATOM     73  F   UNL A   1      38.689  31.213  32.704  1.00  0.00    -0.206 F 
ATOM     74  C   UNL A   1      36.801  32.418  32.005  1.00  0.00     0.059 A 
ATOM     75  C   UNL A   1      36.887  33.722  29.960  1.00  0.00     0.059 A 
ATOM     76  F   UNL A   1      38.842  33.734  28.668  1.00  0.00    -0.206 F 
ATOM     77  C   UNL A   1      36.191  33.261  31.075  1.00  0.00     0.060 A 
BRANCH  77  78
ATOM     78  S   UNL A   1      34.474  33.745  31.346  1.00  0.00     0.124 S 
ATOM     79  O   UNL A   1      34.634  35.053  31.975  1.00  0.00    -0.237 OA
ATOM     80  O   UNL A   1      33.936  33.758  29.989  1.00  0.00    -0.237 OA
ATOM     81  O   UNL A   1      33.954  32.693  32.213  1.00  0.00    -0.744 OA
ENDBRANCH  77  78
ENDBRANCH  56  70
BRANCH  57  82
ATOM     82  C   UNL A   1      48.173  29.292  28.752  1.00  0.00     0.058 A 
ATOM     83  C   UNL A   1      48.715  29.458  27.469  1.00  0.00     0.135 A 
ATOM     84  C   UNL A   1      48.987  28.697  29.732  1.00  0.00     0.135 A 
ATOM     85  F   UNL A   1      47.974  30.008  26.496  1.00  0.00    -0.206 F 
ATOM     86  C   UNL A   1      50.008  29.043  27.164  1.00  0.00     0.059 A 
ATOM     87  C   UNL A   1      50.292  28.301  29.459  1.00  0.00     0.059 A 
ATOM     88  F   UNL A   1      48.520  28.520  30.977  1.00  0.00    -0.206 F 
ATOM     89  C   UNL A   1      50.791  28.471  28.169  1.00  0.00     0.060 A 
BRANCH  89  90
ATOM     90  S   UNL A   1      52.486  27.987  27.775  1.00  0.00     0.124 S 
ATOM     91  O   UNL A   1      53.040  29.237  27.269  1.00  0.00    -0.237 OA
ATOM     92  O   UNL A   1      52.988  27.547  29.074  1.00  0.00    -0.237 OA
ATOM     93  O   UNL A   1      52.314  26.926  26.787  1.00  0.00    -0.744 OA
ENDBRANCH  89  90
ENDBRANCH  57  82
BRANCH  69  94
ATOM     94  C   UNL A   1      45.499  35.188  31.392  1.00  0.00     0.058 A 
ATOM     95  C   UNL A   1      45.706  36.294  30.554  1.00  0.00     0.135 A 
ATOM     96  C   UNL A   1      45.843  35.319  32.748  1.00  0.00     0.135 A 
ATOM     97  F   UNL A   1      45.400  36.222  29.249  1.00  0.00    -0.206 F 
ATOM     98  C   UNL A   1      46.257  37.477  31.037  1.00  0.00     0.059 A 
ATOM     99  C   UNL A   1      46.364  36.503  33.258  1.00  0.00     0.059 A 
ATOM    100  F   UNL A   1      45.653  34.296  33.596  1.00  0.00    -0.206 F 
ATOM    101  C   UNL A   1      46.580  37.573  32.392  1.00  0.00     0.060 A 
BRANCH 101 102
ATOM    102  S   UNL A   1      47.260  39.126  33.011  1.00  0.00     0.124 S 
ATOM    103  O   UNL A   1      48.636  39.056  32.530  1.00  0.00    -0.237 OA
ATOM    104  O   UNL A   1      46.411  40.119  32.362  1.00  0.00    -0.237 OA
ATOM    105  O   UNL A   1      47.096  39.019  34.458  1.00  0.00    -0.744 OA
ENDBRANCH 101 102
ENDBRANCH  69  94
ENDBRANCH  43  44
ENDBRANCH  36  38
ENDBRANCH  35  36
ENDBRANCH  34  35
ENDBRANCH  33  34
ENDBRANCH  32  33
ENDBRANCH  31  32
ENDBRANCH  30  31
ENDBRANCH   1  30
TORSDOF 26
ENDMDL
