MODEL 1
REMARK VINA RESULT:      -9.8      0.000      0.000
REMARK SMILES O=C(OCCOCCOCCOCCOC(=O)[C@@H]1[C@H](C(=O)Nc2ccc(Cn3cncn3)cc2)[C@@H]2C=C[C@H]1CC2)c1ccc(-c2c3nc(c(-c4c(F)cc(S(=O)(=O)[O-])cc4F)c4ccc([nH]4)c(-c4c(F)cc(S(=O)(=O)[O-])cc4F)c4nc(c(-c5c(F)cc(S(=O)(=O)[O-])cc5F)c5ccc2[nH]5)C=C4)C=C3)cc1
REMARK SMILES IDX 10 1 9 2 8 3 7 4 6 5 5 6 4 7 3 8 2 9 1 10 41 11 42 12 106 13
REMARK SMILES IDX 43 14 105 15 44 16 45 17 46 18 99 19 47 20 104 21 98 22
REMARK SMILES IDX 100 23 48 24 103 25 97 26 96 27 49 29 83 30 62 31 82 32
REMARK SMILES IDX 63 33 66 34 81 35 101 36 64 37 65 38 80 40 102 41 67 42
REMARK SMILES IDX 50 43 51 44 60 45 52 46 53 47 59 48 61 49 54 50 55 51 56 52
REMARK SMILES IDX 57 53 58 54 84 55 85 56 94 57 86 58 87 59 93 60 95 61 88 62
REMARK SMILES IDX 89 63 90 64 91 65 92 66 68 67 69 68 78 69 70 70 71 71 77 72
REMARK SMILES IDX 79 73 72 74 73 75 74 76 75 77 76 78 11 79 12 80 13 81 14 82
REMARK SMILES IDX 15 83 16 84 17 85 18 86 19 87 38 88 35 89 37 90 39 91 36 92
REMARK SMILES IDX 40 93 20 94 21 95 22 96 23 98 24 99 34 100 25 101 33 102
REMARK SMILES IDX 26 103 27 104 28 105 29 106 32 107 30 108 31 109
REMARK H PARENT 100 28 66 39 22 97
REMARK Flexibility Score: inf
ROOT
ATOM      1  C   UNL A   1      36.780  30.453  27.618  1.00  0.00     0.188 C 
ENDROOT
BRANCH   1   2
ATOM      2  O   UNL A   1      36.688  31.232  28.793  1.00  0.00    -0.377 OA
BRANCH   2   3
ATOM      3  C   UNL A   1      36.593  32.652  28.699  1.00  0.00     0.188 C 
BRANCH   3   4
ATOM      4  C   UNL A   1      35.542  33.340  27.806  1.00  0.00     0.188 C 
BRANCH   4   5
ATOM      5  O   UNL A   1      34.670  34.236  28.464  1.00  0.00    -0.376 OA
BRANCH   5   6
ATOM      6  C   UNL A   1      33.925  33.899  29.618  1.00  0.00     0.202 C 
BRANCH   6   7
ATOM      7  C   UNL A   1      34.447  34.066  31.052  1.00  0.00     0.261 C 
BRANCH   7   8
ATOM      8  O   UNL A   1      34.482  32.903  31.872  1.00  0.00    -0.460 OA
BRANCH   8   9
ATOM      9  C   UNL A   1      35.438  32.452  32.721  1.00  0.00     0.338 C 
ATOM     10  O   UNL A   1      35.407  32.792  33.875  1.00  0.00    -0.246 OA
BRANCH   9  11
ATOM     11  C   UNL A   1      36.630  31.712  32.218  1.00  0.00     0.060 A 
ATOM     12  C   UNL A   1      36.702  30.336  32.033  1.00  0.00     0.016 A 
ATOM     13  C   UNL A   1      37.775  32.498  31.975  1.00  0.00     0.016 A 
ATOM     14  C   UNL A   1      37.906  29.741  31.706  1.00  0.00     0.010 A 
ATOM     15  C   UNL A   1      38.989  31.906  31.655  1.00  0.00     0.010 A 
ATOM     16  C   UNL A   1      39.054  30.522  31.580  1.00  0.00    -0.014 A 
BRANCH  16  17
ATOM     17  C   UNL A   1      40.297  29.799  31.384  1.00  0.00     0.031 A 
ATOM     18  C   UNL A   1      41.092  29.569  32.613  1.00  0.00     0.074 A 
ATOM     19  C   UNL A   1      40.721  29.417  30.166  1.00  0.00     0.049 A 
ATOM     20  N   UNL A   1      42.201  30.136  32.957  1.00  0.00    -0.248 NA
ATOM     21  C   UNL A   1      40.509  28.708  33.651  1.00  0.00     0.031 C 
ATOM     22  C   UNL A   1      39.958  29.359  28.918  1.00  0.00     0.029 A 
ATOM     23  N   UNL A   1      41.934  28.911  29.813  1.00  0.00    -0.354 N 
ATOM     24  C   UNL A   1      42.578  29.536  34.155  1.00  0.00     0.074 A 
ATOM     25  C   UNL A   1      41.428  28.800  34.613  1.00  0.00     0.031 C 
ATOM     26  C   UNL A   1      40.655  28.643  28.007  1.00  0.00     0.029 A 
ATOM     27  C   UNL A   1      41.959  28.317  28.560  1.00  0.00     0.049 A 
ATOM     28  H   UNL A   1      42.725  28.966  30.395  1.00  0.00     0.167 HD
ATOM     29  C   UNL A   1      43.880  29.507  34.554  1.00  0.00     0.037 A 
ATOM     30  C   UNL A   1      42.956  27.548  28.055  1.00  0.00     0.037 A 
ATOM     31  C   UNL A   1      44.657  30.516  33.877  1.00  0.00     0.049 A 
ATOM     32  C   UNL A   1      44.198  27.881  28.802  1.00  0.00     0.074 A 
ATOM     33  C   UNL A   1      44.576  31.893  33.769  1.00  0.00     0.029 A 
ATOM     34  N   UNL A   1      45.507  30.118  32.874  1.00  0.00    -0.354 N 
ATOM     35  N   UNL A   1      44.820  29.025  28.710  1.00  0.00    -0.248 NA
ATOM     36  C   UNL A   1      44.512  27.100  29.990  1.00  0.00     0.031 C 
ATOM     37  C   UNL A   1      44.972  32.184  32.431  1.00  0.00     0.029 A 
ATOM     38  C   UNL A   1      45.327  30.980  31.823  1.00  0.00     0.049 A 
ATOM     39  H   UNL A   1      46.131  29.356  32.904  1.00  0.00     0.167 HD
ATOM     40  C   UNL A   1      45.251  29.301  30.000  1.00  0.00     0.074 A 
ATOM     41  C   UNL A   1      45.118  28.037  30.722  1.00  0.00     0.031 C 
ATOM     42  C   UNL A   1      45.416  30.584  30.436  1.00  0.00     0.037 A 
BRANCH  29  43
ATOM     43  C   UNL A   1      44.522  28.332  35.260  1.00  0.00     0.058 A 
ATOM     44  C   UNL A   1      45.300  28.563  36.415  1.00  0.00     0.135 A 
ATOM     45  C   UNL A   1      44.656  27.046  34.688  1.00  0.00     0.135 A 
ATOM     46  F   UNL A   1      45.250  29.744  37.050  1.00  0.00    -0.206 F 
ATOM     47  C   UNL A   1      46.219  27.629  36.897  1.00  0.00     0.059 A 
ATOM     48  C   UNL A   1      45.526  26.083  35.184  1.00  0.00     0.059 A 
ATOM     49  F   UNL A   1      44.030  26.690  33.561  1.00  0.00    -0.206 F 
ATOM     50  C   UNL A   1      46.340  26.400  36.257  1.00  0.00     0.060 A 
BRANCH  50  51
ATOM     51  S   UNL A   1      47.616  25.245  36.785  1.00  0.00     0.124 S 
ATOM     52  O   UNL A   1      48.083  25.876  38.015  1.00  0.00    -0.237 OA
ATOM     53  O   UNL A   1      46.857  24.009  36.947  1.00  0.00    -0.237 OA
ATOM     54  O   UNL A   1      48.558  25.255  35.671  1.00  0.00    -0.744 OA
ENDBRANCH  50  51
ENDBRANCH  29  43
BRANCH  30  55
ATOM     55  C   UNL A   1      42.820  26.321  27.226  1.00  0.00     0.058 A 
ATOM     56  C   UNL A   1      43.360  26.259  25.930  1.00  0.00     0.135 A 
ATOM     57  C   UNL A   1      42.412  25.093  27.787  1.00  0.00     0.135 A 
ATOM     58  F   UNL A   1      43.792  27.377  25.325  1.00  0.00    -0.206 F 
ATOM     59  C   UNL A   1      43.539  25.048  25.253  1.00  0.00     0.059 A 
ATOM     60  C   UNL A   1      42.566  23.876  27.128  1.00  0.00     0.059 A 
ATOM     61  F   UNL A   1      41.938  25.024  29.040  1.00  0.00    -0.206 F 
ATOM     62  C   UNL A   1      43.157  23.857  25.871  1.00  0.00     0.060 A 
BRANCH  62  63
ATOM     63  S   UNL A   1      43.557  22.278  25.088  1.00  0.00     0.124 S 
ATOM     64  O   UNL A   1      44.792  21.908  25.772  1.00  0.00    -0.237 OA
ATOM     65  O   UNL A   1      42.385  21.470  25.406  1.00  0.00    -0.237 OA
ATOM     66  O   UNL A   1      43.706  22.627  23.678  1.00  0.00    -0.744 OA
ENDBRANCH  62  63
ENDBRANCH  30  55
BRANCH  42  67
ATOM     67  C   UNL A   1      45.466  31.691  29.416  1.00  0.00     0.058 A 
ATOM     68  C   UNL A   1      44.339  32.301  28.837  1.00  0.00     0.135 A 
ATOM     69  C   UNL A   1      46.721  32.246  29.115  1.00  0.00     0.135 A 
ATOM     70  F   UNL A   1      43.098  31.910  29.160  1.00  0.00    -0.206 F 
ATOM     71  C   UNL A   1      44.462  33.379  27.957  1.00  0.00     0.059 A 
ATOM     72  C   UNL A   1      46.863  33.341  28.270  1.00  0.00     0.059 A 
ATOM     73  F   UNL A   1      47.831  31.750  29.687  1.00  0.00    -0.206 F 
ATOM     74  C   UNL A   1      45.730  33.892  27.678  1.00  0.00     0.060 A 
BRANCH  74  75
ATOM     75  S   UNL A   1      45.882  35.326  26.592  1.00  0.00     0.124 S 
ATOM     76  O   UNL A   1      45.288  36.387  27.399  1.00  0.00    -0.237 OA
ATOM     77  O   UNL A   1      47.325  35.417  26.386  1.00  0.00    -0.237 OA
ATOM     78  O   UNL A   1      45.118  34.940  25.407  1.00  0.00    -0.744 OA
ENDBRANCH  74  75
ENDBRANCH  42  67
ENDBRANCH  16  17
ENDBRANCH   9  11
ENDBRANCH   8   9
ENDBRANCH   7   8
ENDBRANCH   6   7
ENDBRANCH   5   6
ENDBRANCH   4   5
ENDBRANCH   3   4
ENDBRANCH   2   3
ENDBRANCH   1   2
BRANCH   1  79
ATOM     79  C   UNL A   1      35.657  29.438  27.349  1.00  0.00     0.188 C 
BRANCH  79  80
ATOM     80  O   UNL A   1      34.324  29.769  27.698  1.00  0.00    -0.376 OA
BRANCH  80  81
ATOM     81  C   UNL A   1      33.297  28.792  27.588  1.00  0.00     0.202 C 
BRANCH  81  82
ATOM     82  C   UNL A   1      31.914  29.187  27.067  1.00  0.00     0.261 C 
BRANCH  82  83
ATOM     83  O   UNL A   1      31.014  28.073  26.909  1.00  0.00    -0.463 OA
BRANCH  83  84
ATOM     84  C   UNL A   1      31.485  26.953  26.335  1.00  0.00     0.310 C 
ATOM     85  O   UNL A   1      31.466  25.855  26.889  1.00  0.00    -0.252 OA
BRANCH  84  86
ATOM     86  C   UNL A   1      32.193  27.130  24.991  1.00  0.00     0.119 C 
ATOM     87  C   UNL A   1      31.203  27.011  23.829  1.00  0.00     0.100 C 
ATOM     88  C   UNL A   1      33.620  26.669  24.510  1.00  0.00     0.026 C 
ATOM     89  C   UNL A   1      31.984  26.956  22.491  1.00  0.00     0.025 C 
ATOM     90  C   UNL A   1      33.629  25.548  23.472  1.00  0.00    -0.027 C 
ATOM     91  C   UNL A   1      34.136  27.833  23.613  1.00  0.00     0.009 C 
ATOM     92  C   UNL A   1      32.773  25.682  22.446  1.00  0.00    -0.027 C 
ATOM     93  C   UNL A   1      33.073  28.090  22.490  1.00  0.00     0.009 C 
BRANCH  87  94
ATOM     94  C   UNL A   1      30.004  26.056  23.985  1.00  0.00     0.228 C 
ATOM     95  O   UNL A   1      28.873  26.576  23.925  1.00  0.00    -0.274 OA
ATOM     96  N   UNL A   1      29.973  24.701  24.081  1.00  0.00    -0.326 N 
ATOM     97  H   UNL A   1      29.056  24.365  23.965  1.00  0.00     0.169 HD
BRANCH  96  98
ATOM     98  C   UNL A   1      30.868  23.638  24.298  1.00  0.00     0.041 A 
ATOM     99  C   UNL A   1      31.191  22.833  23.201  1.00  0.00     0.026 A 
ATOM    100  C   UNL A   1      31.432  23.287  25.510  1.00  0.00     0.026 A 
ATOM    101  C   UNL A   1      32.193  21.851  23.294  1.00  0.00     0.008 A 
ATOM    102  C   UNL A   1      32.412  22.299  25.628  1.00  0.00     0.008 A 
ATOM    103  C   UNL A   1      32.854  21.617  24.504  1.00  0.00    -0.026 A 
BRANCH 103 104
ATOM    104  C   UNL A   1      34.024  20.681  24.639  1.00  0.00     0.181 C 
BRANCH 104 105
ATOM    105  N   UNL A   1      33.609  19.298  24.702  1.00  0.00    -0.249 N 
ATOM    106  C   UNL A   1      34.342  18.194  24.397  1.00  0.00     0.220 A 
ATOM    107  N   UNL A   1      32.409  18.953  25.195  1.00  0.00    -0.160 NA
ATOM    108  N   UNL A   1      33.641  17.115  24.654  1.00  0.00    -0.224 NA
ATOM    109  C   UNL A   1      32.469  17.623  25.137  1.00  0.00     0.246 A 
ENDBRANCH 104 105
ENDBRANCH 103 104
ENDBRANCH  96  98
ENDBRANCH  87  94
ENDBRANCH  84  86
ENDBRANCH  83  84
ENDBRANCH  82  83
ENDBRANCH  81  82
ENDBRANCH  80  81
ENDBRANCH  79  80
ENDBRANCH   1  79
TORSDOF 27
ENDMDL
MODEL 2
REMARK VINA RESULT:      -9.1      1.874      2.546
REMARK SMILES O=C(OCCOCCOCCOCCOC(=O)[C@@H]1[C@H](C(=O)Nc2ccc(Cn3cncn3)cc2)[C@@H]2C=C[C@H]1CC2)c1ccc(-c2c3nc(c(-c4c(F)cc(S(=O)(=O)[O-])cc4F)c4ccc([nH]4)c(-c4c(F)cc(S(=O)(=O)[O-])cc4F)c4nc(c(-c5c(F)cc(S(=O)(=O)[O-])cc5F)c5ccc2[nH]5)C=C4)C=C3)cc1
REMARK SMILES IDX 10 1 9 2 8 3 7 4 6 5 5 6 4 7 3 8 2 9 1 10 41 11 42 12 106 13
REMARK SMILES IDX 43 14 105 15 44 16 45 17 46 18 99 19 47 20 104 21 98 22
REMARK SMILES IDX 100 23 48 24 103 25 97 26 96 27 49 29 83 30 62 31 82 32
REMARK SMILES IDX 63 33 66 34 81 35 101 36 64 37 65 38 80 40 102 41 67 42
REMARK SMILES IDX 50 43 51 44 60 45 52 46 53 47 59 48 61 49 54 50 55 51 56 52
REMARK SMILES IDX 57 53 58 54 84 55 85 56 94 57 86 58 87 59 93 60 95 61 88 62
REMARK SMILES IDX 89 63 90 64 91 65 92 66 68 67 69 68 78 69 70 70 71 71 77 72
REMARK SMILES IDX 79 73 72 74 73 75 74 76 75 77 76 78 11 79 12 80 13 81 14 82
REMARK SMILES IDX 15 83 16 84 17 85 18 86 19 87 38 88 35 89 37 90 39 91 36 92
REMARK SMILES IDX 40 93 20 94 21 95 22 96 23 98 24 99 34 100 25 101 33 102
REMARK SMILES IDX 26 103 27 104 28 105 29 106 32 107 30 108 31 109
REMARK H PARENT 100 28 66 39 22 97
REMARK Flexibility Score: inf
ROOT
ATOM      1  C   UNL A   1      35.901  31.282  27.967  1.00  0.00     0.188 C 
ENDROOT
BRANCH   1   2
ATOM      2  O   UNL A   1      37.031  31.358  28.810  1.00  0.00    -0.377 OA
BRANCH   2   3
ATOM      3  C   UNL A   1      37.608  32.627  29.113  1.00  0.00     0.188 C 
BRANCH   3   4
ATOM      4  C   UNL A   1      36.759  33.911  29.178  1.00  0.00     0.188 C 
BRANCH   4   5
ATOM      5  O   UNL A   1      36.479  34.396  30.475  1.00  0.00    -0.376 OA
BRANCH   5   6
ATOM      6  C   UNL A   1      35.626  33.738  31.390  1.00  0.00     0.202 C 
BRANCH   6   7
ATOM      7  C   UNL A   1      35.975  33.498  32.866  1.00  0.00     0.261 C 
BRANCH   7   8
ATOM      8  O   UNL A   1      36.191  32.152  33.274  1.00  0.00    -0.460 OA
BRANCH   8   9
ATOM      9  C   UNL A   1      37.197  31.600  33.994  1.00  0.00     0.338 C 
ATOM     10  O   UNL A   1      37.357  31.940  35.137  1.00  0.00    -0.246 OA
BRANCH   9  11
ATOM     11  C   UNL A   1      38.225  30.735  33.348  1.00  0.00     0.060 A 
ATOM     12  C   UNL A   1      38.061  29.390  33.034  1.00  0.00     0.016 A 
ATOM     13  C   UNL A   1      39.469  31.351  33.102  1.00  0.00     0.016 A 
ATOM     14  C   UNL A   1      39.134  28.649  32.576  1.00  0.00     0.010 A 
ATOM     15  C   UNL A   1      40.552  30.610  32.650  1.00  0.00     0.010 A 
ATOM     16  C   UNL A   1      40.386  29.248  32.445  1.00  0.00    -0.014 A 
BRANCH  16  17
ATOM     17  C   UNL A   1      41.483  28.361  32.102  1.00  0.00     0.031 A 
ATOM     18  C   UNL A   1      42.380  28.004  33.227  1.00  0.00     0.074 A 
ATOM     19  C   UNL A   1      41.699  27.940  30.843  1.00  0.00     0.049 A 
ATOM     20  N   UNL A   1      43.590  28.407  33.432  1.00  0.00    -0.248 NA
ATOM     21  C   UNL A   1      41.811  27.219  34.330  1.00  0.00     0.031 C 
ATOM     22  C   UNL A   1      40.791  28.008  29.697  1.00  0.00     0.029 A 
ATOM     23  N   UNL A   1      42.778  27.276  30.347  1.00  0.00    -0.354 N 
ATOM     24  C   UNL A   1      44.021  27.743  34.578  1.00  0.00     0.074 A 
ATOM     25  C   UNL A   1      42.843  27.168  35.174  1.00  0.00     0.031 C 
ATOM     26  C   UNL A   1      41.266  27.214  28.711  1.00  0.00     0.029 A 
ATOM     27  C   UNL A   1      42.568  26.701  29.102  1.00  0.00     0.049 A 
ATOM     28  H   UNL A   1      43.633  27.210  30.829  1.00  0.00     0.167 HD
ATOM     29  C   UNL A   1      45.345  27.527  34.816  1.00  0.00     0.037 A 
ATOM     30  C   UNL A   1      43.380  25.807  28.483  1.00  0.00     0.037 A 
ATOM     31  C   UNL A   1      46.168  28.427  34.047  1.00  0.00     0.049 A 
ATOM     32  C   UNL A   1      44.737  25.953  29.073  1.00  0.00     0.074 A 
ATOM     33  C   UNL A   1      46.269  29.803  33.945  1.00  0.00     0.029 A 
ATOM     34  N   UNL A   1      46.827  27.928  32.950  1.00  0.00    -0.354 N 
ATOM     35  N   UNL A   1      45.498  27.000  28.903  1.00  0.00    -0.248 NA
ATOM     36  C   UNL A   1      45.079  25.119  30.217  1.00  0.00     0.031 C 
ATOM     37  C   UNL A   1      46.538  30.054  32.568  1.00  0.00     0.029 A 
ATOM     38  C   UNL A   1      46.645  28.821  31.926  1.00  0.00     0.049 A 
ATOM     39  H   UNL A   1      47.337  27.086  32.906  1.00  0.00     0.167 HD
ATOM     40  C   UNL A   1      46.115  27.195  30.130  1.00  0.00     0.074 A 
ATOM     41  C   UNL A   1      45.894  25.952  30.867  1.00  0.00     0.031 C 
ATOM     42  C   UNL A   1      46.510  28.437  30.539  1.00  0.00     0.037 A 
BRANCH  29  43
ATOM     43  C   UNL A   1      45.895  26.264  35.443  1.00  0.00     0.058 A 
ATOM     44  C   UNL A   1      45.543  25.012  34.892  1.00  0.00     0.135 A 
ATOM     45  C   UNL A   1      46.495  26.214  36.721  1.00  0.00     0.135 A 
ATOM     46  F   UNL A   1      44.973  24.932  33.679  1.00  0.00    -0.206 F 
ATOM     47  C   UNL A   1      45.676  23.818  35.603  1.00  0.00     0.059 A 
ATOM     48  C   UNL A   1      46.686  25.030  37.423  1.00  0.00     0.059 A 
ATOM     49  F   UNL A   1      46.835  27.314  37.400  1.00  0.00    -0.206 F 
ATOM     50  C   UNL A   1      46.228  23.844  36.880  1.00  0.00     0.060 A 
BRANCH  50  51
ATOM     51  S   UNL A   1      46.278  22.332  37.857  1.00  0.00     0.124 S 
ATOM     52  O   UNL A   1      45.528  22.732  39.042  1.00  0.00    -0.237 OA
ATOM     53  O   UNL A   1      45.618  21.378  36.971  1.00  0.00    -0.237 OA
ATOM     54  O   UNL A   1      47.707  22.111  38.056  1.00  0.00    -0.744 OA
ENDBRANCH  50  51
ENDBRANCH  29  43
BRANCH  30  55
ATOM     55  C   UNL A   1      42.974  24.623  27.680  1.00  0.00     0.058 A 
ATOM     56  C   UNL A   1      43.872  24.010  26.789  1.00  0.00     0.135 A 
ATOM     57  C   UNL A   1      41.802  23.897  27.978  1.00  0.00     0.135 A 
ATOM     58  F   UNL A   1      45.023  24.620  26.464  1.00  0.00    -0.206 F 
ATOM     59  C   UNL A   1      43.649  22.731  26.269  1.00  0.00     0.059 A 
ATOM     60  C   UNL A   1      41.551  22.629  27.461  1.00  0.00     0.059 A 
ATOM     61  F   UNL A   1      40.904  24.358  28.860  1.00  0.00    -0.206 F 
ATOM     62  C   UNL A   1      42.493  22.038  26.629  1.00  0.00     0.060 A 
BRANCH  62  63
ATOM     63  S   UNL A   1      42.290  20.317  26.117  1.00  0.00     0.124 S 
ATOM     64  O   UNL A   1      40.938  20.324  25.569  1.00  0.00    -0.237 OA
ATOM     65  O   UNL A   1      43.369  20.153  25.149  1.00  0.00    -0.237 OA
ATOM     66  O   UNL A   1      42.455  19.571  27.362  1.00  0.00    -0.744 OA
ENDBRANCH  62  63
ENDBRANCH  30  55
BRANCH  42  67
ATOM     67  C   UNL A   1      46.592  29.540  29.518  1.00  0.00     0.058 A 
ATOM     68  C   UNL A   1      45.508  30.336  29.107  1.00  0.00     0.135 A 
ATOM     69  C   UNL A   1      47.863  29.889  29.034  1.00  0.00     0.135 A 
ATOM     70  F   UNL A   1      44.280  30.146  29.610  1.00  0.00    -0.206 F 
ATOM     71  C   UNL A   1      45.676  31.396  28.213  1.00  0.00     0.059 A 
ATOM     72  C   UNL A   1      48.059  30.962  28.170  1.00  0.00     0.059 A 
ATOM     73  F   UNL A   1      48.948  29.208  29.439  1.00  0.00    -0.206 F 
ATOM     74  C   UNL A   1      46.956  31.701  27.749  1.00  0.00     0.060 A 
BRANCH  74  75
ATOM     75  S   UNL A   1      47.182  33.112  26.645  1.00  0.00     0.124 S 
ATOM     76  O   UNL A   1      46.036  32.987  25.750  1.00  0.00    -0.237 OA
ATOM     77  O   UNL A   1      47.147  34.245  27.566  1.00  0.00    -0.237 OA
ATOM     78  O   UNL A   1      48.484  32.862  26.031  1.00  0.00    -0.744 OA
ENDBRANCH  74  75
ENDBRANCH  42  67
ENDBRANCH  16  17
ENDBRANCH   9  11
ENDBRANCH   8   9
ENDBRANCH   7   8
ENDBRANCH   6   7
ENDBRANCH   5   6
ENDBRANCH   4   5
ENDBRANCH   3   4
ENDBRANCH   2   3
ENDBRANCH   1   2
BRANCH   1  79
ATOM     79  C   UNL A   1      35.090  29.976  27.982  1.00  0.00     0.188 C 
BRANCH  79  80
ATOM     80  O   UNL A   1      33.751  29.985  27.518  1.00  0.00    -0.376 OA
BRANCH  80  81
ATOM     81  C   UNL A   1      33.108  28.764  27.176  1.00  0.00     0.202 C 
BRANCH  81  82
ATOM     82  C   UNL A   1      31.678  28.491  27.646  1.00  0.00     0.261 C 
BRANCH  82  83
ATOM     83  O   UNL A   1      30.921  27.659  26.746  1.00  0.00    -0.463 OA
BRANCH  83  84
ATOM     84  C   UNL A   1      31.530  26.590  26.204  1.00  0.00     0.310 C 
ATOM     85  O   UNL A   1      31.638  25.513  26.786  1.00  0.00    -0.252 OA
BRANCH  84  86
ATOM     86  C   UNL A   1      32.228  26.820  24.863  1.00  0.00     0.119 C 
ATOM     87  C   UNL A   1      31.244  26.664  23.699  1.00  0.00     0.100 C 
ATOM     88  C   UNL A   1      33.676  26.438  24.376  1.00  0.00     0.026 C 
ATOM     89  C   UNL A   1      32.026  26.665  22.360  1.00  0.00     0.025 C 
ATOM     90  C   UNL A   1      33.742  25.332  23.325  1.00  0.00    -0.027 C 
ATOM     91  C   UNL A   1      34.131  27.638  23.493  1.00  0.00     0.009 C 
ATOM     92  C   UNL A   1      32.880  25.434  22.301  1.00  0.00    -0.027 C 
ATOM     93  C   UNL A   1      33.055  27.853  22.373  1.00  0.00     0.009 C 
BRANCH  87  94
ATOM     94  C   UNL A   1      30.096  25.646  23.844  1.00  0.00     0.228 C 
ATOM     95  O   UNL A   1      28.940  26.099  23.729  1.00  0.00    -0.274 OA
ATOM     96  N   UNL A   1      30.138  24.295  23.982  1.00  0.00    -0.326 N 
ATOM     97  H   UNL A   1      29.246  23.904  23.845  1.00  0.00     0.169 HD
BRANCH  96  98
ATOM     98  C   UNL A   1      31.083  23.293  24.262  1.00  0.00     0.041 A 
ATOM     99  C   UNL A   1      31.662  22.630  23.176  1.00  0.00     0.026 A 
ATOM    100  C   UNL A   1      31.466  22.869  25.520  1.00  0.00     0.026 A 
ATOM    101  C   UNL A   1      32.726  21.729  23.360  1.00  0.00     0.008 A 
ATOM    102  C   UNL A   1      32.503  21.957  25.725  1.00  0.00     0.008 A 
ATOM    103  C   UNL A   1      33.193  21.429  24.644  1.00  0.00    -0.026 A 
BRANCH 103 104
ATOM    104  C   UNL A   1      34.409  20.582  24.903  1.00  0.00     0.181 C 
BRANCH 104 105
ATOM    105  N   UNL A   1      35.601  21.382  25.078  1.00  0.00    -0.249 N 
ATOM    106  C   UNL A   1      35.861  22.284  26.062  1.00  0.00     0.220 A 
ATOM    107  N   UNL A   1      36.669  21.223  24.281  1.00  0.00    -0.160 NA
ATOM    108  N   UNL A   1      37.080  22.749  25.921  1.00  0.00    -0.224 NA
ATOM    109  C   UNL A   1      37.536  22.078  24.823  1.00  0.00     0.246 A 
ENDBRANCH 104 105
ENDBRANCH 103 104
ENDBRANCH  96  98
ENDBRANCH  87  94
ENDBRANCH  84  86
ENDBRANCH  83  84
ENDBRANCH  82  83
ENDBRANCH  81  82
ENDBRANCH  80  81
ENDBRANCH  79  80
ENDBRANCH   1  79
TORSDOF 27
ENDMDL
MODEL 3
REMARK VINA RESULT:      -8.2      4.608      8.638
REMARK SMILES O=C(OCCOCCOCCOCCOC(=O)[C@@H]1[C@H](C(=O)Nc2ccc(Cn3cncn3)cc2)[C@@H]2C=C[C@H]1CC2)c1ccc(-c2c3nc(c(-c4c(F)cc(S(=O)(=O)[O-])cc4F)c4ccc([nH]4)c(-c4c(F)cc(S(=O)(=O)[O-])cc4F)c4nc(c(-c5c(F)cc(S(=O)(=O)[O-])cc5F)c5ccc2[nH]5)C=C4)C=C3)cc1
REMARK SMILES IDX 10 1 9 2 8 3 7 4 6 5 5 6 4 7 3 8 2 9 1 10 41 11 42 12 106 13
REMARK SMILES IDX 43 14 105 15 44 16 45 17 46 18 99 19 47 20 104 21 98 22
REMARK SMILES IDX 100 23 48 24 103 25 97 26 96 27 49 29 83 30 62 31 82 32
REMARK SMILES IDX 63 33 66 34 81 35 101 36 64 37 65 38 80 40 102 41 67 42
REMARK SMILES IDX 50 43 51 44 60 45 52 46 53 47 59 48 61 49 54 50 55 51 56 52
REMARK SMILES IDX 57 53 58 54 84 55 85 56 94 57 86 58 87 59 93 60 95 61 88 62
REMARK SMILES IDX 89 63 90 64 91 65 92 66 68 67 69 68 78 69 70 70 71 71 77 72
REMARK SMILES IDX 79 73 72 74 73 75 74 76 75 77 76 78 11 79 12 80 13 81 14 82
REMARK SMILES IDX 15 83 16 84 17 85 18 86 19 87 38 88 35 89 37 90 39 91 36 92
REMARK SMILES IDX 40 93 20 94 21 95 22 96 23 98 24 99 34 100 25 101 33 102
REMARK SMILES IDX 26 103 27 104 28 105 29 106 32 107 30 108 31 109
REMARK H PARENT 100 28 66 39 22 97
REMARK Flexibility Score: inf
ROOT
ATOM      1  C   UNL A   1      34.576  32.557  28.004  1.00  0.00     0.188 C 
ENDROOT
BRANCH   1   2
ATOM      2  O   UNL A   1      35.930  32.594  28.406  1.00  0.00    -0.377 OA
BRANCH   2   3
ATOM      3  C   UNL A   1      36.259  32.693  29.790  1.00  0.00     0.188 C 
BRANCH   3   4
ATOM      4  C   UNL A   1      35.435  31.973  30.875  1.00  0.00     0.188 C 
BRANCH   4   5
ATOM      5  O   UNL A   1      36.166  31.497  31.986  1.00  0.00    -0.376 OA
BRANCH   5   6
ATOM      6  C   UNL A   1      36.777  30.223  32.034  1.00  0.00     0.202 C 
BRANCH   6   7
ATOM      7  C   UNL A   1      37.740  29.777  33.144  1.00  0.00     0.261 C 
BRANCH   7   8
ATOM      8  O   UNL A   1      38.394  28.524  32.973  1.00  0.00    -0.460 OA
BRANCH   8   9
ATOM      9  C   UNL A   1      39.461  28.184  32.211  1.00  0.00     0.338 C 
ATOM     10  O   UNL A   1      39.278  27.690  31.130  1.00  0.00    -0.246 OA
BRANCH   9  11
ATOM     11  C   UNL A   1      40.847  28.225  32.761  1.00  0.00     0.060 A 
ATOM     12  C   UNL A   1      41.977  28.631  32.060  1.00  0.00     0.016 A 
ATOM     13  C   UNL A   1      40.990  27.754  34.082  1.00  0.00     0.016 A 
ATOM     14  C   UNL A   1      43.231  28.484  32.622  1.00  0.00     0.010 A 
ATOM     15  C   UNL A   1      42.247  27.597  34.649  1.00  0.00     0.010 A 
ATOM     16  C   UNL A   1      43.363  27.912  33.887  1.00  0.00    -0.014 A 
BRANCH  16  17
ATOM     17  C   UNL A   1      44.721  27.661  34.333  1.00  0.00     0.031 A 
ATOM     18  C   UNL A   1      45.139  26.239  34.309  1.00  0.00     0.074 A 
ATOM     19  C   UNL A   1      45.520  28.642  34.788  1.00  0.00     0.049 A 
ATOM     20  N   UNL A   1      45.325  25.451  35.316  1.00  0.00    -0.248 NA
ATOM     21  C   UNL A   1      45.220  25.575  33.002  1.00  0.00     0.031 C 
ATOM     22  C   UNL A   1      45.344  30.089  34.654  1.00  0.00     0.029 A 
ATOM     23  N   UNL A   1      46.726  28.531  35.408  1.00  0.00    -0.354 N 
ATOM     24  C   UNL A   1      45.770  24.247  34.778  1.00  0.00     0.074 A 
ATOM     25  C   UNL A   1      45.524  24.327  33.361  1.00  0.00     0.031 C 
ATOM     26  C   UNL A   1      46.504  30.706  34.975  1.00  0.00     0.029 A 
ATOM     27  C   UNL A   1      47.447  29.715  35.466  1.00  0.00     0.049 A 
ATOM     28  H   UNL A   1      47.057  27.685  35.786  1.00  0.00     0.167 HD
ATOM     29  C   UNL A   1      46.518  23.376  35.512  1.00  0.00     0.037 A 
ATOM     30  C   UNL A   1      48.750  29.846  35.820  1.00  0.00     0.037 A 
ATOM     31  C   UNL A   1      46.370  23.624  36.926  1.00  0.00     0.049 A 
ATOM     32  C   UNL A   1      49.115  28.653  36.629  1.00  0.00     0.074 A 
ATOM     33  C   UNL A   1      45.298  23.656  37.798  1.00  0.00     0.029 A 
ATOM     34  N   UNL A   1      47.403  24.243  37.588  1.00  0.00    -0.354 N 
ATOM     35  N   UNL A   1      48.650  28.413  37.825  1.00  0.00    -0.248 NA
ATOM     36  C   UNL A   1      49.661  27.495  35.934  1.00  0.00     0.031 C 
ATOM     37  C   UNL A   1      45.594  24.710  38.711  1.00  0.00     0.029 A 
ATOM     38  C   UNL A   1      46.850  25.216  38.380  1.00  0.00     0.049 A 
ATOM     39  H   UNL A   1      48.361  24.028  37.510  1.00  0.00     0.167 HD
ATOM     40  C   UNL A   1      48.446  27.041  37.860  1.00  0.00     0.074 A 
ATOM     41  C   UNL A   1      49.177  26.520  36.706  1.00  0.00     0.031 C 
ATOM     42  C   UNL A   1      47.487  26.484  38.656  1.00  0.00     0.037 A 
BRANCH  29  43
ATOM     43  C   UNL A   1      47.664  22.563  34.949  1.00  0.00     0.058 A 
ATOM     44  C   UNL A   1      47.711  21.174  35.200  1.00  0.00     0.135 A 
ATOM     45  C   UNL A   1      48.856  23.127  34.443  1.00  0.00     0.135 A 
ATOM     46  F   UNL A   1      46.636  20.526  35.675  1.00  0.00    -0.206 F 
ATOM     47  C   UNL A   1      48.884  20.429  35.061  1.00  0.00     0.059 A 
ATOM     48  C   UNL A   1      50.019  22.391  34.246  1.00  0.00     0.059 A 
ATOM     49  F   UNL A   1      48.991  24.436  34.206  1.00  0.00    -0.206 F 
ATOM     50  C   UNL A   1      50.039  21.056  34.606  1.00  0.00     0.060 A 
BRANCH  50  51
ATOM     51  S   UNL A   1      51.587  20.137  34.554  1.00  0.00     0.124 S 
ATOM     52  O   UNL A   1      52.475  21.031  35.289  1.00  0.00    -0.237 OA
ATOM     53  O   UNL A   1      51.224  18.896  35.230  1.00  0.00    -0.237 OA
ATOM     54  O   UNL A   1      51.854  20.013  33.125  1.00  0.00    -0.744 OA
ENDBRANCH  50  51
ENDBRANCH  29  43
BRANCH  30  55
ATOM     55  C   UNL A   1      49.764  30.748  35.214  1.00  0.00     0.058 A 
ATOM     56  C   UNL A   1      50.482  31.665  36.003  1.00  0.00     0.135 A 
ATOM     57  C   UNL A   1      50.255  30.536  33.909  1.00  0.00     0.135 A 
ATOM     58  F   UNL A   1      50.098  31.914  37.265  1.00  0.00    -0.206 F 
ATOM     59  C   UNL A   1      51.647  32.289  35.546  1.00  0.00     0.059 A 
ATOM     60  C   UNL A   1      51.405  31.157  33.427  1.00  0.00     0.059 A 
ATOM     61  F   UNL A   1      49.686  29.640  33.089  1.00  0.00    -0.206 F 
ATOM     62  C   UNL A   1      52.113  32.011  34.261  1.00  0.00     0.060 A 
BRANCH  62  63
ATOM     63  S   UNL A   1      53.715  32.662  33.734  1.00  0.00     0.124 S 
ATOM     64  O   UNL A   1      54.517  31.447  33.641  1.00  0.00    -0.237 OA
ATOM     65  O   UNL A   1      53.384  33.306  32.467  1.00  0.00    -0.237 OA
ATOM     66  O   UNL A   1      54.084  33.572  34.815  1.00  0.00    -0.744 OA
ENDBRANCH  62  63
ENDBRANCH  30  55
BRANCH  42  67
ATOM     67  C   UNL A   1      46.885  27.322  39.753  1.00  0.00     0.058 A 
ATOM     68  C   UNL A   1      45.761  28.153  39.603  1.00  0.00     0.135 A 
ATOM     69  C   UNL A   1      47.398  27.165  41.051  1.00  0.00     0.135 A 
ATOM     70  F   UNL A   1      45.137  28.269  38.422  1.00  0.00    -0.206 F 
ATOM     71  C   UNL A   1      45.209  28.840  40.688  1.00  0.00     0.059 A 
ATOM     72  C   UNL A   1      46.842  27.811  42.151  1.00  0.00     0.059 A 
ATOM     73  F   UNL A   1      48.431  26.334  41.271  1.00  0.00    -0.206 F 
ATOM     74  C   UNL A   1      45.758  28.663  41.958  1.00  0.00     0.060 A 
BRANCH  74  75
ATOM     75  S   UNL A   1      45.004  29.499  43.370  1.00  0.00     0.124 S 
ATOM     76  O   UNL A   1      46.157  29.758  44.225  1.00  0.00    -0.237 OA
ATOM     77  O   UNL A   1      44.394  30.674  42.753  1.00  0.00    -0.237 OA
ATOM     78  O   UNL A   1      44.054  28.515  43.883  1.00  0.00    -0.744 OA
ENDBRANCH  74  75
ENDBRANCH  42  67
ENDBRANCH  16  17
ENDBRANCH   9  11
ENDBRANCH   8   9
ENDBRANCH   7   8
ENDBRANCH   6   7
ENDBRANCH   5   6
ENDBRANCH   4   5
ENDBRANCH   3   4
ENDBRANCH   2   3
ENDBRANCH   1   2
BRANCH   1  79
ATOM     79  C   UNL A   1      33.993  31.193  27.597  1.00  0.00     0.188 C 
BRANCH  79  80
ATOM     80  O   UNL A   1      32.626  31.104  27.234  1.00  0.00    -0.376 OA
BRANCH  80  81
ATOM     81  C   UNL A   1      32.106  29.886  26.715  1.00  0.00     0.202 C 
BRANCH  81  82
ATOM     82  C   UNL A   1      32.005  28.651  27.611  1.00  0.00     0.261 C 
BRANCH  82  83
ATOM     83  O   UNL A   1      31.024  27.693  27.169  1.00  0.00    -0.463 OA
BRANCH  83  84
ATOM     84  C   UNL A   1      31.448  26.625  26.472  1.00  0.00     0.310 C 
ATOM     85  O   UNL A   1      31.384  25.475  26.900  1.00  0.00    -0.252 OA
BRANCH  84  86
ATOM     86  C   UNL A   1      32.163  26.922  25.153  1.00  0.00     0.119 C 
ATOM     87  C   UNL A   1      31.195  26.823  23.969  1.00  0.00     0.100 C 
ATOM     88  C   UNL A   1      33.618  26.567  24.667  1.00  0.00     0.026 C 
ATOM     89  C   UNL A   1      31.994  26.892  22.643  1.00  0.00     0.025 C 
ATOM     90  C   UNL A   1      33.700  25.514  23.563  1.00  0.00    -0.027 C 
ATOM     91  C   UNL A   1      34.083  27.810  23.851  1.00  0.00     0.009 C 
ATOM     92  C   UNL A   1      32.851  25.667  22.533  1.00  0.00    -0.027 C 
ATOM     93  C   UNL A   1      33.022  28.079  22.729  1.00  0.00     0.009 C 
BRANCH  87  94
ATOM     94  C   UNL A   1      30.046  25.799  24.048  1.00  0.00     0.228 C 
ATOM     95  O   UNL A   1      28.891  26.259  23.975  1.00  0.00    -0.274 OA
ATOM     96  N   UNL A   1      30.088  24.441  24.086  1.00  0.00    -0.326 N 
ATOM     97  H   UNL A   1      29.195  24.061  23.928  1.00  0.00     0.169 HD
BRANCH  96  98
ATOM     98  C   UNL A   1      31.034  23.420  24.286  1.00  0.00     0.041 A 
ATOM     99  C   UNL A   1      31.461  22.708  23.161  1.00  0.00     0.026 A 
ATOM    100  C   UNL A   1      31.555  23.024  25.503  1.00  0.00     0.026 A 
ATOM    101  C   UNL A   1      32.516  21.781  23.248  1.00  0.00     0.008 A 
ATOM    102  C   UNL A   1      32.586  22.089  25.614  1.00  0.00     0.008 A 
ATOM    103  C   UNL A   1      33.127  21.507  24.477  1.00  0.00    -0.026 A 
BRANCH 103 104
ATOM    104  C   UNL A   1      34.343  20.634  24.618  1.00  0.00     0.181 C 
BRANCH 104 105
ATOM    105  N   UNL A   1      35.565  21.406  24.655  1.00  0.00    -0.249 N 
ATOM    106  C   UNL A   1      36.784  21.012  25.110  1.00  0.00     0.220 A 
ATOM    107  N   UNL A   1      35.629  22.633  24.117  1.00  0.00    -0.160 NA
ATOM    108  N   UNL A   1      37.659  21.969  24.907  1.00  0.00    -0.224 NA
ATOM    109  C   UNL A   1      36.913  22.939  24.301  1.00  0.00     0.246 A 
ENDBRANCH 104 105
ENDBRANCH 103 104
ENDBRANCH  96  98
ENDBRANCH  87  94
ENDBRANCH  84  86
ENDBRANCH  83  84
ENDBRANCH  82  83
ENDBRANCH  81  82
ENDBRANCH  80  81
ENDBRANCH  79  80
ENDBRANCH   1  79
TORSDOF 27
ENDMDL
