MODEL 1
REMARK VINA RESULT:      -8.3      0.000      0.000
REMARK SMILES CC(C)[C@H](C)n1c(SCC(=O)OCCOCCOCCOCCOC(=O)c2ccc(-c3c4nc(c(-c5c(F)cc(S(=O)(=O)[O-])cc5F)c5ccc([nH]5)c(-c5c(F)cc(S(=O)(=O)[O-])cc5F)c5nc(c(-c6c(F)cc(S(=O)(=O)[O-])cc6F)c6ccc3[nH]6)C=C5)C=C4)cc2)nc2cc(Br)cnc21
REMARK SMILES IDX 17 1 16 2 15 3 14 4 13 5 12 6 10 7 11 8 9 9 8 10 7 11 6 12
REMARK SMILES IDX 100 13 93 14 94 15 99 16 95 17 98 18 96 19 97 20 4 21 5 22
REMARK SMILES IDX 2 23 1 24 3 25 18 26 19 27 20 28 21 29 22 30 23 31 24 32
REMARK SMILES IDX 25 33 26 34 27 35 28 36 92 37 29 38 91 39 30 40 31 41 32 42
REMARK SMILES IDX 85 43 33 44 90 45 84 46 86 47 34 48 89 49 83 50 82 51 35 53
REMARK SMILES IDX 69 54 48 55 68 56 49 57 52 58 67 59 87 60 50 61 51 62 66 64
REMARK SMILES IDX 88 65 53 66 36 67 37 68 46 69 38 70 39 71 45 72 47 73 40 74
REMARK SMILES IDX 41 75 42 76 43 77 44 78 70 79 71 80 80 81 72 82 73 83 79 84
REMARK SMILES IDX 81 85 74 86 75 87 76 88 77 89 78 90 54 91 55 92 64 93 56 94
REMARK SMILES IDX 57 95 63 96 65 97 58 98 59 99 60 100 61 101 62 102
REMARK H PARENT 86 52 52 63
REMARK Flexibility Score: inf
ROOT
ATOM      1  C   UNL A   1      39.611  23.232  26.797  1.00  0.00     0.188 C 
ENDROOT
BRANCH   1   2
ATOM      2  C   UNL A   1      38.517  24.135  26.227  1.00  0.00     0.188 C 
BRANCH   2   3
ATOM      3  O   UNL A   1      37.234  23.763  26.736  1.00  0.00    -0.376 OA
BRANCH   3   4
ATOM      4  C   UNL A   1      36.246  23.616  25.727  1.00  0.00     0.202 C 
BRANCH   4   5
ATOM      5  C   UNL A   1      35.231  22.501  26.002  1.00  0.00     0.261 C 
BRANCH   5   6
ATOM      6  O   UNL A   1      33.873  22.895  25.748  1.00  0.00    -0.463 OA
BRANCH   6   7
ATOM      7  C   UNL A   1      32.955  22.551  26.694  1.00  0.00     0.316 C 
ATOM      8  O   UNL A   1      33.230  22.247  27.850  1.00  0.00    -0.251 OA
BRANCH   7   9
ATOM      9  C   UNL A   1      31.546  22.451  26.147  1.00  0.00     0.200 C 
BRANCH   9  10
ATOM     10  S   UNL A   1      30.561  23.913  26.390  1.00  0.00    -0.076 SA
BRANCH  10  11
ATOM     11  C   UNL A   1      31.347  25.425  26.075  1.00  0.00     0.171 A 
ATOM     12  N   UNL A   1      31.804  26.053  24.917  1.00  0.00    -0.301 N 
ATOM     13  C   UNL A   1      32.328  27.269  25.333  1.00  0.00     0.161 A 
ATOM     14  N   UNL A   1      31.473  26.211  27.128  1.00  0.00    -0.221 NA
ATOM     15  C   UNL A   1      32.061  27.351  26.692  1.00  0.00     0.110 A 
ATOM     16  N   UNL A   1      32.942  28.215  24.596  1.00  0.00    -0.235 NA
ATOM     17  C   UNL A   1      32.398  28.519  27.388  1.00  0.00     0.049 A 
ATOM     18  C   UNL A   1      33.264  29.331  25.304  1.00  0.00     0.129 A 
ATOM     19  C   UNL A   1      33.005  29.532  26.655  1.00  0.00     0.038 A 
ATOM     20  Br  UNL A   1      33.426  31.178  27.474  1.00  0.00    -0.049 Br
BRANCH  12  21
ATOM     21  C   UNL A   1      31.689  25.604  23.523  1.00  0.00     0.091 C 
ATOM     22  C   UNL A   1      30.665  26.435  22.748  1.00  0.00     0.032 C 
BRANCH  21  23
ATOM     23  C   UNL A   1      33.001  25.331  22.703  1.00  0.00     0.006 C 
ATOM     24  C   UNL A   1      33.019  23.862  22.245  1.00  0.00     0.009 C 
ATOM     25  C   UNL A   1      33.235  26.185  21.443  1.00  0.00     0.009 C 
ENDBRANCH  21  23
ENDBRANCH  12  21
ENDBRANCH  10  11
ENDBRANCH   9  10
ENDBRANCH   7   9
ENDBRANCH   6   7
ENDBRANCH   5   6
ENDBRANCH   4   5
ENDBRANCH   3   4
ENDBRANCH   2   3
ENDBRANCH   1   2
BRANCH   1  26
ATOM     26  O   UNL A   1      40.940  23.640  26.459  1.00  0.00    -0.377 OA
BRANCH  26  27
ATOM     27  C   UNL A   1      41.916  22.592  26.413  1.00  0.00     0.188 C 
BRANCH  27  28
ATOM     28  C   UNL A   1      42.829  22.734  25.190  1.00  0.00     0.188 C 
BRANCH  28  29
ATOM     29  O   UNL A   1      43.687  21.627  24.888  1.00  0.00    -0.376 OA
BRANCH  29  30
ATOM     30  C   UNL A   1      45.096  21.816  24.837  1.00  0.00     0.202 C 
BRANCH  30  31
ATOM     31  C   UNL A   1      45.615  23.220  24.596  1.00  0.00     0.261 C 
BRANCH  31  32
ATOM     32  O   UNL A   1      45.718  23.936  25.811  1.00  0.00    -0.460 OA
BRANCH  32  33
ATOM     33  C   UNL A   1      45.494  25.253  25.644  1.00  0.00     0.338 C 
ATOM     34  O   UNL A   1      45.891  25.954  24.730  1.00  0.00    -0.246 OA
BRANCH  33  35
ATOM     35  C   UNL A   1      44.792  25.781  26.814  1.00  0.00     0.060 A 
ATOM     36  C   UNL A   1      43.492  26.196  26.554  1.00  0.00     0.016 A 
ATOM     37  C   UNL A   1      45.492  26.160  27.973  1.00  0.00     0.016 A 
ATOM     38  C   UNL A   1      43.003  27.225  27.307  1.00  0.00     0.010 A 
ATOM     39  C   UNL A   1      44.977  27.172  28.756  1.00  0.00     0.010 A 
ATOM     40  C   UNL A   1      43.794  27.762  28.336  1.00  0.00    -0.014 A 
BRANCH  40  41
ATOM     41  C   UNL A   1      43.298  29.001  28.888  1.00  0.00     0.031 A 
ATOM     42  C   UNL A   1      43.992  30.191  28.368  1.00  0.00     0.074 A 
ATOM     43  C   UNL A   1      42.416  29.065  29.897  1.00  0.00     0.049 A 
ATOM     44  N   UNL A   1      44.915  30.874  28.956  1.00  0.00    -0.248 NA
ATOM     45  C   UNL A   1      43.767  30.529  26.960  1.00  0.00     0.031 C 
ATOM     46  C   UNL A   1      41.481  28.053  30.387  1.00  0.00     0.029 A 
ATOM     47  N   UNL A   1      42.155  30.144  30.678  1.00  0.00    -0.354 N 
ATOM     48  C   UNL A   1      45.267  31.863  28.053  1.00  0.00     0.074 A 
ATOM     49  C   UNL A   1      44.647  31.516  26.798  1.00  0.00     0.031 C 
ATOM     50  C   UNL A   1      40.609  28.643  31.239  1.00  0.00     0.029 A 
ATOM     51  C   UNL A   1      41.022  30.021  31.458  1.00  0.00     0.049 A 
ATOM     52  H   UNL A   1      42.725  30.948  30.687  1.00  0.00     0.167 HD
ATOM     53  C   UNL A   1      45.865  33.011  28.460  1.00  0.00     0.037 A 
ATOM     54  C   UNL A   1      40.434  31.028  32.142  1.00  0.00     0.037 A 
ATOM     55  C   UNL A   1      46.487  32.875  29.752  1.00  0.00     0.049 A 
ATOM     56  C   UNL A   1      41.475  32.064  32.397  1.00  0.00     0.074 A 
ATOM     57  C   UNL A   1      47.489  32.070  30.262  1.00  0.00     0.029 A 
ATOM     58  N   UNL A   1      45.846  33.405  30.846  1.00  0.00    -0.354 N 
ATOM     59  N   UNL A   1      42.494  31.899  33.197  1.00  0.00    -0.248 NA
ATOM     60  C   UNL A   1      41.613  33.157  31.443  1.00  0.00     0.031 C 
ATOM     61  C   UNL A   1      47.110  31.799  31.610  1.00  0.00     0.029 A 
ATOM     62  C   UNL A   1      45.908  32.467  31.849  1.00  0.00     0.049 A 
ATOM     63  H   UNL A   1      45.421  34.292  30.902  1.00  0.00     0.167 HD
ATOM     64  C   UNL A   1      43.542  32.584  32.597  1.00  0.00     0.074 A 
ATOM     65  C   UNL A   1      42.914  33.419  31.580  1.00  0.00     0.031 C 
ATOM     66  C   UNL A   1      44.843  32.218  32.797  1.00  0.00     0.037 A 
BRANCH  53  67
ATOM     67  C   UNL A   1      45.559  34.336  27.822  1.00  0.00     0.058 A 
ATOM     68  C   UNL A   1      46.610  35.180  27.423  1.00  0.00     0.135 A 
ATOM     69  C   UNL A   1      44.271  34.920  27.846  1.00  0.00     0.135 A 
ATOM     70  F   UNL A   1      47.873  34.725  27.382  1.00  0.00    -0.206 F 
ATOM     71  C   UNL A   1      46.405  36.529  27.138  1.00  0.00     0.059 A 
ATOM     72  C   UNL A   1      44.036  36.243  27.508  1.00  0.00     0.059 A 
ATOM     73  F   UNL A   1      43.195  34.266  28.305  1.00  0.00    -0.206 F 
ATOM     74  C   UNL A   1      45.116  37.053  27.206  1.00  0.00     0.060 A 
BRANCH  74  75
ATOM     75  S   UNL A   1      44.863  38.823  27.005  1.00  0.00     0.124 S 
ATOM     76  O   UNL A   1      43.453  38.869  26.634  1.00  0.00    -0.237 OA
ATOM     77  O   UNL A   1      45.194  39.330  28.332  1.00  0.00    -0.237 OA
ATOM     78  O   UNL A   1      45.807  39.178  25.950  1.00  0.00    -0.744 OA
ENDBRANCH  74  75
ENDBRANCH  53  67
BRANCH  54  79
ATOM     79  C   UNL A   1      38.977  31.312  32.199  1.00  0.00     0.058 A 
ATOM     80  C   UNL A   1      38.300  31.348  33.429  1.00  0.00     0.135 A 
ATOM     81  C   UNL A   1      38.279  31.827  31.085  1.00  0.00     0.135 A 
ATOM     82  F   UNL A   1      38.901  30.903  34.543  1.00  0.00    -0.206 F 
ATOM     83  C   UNL A   1      37.026  31.909  33.559  1.00  0.00     0.059 A 
ATOM     84  C   UNL A   1      37.004  32.374  31.187  1.00  0.00     0.059 A 
ATOM     85  F   UNL A   1      38.850  31.901  29.875  1.00  0.00    -0.206 F 
ATOM     86  C   UNL A   1      36.395  32.438  32.433  1.00  0.00     0.060 A 
BRANCH  86  87
ATOM     87  S   UNL A   1      34.829  33.317  32.626  1.00  0.00     0.124 S 
ATOM     88  O   UNL A   1      33.933  32.522  31.794  1.00  0.00    -0.237 OA
ATOM     89  O   UNL A   1      34.607  33.235  34.065  1.00  0.00    -0.237 OA
ATOM     90  O   UNL A   1      35.126  34.655  32.120  1.00  0.00    -0.744 OA
ENDBRANCH  86  87
ENDBRANCH  54  79
BRANCH  66  91
ATOM     91  C   UNL A   1      45.147  31.274  33.933  1.00  0.00     0.058 A 
ATOM     92  C   UNL A   1      45.371  31.686  35.258  1.00  0.00     0.135 A 
ATOM     93  C   UNL A   1      45.071  29.893  33.695  1.00  0.00     0.135 A 
ATOM     94  F   UNL A   1      45.352  32.987  35.586  1.00  0.00    -0.206 F 
ATOM     95  C   UNL A   1      45.556  30.766  36.292  1.00  0.00     0.059 A 
ATOM     96  C   UNL A   1      45.226  28.957  34.716  1.00  0.00     0.059 A 
ATOM     97  F   UNL A   1      44.796  29.436  32.462  1.00  0.00    -0.206 F 
ATOM     98  C   UNL A   1      45.482  29.401  36.011  1.00  0.00     0.060 A 
BRANCH  98  99
ATOM     99  S   UNL A   1      45.647  28.215  37.364  1.00  0.00     0.124 S 
ATOM    100  O   UNL A   1      47.096  28.101  37.499  1.00  0.00    -0.237 OA
ATOM    101  O   UNL A   1      44.959  28.886  38.464  1.00  0.00    -0.237 OA
ATOM    102  O   UNL A   1      44.973  27.021  36.858  1.00  0.00    -0.744 OA
ENDBRANCH  98  99
ENDBRANCH  66  91
ENDBRANCH  40  41
ENDBRANCH  33  35
ENDBRANCH  32  33
ENDBRANCH  31  32
ENDBRANCH  30  31
ENDBRANCH  29  30
ENDBRANCH  28  29
ENDBRANCH  27  28
ENDBRANCH  26  27
ENDBRANCH   1  26
TORSDOF 27
ENDMDL
MODEL 2
REMARK VINA RESULT:      -8.1      2.083      2.810
REMARK SMILES CC(C)[C@H](C)n1c(SCC(=O)OCCOCCOCCOCCOC(=O)c2ccc(-c3c4nc(c(-c5c(F)cc(S(=O)(=O)[O-])cc5F)c5ccc([nH]5)c(-c5c(F)cc(S(=O)(=O)[O-])cc5F)c5nc(c(-c6c(F)cc(S(=O)(=O)[O-])cc6F)c6ccc3[nH]6)C=C5)C=C4)cc2)nc2cc(Br)cnc21
REMARK SMILES IDX 17 1 16 2 15 3 14 4 13 5 12 6 10 7 11 8 9 9 8 10 7 11 6 12
REMARK SMILES IDX 100 13 93 14 94 15 99 16 95 17 98 18 96 19 97 20 4 21 5 22
REMARK SMILES IDX 2 23 1 24 3 25 18 26 19 27 20 28 21 29 22 30 23 31 24 32
REMARK SMILES IDX 25 33 26 34 27 35 28 36 92 37 29 38 91 39 30 40 31 41 32 42
REMARK SMILES IDX 85 43 33 44 90 45 84 46 86 47 34 48 89 49 83 50 82 51 35 53
REMARK SMILES IDX 69 54 48 55 68 56 49 57 52 58 67 59 87 60 50 61 51 62 66 64
REMARK SMILES IDX 88 65 53 66 36 67 37 68 46 69 38 70 39 71 45 72 47 73 40 74
REMARK SMILES IDX 41 75 42 76 43 77 44 78 70 79 71 80 80 81 72 82 73 83 79 84
REMARK SMILES IDX 81 85 74 86 75 87 76 88 77 89 78 90 54 91 55 92 64 93 56 94
REMARK SMILES IDX 57 95 63 96 65 97 58 98 59 99 60 100 61 101 62 102
REMARK H PARENT 86 52 52 63
REMARK Flexibility Score: inf
ROOT
ATOM      1  C   UNL A   1      37.980  21.326  25.495  1.00  0.00     0.188 C 
ENDROOT
BRANCH   1   2
ATOM      2  C   UNL A   1      37.429  20.083  24.796  1.00  0.00     0.188 C 
BRANCH   2   3
ATOM      3  O   UNL A   1      36.006  20.018  24.920  1.00  0.00    -0.376 OA
BRANCH   3   4
ATOM      4  C   UNL A   1      35.420  21.233  25.363  1.00  0.00     0.202 C 
BRANCH   4   5
ATOM      5  C   UNL A   1      34.219  21.045  26.297  1.00  0.00     0.261 C 
BRANCH   5   6
ATOM      6  O   UNL A   1      33.195  22.035  26.108  1.00  0.00    -0.463 OA
BRANCH   6   7
ATOM      7  C   UNL A   1      32.105  21.650  25.389  1.00  0.00     0.316 C 
ATOM      8  O   UNL A   1      32.141  20.884  24.431  1.00  0.00    -0.251 OA
BRANCH   7   9
ATOM      9  C   UNL A   1      30.835  22.364  25.802  1.00  0.00     0.200 C 
BRANCH   9  10
ATOM     10  S   UNL A   1      31.098  23.984  26.490  1.00  0.00    -0.076 SA
BRANCH  10  11
ATOM     11  C   UNL A   1      31.027  25.308  25.376  1.00  0.00     0.171 A 
ATOM     12  N   UNL A   1      31.942  25.874  24.489  1.00  0.00    -0.301 N 
ATOM     13  C   UNL A   1      31.263  26.908  23.859  1.00  0.00     0.161 A 
ATOM     14  N   UNL A   1      29.835  25.862  25.252  1.00  0.00    -0.221 NA
ATOM     15  C   UNL A   1      29.956  26.837  24.319  1.00  0.00     0.110 A 
ATOM     16  N   UNL A   1      31.731  27.793  22.957  1.00  0.00    -0.235 NA
ATOM     17  C   UNL A   1      28.996  27.709  23.791  1.00  0.00     0.049 A 
ATOM     18  C   UNL A   1      30.775  28.631  22.474  1.00  0.00     0.129 A 
ATOM     19  C   UNL A   1      29.432  28.618  22.834  1.00  0.00     0.038 A 
ATOM     20  Br  UNL A   1      28.207  29.783  21.999  1.00  0.00    -0.049 Br
BRANCH  12  21
ATOM     21  C   UNL A   1      33.313  25.442  24.184  1.00  0.00     0.091 C 
ATOM     22  C   UNL A   1      34.143  25.267  25.457  1.00  0.00     0.032 C 
BRANCH  21  23
ATOM     23  C   UNL A   1      33.530  24.280  23.148  1.00  0.00     0.006 C 
ATOM     24  C   UNL A   1      33.303  24.818  21.725  1.00  0.00     0.009 C 
ATOM     25  C   UNL A   1      34.908  23.591  23.141  1.00  0.00     0.009 C 
ENDBRANCH  21  23
ENDBRANCH  12  21
ENDBRANCH  10  11
ENDBRANCH   9  10
ENDBRANCH   7   9
ENDBRANCH   6   7
ENDBRANCH   5   6
ENDBRANCH   4   5
ENDBRANCH   3   4
ENDBRANCH   2   3
ENDBRANCH   1   2
BRANCH   1  26
ATOM     26  O   UNL A   1      39.408  21.398  25.516  1.00  0.00    -0.377 OA
BRANCH  26  27
ATOM     27  C   UNL A   1      40.041  20.799  26.654  1.00  0.00     0.188 C 
BRANCH  27  28
ATOM     28  C   UNL A   1      41.275  19.988  26.243  1.00  0.00     0.188 C 
BRANCH  28  29
ATOM     29  O   UNL A   1      42.544  20.448  26.722  1.00  0.00    -0.376 OA
BRANCH  29  30
ATOM     30  C   UNL A   1      42.971  21.774  26.439  1.00  0.00     0.202 C 
BRANCH  30  31
ATOM     31  C   UNL A   1      42.738  22.835  27.498  1.00  0.00     0.261 C 
BRANCH  31  32
ATOM     32  O   UNL A   1      43.186  24.100  27.053  1.00  0.00    -0.460 OA
BRANCH  32  33
ATOM     33  C   UNL A   1      42.173  24.872  26.615  1.00  0.00     0.338 C 
ATOM     34  O   UNL A   1      41.129  24.495  26.113  1.00  0.00    -0.246 OA
BRANCH  33  35
ATOM     35  C   UNL A   1      42.558  26.280  26.708  1.00  0.00     0.060 A 
ATOM     36  C   UNL A   1      43.554  26.533  27.644  1.00  0.00     0.016 A 
ATOM     37  C   UNL A   1      41.745  27.294  26.173  1.00  0.00     0.016 A 
ATOM     38  C   UNL A   1      43.537  27.752  28.259  1.00  0.00     0.010 A 
ATOM     39  C   UNL A   1      41.758  28.537  26.769  1.00  0.00     0.010 A 
ATOM     40  C   UNL A   1      42.574  28.703  27.878  1.00  0.00    -0.014 A 
BRANCH  40  41
ATOM     41  C   UNL A   1      42.476  29.841  28.761  1.00  0.00     0.031 A 
ATOM     42  C   UNL A   1      43.630  30.749  28.673  1.00  0.00     0.074 A 
ATOM     43  C   UNL A   1      41.520  29.978  29.692  1.00  0.00     0.049 A 
ATOM     44  N   UNL A   1      44.625  30.828  29.492  1.00  0.00    -0.248 NA
ATOM     45  C   UNL A   1      43.785  31.510  27.430  1.00  0.00     0.031 C 
ATOM     46  C   UNL A   1      40.213  29.330  29.795  1.00  0.00     0.029 A 
ATOM     47  N   UNL A   1      41.540  30.823  30.756  1.00  0.00    -0.354 N 
ATOM     48  C   UNL A   1      45.459  31.797  28.960  1.00  0.00     0.074 A 
ATOM     49  C   UNL A   1      44.977  32.071  27.629  1.00  0.00     0.031 C 
ATOM     50  C   UNL A   1      39.484  29.968  30.741  1.00  0.00     0.029 A 
ATOM     51  C   UNL A   1      40.326  30.956  31.399  1.00  0.00     0.049 A 
ATOM     52  H   UNL A   1      42.352  31.300  31.043  1.00  0.00     0.167 HD
ATOM     53  C   UNL A   1      46.355  32.460  29.735  1.00  0.00     0.037 A 
ATOM     54  C   UNL A   1      40.036  31.893  32.331  1.00  0.00     0.037 A 
ATOM     55  C   UNL A   1      46.657  31.750  30.950  1.00  0.00     0.049 A 
ATOM     56  C   UNL A   1      41.323  32.322  32.948  1.00  0.00     0.074 A 
ATOM     57  C   UNL A   1      47.197  30.510  31.236  1.00  0.00     0.029 A 
ATOM     58  N   UNL A   1      46.076  32.179  32.120  1.00  0.00    -0.354 N 
ATOM     59  N   UNL A   1      42.061  31.560  33.710  1.00  0.00    -0.248 NA
ATOM     60  C   UNL A   1      42.006  33.481  32.390  1.00  0.00     0.031 C 
ATOM     61  C   UNL A   1      46.524  30.064  32.412  1.00  0.00     0.029 A 
ATOM     62  C   UNL A   1      45.624  31.063  32.783  1.00  0.00     0.049 A 
ATOM     63  H   UNL A   1      45.999  33.112  32.426  1.00  0.00     0.167 HD
ATOM     64  C   UNL A   1      43.371  31.906  33.407  1.00  0.00     0.074 A 
ATOM     65  C   UNL A   1      43.271  33.159  32.668  1.00  0.00     0.031 C 
ATOM     66  C   UNL A   1      44.397  31.015  33.551  1.00  0.00     0.037 A 
BRANCH  53  67
ATOM     67  C   UNL A   1      46.662  33.915  29.525  1.00  0.00     0.058 A 
ATOM     68  C   UNL A   1      45.670  34.881  29.765  1.00  0.00     0.135 A 
ATOM     69  C   UNL A   1      47.809  34.365  28.829  1.00  0.00     0.135 A 
ATOM     70  F   UNL A   1      44.537  34.552  30.405  1.00  0.00    -0.206 F 
ATOM     71  C   UNL A   1      45.778  36.185  29.285  1.00  0.00     0.059 A 
ATOM     72  C   UNL A   1      47.964  35.671  28.395  1.00  0.00     0.059 A 
ATOM     73  F   UNL A   1      48.784  33.533  28.439  1.00  0.00    -0.206 F 
ATOM     74  C   UNL A   1      46.921  36.561  28.581  1.00  0.00     0.060 A 
BRANCH  74  75
ATOM     75  S   UNL A   1      46.999  38.187  27.814  1.00  0.00     0.124 S 
ATOM     76  O   UNL A   1      46.197  38.978  28.740  1.00  0.00    -0.237 OA
ATOM     77  O   UNL A   1      48.434  38.455  27.817  1.00  0.00    -0.237 OA
ATOM     78  O   UNL A   1      46.411  37.965  26.497  1.00  0.00    -0.744 OA
ENDBRANCH  74  75
ENDBRANCH  53  67
BRANCH  54  79
ATOM     79  C   UNL A   1      38.794  32.705  32.397  1.00  0.00     0.058 A 
ATOM     80  C   UNL A   1      38.405  33.510  31.315  1.00  0.00     0.135 A 
ATOM     81  C   UNL A   1      37.825  32.496  33.401  1.00  0.00     0.135 A 
ATOM     82  F   UNL A   1      39.256  33.740  30.303  1.00  0.00    -0.206 F 
ATOM     83  C   UNL A   1      37.114  34.036  31.207  1.00  0.00     0.059 A 
ATOM     84  C   UNL A   1      36.540  33.023  33.324  1.00  0.00     0.059 A 
ATOM     85  F   UNL A   1      38.064  31.694  34.449  1.00  0.00    -0.206 F 
ATOM     86  C   UNL A   1      36.181  33.768  32.210  1.00  0.00     0.060 A 
BRANCH  86  87
ATOM     87  S   UNL A   1      34.469  34.297  31.991  1.00  0.00     0.124 S 
ATOM     88  O   UNL A   1      34.427  34.599  30.565  1.00  0.00    -0.237 OA
ATOM     89  O   UNL A   1      33.727  33.116  32.417  1.00  0.00    -0.237 OA
ATOM     90  O   UNL A   1      34.354  35.453  32.877  1.00  0.00    -0.744 OA
ENDBRANCH  86  87
ENDBRANCH  54  79
BRANCH  66  91
ATOM     91  C   UNL A   1      44.142  29.763  34.351  1.00  0.00     0.058 A 
ATOM     92  C   UNL A   1      44.344  29.663  35.739  1.00  0.00     0.135 A 
ATOM     93  C   UNL A   1      43.540  28.669  33.710  1.00  0.00     0.135 A 
ATOM     94  F   UNL A   1      44.816  30.704  36.442  1.00  0.00    -0.206 F 
ATOM     95  C   UNL A   1      44.004  28.510  36.449  1.00  0.00     0.059 A 
ATOM     96  C   UNL A   1      43.168  27.519  34.403  1.00  0.00     0.059 A 
ATOM     97  F   UNL A   1      43.263  28.727  32.397  1.00  0.00    -0.206 F 
ATOM     98  C   UNL A   1      43.415  27.441  35.772  1.00  0.00     0.060 A 
BRANCH  98  99
ATOM     99  S   UNL A   1      42.908  25.980  36.708  1.00  0.00     0.124 S 
ATOM    100  O   UNL A   1      44.001  25.051  36.445  1.00  0.00    -0.237 OA
ATOM    101  O   UNL A   1      42.822  26.489  38.074  1.00  0.00    -0.237 OA
ATOM    102  O   UNL A   1      41.625  25.618  36.108  1.00  0.00    -0.744 OA
ENDBRANCH  98  99
ENDBRANCH  66  91
ENDBRANCH  40  41
ENDBRANCH  33  35
ENDBRANCH  32  33
ENDBRANCH  31  32
ENDBRANCH  30  31
ENDBRANCH  29  30
ENDBRANCH  28  29
ENDBRANCH  27  28
ENDBRANCH  26  27
ENDBRANCH   1  26
TORSDOF 27
ENDMDL
MODEL 3
REMARK VINA RESULT:      -7.9      4.050      9.116
REMARK SMILES CC(C)[C@H](C)n1c(SCC(=O)OCCOCCOCCOCCOC(=O)c2ccc(-c3c4nc(c(-c5c(F)cc(S(=O)(=O)[O-])cc5F)c5ccc([nH]5)c(-c5c(F)cc(S(=O)(=O)[O-])cc5F)c5nc(c(-c6c(F)cc(S(=O)(=O)[O-])cc6F)c6ccc3[nH]6)C=C5)C=C4)cc2)nc2cc(Br)cnc21
REMARK SMILES IDX 17 1 16 2 15 3 14 4 13 5 12 6 10 7 11 8 9 9 8 10 7 11 6 12
REMARK SMILES IDX 100 13 93 14 94 15 99 16 95 17 98 18 96 19 97 20 4 21 5 22
REMARK SMILES IDX 2 23 1 24 3 25 18 26 19 27 20 28 21 29 22 30 23 31 24 32
REMARK SMILES IDX 25 33 26 34 27 35 28 36 92 37 29 38 91 39 30 40 31 41 32 42
REMARK SMILES IDX 85 43 33 44 90 45 84 46 86 47 34 48 89 49 83 50 82 51 35 53
REMARK SMILES IDX 69 54 48 55 68 56 49 57 52 58 67 59 87 60 50 61 51 62 66 64
REMARK SMILES IDX 88 65 53 66 36 67 37 68 46 69 38 70 39 71 45 72 47 73 40 74
REMARK SMILES IDX 41 75 42 76 43 77 44 78 70 79 71 80 80 81 72 82 73 83 79 84
REMARK SMILES IDX 81 85 74 86 75 87 76 88 77 89 78 90 54 91 55 92 64 93 56 94
REMARK SMILES IDX 57 95 63 96 65 97 58 98 59 99 60 100 61 101 62 102
REMARK H PARENT 86 52 52 63
REMARK Flexibility Score: inf
ROOT
ATOM      1  C   UNL A   1      40.283  28.882  28.061  1.00  0.00     0.188 C 
ENDROOT
BRANCH   1   2
ATOM      2  C   UNL A   1      40.525  27.392  28.304  1.00  0.00     0.188 C 
BRANCH   2   3
ATOM      3  O   UNL A   1      39.578  26.599  27.583  1.00  0.00    -0.376 OA
BRANCH   3   4
ATOM      4  C   UNL A   1      40.095  25.347  27.157  1.00  0.00     0.202 C 
BRANCH   4   5
ATOM      5  C   UNL A   1      39.132  24.172  27.354  1.00  0.00     0.261 C 
BRANCH   5   6
ATOM      6  O   UNL A   1      38.711  23.571  26.119  1.00  0.00    -0.463 OA
BRANCH   6   7
ATOM      7  C   UNL A   1      38.793  22.213  26.047  1.00  0.00     0.316 C 
ATOM      8  O   UNL A   1      39.747  21.553  26.445  1.00  0.00    -0.251 OA
BRANCH   7   9
ATOM      9  C   UNL A   1      37.634  21.585  25.299  1.00  0.00     0.200 C 
BRANCH   9  10
ATOM     10  S   UNL A   1      36.918  22.630  24.050  1.00  0.00    -0.076 SA
BRANCH  10  11
ATOM     11  C   UNL A   1      35.203  22.859  24.137  1.00  0.00     0.171 A 
ATOM     12  N   UNL A   1      34.143  22.064  24.571  1.00  0.00    -0.301 N 
ATOM     13  C   UNL A   1      33.002  22.835  24.400  1.00  0.00     0.161 A 
ATOM     14  N   UNL A   1      34.791  24.070  23.813  1.00  0.00    -0.221 NA
ATOM     15  C   UNL A   1      33.446  24.080  23.979  1.00  0.00     0.110 A 
ATOM     16  N   UNL A   1      31.717  22.494  24.622  1.00  0.00    -0.235 NA
ATOM     17  C   UNL A   1      32.520  25.115  23.803  1.00  0.00     0.049 A 
ATOM     18  C   UNL A   1      30.844  23.519  24.432  1.00  0.00     0.129 A 
ATOM     19  C   UNL A   1      31.186  24.812  24.052  1.00  0.00     0.038 A 
ATOM     20  Br  UNL A   1      29.866  26.152  23.926  1.00  0.00    -0.049 Br
BRANCH  12  21
ATOM     21  C   UNL A   1      34.187  20.725  25.177  1.00  0.00     0.091 C 
ATOM     22  C   UNL A   1      33.608  20.731  26.593  1.00  0.00     0.032 C 
BRANCH  21  23
ATOM     23  C   UNL A   1      33.714  19.491  24.327  1.00  0.00     0.006 C 
ATOM     24  C   UNL A   1      34.714  18.336  24.506  1.00  0.00     0.009 C 
ATOM     25  C   UNL A   1      32.320  18.915  24.638  1.00  0.00     0.009 C 
ENDBRANCH  21  23
ENDBRANCH  12  21
ENDBRANCH  10  11
ENDBRANCH   9  10
ENDBRANCH   7   9
ENDBRANCH   6   7
ENDBRANCH   5   6
ENDBRANCH   4   5
ENDBRANCH   3   4
ENDBRANCH   2   3
ENDBRANCH   1   2
BRANCH   1  26
ATOM     26  O   UNL A   1      39.979  29.624  29.245  1.00  0.00    -0.377 OA
BRANCH  26  27
ATOM     27  C   UNL A   1      38.818  29.191  29.966  1.00  0.00     0.188 C 
BRANCH  27  28
ATOM     28  C   UNL A   1      37.872  30.361  30.253  1.00  0.00     0.188 C 
BRANCH  28  29
ATOM     29  O   UNL A   1      38.407  31.463  30.997  1.00  0.00    -0.376 OA
BRANCH  29  30
ATOM     30  C   UNL A   1      38.075  31.620  32.370  1.00  0.00     0.202 C 
BRANCH  30  31
ATOM     31  C   UNL A   1      39.146  31.312  33.398  1.00  0.00     0.261 C 
BRANCH  31  32
ATOM     32  O   UNL A   1      39.172  29.931  33.704  1.00  0.00    -0.460 OA
BRANCH  32  33
ATOM     33  C   UNL A   1      40.056  29.643  34.678  1.00  0.00     0.338 C 
ATOM     34  O   UNL A   1      40.022  30.024  35.835  1.00  0.00    -0.246 OA
BRANCH  33  35
ATOM     35  C   UNL A   1      41.175  28.890  34.112  1.00  0.00     0.060 A 
ATOM     36  C   UNL A   1      42.389  29.117  34.749  1.00  0.00     0.016 A 
ATOM     37  C   UNL A   1      41.085  28.298  32.840  1.00  0.00     0.016 A 
ATOM     38  C   UNL A   1      43.520  29.021  33.989  1.00  0.00     0.010 A 
ATOM     39  C   UNL A   1      42.234  28.164  32.089  1.00  0.00     0.010 A 
ATOM     40  C   UNL A   1      43.414  28.639  32.641  1.00  0.00    -0.014 A 
BRANCH  40  41
ATOM     41  C   UNL A   1      44.621  28.824  31.870  1.00  0.00     0.031 A 
ATOM     42  C   UNL A   1      44.594  30.027  31.023  1.00  0.00     0.074 A 
ATOM     43  C   UNL A   1      45.601  27.911  31.794  1.00  0.00     0.049 A 
ATOM     44  N   UNL A   1      44.366  30.083  29.754  1.00  0.00    -0.248 NA
ATOM     45  C   UNL A   1      44.628  31.322  31.708  1.00  0.00     0.031 C 
ATOM     46  C   UNL A   1      45.913  26.796  32.687  1.00  0.00     0.029 A 
ATOM     47  N   UNL A   1      46.586  27.855  30.861  1.00  0.00    -0.354 N 
ATOM     48  C   UNL A   1      44.412  31.429  29.434  1.00  0.00     0.074 A 
ATOM     49  C   UNL A   1      44.424  32.150  30.684  1.00  0.00     0.031 C 
ATOM     50  C   UNL A   1      47.137  26.311  32.368  1.00  0.00     0.029 A 
ATOM     51  C   UNL A   1      47.611  26.983  31.167  1.00  0.00     0.049 A 
ATOM     52  H   UNL A   1      46.571  28.393  30.036  1.00  0.00     0.167 HD
ATOM     53  C   UNL A   1      44.657  31.846  28.166  1.00  0.00     0.037 A 
ATOM     54  C   UNL A   1      48.797  26.915  30.519  1.00  0.00     0.037 A 
ATOM     55  C   UNL A   1      44.386  30.820  27.192  1.00  0.00     0.049 A 
ATOM     56  C   UNL A   1      48.588  27.458  29.147  1.00  0.00     0.074 A 
ATOM     57  C   UNL A   1      43.261  30.102  26.832  1.00  0.00     0.029 A 
ATOM     58  N   UNL A   1      45.450  30.141  26.646  1.00  0.00    -0.354 N 
ATOM     59  N   UNL A   1      47.868  26.873  28.228  1.00  0.00    -0.248 NA
ATOM     60  C   UNL A   1      48.852  28.872  28.915  1.00  0.00     0.031 C 
ATOM     61  C   UNL A   1      43.735  28.802  26.487  1.00  0.00     0.029 A 
ATOM     62  C   UNL A   1      45.121  28.806  26.642  1.00  0.00     0.049 A 
ATOM     63  H   UNL A   1      46.289  30.537  26.318  1.00  0.00     0.167 HD
ATOM     64  C   UNL A   1      47.261  27.908  27.529  1.00  0.00     0.074 A 
ATOM     65  C   UNL A   1      47.983  29.110  27.930  1.00  0.00     0.031 C 
ATOM     66  C   UNL A   1      46.063  27.736  26.895  1.00  0.00     0.037 A 
BRANCH  53  67
ATOM     67  C   UNL A   1      45.478  33.069  27.877  1.00  0.00     0.058 A 
ATOM     68  C   UNL A   1      44.995  34.042  26.984  1.00  0.00     0.135 A 
ATOM     69  C   UNL A   1      46.843  33.180  28.233  1.00  0.00     0.135 A 
ATOM     70  F   UNL A   1      43.717  34.016  26.573  1.00  0.00    -0.206 F 
ATOM     71  C   UNL A   1      45.827  35.012  26.428  1.00  0.00     0.059 A 
ATOM     72  C   UNL A   1      47.674  34.172  27.740  1.00  0.00     0.059 A 
ATOM     73  F   UNL A   1      47.463  32.265  28.990  1.00  0.00    -0.206 F 
ATOM     74  C   UNL A   1      47.171  35.052  26.797  1.00  0.00     0.060 A 
BRANCH  74  75
ATOM     75  S   UNL A   1      48.289  36.188  25.964  1.00  0.00     0.124 S 
ATOM     76  O   UNL A   1      49.172  36.573  27.059  1.00  0.00    -0.237 OA
ATOM     77  O   UNL A   1      48.876  35.336  24.935  1.00  0.00    -0.237 OA
ATOM     78  O   UNL A   1      47.398  37.234  25.471  1.00  0.00    -0.744 OA
ENDBRANCH  74  75
ENDBRANCH  53  67
BRANCH  54  79
ATOM     79  C   UNL A   1      50.135  26.809  31.154  1.00  0.00     0.058 A 
ATOM     80  C   UNL A   1      50.581  27.789  32.055  1.00  0.00     0.135 A 
ATOM     81  C   UNL A   1      50.884  25.614  31.109  1.00  0.00     0.135 A 
ATOM     82  F   UNL A   1      49.912  28.946  32.181  1.00  0.00    -0.206 F 
ATOM     83  C   UNL A   1      51.675  27.578  32.900  1.00  0.00     0.059 A 
ATOM     84  C   UNL A   1      51.986  25.388  31.928  1.00  0.00     0.059 A 
ATOM     85  F   UNL A   1      50.514  24.585  30.333  1.00  0.00    -0.206 F 
ATOM     86  C   UNL A   1      52.359  26.363  32.842  1.00  0.00     0.060 A 
BRANCH  86  87
ATOM     87  S   UNL A   1      53.658  26.019  34.048  1.00  0.00     0.124 S 
ATOM     88  O   UNL A   1      54.854  26.036  33.214  1.00  0.00    -0.237 OA
ATOM     89  O   UNL A   1      53.513  27.131  34.980  1.00  0.00    -0.237 OA
ATOM     90  O   UNL A   1      53.288  24.710  34.582  1.00  0.00    -0.744 OA
ENDBRANCH  86  87
ENDBRANCH  54  79
BRANCH  66  91
ATOM     91  C   UNL A   1      45.569  26.328  26.683  1.00  0.00     0.058 A 
ATOM     92  C   UNL A   1      44.774  25.627  27.608  1.00  0.00     0.135 A 
ATOM     93  C   UNL A   1      45.793  25.719  25.439  1.00  0.00     0.135 A 
ATOM     94  F   UNL A   1      44.427  26.184  28.777  1.00  0.00    -0.206 F 
ATOM     95  C   UNL A   1      44.264  24.358  27.324  1.00  0.00     0.059 A 
ATOM     96  C   UNL A   1      45.271  24.466  25.124  1.00  0.00     0.059 A 
ATOM     97  F   UNL A   1      46.491  26.364  24.489  1.00  0.00    -0.206 F 
ATOM     98  C   UNL A   1      44.517  23.785  26.077  1.00  0.00     0.060 A 
BRANCH  98  99
ATOM     99  S   UNL A   1      43.793  22.176  25.686  1.00  0.00     0.124 S 
ATOM    100  O   UNL A   1      42.976  22.482  24.517  1.00  0.00    -0.237 OA
ATOM    101  O   UNL A   1      44.969  21.347  25.438  1.00  0.00    -0.237 OA
ATOM    102  O   UNL A   1      43.046  21.834  26.895  1.00  0.00    -0.744 OA
ENDBRANCH  98  99
ENDBRANCH  66  91
ENDBRANCH  40  41
ENDBRANCH  33  35
ENDBRANCH  32  33
ENDBRANCH  31  32
ENDBRANCH  30  31
ENDBRANCH  29  30
ENDBRANCH  28  29
ENDBRANCH  27  28
ENDBRANCH  26  27
ENDBRANCH   1  26
TORSDOF 27
ENDMDL
