MODEL 1
REMARK VINA RESULT:      -9.0      0.000      0.000
REMARK SMILES O=C(OCCOCCOCCOCCOC(=O)[C@@H]1CC=CC[C@H]1C(=O)N1CC[NH+](Cc2ccc3c(c2)OCO3)CC1)c1ccc(-c2c3nc(c(-c4c(F)cc(S(=O)(=O)[O-])cc4F)c4ccc([nH]4)c(-c4c(F)cc(S(=O)(=O)[O-])cc4F)c4nc(c(-c5c(F)cc(S(=O)(=O)[O-])cc5F)c5ccc2[nH]5)C=C4)C=C3)cc1
REMARK SMILES IDX 9 1 8 2 7 3 6 4 5 5 4 6 3 7 2 8 1 9 42 10 43 11 107 12 44 13
REMARK SMILES IDX 106 14 45 15 46 16 47 17 100 18 48 19 105 20 99 21 101 22
REMARK SMILES IDX 49 23 104 24 98 25 97 26 50 28 84 29 63 30 83 31 64 32 67 33
REMARK SMILES IDX 82 34 102 35 65 36 66 37 81 39 103 40 68 41 51 42 52 43
REMARK SMILES IDX 61 44 53 45 54 46 60 47 62 48 55 49 56 50 57 51 58 52 59 53
REMARK SMILES IDX 85 54 86 55 95 56 87 57 88 58 94 59 96 60 89 61 90 62 91 63
REMARK SMILES IDX 92 64 93 65 69 66 70 67 79 68 71 69 72 70 78 71 80 72 73 73
REMARK SMILES IDX 74 74 75 75 76 76 77 77 10 78 11 79 12 80 13 81 14 82 15 83
REMARK SMILES IDX 16 84 17 85 18 86 19 87 23 88 20 89 22 90 21 91 24 92 25 93
REMARK SMILES IDX 26 94 27 95 41 96 28 97 40 98 29 99 30 101 31 102 32 103
REMARK SMILES IDX 36 104 33 105 35 106 34 107 37 108 39 109 38 110
REMARK H PARENT 101 27 67 38 29 100
REMARK Flexibility Score: inf
ROOT
ATOM      1  O   UNL A   1      37.828  23.651  25.179  1.00  0.00    -0.377 OA
ENDROOT
BRANCH   1   2
ATOM      2  C   UNL A   1      38.259  23.983  26.494  1.00  0.00     0.188 C 
BRANCH   2   3
ATOM      3  C   UNL A   1      39.544  24.789  26.586  1.00  0.00     0.188 C 
BRANCH   3   4
ATOM      4  O   UNL A   1      40.679  23.968  26.803  1.00  0.00    -0.376 OA
BRANCH   4   5
ATOM      5  C   UNL A   1      41.845  24.312  26.082  1.00  0.00     0.202 C 
BRANCH   5   6
ATOM      6  C   UNL A   1      42.788  25.138  26.956  1.00  0.00     0.261 C 
BRANCH   6   7
ATOM      7  O   UNL A   1      43.797  24.308  27.565  1.00  0.00    -0.460 OA
BRANCH   7   8
ATOM      8  C   UNL A   1      44.710  24.594  28.525  1.00  0.00     0.338 C 
ATOM      9  O   UNL A   1      45.781  23.986  28.485  1.00  0.00    -0.246 OA
BRANCH   8  10
ATOM     10  C   UNL A   1      44.532  25.581  29.647  1.00  0.00     0.060 A 
ATOM     11  C   UNL A   1      44.094  25.296  30.942  1.00  0.00     0.016 A 
ATOM     12  C   UNL A   1      44.865  26.923  29.362  1.00  0.00     0.016 A 
ATOM     13  C   UNL A   1      43.987  26.279  31.917  1.00  0.00     0.010 A 
ATOM     14  C   UNL A   1      44.716  27.933  30.319  1.00  0.00     0.010 A 
ATOM     15  C   UNL A   1      44.239  27.606  31.590  1.00  0.00    -0.014 A 
BRANCH  15  16
ATOM     16  C   UNL A   1      43.685  28.617  32.504  1.00  0.00     0.031 A 
ATOM     17  C   UNL A   1      44.544  29.005  33.673  1.00  0.00     0.074 A 
ATOM     18  C   UNL A   1      42.563  29.279  32.180  1.00  0.00     0.049 A 
ATOM     19  N   UNL A   1      44.338  29.902  34.597  1.00  0.00    -0.248 NA
ATOM     20  C   UNL A   1      45.836  28.300  33.800  1.00  0.00     0.031 C 
ATOM     21  C   UNL A   1      41.766  29.046  30.973  1.00  0.00     0.029 A 
ATOM     22  N   UNL A   1      41.923  30.307  32.813  1.00  0.00    -0.354 N 
ATOM     23  C   UNL A   1      45.454  29.849  35.424  1.00  0.00     0.074 A 
ATOM     24  C   UNL A   1      46.338  28.838  34.898  1.00  0.00     0.031 C 
ATOM     25  C   UNL A   1      40.744  29.919  30.951  1.00  0.00     0.029 A 
ATOM     26  C   UNL A   1      40.793  30.737  32.160  1.00  0.00     0.049 A 
ATOM     27  H   UNL A   1      42.241  30.703  33.657  1.00  0.00     0.167 HD
ATOM     28  C   UNL A   1      45.707  30.582  36.532  1.00  0.00     0.037 A 
ATOM     29  C   UNL A   1      39.898  31.675  32.525  1.00  0.00     0.037 A 
ATOM     30  C   UNL A   1      44.792  31.573  37.024  1.00  0.00     0.049 A 
ATOM     31  C   UNL A   1      40.152  32.410  33.817  1.00  0.00     0.074 A 
ATOM     32  C   UNL A   1      44.880  32.344  38.166  1.00  0.00     0.029 A 
ATOM     33  N   UNL A   1      43.604  31.921  36.390  1.00  0.00    -0.354 N 
ATOM     34  N   UNL A   1      41.176  32.312  34.635  1.00  0.00    -0.248 NA
ATOM     35  C   UNL A   1      39.130  33.372  34.245  1.00  0.00     0.031 C 
ATOM     36  C   UNL A   1      43.719  33.123  38.247  1.00  0.00     0.029 A 
ATOM     37  C   UNL A   1      42.938  32.882  37.125  1.00  0.00     0.049 A 
ATOM     38  H   UNL A   1      43.285  31.539  35.540  1.00  0.00     0.167 HD
ATOM     39  C   UNL A   1      40.936  33.215  35.663  1.00  0.00     0.074 A 
ATOM     40  C   UNL A   1      39.672  33.859  35.352  1.00  0.00     0.031 C 
ATOM     41  C   UNL A   1      41.682  33.493  36.763  1.00  0.00     0.037 A 
BRANCH  28  42
ATOM     42  C   UNL A   1      46.956  30.255  37.302  1.00  0.00     0.058 A 
ATOM     43  C   UNL A   1      48.193  30.861  37.025  1.00  0.00     0.135 A 
ATOM     44  C   UNL A   1      46.926  29.267  38.299  1.00  0.00     0.135 A 
ATOM     45  F   UNL A   1      48.291  31.785  36.056  1.00  0.00    -0.206 F 
ATOM     46  C   UNL A   1      49.359  30.473  37.681  1.00  0.00     0.059 A 
ATOM     47  C   UNL A   1      48.074  28.882  38.988  1.00  0.00     0.059 A 
ATOM     48  F   UNL A   1      45.776  28.641  38.596  1.00  0.00    -0.206 F 
ATOM     49  C   UNL A   1      49.289  29.478  38.657  1.00  0.00     0.060 A 
BRANCH  49  50
ATOM     50  S   UNL A   1      50.812  28.960  39.477  1.00  0.00     0.124 S 
ATOM     51  O   UNL A   1      50.645  27.510  39.515  1.00  0.00    -0.237 OA
ATOM     52  O   UNL A   1      51.840  29.454  38.567  1.00  0.00    -0.237 OA
ATOM     53  O   UNL A   1      50.749  29.632  40.771  1.00  0.00    -0.744 OA
ENDBRANCH  49  50
ENDBRANCH  28  42
BRANCH  29  54
ATOM     54  C   UNL A   1      38.695  31.941  31.689  1.00  0.00     0.058 A 
ATOM     55  C   UNL A   1      37.457  31.347  31.974  1.00  0.00     0.135 A 
ATOM     56  C   UNL A   1      38.757  32.806  30.583  1.00  0.00     0.135 A 
ATOM     57  F   UNL A   1      37.339  30.507  33.013  1.00  0.00    -0.206 F 
ATOM     58  C   UNL A   1      36.330  31.589  31.189  1.00  0.00     0.059 A 
ATOM     59  C   UNL A   1      37.640  33.085  29.800  1.00  0.00     0.059 A 
ATOM     60  F   UNL A   1      39.913  33.408  30.263  1.00  0.00    -0.206 F 
ATOM     61  C   UNL A   1      36.432  32.462  30.105  1.00  0.00     0.060 A 
BRANCH  61  62
ATOM     62  S   UNL A   1      34.957  32.797  29.115  1.00  0.00     0.124 S 
ATOM     63  O   UNL A   1      34.729  31.504  28.481  1.00  0.00    -0.237 OA
ATOM     64  O   UNL A   1      33.988  33.191  30.133  1.00  0.00    -0.237 OA
ATOM     65  O   UNL A   1      35.389  33.870  28.222  1.00  0.00    -0.744 OA
ENDBRANCH  61  62
ENDBRANCH  29  54
BRANCH  41  66
ATOM     66  C   UNL A   1      41.162  34.563  37.677  1.00  0.00     0.058 A 
ATOM     67  C   UNL A   1      41.472  35.917  37.481  1.00  0.00     0.135 A 
ATOM     68  C   UNL A   1      40.293  34.226  38.728  1.00  0.00     0.135 A 
ATOM     69  F   UNL A   1      42.301  36.284  36.491  1.00  0.00    -0.206 F 
ATOM     70  C   UNL A   1      40.962  36.902  38.317  1.00  0.00     0.059 A 
ATOM     71  C   UNL A   1      39.746  35.197  39.556  1.00  0.00     0.059 A 
ATOM     72  F   UNL A   1      39.955  32.945  38.943  1.00  0.00    -0.206 F 
ATOM     73  C   UNL A   1      40.099  36.531  39.351  1.00  0.00     0.060 A 
BRANCH  73  74
ATOM     74  S   UNL A   1      39.418  37.821  40.412  1.00  0.00     0.124 S 
ATOM     75  O   UNL A   1      38.384  38.389  39.555  1.00  0.00    -0.237 OA
ATOM     76  O   UNL A   1      38.941  37.060  41.563  1.00  0.00    -0.237 OA
ATOM     77  O   UNL A   1      40.565  38.687  40.672  1.00  0.00    -0.744 OA
ENDBRANCH  73  74
ENDBRANCH  41  66
ENDBRANCH  15  16
ENDBRANCH   8  10
ENDBRANCH   7   8
ENDBRANCH   6   7
ENDBRANCH   5   6
ENDBRANCH   4   5
ENDBRANCH   3   4
ENDBRANCH   2   3
ENDBRANCH   1   2
BRANCH   1  78
ATOM     78  C   UNL A   1      36.496  23.163  25.000  1.00  0.00     0.188 C 
BRANCH  78  79
ATOM     79  C   UNL A   1      36.026  22.996  23.551  1.00  0.00     0.188 C 
BRANCH  79  80
ATOM     80  O   UNL A   1      35.494  24.156  22.921  1.00  0.00    -0.376 OA
BRANCH  80  81
ATOM     81  C   UNL A   1      34.595  24.983  23.652  1.00  0.00     0.202 C 
BRANCH  81  82
ATOM     82  C   UNL A   1      33.892  26.111  22.876  1.00  0.00     0.261 C 
BRANCH  82  83
ATOM     83  O   UNL A   1      33.383  27.134  23.756  1.00  0.00    -0.463 OA
BRANCH  83  84
ATOM     84  C   UNL A   1      32.135  27.611  23.505  1.00  0.00     0.310 C 
ATOM     85  O   UNL A   1      31.623  27.658  22.391  1.00  0.00    -0.252 OA
BRANCH  84  86
ATOM     86  C   UNL A   1      31.409  28.013  24.797  1.00  0.00     0.115 C 
ATOM     87  C   UNL A   1      31.565  29.536  24.971  1.00  0.00     0.043 C 
ATOM     88  C   UNL A   1      31.890  27.131  25.954  1.00  0.00     0.097 C 
ATOM     89  C   UNL A   1      31.676  30.038  26.373  1.00  0.00    -0.030 C 
ATOM     90  C   UNL A   1      31.954  27.766  27.357  1.00  0.00     0.041 C 
ATOM     91  C   UNL A   1      31.862  29.250  27.431  1.00  0.00    -0.030 C 
BRANCH  88  92
ATOM     92  C   UNL A   1      31.100  25.815  26.012  1.00  0.00     0.227 C 
ATOM     93  O   UNL A   1      29.925  25.805  26.385  1.00  0.00    -0.275 OA
ATOM     94  N   UNL A   1      31.718  24.670  25.504  1.00  0.00    -0.331 N 
ATOM     95  C   UNL A   1      30.915  23.912  24.557  1.00  0.00     0.181 C 
ATOM     96  C   UNL A   1      32.536  23.843  26.391  1.00  0.00     0.181 C 
ATOM     97  C   UNL A   1      31.678  22.756  23.880  1.00  0.00     0.284 C 
ATOM     98  C   UNL A   1      33.287  22.706  25.679  1.00  0.00     0.284 C 
ATOM     99  N   UNL A   1      32.473  21.899  24.764  1.00  0.00    -0.328 N 
ATOM    100  H   UNL A   1      33.131  21.410  24.157  1.00  0.00     0.348 HD
BRANCH  99 101
ATOM    101  C   UNL A   1      31.826  20.699  25.313  1.00  0.00     0.299 C 
BRANCH 101 102
ATOM    102  C   UNL A   1      32.343  19.329  24.920  1.00  0.00     0.010 A 
ATOM    103  C   UNL A   1      32.676  19.028  23.580  1.00  0.00     0.013 A 
ATOM    104  C   UNL A   1      32.554  18.337  25.891  1.00  0.00     0.060 A 
ATOM    105  C   UNL A   1      33.030  17.734  23.178  1.00  0.00     0.051 A 
ATOM    106  C   UNL A   1      32.948  17.078  25.473  1.00  0.00     0.166 A 
ATOM    107  C   UNL A   1      33.135  16.771  24.149  1.00  0.00     0.165 A 
ATOM    108  O   UNL A   1      33.144  16.000  26.277  1.00  0.00    -0.454 OA
ATOM    109  O   UNL A   1      33.426  15.458  23.953  1.00  0.00    -0.454 OA
ATOM    110  C   UNL A   1      33.324  14.955  25.303  1.00  0.00     0.468 C 
ENDBRANCH 101 102
ENDBRANCH  99 101
ENDBRANCH  88  92
ENDBRANCH  84  86
ENDBRANCH  83  84
ENDBRANCH  82  83
ENDBRANCH  81  82
ENDBRANCH  80  81
ENDBRANCH  79  80
ENDBRANCH  78  79
ENDBRANCH   1  78
TORSDOF 26
ENDMDL
MODEL 2
REMARK VINA RESULT:      -8.8      8.252     13.272
REMARK SMILES O=C(OCCOCCOCCOCCOC(=O)[C@@H]1CC=CC[C@H]1C(=O)N1CC[NH+](Cc2ccc3c(c2)OCO3)CC1)c1ccc(-c2c3nc(c(-c4c(F)cc(S(=O)(=O)[O-])cc4F)c4ccc([nH]4)c(-c4c(F)cc(S(=O)(=O)[O-])cc4F)c4nc(c(-c5c(F)cc(S(=O)(=O)[O-])cc5F)c5ccc2[nH]5)C=C4)C=C3)cc1
REMARK SMILES IDX 9 1 8 2 7 3 6 4 5 5 4 6 3 7 2 8 1 9 42 10 43 11 107 12 44 13
REMARK SMILES IDX 106 14 45 15 46 16 47 17 100 18 48 19 105 20 99 21 101 22
REMARK SMILES IDX 49 23 104 24 98 25 97 26 50 28 84 29 63 30 83 31 64 32 67 33
REMARK SMILES IDX 82 34 102 35 65 36 66 37 81 39 103 40 68 41 51 42 52 43
REMARK SMILES IDX 61 44 53 45 54 46 60 47 62 48 55 49 56 50 57 51 58 52 59 53
REMARK SMILES IDX 85 54 86 55 95 56 87 57 88 58 94 59 96 60 89 61 90 62 91 63
REMARK SMILES IDX 92 64 93 65 69 66 70 67 79 68 71 69 72 70 78 71 80 72 73 73
REMARK SMILES IDX 74 74 75 75 76 76 77 77 10 78 11 79 12 80 13 81 14 82 15 83
REMARK SMILES IDX 16 84 17 85 18 86 19 87 23 88 20 89 22 90 21 91 24 92 25 93
REMARK SMILES IDX 26 94 27 95 41 96 28 97 40 98 29 99 30 101 31 102 32 103
REMARK SMILES IDX 36 104 33 105 35 106 34 107 37 108 39 109 38 110
REMARK H PARENT 101 27 67 38 29 100
REMARK Flexibility Score: inf
ROOT
ATOM      1  O   UNL A   1      38.891  24.486  26.217  1.00  0.00    -0.377 OA
ENDROOT
BRANCH   1   2
ATOM      2  C   UNL A   1      39.319  24.722  27.553  1.00  0.00     0.188 C 
BRANCH   2   3
ATOM      3  C   UNL A   1      40.797  24.496  27.825  1.00  0.00     0.188 C 
BRANCH   3   4
ATOM      4  O   UNL A   1      41.418  23.725  26.811  1.00  0.00    -0.376 OA
BRANCH   4   5
ATOM      5  C   UNL A   1      42.264  24.427  25.922  1.00  0.00     0.202 C 
BRANCH   5   6
ATOM      6  C   UNL A   1      43.194  23.457  25.193  1.00  0.00     0.261 C 
BRANCH   6   7
ATOM      7  O   UNL A   1      44.123  22.839  26.105  1.00  0.00    -0.460 OA
BRANCH   7   8
ATOM      8  C   UNL A   1      45.469  22.698  26.030  1.00  0.00     0.338 C 
ATOM      9  O   UNL A   1      45.919  21.551  26.058  1.00  0.00    -0.246 OA
BRANCH   8  10
ATOM     10  C   UNL A   1      46.469  23.818  25.925  1.00  0.00     0.060 A 
ATOM     11  C   UNL A   1      47.237  24.345  26.966  1.00  0.00     0.016 A 
ATOM     12  C   UNL A   1      46.663  24.370  24.641  1.00  0.00     0.016 A 
ATOM     13  C   UNL A   1      48.155  25.366  26.761  1.00  0.00     0.010 A 
ATOM     14  C   UNL A   1      47.549  25.432  24.427  1.00  0.00     0.010 A 
ATOM     15  C   UNL A   1      48.267  25.951  25.505  1.00  0.00    -0.014 A 
BRANCH  15  16
ATOM     16  C   UNL A   1      48.896  27.280  25.461  1.00  0.00     0.031 A 
ATOM     17  C   UNL A   1      48.182  28.383  26.189  1.00  0.00     0.074 A 
ATOM     18  C   UNL A   1      50.133  27.427  24.962  1.00  0.00     0.049 A 
ATOM     19  N   UNL A   1      48.530  29.627  26.364  1.00  0.00    -0.248 NA
ATOM     20  C   UNL A   1      46.904  28.021  26.835  1.00  0.00     0.031 C 
ATOM     21  C   UNL A   1      50.939  26.352  24.377  1.00  0.00     0.029 A 
ATOM     22  N   UNL A   1      50.944  28.525  24.902  1.00  0.00    -0.354 N 
ATOM     23  C   UNL A   1      47.508  30.199  27.114  1.00  0.00     0.074 A 
ATOM     24  C   UNL A   1      46.526  29.172  27.365  1.00  0.00     0.031 C 
ATOM     25  C   UNL A   1      52.138  26.848  24.026  1.00  0.00     0.029 A 
ATOM     26  C   UNL A   1      52.165  28.278  24.321  1.00  0.00     0.049 A 
ATOM     27  H   UNL A   1      50.680  29.411  25.243  1.00  0.00     0.167 HD
ATOM     28  C   UNL A   1      47.404  31.476  27.545  1.00  0.00     0.037 A 
ATOM     29  C   UNL A   1      53.171  29.130  24.047  1.00  0.00     0.037 A 
ATOM     30  C   UNL A   1      48.404  32.468  27.263  1.00  0.00     0.049 A 
ATOM     31  C   UNL A   1      52.987  30.572  24.450  1.00  0.00     0.074 A 
ATOM     32  C   UNL A   1      48.404  33.812  27.575  1.00  0.00     0.029 A 
ATOM     33  N   UNL A   1      49.591  32.207  26.587  1.00  0.00    -0.354 N 
ATOM     34  N   UNL A   1      51.989  31.126  25.101  1.00  0.00    -0.248 NA
ATOM     35  C   UNL A   1      54.054  31.507  24.075  1.00  0.00     0.031 C 
ATOM     36  C   UNL A   1      49.570  34.375  27.042  1.00  0.00     0.029 A 
ATOM     37  C   UNL A   1      50.324  33.370  26.452  1.00  0.00     0.049 A 
ATOM     38  H   UNL A   1      49.868  31.324  26.253  1.00  0.00     0.167 HD
ATOM     39  C   UNL A   1      52.316  32.470  25.236  1.00  0.00     0.074 A 
ATOM     40  C   UNL A   1      53.614  32.638  24.607  1.00  0.00     0.031 C 
ATOM     41  C   UNL A   1      51.618  33.477  25.821  1.00  0.00     0.037 A 
BRANCH  28  42
ATOM     42  C   UNL A   1      46.138  31.858  28.262  1.00  0.00     0.058 A 
ATOM     43  C   UNL A   1      46.026  31.828  29.662  1.00  0.00     0.135 A 
ATOM     44  C   UNL A   1      44.994  32.204  27.526  1.00  0.00     0.135 A 
ATOM     45  F   UNL A   1      47.077  31.468  30.417  1.00  0.00    -0.206 F 
ATOM     46  C   UNL A   1      44.818  32.088  30.303  1.00  0.00     0.059 A 
ATOM     47  C   UNL A   1      43.782  32.495  28.146  1.00  0.00     0.059 A 
ATOM     48  F   UNL A   1      45.036  32.233  26.184  1.00  0.00    -0.206 F 
ATOM     49  C   UNL A   1      43.699  32.415  29.535  1.00  0.00     0.060 A 
BRANCH  49  50
ATOM     50  S   UNL A   1      42.129  32.719  30.374  1.00  0.00     0.124 S 
ATOM     51  O   UNL A   1      41.724  33.991  29.784  1.00  0.00    -0.237 OA
ATOM     52  O   UNL A   1      41.336  31.558  29.982  1.00  0.00    -0.237 OA
ATOM     53  O   UNL A   1      42.501  32.772  31.784  1.00  0.00    -0.744 OA
ENDBRANCH  49  50
ENDBRANCH  28  42
BRANCH  29  54
ATOM     54  C   UNL A   1      54.395  28.657  23.345  1.00  0.00     0.058 A 
ATOM     55  C   UNL A   1      55.511  28.185  24.053  1.00  0.00     0.135 A 
ATOM     56  C   UNL A   1      54.476  28.662  21.942  1.00  0.00     0.135 A 
ATOM     57  F   UNL A   1      55.495  28.164  25.394  1.00  0.00    -0.206 F 
ATOM     58  C   UNL A   1      56.661  27.747  23.399  1.00  0.00     0.059 A 
ATOM     59  C   UNL A   1      55.603  28.204  21.266  1.00  0.00     0.059 A 
ATOM     60  F   UNL A   1      53.438  29.098  21.211  1.00  0.00    -0.206 F 
ATOM     61  C   UNL A   1      56.697  27.759  22.004  1.00  0.00     0.060 A 
BRANCH  61  62
ATOM     62  S   UNL A   1      58.179  27.156  21.164  1.00  0.00     0.124 S 
ATOM     63  O   UNL A   1      59.112  28.253  21.392  1.00  0.00    -0.237 OA
ATOM     64  O   UNL A   1      58.459  25.918  21.885  1.00  0.00    -0.237 OA
ATOM     65  O   UNL A   1      57.736  26.982  19.783  1.00  0.00    -0.744 OA
ENDBRANCH  61  62
ENDBRANCH  29  54
BRANCH  41  66
ATOM     66  C   UNL A   1      52.268  34.828  25.837  1.00  0.00     0.058 A 
ATOM     67  C   UNL A   1      52.026  35.776  24.831  1.00  0.00     0.135 A 
ATOM     68  C   UNL A   1      53.098  35.194  26.908  1.00  0.00     0.135 A 
ATOM     69  F   UNL A   1      51.241  35.468  23.787  1.00  0.00    -0.206 F 
ATOM     70  C   UNL A   1      52.612  37.035  24.871  1.00  0.00     0.059 A 
ATOM     71  C   UNL A   1      53.668  36.458  26.985  1.00  0.00     0.059 A 
ATOM     72  F   UNL A   1      53.345  34.326  27.902  1.00  0.00    -0.206 F 
ATOM     73  C   UNL A   1      53.431  37.367  25.954  1.00  0.00     0.060 A 
BRANCH  73  74
ATOM     74  S   UNL A   1      54.162  39.014  26.011  1.00  0.00     0.124 S 
ATOM     75  O   UNL A   1      55.565  38.702  26.256  1.00  0.00    -0.237 OA
ATOM     76  O   UNL A   1      53.852  39.540  24.685  1.00  0.00    -0.237 OA
ATOM     77  O   UNL A   1      53.458  39.660  27.115  1.00  0.00    -0.744 OA
ENDBRANCH  73  74
ENDBRANCH  41  66
ENDBRANCH  15  16
ENDBRANCH   8  10
ENDBRANCH   7   8
ENDBRANCH   6   7
ENDBRANCH   5   6
ENDBRANCH   4   5
ENDBRANCH   3   4
ENDBRANCH   2   3
ENDBRANCH   1   2
BRANCH   1  78
ATOM     78  C   UNL A   1      37.707  23.714  26.005  1.00  0.00     0.188 C 
BRANCH  78  79
ATOM     79  C   UNL A   1      37.906  22.207  25.817  1.00  0.00     0.188 C 
BRANCH  79  80
ATOM     80  O   UNL A   1      36.726  21.428  25.650  1.00  0.00    -0.376 OA
BRANCH  80  81
ATOM     81  C   UNL A   1      35.476  22.097  25.520  1.00  0.00     0.202 C 
BRANCH  81  82
ATOM     82  C   UNL A   1      34.611  22.217  26.787  1.00  0.00     0.261 C 
BRANCH  82  83
ATOM     83  O   UNL A   1      33.695  23.328  26.710  1.00  0.00    -0.463 OA
BRANCH  83  84
ATOM     84  C   UNL A   1      32.365  23.043  26.680  1.00  0.00     0.310 C 
ATOM     85  O   UNL A   1      31.665  22.905  27.678  1.00  0.00    -0.252 OA
BRANCH  84  86
ATOM     86  C   UNL A   1      31.826  22.993  25.244  1.00  0.00     0.115 C 
ATOM     87  C   UNL A   1      31.957  21.542  24.741  1.00  0.00     0.043 C 
ATOM     88  C   UNL A   1      32.500  24.082  24.402  1.00  0.00     0.097 C 
ATOM     89  C   UNL A   1      32.258  21.366  23.290  1.00  0.00    -0.030 C 
ATOM     90  C   UNL A   1      32.750  23.779  22.912  1.00  0.00     0.041 C 
ATOM     91  C   UNL A   1      32.623  22.360  22.481  1.00  0.00    -0.030 C 
BRANCH  88  92
ATOM     92  C   UNL A   1      31.769  25.425  24.546  1.00  0.00     0.227 C 
ATOM     93  O   UNL A   1      30.682  25.609  23.996  1.00  0.00    -0.275 OA
ATOM     94  N   UNL A   1      32.316  26.364  25.423  1.00  0.00    -0.331 N 
ATOM     95  C   UNL A   1      31.376  26.925  26.382  1.00  0.00     0.181 C 
ATOM     96  C   UNL A   1      33.302  27.322  24.924  1.00  0.00     0.181 C 
ATOM     97  C   UNL A   1      32.036  27.823  27.447  1.00  0.00     0.284 C 
ATOM     98  C   UNL A   1      33.943  28.195  26.016  1.00  0.00     0.284 C 
ATOM     99  N   UNL A   1      32.999  28.811  26.955  1.00  0.00    -0.328 N 
ATOM    100  H   UNL A   1      33.551  29.090  27.767  1.00  0.00     0.348 HD
BRANCH  99 101
ATOM    101  C   UNL A   1      32.495  30.152  26.625  1.00  0.00     0.299 C 
BRANCH 101 102
ATOM    102  C   UNL A   1      33.152  31.368  27.248  1.00  0.00     0.010 A 
ATOM    103  C   UNL A   1      34.509  31.347  27.642  1.00  0.00     0.013 A 
ATOM    104  C   UNL A   1      32.440  32.568  27.400  1.00  0.00     0.060 A 
ATOM    105  C   UNL A   1      35.095  32.413  28.335  1.00  0.00     0.051 A 
ATOM    106  C   UNL A   1      33.057  33.624  28.048  1.00  0.00     0.166 A 
ATOM    107  C   UNL A   1      34.332  33.534  28.544  1.00  0.00     0.165 A 
ATOM    108  O   UNL A   1      32.489  34.828  28.319  1.00  0.00    -0.454 OA
ATOM    109  O   UNL A   1      34.707  34.648  29.225  1.00  0.00    -0.454 OA
ATOM    110  C   UNL A   1      33.490  35.422  29.167  1.00  0.00     0.468 C 
ENDBRANCH 101 102
ENDBRANCH  99 101
ENDBRANCH  88  92
ENDBRANCH  84  86
ENDBRANCH  83  84
ENDBRANCH  82  83
ENDBRANCH  81  82
ENDBRANCH  80  81
ENDBRANCH  79  80
ENDBRANCH  78  79
ENDBRANCH   1  78
TORSDOF 26
ENDMDL
MODEL 3
REMARK VINA RESULT:      -8.6      6.080     10.017
REMARK SMILES O=C(OCCOCCOCCOCCOC(=O)[C@@H]1CC=CC[C@H]1C(=O)N1CC[NH+](Cc2ccc3c(c2)OCO3)CC1)c1ccc(-c2c3nc(c(-c4c(F)cc(S(=O)(=O)[O-])cc4F)c4ccc([nH]4)c(-c4c(F)cc(S(=O)(=O)[O-])cc4F)c4nc(c(-c5c(F)cc(S(=O)(=O)[O-])cc5F)c5ccc2[nH]5)C=C4)C=C3)cc1
REMARK SMILES IDX 9 1 8 2 7 3 6 4 5 5 4 6 3 7 2 8 1 9 42 10 43 11 107 12 44 13
REMARK SMILES IDX 106 14 45 15 46 16 47 17 100 18 48 19 105 20 99 21 101 22
REMARK SMILES IDX 49 23 104 24 98 25 97 26 50 28 84 29 63 30 83 31 64 32 67 33
REMARK SMILES IDX 82 34 102 35 65 36 66 37 81 39 103 40 68 41 51 42 52 43
REMARK SMILES IDX 61 44 53 45 54 46 60 47 62 48 55 49 56 50 57 51 58 52 59 53
REMARK SMILES IDX 85 54 86 55 95 56 87 57 88 58 94 59 96 60 89 61 90 62 91 63
REMARK SMILES IDX 92 64 93 65 69 66 70 67 79 68 71 69 72 70 78 71 80 72 73 73
REMARK SMILES IDX 74 74 75 75 76 76 77 77 10 78 11 79 12 80 13 81 14 82 15 83
REMARK SMILES IDX 16 84 17 85 18 86 19 87 23 88 20 89 22 90 21 91 24 92 25 93
REMARK SMILES IDX 26 94 27 95 41 96 28 97 40 98 29 99 30 101 31 102 32 103
REMARK SMILES IDX 36 104 33 105 35 106 34 107 37 108 39 109 38 110
REMARK H PARENT 101 27 67 38 29 100
REMARK Flexibility Score: inf
ROOT
ATOM      1  O   UNL A   1      39.032  24.489  26.224  1.00  0.00    -0.377 OA
ENDROOT
BRANCH   1   2
ATOM      2  C   UNL A   1      39.569  24.751  27.516  1.00  0.00     0.188 C 
BRANCH   2   3
ATOM      3  C   UNL A   1      41.085  24.761  27.613  1.00  0.00     0.188 C 
BRANCH   3   4
ATOM      4  O   UNL A   1      41.703  24.276  26.433  1.00  0.00    -0.376 OA
BRANCH   4   5
ATOM      5  C   UNL A   1      42.232  25.253  25.558  1.00  0.00     0.202 C 
BRANCH   5   6
ATOM      6  C   UNL A   1      43.602  24.818  25.040  1.00  0.00     0.261 C 
BRANCH   6   7
ATOM      7  O   UNL A   1      44.545  24.668  26.119  1.00  0.00    -0.460 OA
BRANCH   7   8
ATOM      8  C   UNL A   1      45.717  25.305  26.359  1.00  0.00     0.338 C 
ATOM      9  O   UNL A   1      46.747  24.630  26.309  1.00  0.00    -0.246 OA
BRANCH   8  10
ATOM     10  C   UNL A   1      45.877  26.763  26.694  1.00  0.00     0.060 A 
ATOM     11  C   UNL A   1      46.700  27.303  27.685  1.00  0.00     0.016 A 
ATOM     12  C   UNL A   1      45.135  27.673  25.910  1.00  0.00     0.016 A 
ATOM     13  C   UNL A   1      46.796  28.671  27.899  1.00  0.00     0.010 A 
ATOM     14  C   UNL A   1      45.184  29.052  26.145  1.00  0.00     0.010 A 
ATOM     15  C   UNL A   1      45.994  29.542  27.172  1.00  0.00    -0.014 A 
BRANCH  15  16
ATOM     16  C   UNL A   1      45.811  30.886  27.741  1.00  0.00     0.031 A 
ATOM     17  C   UNL A   1      44.684  31.050  28.721  1.00  0.00     0.074 A 
ATOM     18  C   UNL A   1      46.730  31.840  27.531  1.00  0.00     0.049 A 
ATOM     19  N   UNL A   1      44.329  32.096  29.414  1.00  0.00    -0.248 NA
ATOM     20  C   UNL A   1      43.857  29.853  28.975  1.00  0.00     0.031 C 
ATOM     21  C   UNL A   1      47.931  31.687  26.706  1.00  0.00     0.029 A 
ATOM     22  N   UNL A   1      46.822  33.111  28.025  1.00  0.00    -0.354 N 
ATOM     23  C   UNL A   1      43.228  31.692  30.162  1.00  0.00     0.074 A 
ATOM     24  C   UNL A   1      42.971  30.308  29.844  1.00  0.00     0.031 C 
ATOM     25  C   UNL A   1      48.646  32.824  26.761  1.00  0.00     0.029 A 
ATOM     26  C   UNL A   1      47.931  33.794  27.586  1.00  0.00     0.049 A 
ATOM     27  H   UNL A   1      46.157  33.502  28.637  1.00  0.00     0.167 HD
ATOM     28  C   UNL A   1      42.496  32.423  31.031  1.00  0.00     0.037 A 
ATOM     29  C   UNL A   1      48.300  35.068  27.819  1.00  0.00     0.037 A 
ATOM     30  C   UNL A   1      42.785  33.803  31.310  1.00  0.00     0.049 A 
ATOM     31  C   UNL A   1      47.411  35.895  28.715  1.00  0.00     0.074 A 
ATOM     32  C   UNL A   1      42.095  34.688  32.113  1.00  0.00     0.029 A 
ATOM     33  N   UNL A   1      43.864  34.497  30.774  1.00  0.00    -0.354 N 
ATOM     34  N   UNL A   1      46.332  35.530  29.369  1.00  0.00    -0.248 NA
ATOM     35  C   UNL A   1      47.778  37.303  28.897  1.00  0.00     0.031 C 
ATOM     36  C   UNL A   1      42.730  35.932  32.023  1.00  0.00     0.029 A 
ATOM     37  C   UNL A   1      43.850  35.807  31.212  1.00  0.00     0.049 A 
ATOM     38  H   UNL A   1      44.540  34.111  30.171  1.00  0.00     0.167 HD
ATOM     39  C   UNL A   1      45.902  36.655  30.061  1.00  0.00     0.074 A 
ATOM     40  C   UNL A   1      46.851  37.710  29.751  1.00  0.00     0.031 C 
ATOM     41  C   UNL A   1      44.828  36.814  30.876  1.00  0.00     0.037 A 
BRANCH  28  42
ATOM     42  C   UNL A   1      41.289  31.764  31.639  1.00  0.00     0.058 A 
ATOM     43  C   UNL A   1      41.369  30.949  32.780  1.00  0.00     0.135 A 
ATOM     44  C   UNL A   1      40.033  31.904  31.027  1.00  0.00     0.135 A 
ATOM     45  F   UNL A   1      42.551  30.749  33.386  1.00  0.00    -0.206 F 
ATOM     46  C   UNL A   1      40.258  30.267  33.269  1.00  0.00     0.059 A 
ATOM     47  C   UNL A   1      38.902  31.253  31.514  1.00  0.00     0.059 A 
ATOM     48  F   UNL A   1      39.898  32.656  29.923  1.00  0.00    -0.206 F 
ATOM     49  C   UNL A   1      39.030  30.421  32.624  1.00  0.00     0.060 A 
BRANCH  49  50
ATOM     50  S   UNL A   1      37.603  29.506  33.247  1.00  0.00     0.124 S 
ATOM     51  O   UNL A   1      37.670  29.797  34.676  1.00  0.00    -0.237 OA
ATOM     52  O   UNL A   1      36.496  30.127  32.526  1.00  0.00    -0.237 OA
ATOM     53  O   UNL A   1      37.893  28.125  32.873  1.00  0.00    -0.744 OA
ENDBRANCH  49  50
ENDBRANCH  28  42
BRANCH  29  54
ATOM     54  C   UNL A   1      49.523  35.632  27.184  1.00  0.00     0.058 A 
ATOM     55  C   UNL A   1      49.470  36.297  25.950  1.00  0.00     0.135 A 
ATOM     56  C   UNL A   1      50.779  35.521  27.804  1.00  0.00     0.135 A 
ATOM     57  F   UNL A   1      48.299  36.427  25.308  1.00  0.00    -0.206 F 
ATOM     58  C   UNL A   1      50.614  36.820  25.350  1.00  0.00     0.059 A 
ATOM     59  C   UNL A   1      51.932  36.058  27.238  1.00  0.00     0.059 A 
ATOM     60  F   UNL A   1      50.893  34.899  28.988  1.00  0.00    -0.206 F 
ATOM     61  C   UNL A   1      51.841  36.697  26.004  1.00  0.00     0.060 A 
BRANCH  61  62
ATOM     62  S   UNL A   1      53.313  37.410  25.235  1.00  0.00     0.124 S 
ATOM     63  O   UNL A   1      53.195  38.811  25.617  1.00  0.00    -0.237 OA
ATOM     64  O   UNL A   1      54.388  36.659  25.877  1.00  0.00    -0.237 OA
ATOM     65  O   UNL A   1      53.122  37.125  23.815  1.00  0.00    -0.744 OA
ENDBRANCH  61  62
ENDBRANCH  29  54
BRANCH  41  66
ATOM     66  C   UNL A   1      44.656  38.161  31.512  1.00  0.00     0.058 A 
ATOM     67  C   UNL A   1      45.263  38.484  32.734  1.00  0.00     0.135 A 
ATOM     68  C   UNL A   1      43.920  39.159  30.853  1.00  0.00     0.135 A 
ATOM     69  F   UNL A   1      45.974  37.560  33.400  1.00  0.00    -0.206 F 
ATOM     70  C   UNL A   1      45.121  39.744  33.300  1.00  0.00     0.059 A 
ATOM     71  C   UNL A   1      43.791  40.436  31.384  1.00  0.00     0.059 A 
ATOM     72  F   UNL A   1      43.335  38.902  29.672  1.00  0.00    -0.206 F 
ATOM     73  C   UNL A   1      44.383  40.714  32.616  1.00  0.00     0.060 A 
BRANCH  73  74
ATOM     74  S   UNL A   1      44.230  42.357  33.345  1.00  0.00     0.124 S 
ATOM     75  O   UNL A   1      43.459  42.070  34.549  1.00  0.00    -0.237 OA
ATOM     76  O   UNL A   1      45.624  42.736  33.558  1.00  0.00    -0.237 OA
ATOM     77  O   UNL A   1      43.529  43.120  32.316  1.00  0.00    -0.744 OA
ENDBRANCH  73  74
ENDBRANCH  41  66
ENDBRANCH  15  16
ENDBRANCH   8  10
ENDBRANCH   7   8
ENDBRANCH   6   7
ENDBRANCH   5   6
ENDBRANCH   4   5
ENDBRANCH   3   4
ENDBRANCH   2   3
ENDBRANCH   1   2
BRANCH   1  78
ATOM     78  C   UNL A   1      37.737  23.892  26.131  1.00  0.00     0.188 C 
BRANCH  78  79
ATOM     79  C   UNL A   1      37.701  22.363  26.038  1.00  0.00     0.188 C 
BRANCH  79  80
ATOM     80  O   UNL A   1      36.465  21.783  25.636  1.00  0.00    -0.376 OA
BRANCH  80  81
ATOM     81  C   UNL A   1      35.350  22.636  25.401  1.00  0.00     0.202 C 
BRANCH  81  82
ATOM     82  C   UNL A   1      34.381  22.862  26.575  1.00  0.00     0.261 C 
BRANCH  82  83
ATOM     83  O   UNL A   1      33.740  24.152  26.504  1.00  0.00    -0.463 OA
BRANCH  83  84
ATOM     84  C   UNL A   1      32.393  24.172  26.316  1.00  0.00     0.310 C 
ATOM     85  O   UNL A   1      31.568  24.162  27.224  1.00  0.00    -0.252 OA
BRANCH  84  86
ATOM     86  C   UNL A   1      32.027  24.291  24.831  1.00  0.00     0.115 C 
ATOM     87  C   UNL A   1      31.867  22.864  24.269  1.00  0.00     0.043 C 
ATOM     88  C   UNL A   1      33.033  25.204  24.122  1.00  0.00     0.097 C 
ATOM     89  C   UNL A   1      32.282  22.656  22.851  1.00  0.00    -0.030 C 
ATOM     90  C   UNL A   1      33.375  24.887  22.654  1.00  0.00     0.041 C 
ATOM     91  C   UNL A   1      32.964  23.552  22.138  1.00  0.00    -0.030 C 
BRANCH  88  92
ATOM     92  C   UNL A   1      32.631  26.681  24.258  1.00  0.00     0.227 C 
ATOM     93  O   UNL A   1      31.907  27.213  23.414  1.00  0.00    -0.275 OA
ATOM     94  N   UNL A   1      33.003  27.344  25.429  1.00  0.00    -0.331 N 
ATOM     95  C   UNL A   1      31.925  28.058  26.096  1.00  0.00     0.181 C 
ATOM     96  C   UNL A   1      34.296  28.025  25.487  1.00  0.00     0.181 C 
ATOM     97  C   UNL A   1      32.318  28.633  27.471  1.00  0.00     0.284 C 
ATOM     98  C   UNL A   1      34.656  28.579  26.875  1.00  0.00     0.284 C 
ATOM     99  N   UNL A   1      33.595  29.349  27.533  1.00  0.00    -0.328 N 
ATOM    100  H   UNL A   1      33.844  29.386  28.522  1.00  0.00     0.348 HD
BRANCH  99 101
ATOM    101  C   UNL A   1      33.575  30.802  27.310  1.00  0.00     0.299 C 
BRANCH 101 102
ATOM    102  C   UNL A   1      34.433  31.700  28.178  1.00  0.00     0.010 A 
ATOM    103  C   UNL A   1      35.831  31.790  27.983  1.00  0.00     0.013 A 
ATOM    104  C   UNL A   1      33.852  32.510  29.166  1.00  0.00     0.060 A 
ATOM    105  C   UNL A   1      36.654  32.512  28.855  1.00  0.00     0.051 A 
ATOM    106  C   UNL A   1      34.685  33.250  29.986  1.00  0.00     0.166 A 
ATOM    107  C   UNL A   1      36.051  33.217  29.866  1.00  0.00     0.165 A 
ATOM    108  O   UNL A   1      34.286  34.039  31.018  1.00  0.00    -0.454 OA
ATOM    109  O   UNL A   1      36.678  33.940  30.830  1.00  0.00    -0.454 OA
ATOM    110  C   UNL A   1      35.550  34.372  31.620  1.00  0.00     0.468 C 
ENDBRANCH 101 102
ENDBRANCH  99 101
ENDBRANCH  88  92
ENDBRANCH  84  86
ENDBRANCH  83  84
ENDBRANCH  82  83
ENDBRANCH  81  82
ENDBRANCH  80  81
ENDBRANCH  79  80
ENDBRANCH  78  79
ENDBRANCH   1  78
TORSDOF 26
ENDMDL
