MODEL 1
REMARK VINA RESULT:     -10.6      0.000      0.000
REMARK SMILES CS(=O)(=O)N1C[C@@H]2C[N@H+](Cc3cccnc3N)C[C@]2(C(=O)OCCOCCOCCOCCOC(=O)c2ccc(-c3c4nc(c(-c5c(F)cc(S(=O)(=O)[O-])cc5F)c5ccc([nH]5)c(-c5c(F)cc(S(=O)(=O)[O-])cc5F)c5nc(c(-c6c(F)cc(S(=O)(=O)[O-])cc6F)c6ccc3[nH]6)C=C5)C=C4)cc2)C1
REMARK SMILES IDX 28 1 27 2 26 3 25 4 24 5 23 6 22 7 20 8 21 9 19 10 5 11 6 12
REMARK SMILES IDX 103 13 7 14 8 15 18 16 9 17 2 19 1 20 3 21 4 22 10 23 11 24
REMARK SMILES IDX 12 25 16 26 13 27 15 28 14 29 17 30 29 33 30 34 31 35 32 36
REMARK SMILES IDX 33 37 34 38 35 39 36 40 37 41 38 42 102 43 39 44 101 45
REMARK SMILES IDX 40 46 41 47 42 48 95 49 43 50 100 51 94 52 96 53 44 54 99 55
REMARK SMILES IDX 93 56 92 57 45 59 79 60 58 61 78 62 59 63 62 64 77 65 97 66
REMARK SMILES IDX 60 67 61 68 76 70 98 71 63 72 46 73 47 74 56 75 48 76 49 77
REMARK SMILES IDX 55 78 57 79 50 80 51 81 52 82 53 83 54 84 80 85 81 86 90 87
REMARK SMILES IDX 82 88 83 89 89 90 91 91 84 92 85 93 86 94 87 95 88 96 64 97
REMARK SMILES IDX 65 98 74 99 66 100 67 101 73 102 75 103 68 104 69 105 70 106
REMARK SMILES IDX 71 107 72 108
REMARK H PARENT 9 18 17 31 17 32 96 58 62 69
REMARK Flexibility Score: inf
ROOT
ATOM      1  O   UNL A   1      42.962  19.299  26.140  1.00  0.00    -0.377 OA
ENDROOT
BRANCH   1   2
ATOM      2  C   UNL A   1      42.313  20.440  26.662  1.00  0.00     0.188 C 
BRANCH   2   3
ATOM      3  C   UNL A   1      40.783  20.475  26.560  1.00  0.00     0.188 C 
BRANCH   3   4
ATOM      4  O   UNL A   1      40.092  21.653  26.923  1.00  0.00    -0.376 OA
BRANCH   4   5
ATOM      5  C   UNL A   1      39.018  22.130  26.113  1.00  0.00     0.202 C 
BRANCH   5   6
ATOM      6  C   UNL A   1      38.166  21.203  25.219  1.00  0.00     0.261 C 
BRANCH   6   7
ATOM      7  O   UNL A   1      36.754  21.393  25.383  1.00  0.00    -0.463 OA
BRANCH   7   8
ATOM      8  C   UNL A   1      36.079  22.142  24.457  1.00  0.00     0.319 C 
ATOM      9  O   UNL A   1      36.638  22.646  23.491  1.00  0.00    -0.251 OA
BRANCH   8  10
ATOM     10  C   UNL A   1      34.553  22.164  24.735  1.00  0.00     0.140 C 
ATOM     11  N   UNL A   1      33.758  19.830  24.517  1.00  0.00    -0.200 NA
ATOM     12  C   UNL A   1      32.592  20.678  24.373  1.00  0.00     0.113 C 
ATOM     13  C   UNL A   1      34.809  20.605  25.240  1.00  0.00     0.127 C 
ATOM     14  C   UNL A   1      33.078  21.885  25.125  1.00  0.00     0.084 C 
ATOM     15  C   UNL A   1      32.234  23.136  24.997  1.00  0.00     0.268 C 
ATOM     16  C   UNL A   1      34.479  23.583  25.390  1.00  0.00     0.283 C 
ATOM     17  N   UNL A   1      33.206  24.215  24.966  1.00  0.00    -0.330 N 
ATOM     18  H   UNL A   1      32.953  24.974  25.598  1.00  0.00     0.348 HD
BRANCH  11  19
ATOM     19  S   UNL A   1      33.656  18.174  24.489  1.00  0.00     0.211 S 
ATOM     20  C   UNL A   1      32.545  17.876  23.136  1.00  0.00     0.176 C 
ATOM     21  O   UNL A   1      32.990  17.731  25.690  1.00  0.00    -0.213 OA
ATOM     22  O   UNL A   1      34.954  17.649  24.107  1.00  0.00    -0.213 OA
ENDBRANCH  11  19
BRANCH  17  23
ATOM     23  C   UNL A   1      33.261  24.944  23.680  1.00  0.00     0.302 C 
BRANCH  23  24
ATOM     24  C   UNL A   1      32.109  25.870  23.378  1.00  0.00     0.048 A 
ATOM     25  C   UNL A   1      31.473  26.534  24.436  1.00  0.00     0.015 A 
ATOM     26  C   UNL A   1      31.709  26.198  22.081  1.00  0.00     0.132 A 
ATOM     27  C   UNL A   1      30.600  27.580  24.171  1.00  0.00     0.021 A 
ATOM     28  N   UNL A   1      30.900  27.236  21.808  1.00  0.00    -0.239 NA
ATOM     29  C   UNL A   1      30.394  27.927  22.852  1.00  0.00     0.113 A 
BRANCH  26  30
ATOM     30  N   UNL A   1      32.177  25.539  20.961  1.00  0.00    -0.383 N 
ATOM     31  H   UNL A   1      31.601  24.895  20.492  1.00  0.00     0.158 HD
ATOM     32  H   UNL A   1      33.090  25.714  20.633  1.00  0.00     0.158 HD
ENDBRANCH  26  30
ENDBRANCH  23  24
ENDBRANCH  17  23
ENDBRANCH   8  10
ENDBRANCH   7   8
ENDBRANCH   6   7
ENDBRANCH   5   6
ENDBRANCH   4   5
ENDBRANCH   3   4
ENDBRANCH   2   3
ENDBRANCH   1   2
BRANCH   1  33
ATOM     33  C   UNL A   1      44.101  19.418  25.298  1.00  0.00     0.188 C 
BRANCH  33  34
ATOM     34  C   UNL A   1      44.589  20.807  24.866  1.00  0.00     0.188 C 
BRANCH  34  35
ATOM     35  O   UNL A   1      45.790  21.221  25.489  1.00  0.00    -0.376 OA
BRANCH  35  36
ATOM     36  C   UNL A   1      45.934  22.530  26.009  1.00  0.00     0.202 C 
BRANCH  36  37
ATOM     37  C   UNL A   1      44.954  23.089  27.053  1.00  0.00     0.261 C 
BRANCH  37  38
ATOM     38  O   UNL A   1      44.406  24.393  26.823  1.00  0.00    -0.460 OA
BRANCH  38  39
ATOM     39  C   UNL A   1      43.109  24.477  26.461  1.00  0.00     0.338 C 
ATOM     40  O   UNL A   1      42.509  23.746  25.703  1.00  0.00    -0.246 OA
BRANCH  39  41
ATOM     41  C   UNL A   1      42.484  25.524  27.297  1.00  0.00     0.060 A 
ATOM     42  C   UNL A   1      43.102  26.777  27.375  1.00  0.00     0.016 A 
ATOM     43  C   UNL A   1      41.324  25.255  28.028  1.00  0.00     0.016 A 
ATOM     44  C   UNL A   1      42.600  27.742  28.244  1.00  0.00     0.010 A 
ATOM     45  C   UNL A   1      40.828  26.220  28.909  1.00  0.00     0.010 A 
ATOM     46  C   UNL A   1      41.496  27.448  29.057  1.00  0.00    -0.014 A 
BRANCH  46  47
ATOM     47  C   UNL A   1      41.189  28.349  30.194  1.00  0.00     0.031 A 
ATOM     48  C   UNL A   1      42.074  28.293  31.412  1.00  0.00     0.074 A 
ATOM     49  C   UNL A   1      40.202  29.258  30.104  1.00  0.00     0.049 A 
ATOM     50  N   UNL A   1      42.028  29.009  32.505  1.00  0.00    -0.248 NA
ATOM     51  C   UNL A   1      43.163  27.300  31.394  1.00  0.00     0.031 C 
ATOM     52  C   UNL A   1      39.312  29.429  28.957  1.00  0.00     0.029 A 
ATOM     53  N   UNL A   1      39.793  30.220  30.993  1.00  0.00    -0.354 N 
ATOM     54  C   UNL A   1      43.085  28.567  33.293  1.00  0.00     0.074 A 
ATOM     55  C   UNL A   1      43.723  27.484  32.580  1.00  0.00     0.031 C 
ATOM     56  C   UNL A   1      38.463  30.441  29.210  1.00  0.00     0.029 A 
ATOM     57  C   UNL A   1      38.730  30.969  30.545  1.00  0.00     0.049 A 
ATOM     58  H   UNL A   1      40.221  30.360  31.869  1.00  0.00     0.167 HD
ATOM     59  C   UNL A   1      43.502  29.039  34.492  1.00  0.00     0.037 A 
ATOM     60  C   UNL A   1      38.050  31.959  31.155  1.00  0.00     0.037 A 
ATOM     61  C   UNL A   1      42.859  30.114  35.200  1.00  0.00     0.049 A 
ATOM     62  C   UNL A   1      38.482  32.402  32.531  1.00  0.00     0.074 A 
ATOM     63  C   UNL A   1      43.187  30.655  36.430  1.00  0.00     0.029 A 
ATOM     64  N   UNL A   1      41.755  30.817  34.737  1.00  0.00    -0.354 N 
ATOM     65  N   UNL A   1      39.489  31.980  33.260  1.00  0.00    -0.248 NA
ATOM     66  C   UNL A   1      37.690  33.467  33.163  1.00  0.00     0.031 C 
ATOM     67  C   UNL A   1      42.255  31.653  36.732  1.00  0.00     0.029 A 
ATOM     68  C   UNL A   1      41.382  31.776  35.663  1.00  0.00     0.049 A 
ATOM     69  H   UNL A   1      41.305  30.657  33.877  1.00  0.00     0.167 HD
ATOM     70  C   UNL A   1      39.473  32.754  34.418  1.00  0.00     0.074 A 
ATOM     71  C   UNL A   1      38.371  33.684  34.278  1.00  0.00     0.031 C 
ATOM     72  C   UNL A   1      40.289  32.702  35.500  1.00  0.00     0.037 A 
BRANCH  59  73
ATOM     73  C   UNL A   1      44.711  28.397  35.118  1.00  0.00     0.058 A 
ATOM     74  C   UNL A   1      46.004  28.904  34.907  1.00  0.00     0.135 A 
ATOM     75  C   UNL A   1      44.574  27.301  35.985  1.00  0.00     0.135 A 
ATOM     76  F   UNL A   1      46.198  29.934  34.068  1.00  0.00    -0.206 F 
ATOM     77  C   UNL A   1      47.116  28.344  35.527  1.00  0.00     0.059 A 
ATOM     78  C   UNL A   1      45.669  26.743  36.639  1.00  0.00     0.059 A 
ATOM     79  F   UNL A   1      43.363  26.769  36.215  1.00  0.00    -0.206 F 
ATOM     80  C   UNL A   1      46.937  27.269  36.399  1.00  0.00     0.060 A 
BRANCH  80  81
ATOM     81  S   UNL A   1      48.388  26.584  37.228  1.00  0.00     0.124 S 
ATOM     82  O   UNL A   1      48.576  27.531  38.321  1.00  0.00    -0.237 OA
ATOM     83  O   UNL A   1      47.925  25.255  37.613  1.00  0.00    -0.237 OA
ATOM     84  O   UNL A   1      49.416  26.612  36.192  1.00  0.00    -0.744 OA
ENDBRANCH  80  81
ENDBRANCH  59  73
BRANCH  60  85
ATOM     85  C   UNL A   1      36.879  32.598  30.491  1.00  0.00     0.058 A 
ATOM     86  C   UNL A   1      37.046  33.622  29.545  1.00  0.00     0.135 A 
ATOM     87  C   UNL A   1      35.566  32.240  30.836  1.00  0.00     0.135 A 
ATOM     88  F   UNL A   1      38.280  34.005  29.184  1.00  0.00    -0.206 F 
ATOM     89  C   UNL A   1      35.959  34.300  29.002  1.00  0.00     0.059 A 
ATOM     90  C   UNL A   1      34.462  32.878  30.280  1.00  0.00     0.059 A 
ATOM     91  F   UNL A   1      35.346  31.257  31.722  1.00  0.00    -0.206 F 
ATOM     92  C   UNL A   1      34.670  33.923  29.381  1.00  0.00     0.060 A 
BRANCH  92  93
ATOM     93  S   UNL A   1      33.265  34.812  28.679  1.00  0.00     0.124 S 
ATOM     94  O   UNL A   1      32.466  35.083  29.867  1.00  0.00    -0.237 OA
ATOM     95  O   UNL A   1      33.912  35.967  28.064  1.00  0.00    -0.237 OA
ATOM     96  O   UNL A   1      32.695  33.849  27.741  1.00  0.00    -0.744 OA
ENDBRANCH  92  93
ENDBRANCH  60  85
BRANCH  72  97
ATOM     97  C   UNL A   1      40.051  33.713  36.591  1.00  0.00     0.058 A 
ATOM     98  C   UNL A   1      40.634  34.990  36.560  1.00  0.00     0.135 A 
ATOM     99  C   UNL A   1      39.221  33.399  37.680  1.00  0.00     0.135 A 
ATOM    100  F   UNL A   1      41.435  35.343  35.543  1.00  0.00    -0.206 F 
ATOM    101  C   UNL A   1      40.445  35.900  37.596  1.00  0.00     0.059 A 
ATOM    102  C   UNL A   1      38.987  34.308  38.707  1.00  0.00     0.059 A 
ATOM    103  F   UNL A   1      38.623  32.200  37.752  1.00  0.00    -0.206 F 
ATOM    104  C   UNL A   1      39.624  35.547  38.668  1.00  0.00     0.060 A 
BRANCH 104 105
ATOM    105  S   UNL A   1      39.397  36.732  40.010  1.00  0.00     0.124 S 
ATOM    106  O   UNL A   1      38.558  35.974  40.932  1.00  0.00    -0.237 OA
ATOM    107  O   UNL A   1      40.769  36.970  40.450  1.00  0.00    -0.237 OA
ATOM    108  O   UNL A   1      38.748  37.865  39.358  1.00  0.00    -0.744 OA
ENDBRANCH 104 105
ENDBRANCH  72  97
ENDBRANCH  46  47
ENDBRANCH  39  41
ENDBRANCH  38  39
ENDBRANCH  37  38
ENDBRANCH  36  37
ENDBRANCH  35  36
ENDBRANCH  34  35
ENDBRANCH  33  34
ENDBRANCH   1  33
TORSDOF 27
ENDMDL
MODEL 2
REMARK VINA RESULT:     -10.0      1.008      7.810
REMARK SMILES CS(=O)(=O)N1C[C@@H]2C[N@H+](Cc3cccnc3N)C[C@]2(C(=O)OCCOCCOCCOCCOC(=O)c2ccc(-c3c4nc(c(-c5c(F)cc(S(=O)(=O)[O-])cc5F)c5ccc([nH]5)c(-c5c(F)cc(S(=O)(=O)[O-])cc5F)c5nc(c(-c6c(F)cc(S(=O)(=O)[O-])cc6F)c6ccc3[nH]6)C=C5)C=C4)cc2)C1
REMARK SMILES IDX 28 1 27 2 26 3 25 4 24 5 23 6 22 7 20 8 21 9 19 10 5 11 6 12
REMARK SMILES IDX 103 13 7 14 8 15 18 16 9 17 2 19 1 20 3 21 4 22 10 23 11 24
REMARK SMILES IDX 12 25 16 26 13 27 15 28 14 29 17 30 29 33 30 34 31 35 32 36
REMARK SMILES IDX 33 37 34 38 35 39 36 40 37 41 38 42 102 43 39 44 101 45
REMARK SMILES IDX 40 46 41 47 42 48 95 49 43 50 100 51 94 52 96 53 44 54 99 55
REMARK SMILES IDX 93 56 92 57 45 59 79 60 58 61 78 62 59 63 62 64 77 65 97 66
REMARK SMILES IDX 60 67 61 68 76 70 98 71 63 72 46 73 47 74 56 75 48 76 49 77
REMARK SMILES IDX 55 78 57 79 50 80 51 81 52 82 53 83 54 84 80 85 81 86 90 87
REMARK SMILES IDX 82 88 83 89 89 90 91 91 84 92 85 93 86 94 87 95 88 96 64 97
REMARK SMILES IDX 65 98 74 99 66 100 67 101 73 102 75 103 68 104 69 105 70 106
REMARK SMILES IDX 71 107 72 108
REMARK H PARENT 9 18 17 31 17 32 96 58 62 69
REMARK Flexibility Score: inf
ROOT
ATOM      1  O   UNL A   1      42.611  19.158  26.389  1.00  0.00    -0.377 OA
ENDROOT
BRANCH   1   2
ATOM      2  C   UNL A   1      41.883  20.324  26.719  1.00  0.00     0.188 C 
BRANCH   2   3
ATOM      3  C   UNL A   1      40.400  20.349  26.332  1.00  0.00     0.188 C 
BRANCH   3   4
ATOM      4  O   UNL A   1      39.590  21.425  26.762  1.00  0.00    -0.376 OA
BRANCH   4   5
ATOM      5  C   UNL A   1      38.614  21.982  25.883  1.00  0.00     0.202 C 
BRANCH   5   6
ATOM      6  C   UNL A   1      37.756  21.121  24.930  1.00  0.00     0.261 C 
BRANCH   6   7
ATOM      7  O   UNL A   1      36.351  21.195  25.206  1.00  0.00    -0.463 OA
BRANCH   7   8
ATOM      8  C   UNL A   1      35.568  22.001  24.423  1.00  0.00     0.319 C 
ATOM      9  O   UNL A   1      36.009  22.589  23.444  1.00  0.00    -0.251 OA
BRANCH   8  10
ATOM     10  C   UNL A   1      34.083  21.971  24.870  1.00  0.00     0.140 C 
ATOM     11  N   UNL A   1      33.222  19.716  24.320  1.00  0.00    -0.200 NA
ATOM     12  C   UNL A   1      32.064  20.575  24.465  1.00  0.00     0.113 C 
ATOM     13  C   UNL A   1      34.361  20.345  25.050  1.00  0.00     0.127 C 
ATOM     14  C   UNL A   1      32.654  21.624  25.365  1.00  0.00     0.084 C 
ATOM     15  C   UNL A   1      31.826  22.877  25.563  1.00  0.00     0.268 C 
ATOM     16  C   UNL A   1      34.109  23.245  25.777  1.00  0.00     0.283 C 
ATOM     17  N   UNL A   1      32.811  23.943  25.621  1.00  0.00    -0.330 N 
ATOM     18  H   UNL A   1      32.644  24.574  26.405  1.00  0.00     0.348 HD
BRANCH  11  19
ATOM     19  S   UNL A   1      33.084  18.093  24.002  1.00  0.00     0.211 S 
ATOM     20  C   UNL A   1      34.701  17.479  24.405  1.00  0.00     0.176 C 
ATOM     21  O   UNL A   1      32.903  17.912  22.583  1.00  0.00    -0.213 OA
ATOM     22  O   UNL A   1      32.154  17.524  24.962  1.00  0.00    -0.213 OA
ENDBRANCH  11  19
BRANCH  17  23
ATOM     23  C   UNL A   1      32.739  24.896  24.491  1.00  0.00     0.302 C 
BRANCH  23  24
ATOM     24  C   UNL A   1      32.827  26.362  24.837  1.00  0.00     0.048 A 
ATOM     25  C   UNL A   1      33.361  26.739  26.078  1.00  0.00     0.015 A 
ATOM     26  C   UNL A   1      32.512  27.383  23.937  1.00  0.00     0.132 A 
ATOM     27  C   UNL A   1      33.697  28.065  26.311  1.00  0.00     0.021 A 
ATOM     28  N   UNL A   1      32.871  28.663  24.132  1.00  0.00    -0.239 NA
ATOM     29  C   UNL A   1      33.488  28.971  25.293  1.00  0.00     0.113 A 
BRANCH  26  30
ATOM     30  N   UNL A   1      31.880  27.151  22.731  1.00  0.00    -0.383 N 
ATOM     31  H   UNL A   1      31.266  26.389  22.635  1.00  0.00     0.158 HD
ATOM     32  H   UNL A   1      32.044  27.751  21.967  1.00  0.00     0.158 HD
ENDBRANCH  26  30
ENDBRANCH  23  24
ENDBRANCH  17  23
ENDBRANCH   8  10
ENDBRANCH   7   8
ENDBRANCH   6   7
ENDBRANCH   5   6
ENDBRANCH   4   5
ENDBRANCH   3   4
ENDBRANCH   2   3
ENDBRANCH   1   2
BRANCH   1  33
ATOM     33  C   UNL A   1      43.802  19.225  25.617  1.00  0.00     0.188 C 
BRANCH  33  34
ATOM     34  C   UNL A   1      44.252  20.566  25.023  1.00  0.00     0.188 C 
BRANCH  34  35
ATOM     35  O   UNL A   1      45.438  21.085  25.591  1.00  0.00    -0.376 OA
BRANCH  35  36
ATOM     36  C   UNL A   1      45.518  22.432  26.022  1.00  0.00     0.202 C 
BRANCH  36  37
ATOM     37  C   UNL A   1      44.508  23.012  27.025  1.00  0.00     0.261 C 
BRANCH  37  38
ATOM     38  O   UNL A   1      44.009  24.333  26.781  1.00  0.00    -0.460 OA
BRANCH  38  39
ATOM     39  C   UNL A   1      42.679  24.484  26.616  1.00  0.00     0.338 C 
ATOM     40  O   UNL A   1      41.933  23.778  25.971  1.00  0.00    -0.246 OA
BRANCH  39  41
ATOM     41  C   UNL A   1      42.243  25.572  27.516  1.00  0.00     0.060 A 
ATOM     42  C   UNL A   1      43.004  26.746  27.567  1.00  0.00     0.016 A 
ATOM     43  C   UNL A   1      41.119  25.417  28.332  1.00  0.00     0.016 A 
ATOM     44  C   UNL A   1      42.683  27.738  28.489  1.00  0.00     0.010 A 
ATOM     45  C   UNL A   1      40.805  26.409  29.265  1.00  0.00     0.010 A 
ATOM     46  C   UNL A   1      41.618  27.549  29.381  1.00  0.00    -0.014 A 
BRANCH  46  47
ATOM     47  C   UNL A   1      41.503  28.449  30.554  1.00  0.00     0.031 A 
ATOM     48  C   UNL A   1      40.411  29.487  30.558  1.00  0.00     0.074 A 
ATOM     49  C   UNL A   1      42.294  28.282  31.629  1.00  0.00     0.049 A 
ATOM     50  N   UNL A   1      40.091  30.352  31.484  1.00  0.00    -0.248 NA
ATOM     51  C   UNL A   1      39.561  29.557  29.356  1.00  0.00     0.031 C 
ATOM     52  C   UNL A   1      43.354  27.283  31.752  1.00  0.00     0.029 A 
ATOM     53  N   UNL A   1      42.317  28.945  32.830  1.00  0.00    -0.354 N 
ATOM     54  C   UNL A   1      38.997  31.053  30.987  1.00  0.00     0.074 A 
ATOM     55  C   UNL A   1      38.742  30.553  29.655  1.00  0.00     0.031 C 
ATOM     56  C   UNL A   1      43.922  27.395  32.966  1.00  0.00     0.029 A 
ATOM     57  C   UNL A   1      43.286  28.490  33.693  1.00  0.00     0.049 A 
ATOM     58  H   UNL A   1      41.698  29.678  33.052  1.00  0.00     0.167 HD
ATOM     59  C   UNL A   1      38.257  32.009  31.596  1.00  0.00     0.037 A 
ATOM     60  C   UNL A   1      43.622  28.923  34.924  1.00  0.00     0.037 A 
ATOM     61  C   UNL A   1      38.521  32.507  32.921  1.00  0.00     0.049 A 
ATOM     62  C   UNL A   1      42.836  30.053  35.541  1.00  0.00     0.074 A 
ATOM     63  C   UNL A   1      37.846  33.490  33.623  1.00  0.00     0.029 A 
ATOM     64  N   UNL A   1      39.541  32.056  33.746  1.00  0.00    -0.354 N 
ATOM     65  N   UNL A   1      41.799  30.700  35.062  1.00  0.00    -0.248 NA
ATOM     66  C   UNL A   1      43.260  30.504  36.874  1.00  0.00     0.031 C 
ATOM     67  C   UNL A   1      38.486  33.666  34.854  1.00  0.00     0.029 A 
ATOM     68  C   UNL A   1      39.523  32.750  34.944  1.00  0.00     0.049 A 
ATOM     69  H   UNL A   1      40.183  31.347  33.514  1.00  0.00     0.167 HD
ATOM     70  C   UNL A   1      41.426  31.607  36.050  1.00  0.00     0.074 A 
ATOM     71  C   UNL A   1      42.333  31.406  37.161  1.00  0.00     0.031 C 
ATOM     72  C   UNL A   1      40.427  32.526  36.044  1.00  0.00     0.037 A 
BRANCH  59  73
ATOM     73  C   UNL A   1      37.090  32.584  30.838  1.00  0.00     0.058 A 
ATOM     74  C   UNL A   1      37.235  33.705  30.004  1.00  0.00     0.135 A 
ATOM     75  C   UNL A   1      35.827  31.973  30.897  1.00  0.00     0.135 A 
ATOM     76  F   UNL A   1      38.414  34.343  29.929  1.00  0.00    -0.206 F 
ATOM     77  C   UNL A   1      36.170  34.204  29.262  1.00  0.00     0.059 A 
ATOM     78  C   UNL A   1      34.754  32.438  30.141  1.00  0.00     0.059 A 
ATOM     79  F   UNL A   1      35.629  30.905  31.685  1.00  0.00    -0.206 F 
ATOM     80  C   UNL A   1      34.935  33.557  29.331  1.00  0.00     0.060 A 
BRANCH  80  81
ATOM     81  S   UNL A   1      33.575  34.195  28.327  1.00  0.00     0.124 S 
ATOM     82  O   UNL A   1      34.271  35.134  27.454  1.00  0.00    -0.237 OA
ATOM     83  O   UNL A   1      33.072  32.986  27.685  1.00  0.00    -0.237 OA
ATOM     84  O   UNL A   1      32.681  34.799  29.311  1.00  0.00    -0.744 OA
ENDBRANCH  80  81
ENDBRANCH  59  73
BRANCH  60  85
ATOM     85  C   UNL A   1      44.761  28.306  35.662  1.00  0.00     0.058 A 
ATOM     86  C   UNL A   1      46.089  28.671  35.393  1.00  0.00     0.135 A 
ATOM     87  C   UNL A   1      44.545  27.292  36.609  1.00  0.00     0.135 A 
ATOM     88  F   UNL A   1      46.349  29.632  34.493  1.00  0.00    -0.206 F 
ATOM     89  C   UNL A   1      47.162  28.024  35.996  1.00  0.00     0.059 A 
ATOM     90  C   UNL A   1      45.600  26.654  37.253  1.00  0.00     0.059 A 
ATOM     91  F   UNL A   1      43.295  26.913  36.919  1.00  0.00    -0.206 F 
ATOM     92  C   UNL A   1      46.906  27.012  36.922  1.00  0.00     0.060 A 
BRANCH  92  93
ATOM     93  S   UNL A   1      48.303  26.170  37.695  1.00  0.00     0.124 S 
ATOM     94  O   UNL A   1      49.380  27.128  37.476  1.00  0.00    -0.237 OA
ATOM     95  O   UNL A   1      47.846  26.024  39.074  1.00  0.00    -0.237 OA
ATOM     96  O   UNL A   1      48.403  24.925  36.940  1.00  0.00    -0.744 OA
ENDBRANCH  92  93
ENDBRANCH  60  85
BRANCH  72  97
ATOM     97  C   UNL A   1      40.234  33.342  37.295  1.00  0.00     0.058 A 
ATOM     98  C   UNL A   1      41.029  34.465  37.579  1.00  0.00     0.135 A 
ATOM     99  C   UNL A   1      39.233  32.998  38.219  1.00  0.00     0.135 A 
ATOM    100  F   UNL A   1      41.999  34.838  36.730  1.00  0.00    -0.206 F 
ATOM    101  C   UNL A   1      40.874  35.184  38.760  1.00  0.00     0.059 A 
ATOM    102  C   UNL A   1      39.036  33.727  39.387  1.00  0.00     0.059 A 
ATOM    103  F   UNL A   1      38.432  31.946  37.990  1.00  0.00    -0.206 F 
ATOM    104  C   UNL A   1      39.877  34.804  39.661  1.00  0.00     0.060 A 
BRANCH 104 105
ATOM    105  S   UNL A   1      39.694  35.739  41.193  1.00  0.00     0.124 S 
ATOM    106  O   UNL A   1      38.415  36.406  40.980  1.00  0.00    -0.237 OA
ATOM    107  O   UNL A   1      39.699  34.684  42.204  1.00  0.00    -0.237 OA
ATOM    108  O   UNL A   1      40.864  36.611  41.201  1.00  0.00    -0.744 OA
ENDBRANCH 104 105
ENDBRANCH  72  97
ENDBRANCH  46  47
ENDBRANCH  39  41
ENDBRANCH  38  39
ENDBRANCH  37  38
ENDBRANCH  36  37
ENDBRANCH  35  36
ENDBRANCH  34  35
ENDBRANCH  33  34
ENDBRANCH   1  33
TORSDOF 27
ENDMDL
MODEL 3
REMARK VINA RESULT:      -9.8      1.315      8.002
REMARK SMILES CS(=O)(=O)N1C[C@@H]2C[N@H+](Cc3cccnc3N)C[C@]2(C(=O)OCCOCCOCCOCCOC(=O)c2ccc(-c3c4nc(c(-c5c(F)cc(S(=O)(=O)[O-])cc5F)c5ccc([nH]5)c(-c5c(F)cc(S(=O)(=O)[O-])cc5F)c5nc(c(-c6c(F)cc(S(=O)(=O)[O-])cc6F)c6ccc3[nH]6)C=C5)C=C4)cc2)C1
REMARK SMILES IDX 28 1 27 2 26 3 25 4 24 5 23 6 22 7 20 8 21 9 19 10 5 11 6 12
REMARK SMILES IDX 103 13 7 14 8 15 18 16 9 17 2 19 1 20 3 21 4 22 10 23 11 24
REMARK SMILES IDX 12 25 16 26 13 27 15 28 14 29 17 30 29 33 30 34 31 35 32 36
REMARK SMILES IDX 33 37 34 38 35 39 36 40 37 41 38 42 102 43 39 44 101 45
REMARK SMILES IDX 40 46 41 47 42 48 95 49 43 50 100 51 94 52 96 53 44 54 99 55
REMARK SMILES IDX 93 56 92 57 45 59 79 60 58 61 78 62 59 63 62 64 77 65 97 66
REMARK SMILES IDX 60 67 61 68 76 70 98 71 63 72 46 73 47 74 56 75 48 76 49 77
REMARK SMILES IDX 55 78 57 79 50 80 51 81 52 82 53 83 54 84 80 85 81 86 90 87
REMARK SMILES IDX 82 88 83 89 89 90 91 91 84 92 85 93 86 94 87 95 88 96 64 97
REMARK SMILES IDX 65 98 74 99 66 100 67 101 73 102 75 103 68 104 69 105 70 106
REMARK SMILES IDX 71 107 72 108
REMARK H PARENT 9 18 17 31 17 32 96 58 62 69
REMARK Flexibility Score: inf
ROOT
ATOM      1  O   UNL A   1      42.390  18.753  26.859  1.00  0.00    -0.377 OA
ENDROOT
BRANCH   1   2
ATOM      2  C   UNL A   1      41.857  20.055  27.002  1.00  0.00     0.188 C 
BRANCH   2   3
ATOM      3  C   UNL A   1      40.444  20.290  26.455  1.00  0.00     0.188 C 
BRANCH   3   4
ATOM      4  O   UNL A   1      39.738  21.453  26.838  1.00  0.00    -0.376 OA
BRANCH   4   5
ATOM      5  C   UNL A   1      38.730  21.992  25.983  1.00  0.00     0.202 C 
BRANCH   5   6
ATOM      6  C   UNL A   1      37.904  21.123  25.011  1.00  0.00     0.261 C 
BRANCH   6   7
ATOM      7  O   UNL A   1      36.491  21.189  25.246  1.00  0.00    -0.463 OA
BRANCH   7   8
ATOM      8  C   UNL A   1      35.711  21.898  24.373  1.00  0.00     0.319 C 
ATOM      9  O   UNL A   1      36.184  22.513  23.426  1.00  0.00    -0.251 OA
BRANCH   8  10
ATOM     10  C   UNL A   1      34.200  21.723  24.677  1.00  0.00     0.140 C 
ATOM     11  N   UNL A   1      33.659  19.348  24.235  1.00  0.00    -0.200 NA
ATOM     12  C   UNL A   1      32.403  20.071  24.198  1.00  0.00     0.113 C 
ATOM     13  C   UNL A   1      34.638  20.159  25.016  1.00  0.00     0.127 C 
ATOM     14  C   UNL A   1      32.775  21.244  25.061  1.00  0.00     0.084 C 
ATOM     15  C   UNL A   1      31.797  22.400  25.074  1.00  0.00     0.268 C 
ATOM     16  C   UNL A   1      33.989  23.052  25.474  1.00  0.00     0.283 C 
ATOM     17  N   UNL A   1      32.644  23.577  25.137  1.00  0.00    -0.330 N 
ATOM     18  H   UNL A   1      32.327  24.238  25.847  1.00  0.00     0.348 HD
BRANCH  11  19
ATOM     19  S   UNL A   1      33.737  17.702  24.041  1.00  0.00     0.211 S 
ATOM     20  C   UNL A   1      32.567  17.113  25.241  1.00  0.00     0.176 C 
ATOM     21  O   UNL A   1      35.040  17.247  24.460  1.00  0.00    -0.213 OA
ATOM     22  O   UNL A   1      33.208  17.377  22.728  1.00  0.00    -0.213 OA
ENDBRANCH  11  19
BRANCH  17  23
ATOM     23  C   UNL A   1      32.584  24.432  23.931  1.00  0.00     0.302 C 
BRANCH  23  24
ATOM     24  C   UNL A   1      32.474  25.920  24.161  1.00  0.00     0.048 A 
ATOM     25  C   UNL A   1      33.645  26.669  24.344  1.00  0.00     0.015 A 
ATOM     26  C   UNL A   1      31.268  26.620  24.087  1.00  0.00     0.132 A 
ATOM     27  C   UNL A   1      33.594  28.055  24.291  1.00  0.00     0.021 A 
ATOM     28  N   UNL A   1      31.208  27.959  23.991  1.00  0.00    -0.239 NA
ATOM     29  C   UNL A   1      32.369  28.645  24.056  1.00  0.00     0.113 A 
BRANCH  26  30
ATOM     30  N   UNL A   1      30.039  25.994  24.020  1.00  0.00    -0.383 N 
ATOM     31  H   UNL A   1      29.699  25.667  23.157  1.00  0.00     0.158 HD
ATOM     32  H   UNL A   1      29.503  25.874  24.839  1.00  0.00     0.158 HD
ENDBRANCH  26  30
ENDBRANCH  23  24
ENDBRANCH  17  23
ENDBRANCH   8  10
ENDBRANCH   7   8
ENDBRANCH   6   7
ENDBRANCH   5   6
ENDBRANCH   4   5
ENDBRANCH   3   4
ENDBRANCH   2   3
ENDBRANCH   1   2
BRANCH   1  33
ATOM     33  C   UNL A   1      43.545  18.511  26.068  1.00  0.00     0.188 C 
BRANCH  33  34
ATOM     34  C   UNL A   1      44.003  19.558  25.045  1.00  0.00     0.188 C 
BRANCH  34  35
ATOM     35  O   UNL A   1      45.342  19.982  25.207  1.00  0.00    -0.376 OA
BRANCH  35  36
ATOM     36  C   UNL A   1      45.675  21.358  25.262  1.00  0.00     0.202 C 
BRANCH  36  37
ATOM     37  C   UNL A   1      44.962  22.316  26.229  1.00  0.00     0.261 C 
BRANCH  37  38
ATOM     38  O   UNL A   1      44.400  23.517  25.684  1.00  0.00    -0.460 OA
BRANCH  38  39
ATOM     39  C   UNL A   1      43.056  23.612  25.620  1.00  0.00     0.338 C 
ATOM     40  O   UNL A   1      42.296  22.879  25.023  1.00  0.00    -0.246 OA
BRANCH  39  41
ATOM     41  C   UNL A   1      42.642  24.673  26.562  1.00  0.00     0.060 A 
ATOM     42  C   UNL A   1      43.141  25.967  26.375  1.00  0.00     0.016 A 
ATOM     43  C   UNL A   1      41.804  24.381  27.641  1.00  0.00     0.016 A 
ATOM     44  C   UNL A   1      42.860  26.957  27.312  1.00  0.00     0.010 A 
ATOM     45  C   UNL A   1      41.533  25.373  28.588  1.00  0.00     0.010 A 
ATOM     46  C   UNL A   1      42.103  26.650  28.452  1.00  0.00    -0.014 A 
BRANCH  46  47
ATOM     47  C   UNL A   1      42.098  27.610  29.583  1.00  0.00     0.031 A 
ATOM     48  C   UNL A   1      41.012  28.653  29.633  1.00  0.00     0.074 A 
ATOM     49  C   UNL A   1      42.984  27.494  30.588  1.00  0.00     0.049 A 
ATOM     50  N   UNL A   1      40.780  29.566  30.539  1.00  0.00    -0.248 NA
ATOM     51  C   UNL A   1      40.055  28.666  28.512  1.00  0.00     0.031 C 
ATOM     52  C   UNL A   1      44.050  26.496  30.664  1.00  0.00     0.029 A 
ATOM     53  N   UNL A   1      43.118  28.217  31.745  1.00  0.00    -0.354 N 
ATOM     54  C   UNL A   1      39.645  30.247  30.109  1.00  0.00     0.074 A 
ATOM     55  C   UNL A   1      39.268  29.681  28.834  1.00  0.00     0.031 C 
ATOM     56  C   UNL A   1      44.728  26.667  31.813  1.00  0.00     0.029 A 
ATOM     57  C   UNL A   1      44.162  27.802  32.539  1.00  0.00     0.049 A 
ATOM     58  H   UNL A   1      42.523  28.964  31.986  1.00  0.00     0.167 HD
ATOM     59  C   UNL A   1      38.966  31.238  30.733  1.00  0.00     0.037 A 
ATOM     60  C   UNL A   1      44.611  28.295  33.710  1.00  0.00     0.037 A 
ATOM     61  C   UNL A   1      39.351  31.801  32.001  1.00  0.00     0.049 A 
ATOM     62  C   UNL A   1      43.886  29.460  34.337  1.00  0.00     0.074 A 
ATOM     63  C   UNL A   1      38.744  32.822  32.710  1.00  0.00     0.029 A 
ATOM     64  N   UNL A   1      40.442  31.387  32.751  1.00  0.00    -0.354 N 
ATOM     65  N   UNL A   1      42.810  30.088  33.922  1.00  0.00    -0.248 NA
ATOM     66  C   UNL A   1      44.431  29.976  35.600  1.00  0.00     0.031 C 
ATOM     67  C   UNL A   1      39.495  33.057  33.867  1.00  0.00     0.029 A 
ATOM     68  C   UNL A   1      40.534  32.142  33.908  1.00  0.00     0.049 A 
ATOM     69  H   UNL A   1      41.059  30.664  32.498  1.00  0.00     0.167 HD
ATOM     70  C   UNL A   1      42.530  31.046  34.893  1.00  0.00     0.074 A 
ATOM     71  C   UNL A   1      43.535  30.896  35.924  1.00  0.00     0.031 C 
ATOM     72  C   UNL A   1      41.536  31.969  34.931  1.00  0.00     0.037 A 
BRANCH  59  73
ATOM     73  C   UNL A   1      37.735  31.779  30.057  1.00  0.00     0.058 A 
ATOM     74  C   UNL A   1      36.492  31.133  30.166  1.00  0.00     0.135 A 
ATOM     75  C   UNL A   1      37.781  32.988  29.344  1.00  0.00     0.135 A 
ATOM     76  F   UNL A   1      36.394  29.961  30.814  1.00  0.00    -0.206 F 
ATOM     77  C   UNL A   1      35.343  31.661  29.586  1.00  0.00     0.059 A 
ATOM     78  C   UNL A   1      36.638  33.549  28.780  1.00  0.00     0.059 A 
ATOM     79  F   UNL A   1      38.943  33.644  29.200  1.00  0.00    -0.206 F 
ATOM     80  C   UNL A   1      35.425  32.875  28.903  1.00  0.00     0.060 A 
BRANCH  80  81
ATOM     81  S   UNL A   1      33.914  33.565  28.194  1.00  0.00     0.124 S 
ATOM     82  O   UNL A   1      33.264  34.121  29.376  1.00  0.00    -0.237 OA
ATOM     83  O   UNL A   1      34.436  34.538  27.241  1.00  0.00    -0.237 OA
ATOM     84  O   UNL A   1      33.254  32.404  27.604  1.00  0.00    -0.744 OA
ENDBRANCH  80  81
ENDBRANCH  59  73
BRANCH  60  85
ATOM     85  C   UNL A   1      45.812  27.710  34.371  1.00  0.00     0.058 A 
ATOM     86  C   UNL A   1      45.691  26.731  35.370  1.00  0.00     0.135 A 
ATOM     87  C   UNL A   1      47.103  28.165  34.059  1.00  0.00     0.135 A 
ATOM     88  F   UNL A   1      44.479  26.265  35.708  1.00  0.00    -0.206 F 
ATOM     89  C   UNL A   1      46.798  26.260  36.068  1.00  0.00     0.059 A 
ATOM     90  C   UNL A   1      48.228  27.684  34.719  1.00  0.00     0.059 A 
ATOM     91  F   UNL A   1      47.280  29.088  33.101  1.00  0.00    -0.206 F 
ATOM     92  C   UNL A   1      48.063  26.748  35.738  1.00  0.00     0.060 A 
BRANCH  92  93
ATOM     93  S   UNL A   1      49.494  26.138  36.655  1.00  0.00     0.124 S 
ATOM     94  O   UNL A   1      49.862  24.963  35.876  1.00  0.00    -0.237 OA
ATOM     95  O   UNL A   1      50.410  27.272  36.579  1.00  0.00    -0.237 OA
ATOM     96  O   UNL A   1      48.949  25.870  37.983  1.00  0.00    -0.744 OA
ENDBRANCH  92  93
ENDBRANCH  60  85
BRANCH  72  97
ATOM     97  C   UNL A   1      41.460  32.849  36.150  1.00  0.00     0.058 A 
ATOM     98  C   UNL A   1      40.564  32.590  37.199  1.00  0.00     0.135 A 
ATOM     99  C   UNL A   1      42.305  33.966  36.272  1.00  0.00     0.135 A 
ATOM    100  F   UNL A   1      39.735  31.537  37.135  1.00  0.00    -0.206 F 
ATOM    101  C   UNL A   1      40.469  33.437  38.300  1.00  0.00     0.059 A 
ATOM    102  C   UNL A   1      42.254  34.803  37.382  1.00  0.00     0.059 A 
ATOM    103  F   UNL A   1      43.194  34.251  35.309  1.00  0.00    -0.206 F 
ATOM    104  C   UNL A   1      41.315  34.544  38.380  1.00  0.00     0.060 A 
BRANCH 104 105
ATOM    105  S   UNL A   1      41.174  35.639  39.806  1.00  0.00     0.124 S 
ATOM    106  O   UNL A   1      40.794  36.897  39.175  1.00  0.00    -0.237 OA
ATOM    107  O   UNL A   1      40.134  34.987  40.598  1.00  0.00    -0.237 OA
ATOM    108  O   UNL A   1      42.510  35.608  40.392  1.00  0.00    -0.744 OA
ENDBRANCH 104 105
ENDBRANCH  72  97
ENDBRANCH  46  47
ENDBRANCH  39  41
ENDBRANCH  38  39
ENDBRANCH  37  38
ENDBRANCH  36  37
ENDBRANCH  35  36
ENDBRANCH  34  35
ENDBRANCH  33  34
ENDBRANCH   1  33
TORSDOF 27
ENDMDL
