MODEL 1
REMARK VINA RESULT:      -9.4      0.000      0.000
REMARK SMILES O=C(OCCOCCOCCOCCOC(=O)[C@H]1C[C@H](O)CN1C(=O)CS[C@H]1CCS(=O)(=O)C1)c1ccc(-c2c3nc(c(-c4c(F)cc(S(=O)(=O)[O-])cc4F)c4ccc([nH]4)c(-c4c(F)cc(S(=O)(=O)[O-])cc4F)c4nc(c(-c5c(F)cc(S(=O)(=O)[O-])cc5F)c5ccc2[nH]5)C=C4)C=C3)cc1
REMARK SMILES IDX 10 1 9 2 8 3 7 4 6 5 5 6 4 7 3 8 2 9 1 10 35 11 36 12 100 13
REMARK SMILES IDX 37 14 99 15 38 16 39 17 40 18 93 19 41 20 98 21 92 22 94 23
REMARK SMILES IDX 42 24 97 25 91 26 90 27 43 29 77 30 56 31 76 32 57 33 60 34
REMARK SMILES IDX 75 35 95 36 58 37 59 38 74 40 96 41 61 42 44 43 45 44 54 45
REMARK SMILES IDX 46 46 47 47 53 48 55 49 48 50 49 51 50 52 51 53 52 54 78 55
REMARK SMILES IDX 79 56 88 57 80 58 81 59 87 60 89 61 82 62 83 63 84 64 85 65
REMARK SMILES IDX 86 66 62 67 63 68 72 69 64 70 65 71 71 72 73 73 66 74 67 75
REMARK SMILES IDX 68 76 69 77 70 78 11 79 12 80 13 81 14 82 15 83 16 84 17 85
REMARK SMILES IDX 18 86 19 87 23 88 20 89 22 90 24 91 25 92 26 93 27 94 28 95
REMARK SMILES IDX 29 96 34 97 30 98 31 99 32 100 33 101 21 102
REMARK H PARENT 94 28 60 39 21 103
REMARK Flexibility Score: inf
ROOT
ATOM      1  C   UNL A   1      34.015  28.559  22.733  1.00  0.00     0.188 C 
ENDROOT
BRANCH   1   2
ATOM      2  O   UNL A   1      33.615  29.467  23.768  1.00  0.00    -0.377 OA
BRANCH   2   3
ATOM      3  C   UNL A   1      32.637  29.024  24.717  1.00  0.00     0.188 C 
BRANCH   3   4
ATOM      4  C   UNL A   1      32.365  29.992  25.859  1.00  0.00     0.188 C 
BRANCH   4   5
ATOM      5  O   UNL A   1      33.250  29.731  26.928  1.00  0.00    -0.376 OA
BRANCH   5   6
ATOM      6  C   UNL A   1      33.915  30.821  27.525  1.00  0.00     0.202 C 
BRANCH   6   7
ATOM      7  C   UNL A   1      35.158  30.278  28.231  1.00  0.00     0.261 C 
BRANCH   7   8
ATOM      8  O   UNL A   1      35.853  31.332  28.929  1.00  0.00    -0.460 OA
BRANCH   8   9
ATOM      9  C   UNL A   1      36.780  31.149  29.904  1.00  0.00     0.338 C 
ATOM     10  O   UNL A   1      36.448  31.273  31.082  1.00  0.00    -0.246 OA
BRANCH   9  11
ATOM     11  C   UNL A   1      38.153  30.630  29.613  1.00  0.00     0.060 A 
ATOM     12  C   UNL A   1      39.213  30.571  30.525  1.00  0.00     0.016 A 
ATOM     13  C   UNL A   1      38.347  30.068  28.340  1.00  0.00     0.016 A 
ATOM     14  C   UNL A   1      40.425  29.982  30.198  1.00  0.00     0.010 A 
ATOM     15  C   UNL A   1      39.573  29.496  27.990  1.00  0.00     0.010 A 
ATOM     16  C   UNL A   1      40.618  29.469  28.921  1.00  0.00    -0.014 A 
BRANCH  16  17
ATOM     17  C   UNL A   1      41.994  29.129  28.528  1.00  0.00     0.031 A 
ATOM     18  C   UNL A   1      42.254  27.711  28.122  1.00  0.00     0.074 A 
ATOM     19  C   UNL A   1      42.924  30.090  28.406  1.00  0.00     0.049 A 
ATOM     20  N   UNL A   1      43.378  27.127  27.819  1.00  0.00    -0.248 NA
ATOM     21  C   UNL A   1      41.074  26.829  28.032  1.00  0.00     0.031 C 
ATOM     22  C   UNL A   1      42.696  31.521  28.627  1.00  0.00     0.029 A 
ATOM     23  N   UNL A   1      44.241  30.014  28.042  1.00  0.00    -0.354 N 
ATOM     24  C   UNL A   1      43.048  25.807  27.539  1.00  0.00     0.074 A 
ATOM     25  C   UNL A   1      41.621  25.670  27.709  1.00  0.00     0.031 C 
ATOM     26  C   UNL A   1      43.839  32.187  28.395  1.00  0.00     0.029 A 
ATOM     27  C   UNL A   1      44.891  31.226  28.077  1.00  0.00     0.049 A 
ATOM     28  H   UNL A   1      44.680  29.173  27.781  1.00  0.00     0.167 HD
ATOM     29  C   UNL A   1      43.877  24.802  27.181  1.00  0.00     0.037 A 
ATOM     30  C   UNL A   1      46.198  31.502  27.913  1.00  0.00     0.037 A 
ATOM     31  C   UNL A   1      45.294  24.987  27.025  1.00  0.00     0.049 A 
ATOM     32  C   UNL A   1      47.123  30.346  27.629  1.00  0.00     0.074 A 
ATOM     33  C   UNL A   1      46.265  24.047  26.740  1.00  0.00     0.029 A 
ATOM     34  N   UNL A   1      45.939  26.214  27.145  1.00  0.00    -0.354 N 
ATOM     35  N   UNL A   1      46.827  29.077  27.458  1.00  0.00    -0.248 NA
ATOM     36  C   UNL A   1      48.556  30.647  27.534  1.00  0.00     0.031 C 
ATOM     37  C   UNL A   1      47.503  24.700  26.733  1.00  0.00     0.029 A 
ATOM     38  C   UNL A   1      47.297  26.056  26.954  1.00  0.00     0.049 A 
ATOM     39  H   UNL A   1      45.491  27.069  27.337  1.00  0.00     0.167 HD
ATOM     40  C   UNL A   1      48.032  28.431  27.213  1.00  0.00     0.074 A 
ATOM     41  C   UNL A   1      49.060  29.455  27.245  1.00  0.00     0.031 C 
ATOM     42  C   UNL A   1      48.277  27.116  26.984  1.00  0.00     0.037 A 
BRANCH  29  43
ATOM     43  C   UNL A   1      43.276  23.434  27.023  1.00  0.00     0.058 A 
ATOM     44  C   UNL A   1      43.054  22.582  28.116  1.00  0.00     0.135 A 
ATOM     45  C   UNL A   1      42.954  22.950  25.744  1.00  0.00     0.135 A 
ATOM     46  F   UNL A   1      43.379  22.976  29.359  1.00  0.00    -0.206 F 
ATOM     47  C   UNL A   1      42.562  21.291  27.945  1.00  0.00     0.059 A 
ATOM     48  C   UNL A   1      42.435  21.674  25.552  1.00  0.00     0.059 A 
ATOM     49  F   UNL A   1      43.164  23.714  24.660  1.00  0.00    -0.206 F 
ATOM     50  C   UNL A   1      42.257  20.845  26.658  1.00  0.00     0.060 A 
BRANCH  50  51
ATOM     51  S   UNL A   1      41.631  19.164  26.452  1.00  0.00     0.124 S 
ATOM     52  O   UNL A   1      41.337  18.792  27.833  1.00  0.00    -0.237 OA
ATOM     53  O   UNL A   1      40.471  19.369  25.591  1.00  0.00    -0.237 OA
ATOM     54  O   UNL A   1      42.750  18.458  25.837  1.00  0.00    -0.744 OA
ENDBRANCH  50  51
ENDBRANCH  29  43
BRANCH  30  55
ATOM     55  C   UNL A   1      46.705  32.893  28.070  1.00  0.00     0.058 A 
ATOM     56  C   UNL A   1      46.691  33.804  27.003  1.00  0.00     0.135 A 
ATOM     57  C   UNL A   1      47.217  33.346  29.299  1.00  0.00     0.135 A 
ATOM     58  F   UNL A   1      46.224  33.425  25.804  1.00  0.00    -0.206 F 
ATOM     59  C   UNL A   1      47.175  35.103  27.142  1.00  0.00     0.059 A 
ATOM     60  C   UNL A   1      47.679  34.647  29.471  1.00  0.00     0.059 A 
ATOM     61  F   UNL A   1      47.251  32.522  30.358  1.00  0.00    -0.206 F 
ATOM     62  C   UNL A   1      47.666  35.516  28.383  1.00  0.00     0.060 A 
BRANCH  62  63
ATOM     63  S   UNL A   1      48.262  37.212  28.563  1.00  0.00     0.124 S 
ATOM     64  O   UNL A   1      47.018  37.970  28.494  1.00  0.00    -0.237 OA
ATOM     65  O   UNL A   1      48.913  37.171  29.868  1.00  0.00    -0.237 OA
ATOM     66  O   UNL A   1      49.162  37.375  27.426  1.00  0.00    -0.744 OA
ENDBRANCH  62  63
ENDBRANCH  30  55
BRANCH  42  67
ATOM     67  C   UNL A   1      49.700  26.725  26.709  1.00  0.00     0.058 A 
ATOM     68  C   UNL A   1      50.555  26.290  27.733  1.00  0.00     0.135 A 
ATOM     69  C   UNL A   1      50.182  26.713  25.391  1.00  0.00     0.135 A 
ATOM     70  F   UNL A   1      50.139  26.291  29.009  1.00  0.00    -0.206 F 
ATOM     71  C   UNL A   1      51.851  25.873  27.459  1.00  0.00     0.059 A 
ATOM     72  C   UNL A   1      51.464  26.269  25.092  1.00  0.00     0.059 A 
ATOM     73  F   UNL A   1      49.394  27.107  24.378  1.00  0.00    -0.206 F 
ATOM     74  C   UNL A   1      52.294  25.859  26.133  1.00  0.00     0.060 A 
BRANCH  74  75
ATOM     75  S   UNL A   1      53.961  25.264  25.787  1.00  0.00     0.124 S 
ATOM     76  O   UNL A   1      54.440  26.269  24.843  1.00  0.00    -0.237 OA
ATOM     77  O   UNL A   1      54.580  25.287  27.109  1.00  0.00    -0.237 OA
ATOM     78  O   UNL A   1      53.738  23.934  25.229  1.00  0.00    -0.744 OA
ENDBRANCH  74  75
ENDBRANCH  42  67
ENDBRANCH  16  17
ENDBRANCH   9  11
ENDBRANCH   8   9
ENDBRANCH   7   8
ENDBRANCH   6   7
ENDBRANCH   5   6
ENDBRANCH   4   5
ENDBRANCH   3   4
ENDBRANCH   2   3
ENDBRANCH   1   2
BRANCH   1  79
ATOM     79  C   UNL A   1      33.414  27.155  22.898  1.00  0.00     0.188 C 
BRANCH  79  80
ATOM     80  O   UNL A   1      33.853  26.194  21.941  1.00  0.00    -0.376 OA
BRANCH  80  81
ATOM     81  C   UNL A   1      32.863  25.288  21.465  1.00  0.00     0.202 C 
BRANCH  81  82
ATOM     82  C   UNL A   1      32.773  23.959  22.234  1.00  0.00     0.261 C 
BRANCH  82  83
ATOM     83  O   UNL A   1      31.440  23.724  22.755  1.00  0.00    -0.462 OA
BRANCH  83  84
ATOM     84  C   UNL A   1      31.061  24.457  23.826  1.00  0.00     0.329 C 
ATOM     85  O   UNL A   1      30.269  25.394  23.746  1.00  0.00    -0.250 OA
BRANCH  84  86
ATOM     86  C   UNL A   1      31.732  24.062  25.180  1.00  0.00     0.197 C 
ATOM     87  C   UNL A   1      30.759  24.390  26.311  1.00  0.00     0.070 C 
ATOM     88  N   UNL A   1      32.128  22.685  25.555  1.00  0.00    -0.325 N 
ATOM     89  C   UNL A   1      29.991  23.084  26.519  1.00  0.00     0.136 C 
ATOM     90  C   UNL A   1      31.006  21.991  26.183  1.00  0.00     0.152 C 
BRANCH  88  91
ATOM     91  C   UNL A   1      33.450  22.263  25.528  1.00  0.00     0.233 C 
ATOM     92  O   UNL A   1      34.361  23.007  25.904  1.00  0.00    -0.274 OA
BRANCH  91  93
ATOM     93  C   UNL A   1      33.758  20.842  25.025  1.00  0.00     0.169 C 
BRANCH  93  94
ATOM     94  S   UNL A   1      32.534  20.179  23.806  1.00  0.00    -0.148 SA
BRANCH  94  95
ATOM     95  C   UNL A   1      32.495  18.356  24.090  1.00  0.00     0.063 C 
ATOM     96  C   UNL A   1      33.415  17.645  23.086  1.00  0.00     0.031 C 
ATOM     97  C   UNL A   1      32.942  17.912  25.458  1.00  0.00     0.151 C 
ATOM     98  C   UNL A   1      33.636  16.210  23.569  1.00  0.00     0.138 C 
ATOM     99  S   UNL A   1      33.382  16.213  25.332  1.00  0.00     0.151 S 
ATOM    100  O   UNL A   1      32.226  15.412  25.648  1.00  0.00    -0.229 OA
ATOM    101  O   UNL A   1      34.654  16.054  26.022  1.00  0.00    -0.229 OA
ENDBRANCH  94  95
ENDBRANCH  93  94
ENDBRANCH  91  93
ENDBRANCH  88  91
BRANCH  89 102
ATOM    102  O   UNL A   1      29.528  22.969  27.858  1.00  0.00    -0.391 OA
ATOM    103  H   UNL A   1      29.847  23.725  28.376  1.00  0.00     0.211 HD
ENDBRANCH  89 102
ENDBRANCH  84  86
ENDBRANCH  83  84
ENDBRANCH  82  83
ENDBRANCH  81  82
ENDBRANCH  80  81
ENDBRANCH  79  80
ENDBRANCH   1  79
TORSDOF 28
ENDMDL
MODEL 2
REMARK VINA RESULT:      -9.3      2.260      8.250
REMARK SMILES O=C(OCCOCCOCCOCCOC(=O)[C@H]1C[C@H](O)CN1C(=O)CS[C@H]1CCS(=O)(=O)C1)c1ccc(-c2c3nc(c(-c4c(F)cc(S(=O)(=O)[O-])cc4F)c4ccc([nH]4)c(-c4c(F)cc(S(=O)(=O)[O-])cc4F)c4nc(c(-c5c(F)cc(S(=O)(=O)[O-])cc5F)c5ccc2[nH]5)C=C4)C=C3)cc1
REMARK SMILES IDX 10 1 9 2 8 3 7 4 6 5 5 6 4 7 3 8 2 9 1 10 35 11 36 12 100 13
REMARK SMILES IDX 37 14 99 15 38 16 39 17 40 18 93 19 41 20 98 21 92 22 94 23
REMARK SMILES IDX 42 24 97 25 91 26 90 27 43 29 77 30 56 31 76 32 57 33 60 34
REMARK SMILES IDX 75 35 95 36 58 37 59 38 74 40 96 41 61 42 44 43 45 44 54 45
REMARK SMILES IDX 46 46 47 47 53 48 55 49 48 50 49 51 50 52 51 53 52 54 78 55
REMARK SMILES IDX 79 56 88 57 80 58 81 59 87 60 89 61 82 62 83 63 84 64 85 65
REMARK SMILES IDX 86 66 62 67 63 68 72 69 64 70 65 71 71 72 73 73 66 74 67 75
REMARK SMILES IDX 68 76 69 77 70 78 11 79 12 80 13 81 14 82 15 83 16 84 17 85
REMARK SMILES IDX 18 86 19 87 23 88 20 89 22 90 24 91 25 92 26 93 27 94 28 95
REMARK SMILES IDX 29 96 34 97 30 98 31 99 32 100 33 101 21 102
REMARK H PARENT 94 28 60 39 21 103
REMARK Flexibility Score: inf
ROOT
ATOM      1  C   UNL A   1      33.996  28.587  22.666  1.00  0.00     0.188 C 
ENDROOT
BRANCH   1   2
ATOM      2  O   UNL A   1      33.232  29.258  23.675  1.00  0.00    -0.377 OA
BRANCH   2   3
ATOM      3  C   UNL A   1      32.083  28.591  24.212  1.00  0.00     0.188 C 
BRANCH   3   4
ATOM      4  C   UNL A   1      31.765  28.923  25.662  1.00  0.00     0.188 C 
BRANCH   4   5
ATOM      5  O   UNL A   1      32.859  28.574  26.484  1.00  0.00    -0.376 OA
BRANCH   5   6
ATOM      6  C   UNL A   1      33.665  29.610  26.998  1.00  0.00     0.202 C 
BRANCH   6   7
ATOM      7  C   UNL A   1      35.060  29.035  27.249  1.00  0.00     0.261 C 
BRANCH   7   8
ATOM      8  O   UNL A   1      35.861  29.951  28.024  1.00  0.00    -0.460 OA
BRANCH   8   9
ATOM      9  C   UNL A   1      36.719  29.597  29.015  1.00  0.00     0.338 C 
ATOM     10  O   UNL A   1      36.289  29.443  30.157  1.00  0.00    -0.246 OA
BRANCH   9  11
ATOM     11  C   UNL A   1      38.141  29.217  28.742  1.00  0.00     0.060 A 
ATOM     12  C   UNL A   1      39.018  28.629  29.660  1.00  0.00     0.016 A 
ATOM     13  C   UNL A   1      38.584  29.382  27.419  1.00  0.00     0.016 A 
ATOM     14  C   UNL A   1      40.290  28.217  29.293  1.00  0.00     0.010 A 
ATOM     15  C   UNL A   1      39.873  28.996  27.044  1.00  0.00     0.010 A 
ATOM     16  C   UNL A   1      40.732  28.426  27.992  1.00  0.00    -0.014 A 
BRANCH  16  17
ATOM     17  C   UNL A   1      42.167  28.251  27.727  1.00  0.00     0.031 A 
ATOM     18  C   UNL A   1      43.062  29.412  28.036  1.00  0.00     0.074 A 
ATOM     19  C   UNL A   1      42.651  27.051  27.365  1.00  0.00     0.049 A 
ATOM     20  N   UNL A   1      44.338  29.558  27.819  1.00  0.00    -0.248 NA
ATOM     21  C   UNL A   1      42.428  30.569  28.697  1.00  0.00     0.031 C 
ATOM     22  C   UNL A   1      41.856  25.832  27.204  1.00  0.00     0.029 A 
ATOM     23  N   UNL A   1      43.932  26.654  27.089  1.00  0.00    -0.354 N 
ATOM     24  C   UNL A   1      44.651  30.830  28.281  1.00  0.00     0.074 A 
ATOM     25  C   UNL A   1      43.435  31.419  28.789  1.00  0.00     0.031 C 
ATOM     26  C   UNL A   1      42.669  24.821  26.856  1.00  0.00     0.029 A 
ATOM     27  C   UNL A   1      44.026  25.337  26.703  1.00  0.00     0.049 A 
ATOM     28  H   UNL A   1      44.709  27.253  27.159  1.00  0.00     0.167 HD
ATOM     29  C   UNL A   1      45.854  31.446  28.267  1.00  0.00     0.037 A 
ATOM     30  C   UNL A   1      45.090  24.655  26.238  1.00  0.00     0.037 A 
ATOM     31  C   UNL A   1      47.038  30.817  27.748  1.00  0.00     0.049 A 
ATOM     32  C   UNL A   1      46.396  25.398  26.121  1.00  0.00     0.074 A 
ATOM     33  C   UNL A   1      48.306  31.344  27.602  1.00  0.00     0.029 A 
ATOM     34  N   UNL A   1      47.087  29.505  27.289  1.00  0.00    -0.354 N 
ATOM     35  N   UNL A   1      46.674  26.634  26.469  1.00  0.00    -0.248 NA
ATOM     36  C   UNL A   1      47.527  24.669  25.536  1.00  0.00     0.031 C 
ATOM     37  C   UNL A   1      49.111  30.364  27.011  1.00  0.00     0.029 A 
ATOM     38  C   UNL A   1      48.361  29.207  26.844  1.00  0.00     0.049 A 
ATOM     39  H   UNL A   1      46.326  28.881  27.282  1.00  0.00     0.167 HD
ATOM     40  C   UNL A   1      48.017  26.826  26.166  1.00  0.00     0.074 A 
ATOM     41  C   UNL A   1      48.496  25.571  25.619  1.00  0.00     0.031 C 
ATOM     42  C   UNL A   1      48.788  27.932  26.320  1.00  0.00     0.037 A 
BRANCH  29  43
ATOM     43  C   UNL A   1      45.907  32.868  28.747  1.00  0.00     0.058 A 
ATOM     44  C   UNL A   1      45.680  33.957  27.891  1.00  0.00     0.135 A 
ATOM     45  C   UNL A   1      46.232  33.148  30.085  1.00  0.00     0.135 A 
ATOM     46  F   UNL A   1      45.403  33.752  26.593  1.00  0.00    -0.206 F 
ATOM     47  C   UNL A   1      45.802  35.272  28.335  1.00  0.00     0.059 A 
ATOM     48  C   UNL A   1      46.333  34.453  30.558  1.00  0.00     0.059 A 
ATOM     49  F   UNL A   1      46.479  32.147  30.943  1.00  0.00    -0.206 F 
ATOM     50  C   UNL A   1      46.131  35.509  29.671  1.00  0.00     0.060 A 
BRANCH  50  51
ATOM     51  S   UNL A   1      46.297  37.218  30.229  1.00  0.00     0.124 S 
ATOM     52  O   UNL A   1      45.009  37.780  29.832  1.00  0.00    -0.237 OA
ATOM     53  O   UNL A   1      46.502  37.057  31.664  1.00  0.00    -0.237 OA
ATOM     54  O   UNL A   1      47.452  37.708  29.483  1.00  0.00    -0.744 OA
ENDBRANCH  50  51
ENDBRANCH  29  43
BRANCH  30  55
ATOM     55  C   UNL A   1      44.950  23.239  25.800  1.00  0.00     0.058 A 
ATOM     56  C   UNL A   1      44.985  22.884  24.443  1.00  0.00     0.135 A 
ATOM     57  C   UNL A   1      44.777  22.202  26.734  1.00  0.00     0.135 A 
ATOM     58  F   UNL A   1      45.137  23.832  23.506  1.00  0.00    -0.206 F 
ATOM     59  C   UNL A   1      44.842  21.562  24.027  1.00  0.00     0.059 A 
ATOM     60  C   UNL A   1      44.662  20.871  26.346  1.00  0.00     0.059 A 
ATOM     61  F   UNL A   1      44.741  22.479  28.047  1.00  0.00    -0.206 F 
ATOM     62  C   UNL A   1      44.683  20.561  24.988  1.00  0.00     0.060 A 
BRANCH  62  63
ATOM     63  S   UNL A   1      44.531  18.845  24.442  1.00  0.00     0.124 S 
ATOM     64  O   UNL A   1      44.525  18.998  22.992  1.00  0.00    -0.237 OA
ATOM     65  O   UNL A   1      45.726  18.235  25.015  1.00  0.00    -0.237 OA
ATOM     66  O   UNL A   1      43.270  18.414  25.035  1.00  0.00    -0.744 OA
ENDBRANCH  62  63
ENDBRANCH  30  55
BRANCH  42  67
ATOM     67  C   UNL A   1      50.233  27.814  25.931  1.00  0.00     0.058 A 
ATOM     68  C   UNL A   1      51.241  27.633  26.890  1.00  0.00     0.135 A 
ATOM     69  C   UNL A   1      50.597  27.806  24.575  1.00  0.00     0.135 A 
ATOM     70  F   UNL A   1      50.941  27.641  28.198  1.00  0.00    -0.206 F 
ATOM     71  C   UNL A   1      52.568  27.464  26.516  1.00  0.00     0.059 A 
ATOM     72  C   UNL A   1      51.913  27.606  24.179  1.00  0.00     0.059 A 
ATOM     73  F   UNL A   1      49.664  27.962  23.623  1.00  0.00    -0.206 F 
ATOM     74  C   UNL A   1      52.893  27.445  25.157  1.00  0.00     0.060 A 
BRANCH  74  75
ATOM     75  S   UNL A   1      54.612  27.172  24.685  1.00  0.00     0.124 S 
ATOM     76  O   UNL A   1      55.072  28.537  24.449  1.00  0.00    -0.237 OA
ATOM     77  O   UNL A   1      55.158  26.513  25.868  1.00  0.00    -0.237 OA
ATOM     78  O   UNL A   1      54.509  26.330  23.497  1.00  0.00    -0.744 OA
ENDBRANCH  74  75
ENDBRANCH  42  67
ENDBRANCH  16  17
ENDBRANCH   9  11
ENDBRANCH   8   9
ENDBRANCH   7   8
ENDBRANCH   6   7
ENDBRANCH   5   6
ENDBRANCH   4   5
ENDBRANCH   3   4
ENDBRANCH   2   3
ENDBRANCH   1   2
BRANCH   1  79
ATOM     79  C   UNL A   1      33.741  27.072  22.625  1.00  0.00     0.188 C 
BRANCH  79  80
ATOM     80  O   UNL A   1      33.631  26.514  21.318  1.00  0.00    -0.376 OA
BRANCH  80  81
ATOM     81  C   UNL A   1      32.532  25.634  21.103  1.00  0.00     0.202 C 
BRANCH  81  82
ATOM     82  C   UNL A   1      32.915  24.204  20.683  1.00  0.00     0.261 C 
BRANCH  82  83
ATOM     83  O   UNL A   1      33.610  23.497  21.741  1.00  0.00    -0.462 OA
BRANCH  83  84
ATOM     84  C   UNL A   1      32.849  22.813  22.626  1.00  0.00     0.329 C 
ATOM     85  O   UNL A   1      32.362  21.713  22.375  1.00  0.00    -0.250 OA
BRANCH  84  86
ATOM     86  C   UNL A   1      32.591  23.536  23.986  1.00  0.00     0.197 C 
ATOM     87  C   UNL A   1      31.178  23.189  24.452  1.00  0.00     0.070 C 
ATOM     88  N   UNL A   1      33.356  23.291  25.230  1.00  0.00    -0.325 N 
ATOM     89  C   UNL A   1      31.383  21.967  25.349  1.00  0.00     0.136 C 
ATOM     90  C   UNL A   1      32.759  22.185  25.978  1.00  0.00     0.152 C 
BRANCH  88  91
ATOM     91  C   UNL A   1      34.321  24.175  25.691  1.00  0.00     0.233 C 
ATOM     92  O   UNL A   1      34.075  25.380  25.804  1.00  0.00    -0.274 OA
BRANCH  91  93
ATOM     93  C   UNL A   1      35.706  23.620  26.068  1.00  0.00     0.169 C 
BRANCH  93  94
ATOM     94  S   UNL A   1      36.370  22.356  24.891  1.00  0.00    -0.148 SA
BRANCH  94  95
ATOM     95  C   UNL A   1      37.746  21.521  25.792  1.00  0.00     0.063 C 
ATOM     96  C   UNL A   1      38.230  20.297  25.000  1.00  0.00     0.031 C 
ATOM     97  C   UNL A   1      38.964  22.374  26.033  1.00  0.00     0.151 C 
ATOM     98  C   UNL A   1      39.576  19.850  25.577  1.00  0.00     0.138 C 
ATOM     99  S   UNL A   1      40.307  21.281  26.346  1.00  0.00     0.151 S 
ATOM    100  O   UNL A   1      40.402  21.061  27.767  1.00  0.00    -0.229 OA
ATOM    101  O   UNL A   1      41.432  21.756  25.552  1.00  0.00    -0.229 OA
ENDBRANCH  94  95
ENDBRANCH  93  94
ENDBRANCH  91  93
ENDBRANCH  88  91
BRANCH  89 102
ATOM    102  O   UNL A   1      30.367  21.882  26.339  1.00  0.00    -0.391 OA
ATOM    103  H   UNL A   1      30.533  22.542  27.030  1.00  0.00     0.211 HD
ENDBRANCH  89 102
ENDBRANCH  84  86
ENDBRANCH  83  84
ENDBRANCH  82  83
ENDBRANCH  81  82
ENDBRANCH  80  81
ENDBRANCH  79  80
ENDBRANCH   1  79
TORSDOF 28
ENDMDL
MODEL 3
REMARK VINA RESULT:      -9.3      1.585      7.939
REMARK SMILES O=C(OCCOCCOCCOCCOC(=O)[C@H]1C[C@H](O)CN1C(=O)CS[C@H]1CCS(=O)(=O)C1)c1ccc(-c2c3nc(c(-c4c(F)cc(S(=O)(=O)[O-])cc4F)c4ccc([nH]4)c(-c4c(F)cc(S(=O)(=O)[O-])cc4F)c4nc(c(-c5c(F)cc(S(=O)(=O)[O-])cc5F)c5ccc2[nH]5)C=C4)C=C3)cc1
REMARK SMILES IDX 10 1 9 2 8 3 7 4 6 5 5 6 4 7 3 8 2 9 1 10 35 11 36 12 100 13
REMARK SMILES IDX 37 14 99 15 38 16 39 17 40 18 93 19 41 20 98 21 92 22 94 23
REMARK SMILES IDX 42 24 97 25 91 26 90 27 43 29 77 30 56 31 76 32 57 33 60 34
REMARK SMILES IDX 75 35 95 36 58 37 59 38 74 40 96 41 61 42 44 43 45 44 54 45
REMARK SMILES IDX 46 46 47 47 53 48 55 49 48 50 49 51 50 52 51 53 52 54 78 55
REMARK SMILES IDX 79 56 88 57 80 58 81 59 87 60 89 61 82 62 83 63 84 64 85 65
REMARK SMILES IDX 86 66 62 67 63 68 72 69 64 70 65 71 71 72 73 73 66 74 67 75
REMARK SMILES IDX 68 76 69 77 70 78 11 79 12 80 13 81 14 82 15 83 16 84 17 85
REMARK SMILES IDX 18 86 19 87 23 88 20 89 22 90 24 91 25 92 26 93 27 94 28 95
REMARK SMILES IDX 29 96 34 97 30 98 31 99 32 100 33 101 21 102
REMARK H PARENT 94 28 60 39 21 103
REMARK Flexibility Score: inf
ROOT
ATOM      1  C   UNL A   1      33.691  28.450  22.466  1.00  0.00     0.188 C 
ENDROOT
BRANCH   1   2
ATOM      2  O   UNL A   1      33.235  29.357  23.478  1.00  0.00    -0.377 OA
BRANCH   2   3
ATOM      3  C   UNL A   1      31.954  29.119  24.074  1.00  0.00     0.188 C 
BRANCH   3   4
ATOM      4  C   UNL A   1      31.862  29.447  25.557  1.00  0.00     0.188 C 
BRANCH   4   5
ATOM      5  O   UNL A   1      33.024  28.993  26.219  1.00  0.00    -0.376 OA
BRANCH   5   6
ATOM      6  C   UNL A   1      33.659  29.865  27.127  1.00  0.00     0.202 C 
BRANCH   6   7
ATOM      7  C   UNL A   1      35.003  29.244  27.509  1.00  0.00     0.261 C 
BRANCH   7   8
ATOM      8  O   UNL A   1      35.743  30.120  28.382  1.00  0.00    -0.460 OA
BRANCH   8   9
ATOM      9  C   UNL A   1      36.592  29.716  29.362  1.00  0.00     0.338 C 
ATOM     10  O   UNL A   1      36.157  29.532  30.498  1.00  0.00    -0.246 OA
BRANCH   9  11
ATOM     11  C   UNL A   1      38.007  29.317  29.079  1.00  0.00     0.060 A 
ATOM     12  C   UNL A   1      38.855  28.640  29.963  1.00  0.00     0.016 A 
ATOM     13  C   UNL A   1      38.472  29.564  27.777  1.00  0.00     0.016 A 
ATOM     14  C   UNL A   1      40.121  28.221  29.581  1.00  0.00     0.010 A 
ATOM     15  C   UNL A   1      39.756  29.171  27.390  1.00  0.00     0.010 A 
ATOM     16  C   UNL A   1      40.585  28.510  28.303  1.00  0.00    -0.014 A 
BRANCH  16  17
ATOM     17  C   UNL A   1      42.020  28.315  28.044  1.00  0.00     0.031 A 
ATOM     18  C   UNL A   1      42.933  29.454  28.378  1.00  0.00     0.074 A 
ATOM     19  C   UNL A   1      42.485  27.113  27.663  1.00  0.00     0.049 A 
ATOM     20  N   UNL A   1      44.212  29.582  28.170  1.00  0.00    -0.248 NA
ATOM     21  C   UNL A   1      42.314  30.610  29.056  1.00  0.00     0.031 C 
ATOM     22  C   UNL A   1      41.669  25.911  27.477  1.00  0.00     0.029 A 
ATOM     23  N   UNL A   1      43.759  26.698  27.387  1.00  0.00    -0.354 N 
ATOM     24  C   UNL A   1      44.545  30.840  28.656  1.00  0.00     0.074 A 
ATOM     25  C   UNL A   1      43.336  31.442  29.167  1.00  0.00     0.031 C 
ATOM     26  C   UNL A   1      42.467  24.892  27.115  1.00  0.00     0.029 A 
ATOM     27  C   UNL A   1      43.833  25.387  26.979  1.00  0.00     0.049 A 
ATOM     28  H   UNL A   1      44.547  27.283  27.472  1.00  0.00     0.167 HD
ATOM     29  C   UNL A   1      45.758  31.435  28.659  1.00  0.00     0.037 A 
ATOM     30  C   UNL A   1      44.887  24.695  26.508  1.00  0.00     0.037 A 
ATOM     31  C   UNL A   1      46.933  30.795  28.136  1.00  0.00     0.049 A 
ATOM     32  C   UNL A   1      46.207  25.416  26.411  1.00  0.00     0.074 A 
ATOM     33  C   UNL A   1      48.211  31.302  28.006  1.00  0.00     0.029 A 
ATOM     34  N   UNL A   1      46.963  29.490  27.654  1.00  0.00    -0.354 N 
ATOM     35  N   UNL A   1      46.505  26.642  26.782  1.00  0.00    -0.248 NA
ATOM     36  C   UNL A   1      47.328  24.678  25.820  1.00  0.00     0.031 C 
ATOM     37  C   UNL A   1      49.003  30.318  27.402  1.00  0.00     0.029 A 
ATOM     38  C   UNL A   1      48.233  29.178  27.211  1.00  0.00     0.049 A 
ATOM     39  H   UNL A   1      46.191  28.880  27.632  1.00  0.00     0.167 HD
ATOM     40  C   UNL A   1      47.852  26.815  26.489  1.00  0.00     0.074 A 
ATOM     41  C   UNL A   1      48.313  25.561  25.923  1.00  0.00     0.031 C 
ATOM     42  C   UNL A   1      48.642  27.905  26.666  1.00  0.00     0.037 A 
BRANCH  29  43
ATOM     43  C   UNL A   1      45.833  32.848  29.164  1.00  0.00     0.058 A 
ATOM     44  C   UNL A   1      46.108  33.149  30.508  1.00  0.00     0.135 A 
ATOM     45  C   UNL A   1      45.583  33.921  28.294  1.00  0.00     0.135 A 
ATOM     46  F   UNL A   1      46.317  32.162  31.394  1.00  0.00    -0.206 F 
ATOM     47  C   UNL A   1      46.105  34.461  30.976  1.00  0.00     0.059 A 
ATOM     48  C   UNL A   1      45.601  35.241  28.733  1.00  0.00     0.059 A 
ATOM     49  F   UNL A   1      45.294  33.692  27.003  1.00  0.00    -0.206 F 
ATOM     50  C   UNL A   1      45.848  35.500  30.080  1.00  0.00     0.060 A 
BRANCH  50  51
ATOM     51  S   UNL A   1      45.835  37.194  30.705  1.00  0.00     0.124 S 
ATOM     52  O   UNL A   1      45.426  37.939  29.517  1.00  0.00    -0.237 OA
ATOM     53  O   UNL A   1      44.848  37.122  31.777  1.00  0.00    -0.237 OA
ATOM     54  O   UNL A   1      47.212  37.408  31.136  1.00  0.00    -0.744 OA
ENDBRANCH  50  51
ENDBRANCH  29  43
BRANCH  30  55
ATOM     55  C   UNL A   1      44.725  23.289  26.045  1.00  0.00     0.058 A 
ATOM     56  C   UNL A   1      44.399  22.256  26.937  1.00  0.00     0.135 A 
ATOM     57  C   UNL A   1      44.892  22.945  24.692  1.00  0.00     0.135 A 
ATOM     58  F   UNL A   1      44.237  22.523  28.241  1.00  0.00    -0.206 F 
ATOM     59  C   UNL A   1      44.258  20.937  26.511  1.00  0.00     0.059 A 
ATOM     60  C   UNL A   1      44.728  21.640  24.237  1.00  0.00     0.059 A 
ATOM     61  F   UNL A   1      45.199  23.890  23.790  1.00  0.00    -0.206 F 
ATOM     62  C   UNL A   1      44.422  20.640  25.156  1.00  0.00     0.060 A 
BRANCH  62  63
ATOM     63  S   UNL A   1      44.206  18.932  24.607  1.00  0.00     0.124 S 
ATOM     64  O   UNL A   1      42.892  18.612  25.152  1.00  0.00    -0.237 OA
ATOM     65  O   UNL A   1      44.279  19.065  23.156  1.00  0.00    -0.237 OA
ATOM     66  O   UNL A   1      45.331  18.235  25.223  1.00  0.00    -0.744 OA
ENDBRANCH  62  63
ENDBRANCH  30  55
BRANCH  42  67
ATOM     67  C   UNL A   1      50.087  27.769  26.284  1.00  0.00     0.058 A 
ATOM     68  C   UNL A   1      51.084  27.538  27.243  1.00  0.00     0.135 A 
ATOM     69  C   UNL A   1      50.460  27.792  24.931  1.00  0.00     0.135 A 
ATOM     70  F   UNL A   1      50.774  27.513  28.549  1.00  0.00    -0.206 F 
ATOM     71  C   UNL A   1      52.409  27.353  26.872  1.00  0.00     0.059 A 
ATOM     72  C   UNL A   1      51.774  27.578  24.537  1.00  0.00     0.059 A 
ATOM     73  F   UNL A   1      49.536  27.996  23.977  1.00  0.00    -0.206 F 
ATOM     74  C   UNL A   1      52.743  27.367  25.516  1.00  0.00     0.060 A 
BRANCH  74  75
ATOM     75  S   UNL A   1      54.460  27.073  25.046  1.00  0.00     0.124 S 
ATOM     76  O   UNL A   1      54.992  28.431  25.014  1.00  0.00    -0.237 OA
ATOM     77  O   UNL A   1      54.939  26.228  26.137  1.00  0.00    -0.237 OA
ATOM     78  O   UNL A   1      54.349  26.410  23.751  1.00  0.00    -0.744 OA
ENDBRANCH  74  75
ENDBRANCH  42  67
ENDBRANCH  16  17
ENDBRANCH   9  11
ENDBRANCH   8   9
ENDBRANCH   7   8
ENDBRANCH   6   7
ENDBRANCH   5   6
ENDBRANCH   4   5
ENDBRANCH   3   4
ENDBRANCH   2   3
ENDBRANCH   1   2
BRANCH   1  79
ATOM     79  C   UNL A   1      33.433  26.976  22.816  1.00  0.00     0.188 C 
BRANCH  79  80
ATOM     80  O   UNL A   1      33.864  26.038  21.833  1.00  0.00    -0.376 OA
BRANCH  80  81
ATOM     81  C   UNL A   1      32.834  25.407  21.077  1.00  0.00     0.202 C 
BRANCH  81  82
ATOM     82  C   UNL A   1      32.988  23.886  20.911  1.00  0.00     0.261 C 
BRANCH  82  83
ATOM     83  O   UNL A   1      33.322  23.235  22.163  1.00  0.00    -0.462 OA
BRANCH  83  84
ATOM     84  C   UNL A   1      32.326  23.094  23.067  1.00  0.00     0.329 C 
ATOM     85  O   UNL A   1      31.274  22.511  22.814  1.00  0.00    -0.250 OA
BRANCH  84  86
ATOM     86  C   UNL A   1      32.582  23.763  24.455  1.00  0.00     0.197 C 
ATOM     87  C   UNL A   1      31.280  24.413  24.922  1.00  0.00     0.070 C 
ATOM     88  N   UNL A   1      32.977  23.035  25.683  1.00  0.00    -0.325 N 
ATOM     89  C   UNL A   1      30.618  23.327  25.770  1.00  0.00     0.136 C 
ATOM     90  C   UNL A   1      31.789  22.567  26.395  1.00  0.00     0.152 C 
BRANCH  88  91
ATOM     91  C   UNL A   1      34.277  23.053  26.167  1.00  0.00     0.233 C 
ATOM     92  O   UNL A   1      34.894  24.116  26.289  1.00  0.00    -0.274 OA
BRANCH  91  93
ATOM     93  C   UNL A   1      34.934  21.718  26.557  1.00  0.00     0.169 C 
BRANCH  93  94
ATOM     94  S   UNL A   1      35.544  20.717  25.125  1.00  0.00    -0.148 SA
BRANCH  94  95
ATOM     95  C   UNL A   1      34.379  19.292  24.990  1.00  0.00     0.063 C 
ATOM     96  C   UNL A   1      33.181  19.672  24.105  1.00  0.00     0.031 C 
ATOM     97  C   UNL A   1      34.964  18.042  24.390  1.00  0.00     0.151 C 
ATOM     98  C   UNL A   1      32.437  18.389  23.725  1.00  0.00     0.138 C 
ATOM     99  S   UNL A   1      33.619  17.059  23.824  1.00  0.00     0.151 S 
ATOM    100  O   UNL A   1      33.231  16.156  24.878  1.00  0.00    -0.229 OA
ATOM    101  O   UNL A   1      33.965  16.597  22.488  1.00  0.00    -0.229 OA
ENDBRANCH  94  95
ENDBRANCH  93  94
ENDBRANCH  91  93
ENDBRANCH  88  91
BRANCH  89 102
ATOM    102  O   UNL A   1      29.779  23.896  26.766  1.00  0.00    -0.391 OA
ATOM    103  H   UNL A   1      29.811  24.864  26.702  1.00  0.00     0.211 HD
ENDBRANCH  89 102
ENDBRANCH  84  86
ENDBRANCH  83  84
ENDBRANCH  82  83
ENDBRANCH  81  82
ENDBRANCH  80  81
ENDBRANCH  79  80
ENDBRANCH   1  79
TORSDOF 28
ENDMDL
