MODEL 1
REMARK VINA RESULT:     -10.3      0.000      0.000
REMARK SMILES O=C(OCCOCCOCCOCCOC(=O)[C@H]1C[NH2+]CCN1c1ncc(C(F)(F)F)cc1Cl)c1ccc(-c2c3nc(c(-c4c(F)cc(S(=O)(=O)[O-])cc4F)c4ccc([nH]4)c(-c4c(F)cc(S(=O)(=O)[O-])cc4F)c4nc(c(-c5c(F)cc(S(=O)(=O)[O-])cc5F)c5ccc2[nH]5)C=C4)C=C3)cc1
REMARK SMILES IDX 8 1 7 2 6 3 5 4 4 5 3 6 2 7 1 8 35 9 36 10 100 11 37 12
REMARK SMILES IDX 99 13 38 14 39 15 40 16 93 17 41 18 98 19 92 20 94 21 42 22
REMARK SMILES IDX 97 23 91 24 90 25 43 27 77 28 56 29 76 30 57 31 60 32 75 33
REMARK SMILES IDX 95 34 58 35 59 36 74 38 96 39 61 40 44 41 45 42 54 43 46 44
REMARK SMILES IDX 47 45 53 46 55 47 48 48 49 49 50 50 51 51 52 52 78 53 79 54
REMARK SMILES IDX 88 55 80 56 81 57 87 58 89 59 82 60 83 61 84 62 85 63 86 64
REMARK SMILES IDX 62 65 63 66 72 67 64 68 65 69 71 70 73 71 66 72 67 73 68 74
REMARK SMILES IDX 69 75 70 76 9 77 10 78 11 79 12 80 13 81 14 82 15 83 16 84
REMARK SMILES IDX 17 85 18 86 19 87 23 88 20 89 22 90 21 91 24 94 25 95 33 96
REMARK SMILES IDX 26 97 32 98 34 99 27 100 28 101 29 102 30 103 31 104
REMARK H PARENT 94 26 60 37 20 92 20 93
REMARK Flexibility Score: inf
ROOT
ATOM      1  C   UNL A   1      31.704  30.393  25.340  1.00  0.00     0.188 C 
ENDROOT
BRANCH   1   2
ATOM      2  C   UNL A   1      31.637  30.844  26.781  1.00  0.00     0.188 C 
BRANCH   2   3
ATOM      3  O   UNL A   1      31.776  32.246  26.809  1.00  0.00    -0.376 OA
BRANCH   3   4
ATOM      4  C   UNL A   1      32.845  32.836  27.522  1.00  0.00     0.202 C 
BRANCH   4   5
ATOM      5  C   UNL A   1      34.122  32.029  27.616  1.00  0.00     0.261 C 
BRANCH   5   6
ATOM      6  O   UNL A   1      34.434  31.425  28.885  1.00  0.00    -0.460 OA
BRANCH   6   7
ATOM      7  C   UNL A   1      35.445  31.529  29.769  1.00  0.00     0.338 C 
ATOM      8  O   UNL A   1      35.256  32.224  30.769  1.00  0.00    -0.246 OA
BRANCH   7   9
ATOM      9  C   UNL A   1      36.769  30.862  29.660  1.00  0.00     0.060 A 
ATOM     10  C   UNL A   1      37.471  30.253  30.697  1.00  0.00     0.016 A 
ATOM     11  C   UNL A   1      37.274  30.715  28.361  1.00  0.00     0.016 A 
ATOM     12  C   UNL A   1      38.658  29.583  30.498  1.00  0.00     0.010 A 
ATOM     13  C   UNL A   1      38.468  30.031  28.135  1.00  0.00     0.010 A 
ATOM     14  C   UNL A   1      39.171  29.499  29.220  1.00  0.00    -0.014 A 
BRANCH  14  15
ATOM     15  C   UNL A   1      40.570  29.096  29.105  1.00  0.00     0.031 A 
ATOM     16  C   UNL A   1      41.582  30.147  29.414  1.00  0.00     0.074 A 
ATOM     17  C   UNL A   1      40.889  27.813  28.883  1.00  0.00     0.049 A 
ATOM     18  N   UNL A   1      42.860  30.156  29.187  1.00  0.00    -0.248 NA
ATOM     19  C   UNL A   1      41.072  31.370  30.065  1.00  0.00     0.031 C 
ATOM     20  C   UNL A   1      39.933  26.704  28.797  1.00  0.00     0.029 A 
ATOM     21  N   UNL A   1      42.105  27.227  28.692  1.00  0.00    -0.354 N 
ATOM     22  C   UNL A   1      43.294  31.411  29.591  1.00  0.00     0.074 A 
ATOM     23  C   UNL A   1      42.151  32.131  30.099  1.00  0.00     0.031 C 
ATOM     24  C   UNL A   1      40.604  25.572  28.536  1.00  0.00     0.029 A 
ATOM     25  C   UNL A   1      42.010  25.902  28.342  1.00  0.00     0.049 A 
ATOM     26  H   UNL A   1      42.961  27.702  28.794  1.00  0.00     0.167 HD
ATOM     27  C   UNL A   1      44.546  31.907  29.499  1.00  0.00     0.037 A 
ATOM     28  C   UNL A   1      42.954  25.090  27.834  1.00  0.00     0.037 A 
ATOM     29  C   UNL A   1      45.627  31.121  28.976  1.00  0.00     0.049 A 
ATOM     30  C   UNL A   1      44.323  25.681  27.637  1.00  0.00     0.074 A 
ATOM     31  C   UNL A   1      46.937  31.484  28.748  1.00  0.00     0.029 A 
ATOM     32  N   UNL A   1      45.499  29.788  28.591  1.00  0.00    -0.354 N 
ATOM     33  N   UNL A   1      44.733  26.903  27.902  1.00  0.00    -0.248 NA
ATOM     34  C   UNL A   1      45.352  24.810  27.066  1.00  0.00     0.031 C 
ATOM     35  C   UNL A   1      47.586  30.386  28.172  1.00  0.00     0.029 A 
ATOM     36  C   UNL A   1      46.701  29.314  28.110  1.00  0.00     0.049 A 
ATOM     37  H   UNL A   1      44.670  29.260  28.654  1.00  0.00     0.167 HD
ATOM     38  C   UNL A   1      46.075  26.943  27.558  1.00  0.00     0.074 A 
ATOM     39  C   UNL A   1      46.405  25.619  27.058  1.00  0.00     0.031 C 
ATOM     40  C   UNL A   1      46.961  27.968  27.650  1.00  0.00     0.037 A 
BRANCH  27  41
ATOM     41  C   UNL A   1      44.730  33.357  29.845  1.00  0.00     0.058 A 
ATOM     42  C   UNL A   1      45.036  33.795  31.145  1.00  0.00     0.135 A 
ATOM     43  C   UNL A   1      44.488  34.340  28.869  1.00  0.00     0.135 A 
ATOM     44  F   UNL A   1      45.237  32.903  32.129  1.00  0.00    -0.206 F 
ATOM     45  C   UNL A   1      45.043  35.148  31.476  1.00  0.00     0.059 A 
ATOM     46  C   UNL A   1      44.522  35.697  29.171  1.00  0.00     0.059 A 
ATOM     47  F   UNL A   1      44.171  33.983  27.614  1.00  0.00    -0.206 F 
ATOM     48  C   UNL A   1      44.773  36.092  30.483  1.00  0.00     0.060 A 
BRANCH  48  49
ATOM     49  S   UNL A   1      44.729  37.837  30.941  1.00  0.00     0.124 S 
ATOM     50  O   UNL A   1      43.679  38.342  30.064  1.00  0.00    -0.237 OA
ATOM     51  O   UNL A   1      44.400  37.781  32.358  1.00  0.00    -0.237 OA
ATOM     52  O   UNL A   1      46.083  38.302  30.631  1.00  0.00    -0.744 OA
ENDBRANCH  48  49
ENDBRANCH  27  41
BRANCH  28  53
ATOM     53  C   UNL A   1      42.592  23.708  27.424  1.00  0.00     0.058 A 
ATOM     54  C   UNL A   1      42.382  23.378  26.079  1.00  0.00     0.135 A 
ATOM     55  C   UNL A   1      42.540  22.665  28.366  1.00  0.00     0.135 A 
ATOM     56  F   UNL A   1      42.418  24.334  25.140  1.00  0.00    -0.206 F 
ATOM     57  C   UNL A   1      42.143  22.064  25.680  1.00  0.00     0.059 A 
ATOM     58  C   UNL A   1      42.329  21.342  27.990  1.00  0.00     0.059 A 
ATOM     59  F   UNL A   1      42.750  22.922  29.667  1.00  0.00    -0.206 F 
ATOM     60  C   UNL A   1      42.130  21.051  26.642  1.00  0.00     0.060 A 
BRANCH  60  61
ATOM     61  S   UNL A   1      41.904  19.343  26.101  1.00  0.00     0.124 S 
ATOM     62  O   UNL A   1      42.801  19.274  24.954  1.00  0.00    -0.237 OA
ATOM     63  O   UNL A   1      42.319  18.593  27.283  1.00  0.00    -0.237 OA
ATOM     64  O   UNL A   1      40.478  19.272  25.793  1.00  0.00    -0.744 OA
ENDBRANCH  60  61
ENDBRANCH  28  53
BRANCH  40  65
ATOM     65  C   UNL A   1      48.381  27.677  27.270  1.00  0.00     0.058 A 
ATOM     66  C   UNL A   1      49.317  27.225  28.207  1.00  0.00     0.135 A 
ATOM     67  C   UNL A   1      48.752  27.717  25.916  1.00  0.00     0.135 A 
ATOM     68  F   UNL A   1      49.003  27.181  29.512  1.00  0.00    -0.206 F 
ATOM     69  C   UNL A   1      50.582  26.809  27.813  1.00  0.00     0.059 A 
ATOM     70  C   UNL A   1      49.999  27.278  25.497  1.00  0.00     0.059 A 
ATOM     71  F   UNL A   1      47.877  28.134  24.987  1.00  0.00    -0.206 F 
ATOM     72  C   UNL A   1      50.906  26.824  26.453  1.00  0.00     0.060 A 
BRANCH  72  73
ATOM     73  S   UNL A   1      52.511  26.180  25.944  1.00  0.00     0.124 S 
ATOM     74  O   UNL A   1      52.525  26.518  24.525  1.00  0.00    -0.237 OA
ATOM     75  O   UNL A   1      53.430  26.939  26.787  1.00  0.00    -0.237 OA
ATOM     76  O   UNL A   1      52.418  24.756  26.250  1.00  0.00    -0.744 OA
ENDBRANCH  72  73
ENDBRANCH  40  65
ENDBRANCH  14  15
ENDBRANCH   7   9
ENDBRANCH   6   7
ENDBRANCH   5   6
ENDBRANCH   4   5
ENDBRANCH   3   4
ENDBRANCH   2   3
ENDBRANCH   1   2
BRANCH   1  77
ATOM     77  O   UNL A   1      30.451  30.049  24.770  1.00  0.00    -0.377 OA
BRANCH  77  78
ATOM     78  C   UNL A   1      30.348  29.463  23.479  1.00  0.00     0.188 C 
BRANCH  78  79
ATOM     79  C   UNL A   1      31.636  29.069  22.754  1.00  0.00     0.188 C 
BRANCH  79  80
ATOM     80  O   UNL A   1      32.050  27.747  23.002  1.00  0.00    -0.376 OA
BRANCH  80  81
ATOM     81  C   UNL A   1      31.835  26.755  22.002  1.00  0.00     0.202 C 
BRANCH  81  82
ATOM     82  C   UNL A   1      32.051  25.234  22.215  1.00  0.00     0.261 C 
BRANCH  82  83
ATOM     83  O   UNL A   1      33.402  24.717  22.150  1.00  0.00    -0.462 OA
BRANCH  83  84
ATOM     84  C   UNL A   1      33.571  23.416  22.532  1.00  0.00     0.334 C 
ATOM     85  O   UNL A   1      33.064  22.471  21.924  1.00  0.00    -0.250 OA
BRANCH  84  86
ATOM     86  C   UNL A   1      34.473  23.167  23.792  1.00  0.00     0.249 C 
ATOM     87  C   UNL A   1      35.045  24.304  24.673  1.00  0.00     0.298 C 
ATOM     88  N   UNL A   1      33.753  22.308  24.750  1.00  0.00    -0.331 N 
ATOM     89  N   UNL A   1      34.009  25.157  25.288  1.00  0.00    -0.343 N 
ATOM     90  C   UNL A   1      32.614  22.966  25.385  1.00  0.00     0.180 C 
ATOM     91  C   UNL A   1      33.101  24.287  26.071  1.00  0.00     0.282 C 
ATOM     92  H   UNL A   1      33.482  25.639  24.558  1.00  0.00     0.346 HD
ATOM     93  H   UNL A   1      34.440  25.855  25.893  1.00  0.00     0.346 HD
BRANCH  88  94
ATOM     94  C   UNL A   1      33.903  20.949  24.645  1.00  0.00     0.148 A 
ATOM     95  N   UNL A   1      32.820  20.231  24.274  1.00  0.00    -0.237 NA
ATOM     96  C   UNL A   1      35.135  20.307  24.900  1.00  0.00     0.084 A 
ATOM     97  C   UNL A   1      32.963  18.894  24.100  1.00  0.00     0.126 A 
ATOM     98  C   UNL A   1      35.244  18.927  24.745  1.00  0.00     0.039 A 
ATOM     99  Cl  UNL A   1      36.542  21.118  25.507  1.00  0.00    -0.080 Cl
ATOM    100  C   UNL A   1      34.135  18.194  24.340  1.00  0.00     0.075 A 
BRANCH 100 101
ATOM    101  C   UNL A   1      34.181  16.709  24.194  1.00  0.00     0.417 C 
ATOM    102  F   UNL A   1      35.298  16.166  24.753  1.00  0.00    -0.166 F 
ATOM    103  F   UNL A   1      33.124  16.085  24.778  1.00  0.00    -0.166 F 
ATOM    104  F   UNL A   1      34.186  16.298  22.894  1.00  0.00    -0.166 F 
ENDBRANCH 100 101
ENDBRANCH  88  94
ENDBRANCH  84  86
ENDBRANCH  83  84
ENDBRANCH  82  83
ENDBRANCH  81  82
ENDBRANCH  80  81
ENDBRANCH  79  80
ENDBRANCH  78  79
ENDBRANCH  77  78
ENDBRANCH   1  77
TORSDOF 25
ENDMDL
MODEL 2
REMARK VINA RESULT:     -10.0      5.019      8.947
REMARK SMILES O=C(OCCOCCOCCOCCOC(=O)[C@H]1C[NH2+]CCN1c1ncc(C(F)(F)F)cc1Cl)c1ccc(-c2c3nc(c(-c4c(F)cc(S(=O)(=O)[O-])cc4F)c4ccc([nH]4)c(-c4c(F)cc(S(=O)(=O)[O-])cc4F)c4nc(c(-c5c(F)cc(S(=O)(=O)[O-])cc5F)c5ccc2[nH]5)C=C4)C=C3)cc1
REMARK SMILES IDX 8 1 7 2 6 3 5 4 4 5 3 6 2 7 1 8 35 9 36 10 100 11 37 12
REMARK SMILES IDX 99 13 38 14 39 15 40 16 93 17 41 18 98 19 92 20 94 21 42 22
REMARK SMILES IDX 97 23 91 24 90 25 43 27 77 28 56 29 76 30 57 31 60 32 75 33
REMARK SMILES IDX 95 34 58 35 59 36 74 38 96 39 61 40 44 41 45 42 54 43 46 44
REMARK SMILES IDX 47 45 53 46 55 47 48 48 49 49 50 50 51 51 52 52 78 53 79 54
REMARK SMILES IDX 88 55 80 56 81 57 87 58 89 59 82 60 83 61 84 62 85 63 86 64
REMARK SMILES IDX 62 65 63 66 72 67 64 68 65 69 71 70 73 71 66 72 67 73 68 74
REMARK SMILES IDX 69 75 70 76 9 77 10 78 11 79 12 80 13 81 14 82 15 83 16 84
REMARK SMILES IDX 17 85 18 86 19 87 23 88 20 89 22 90 21 91 24 94 25 95 33 96
REMARK SMILES IDX 26 97 32 98 34 99 27 100 28 101 29 102 30 103 31 104
REMARK H PARENT 94 26 60 37 20 92 20 93
REMARK Flexibility Score: inf
ROOT
ATOM      1  C   UNL A   1      32.494  27.475  26.297  1.00  0.00     0.188 C 
ENDROOT
BRANCH   1   2
ATOM      2  C   UNL A   1      31.500  27.931  27.341  1.00  0.00     0.188 C 
BRANCH   2   3
ATOM      3  O   UNL A   1      31.781  29.276  27.656  1.00  0.00    -0.376 OA
BRANCH   3   4
ATOM      4  C   UNL A   1      31.707  30.268  26.651  1.00  0.00     0.202 C 
BRANCH   4   5
ATOM      5  C   UNL A   1      32.934  31.138  26.468  1.00  0.00     0.261 C 
BRANCH   5   6
ATOM      6  O   UNL A   1      34.095  30.825  27.259  1.00  0.00    -0.460 OA
BRANCH   6   7
ATOM      7  C   UNL A   1      34.967  31.537  27.998  1.00  0.00     0.338 C 
ATOM      8  O   UNL A   1      34.717  32.729  28.180  1.00  0.00    -0.246 OA
BRANCH   7   9
ATOM      9  C   UNL A   1      36.203  31.009  28.633  1.00  0.00     0.060 A 
ATOM     10  C   UNL A   1      36.368  29.739  29.179  1.00  0.00     0.016 A 
ATOM     11  C   UNL A   1      37.338  31.825  28.535  1.00  0.00     0.016 A 
ATOM     12  C   UNL A   1      37.573  29.294  29.678  1.00  0.00     0.010 A 
ATOM     13  C   UNL A   1      38.571  31.391  29.023  1.00  0.00     0.010 A 
ATOM     14  C   UNL A   1      38.666  30.134  29.627  1.00  0.00    -0.014 A 
BRANCH  14  15
ATOM     15  C   UNL A   1      39.807  29.769  30.462  1.00  0.00     0.031 A 
ATOM     16  C   UNL A   1      40.765  28.790  29.870  1.00  0.00     0.074 A 
ATOM     17  C   UNL A   1      40.031  30.406  31.620  1.00  0.00     0.049 A 
ATOM     18  N   UNL A   1      41.722  28.123  30.440  1.00  0.00    -0.248 NA
ATOM     19  C   UNL A   1      40.613  28.523  28.426  1.00  0.00     0.031 C 
ATOM     20  C   UNL A   1      39.243  31.530  32.135  1.00  0.00     0.029 A 
ATOM     21  N   UNL A   1      40.988  30.201  32.569  1.00  0.00    -0.354 N 
ATOM     22  C   UNL A   1      42.232  27.297  29.447  1.00  0.00     0.074 A 
ATOM     23  C   UNL A   1      41.498  27.562  28.232  1.00  0.00     0.031 C 
ATOM     24  C   UNL A   1      39.733  31.893  33.330  1.00  0.00     0.029 A 
ATOM     25  C   UNL A   1      40.796  30.965  33.695  1.00  0.00     0.049 A 
ATOM     26  H   UNL A   1      41.736  29.571  32.461  1.00  0.00     0.167 HD
ATOM     27  C   UNL A   1      43.210  26.376  29.578  1.00  0.00     0.037 A 
ATOM     28  C   UNL A   1      41.367  30.848  34.906  1.00  0.00     0.037 A 
ATOM     29  C   UNL A   1      43.887  26.174  30.827  1.00  0.00     0.049 A 
ATOM     30  C   UNL A   1      42.382  29.750  35.074  1.00  0.00     0.074 A 
ATOM     31  C   UNL A   1      44.849  25.244  31.157  1.00  0.00     0.029 A 
ATOM     32  N   UNL A   1      43.649  26.939  31.968  1.00  0.00    -0.354 N 
ATOM     33  N   UNL A   1      42.800  28.878  34.182  1.00  0.00    -0.248 NA
ATOM     34  C   UNL A   1      42.994  29.602  36.396  1.00  0.00     0.031 C 
ATOM     35  C   UNL A   1      45.151  25.409  32.513  1.00  0.00     0.029 A 
ATOM     36  C   UNL A   1      44.432  26.492  33.012  1.00  0.00     0.049 A 
ATOM     37  H   UNL A   1      43.014  27.689  32.022  1.00  0.00     0.167 HD
ATOM     38  C   UNL A   1      43.745  28.093  34.823  1.00  0.00     0.074 A 
ATOM     39  C   UNL A   1      43.832  28.594  36.185  1.00  0.00     0.031 C 
ATOM     40  C   UNL A   1      44.483  27.060  34.340  1.00  0.00     0.037 A 
BRANCH  27  41
ATOM     41  C   UNL A   1      43.467  25.484  28.397  1.00  0.00     0.058 A 
ATOM     42  C   UNL A   1      42.871  24.219  28.257  1.00  0.00     0.135 A 
ATOM     43  C   UNL A   1      44.419  25.863  27.435  1.00  0.00     0.135 A 
ATOM     44  F   UNL A   1      41.985  23.784  29.168  1.00  0.00    -0.206 F 
ATOM     45  C   UNL A   1      43.248  23.344  27.240  1.00  0.00     0.059 A 
ATOM     46  C   UNL A   1      44.786  25.019  26.393  1.00  0.00     0.059 A 
ATOM     47  F   UNL A   1      45.037  27.052  27.527  1.00  0.00    -0.206 F 
ATOM     48  C   UNL A   1      44.215  23.750  26.319  1.00  0.00     0.060 A 
BRANCH  48  49
ATOM     49  S   UNL A   1      44.734  22.584  25.042  1.00  0.00     0.124 S 
ATOM     50  O   UNL A   1      45.773  21.833  25.738  1.00  0.00    -0.237 OA
ATOM     51  O   UNL A   1      43.504  21.858  24.763  1.00  0.00    -0.237 OA
ATOM     52  O   UNL A   1      45.206  23.454  23.962  1.00  0.00    -0.744 OA
ENDBRANCH  48  49
ENDBRANCH  27  41
BRANCH  28  53
ATOM     53  C   UNL A   1      40.922  31.728  36.017  1.00  0.00     0.058 A 
ATOM     54  C   UNL A   1      41.730  32.769  36.491  1.00  0.00     0.135 A 
ATOM     55  C   UNL A   1      39.634  31.603  36.568  1.00  0.00     0.135 A 
ATOM     56  F   UNL A   1      42.969  32.933  36.003  1.00  0.00    -0.206 F 
ATOM     57  C   UNL A   1      41.278  33.659  37.463  1.00  0.00     0.059 A 
ATOM     58  C   UNL A   1      39.149  32.494  37.520  1.00  0.00     0.059 A 
ATOM     59  F   UNL A   1      38.811  30.633  36.139  1.00  0.00    -0.206 F 
ATOM     60  C   UNL A   1      39.980  33.521  37.963  1.00  0.00     0.060 A 
BRANCH  60  61
ATOM     61  S   UNL A   1      39.376  34.732  39.159  1.00  0.00     0.124 S 
ATOM     62  O   UNL A   1      38.303  33.992  39.812  1.00  0.00    -0.237 OA
ATOM     63  O   UNL A   1      40.566  34.978  39.968  1.00  0.00    -0.237 OA
ATOM     64  O   UNL A   1      38.954  35.852  38.323  1.00  0.00    -0.744 OA
ENDBRANCH  60  61
ENDBRANCH  28  53
BRANCH  40  65
ATOM     65  C   UNL A   1      45.493  26.454  35.265  1.00  0.00     0.058 A 
ATOM     66  C   UNL A   1      46.757  27.028  35.455  1.00  0.00     0.135 A 
ATOM     67  C   UNL A   1      45.121  25.369  36.074  1.00  0.00     0.135 A 
ATOM     68  F   UNL A   1      47.154  28.060  34.694  1.00  0.00    -0.206 F 
ATOM     69  C   UNL A   1      47.621  26.548  36.429  1.00  0.00     0.059 A 
ATOM     70  C   UNL A   1      45.957  24.893  37.074  1.00  0.00     0.059 A 
ATOM     71  F   UNL A   1      43.913  24.800  35.930  1.00  0.00    -0.206 F 
ATOM     72  C   UNL A   1      47.204  25.491  37.245  1.00  0.00     0.060 A 
BRANCH  72  73
ATOM     73  S   UNL A   1      48.292  24.950  38.576  1.00  0.00     0.124 S 
ATOM     74  O   UNL A   1      47.345  24.760  39.670  1.00  0.00    -0.237 OA
ATOM     75  O   UNL A   1      48.876  23.732  38.023  1.00  0.00    -0.237 OA
ATOM     76  O   UNL A   1      49.218  26.068  38.733  1.00  0.00    -0.744 OA
ENDBRANCH  72  73
ENDBRANCH  40  65
ENDBRANCH  14  15
ENDBRANCH   7   9
ENDBRANCH   6   7
ENDBRANCH   5   6
ENDBRANCH   4   5
ENDBRANCH   3   4
ENDBRANCH   2   3
ENDBRANCH   1   2
BRANCH   1  77
ATOM     77  O   UNL A   1      31.916  26.837  25.170  1.00  0.00    -0.377 OA
BRANCH  77  78
ATOM     78  C   UNL A   1      30.848  27.424  24.439  1.00  0.00     0.188 C 
BRANCH  78  79
ATOM     79  C   UNL A   1      31.184  28.234  23.186  1.00  0.00     0.188 C 
BRANCH  79  80
ATOM     80  O   UNL A   1      32.111  27.608  22.331  1.00  0.00    -0.376 OA
BRANCH  80  81
ATOM     81  C   UNL A   1      31.757  26.376  21.710  1.00  0.00     0.202 C 
BRANCH  81  82
ATOM     82  C   UNL A   1      32.490  25.030  21.948  1.00  0.00     0.261 C 
BRANCH  82  83
ATOM     83  O   UNL A   1      32.145  24.260  23.125  1.00  0.00    -0.462 OA
BRANCH  83  84
ATOM     84  C   UNL A   1      32.659  22.995  23.192  1.00  0.00     0.334 C 
ATOM     85  O   UNL A   1      32.352  22.108  22.394  1.00  0.00    -0.250 OA
BRANCH  84  86
ATOM     86  C   UNL A   1      33.694  22.718  24.339  1.00  0.00     0.249 C 
ATOM     87  C   UNL A   1      34.247  23.819  25.276  1.00  0.00     0.298 C 
ATOM     88  N   UNL A   1      33.142  21.713  25.266  1.00  0.00    -0.331 N 
ATOM     89  N   UNL A   1      33.205  24.513  26.058  1.00  0.00    -0.343 N 
ATOM     90  C   UNL A   1      32.016  22.202  26.058  1.00  0.00     0.180 C 
ATOM     91  C   UNL A   1      32.452  23.495  26.827  1.00  0.00     0.282 C 
ATOM     92  H   UNL A   1      32.573  25.008  25.428  1.00  0.00     0.346 HD
ATOM     93  H   UNL A   1      33.631  25.191  26.689  1.00  0.00     0.346 HD
BRANCH  88  94
ATOM     94  C   UNL A   1      33.397  20.389  25.015  1.00  0.00     0.148 A 
ATOM     95  N   UNL A   1      32.332  19.566  24.885  1.00  0.00    -0.237 NA
ATOM     96  C   UNL A   1      34.710  19.888  24.883  1.00  0.00     0.084 A 
ATOM     97  C   UNL A   1      32.559  18.266  24.572  1.00  0.00     0.126 A 
ATOM     98  C   UNL A   1      34.914  18.541  24.594  1.00  0.00     0.039 A 
ATOM     99  Cl  UNL A   1      36.139  20.830  25.163  1.00  0.00    -0.080 Cl
ATOM    100  C   UNL A   1      33.817  17.701  24.437  1.00  0.00     0.075 A 
BRANCH 100 101
ATOM    101  C   UNL A   1      33.973  16.242  24.165  1.00  0.00     0.417 C 
ATOM    102  F   UNL A   1      34.977  15.681  24.895  1.00  0.00    -0.166 F 
ATOM    103  F   UNL A   1      32.854  15.525  24.447  1.00  0.00    -0.166 F 
ATOM    104  F   UNL A   1      34.274  15.969  22.863  1.00  0.00    -0.166 F 
ENDBRANCH 100 101
ENDBRANCH  88  94
ENDBRANCH  84  86
ENDBRANCH  83  84
ENDBRANCH  82  83
ENDBRANCH  81  82
ENDBRANCH  80  81
ENDBRANCH  79  80
ENDBRANCH  78  79
ENDBRANCH  77  78
ENDBRANCH   1  77
TORSDOF 25
ENDMDL
MODEL 3
REMARK VINA RESULT:      -9.5      5.612      9.450
REMARK SMILES O=C(OCCOCCOCCOCCOC(=O)[C@H]1C[NH2+]CCN1c1ncc(C(F)(F)F)cc1Cl)c1ccc(-c2c3nc(c(-c4c(F)cc(S(=O)(=O)[O-])cc4F)c4ccc([nH]4)c(-c4c(F)cc(S(=O)(=O)[O-])cc4F)c4nc(c(-c5c(F)cc(S(=O)(=O)[O-])cc5F)c5ccc2[nH]5)C=C4)C=C3)cc1
REMARK SMILES IDX 8 1 7 2 6 3 5 4 4 5 3 6 2 7 1 8 35 9 36 10 100 11 37 12
REMARK SMILES IDX 99 13 38 14 39 15 40 16 93 17 41 18 98 19 92 20 94 21 42 22
REMARK SMILES IDX 97 23 91 24 90 25 43 27 77 28 56 29 76 30 57 31 60 32 75 33
REMARK SMILES IDX 95 34 58 35 59 36 74 38 96 39 61 40 44 41 45 42 54 43 46 44
REMARK SMILES IDX 47 45 53 46 55 47 48 48 49 49 50 50 51 51 52 52 78 53 79 54
REMARK SMILES IDX 88 55 80 56 81 57 87 58 89 59 82 60 83 61 84 62 85 63 86 64
REMARK SMILES IDX 62 65 63 66 72 67 64 68 65 69 71 70 73 71 66 72 67 73 68 74
REMARK SMILES IDX 69 75 70 76 9 77 10 78 11 79 12 80 13 81 14 82 15 83 16 84
REMARK SMILES IDX 17 85 18 86 19 87 23 88 20 89 22 90 21 91 24 94 25 95 33 96
REMARK SMILES IDX 26 97 32 98 34 99 27 100 28 101 29 102 30 103 31 104
REMARK H PARENT 94 26 60 37 20 92 20 93
REMARK Flexibility Score: inf
ROOT
ATOM      1  C   UNL A   1      31.110  27.749  25.326  1.00  0.00     0.188 C 
ENDROOT
BRANCH   1   2
ATOM      2  C   UNL A   1      31.519  29.201  25.230  1.00  0.00     0.188 C 
BRANCH   2   3
ATOM      3  O   UNL A   1      32.927  29.259  25.199  1.00  0.00    -0.376 OA
BRANCH   3   4
ATOM      4  C   UNL A   1      33.634  29.841  26.275  1.00  0.00     0.202 C 
BRANCH   4   5
ATOM      5  C   UNL A   1      32.960  31.000  26.980  1.00  0.00     0.261 C 
BRANCH   5   6
ATOM      6  O   UNL A   1      33.550  31.464  28.207  1.00  0.00    -0.460 OA
BRANCH   6   7
ATOM      7  C   UNL A   1      33.978  32.654  28.671  1.00  0.00     0.338 C 
ATOM      8  O   UNL A   1      33.459  33.668  28.200  1.00  0.00    -0.246 OA
BRANCH   7   9
ATOM      9  C   UNL A   1      35.013  32.859  29.718  1.00  0.00     0.060 A 
ATOM     10  C   UNL A   1      35.294  34.054  30.374  1.00  0.00     0.016 A 
ATOM     11  C   UNL A   1      35.655  31.700  30.179  1.00  0.00     0.016 A 
ATOM     12  C   UNL A   1      36.216  34.144  31.395  1.00  0.00     0.010 A 
ATOM     13  C   UNL A   1      36.583  31.766  31.218  1.00  0.00     0.010 A 
ATOM     14  C   UNL A   1      36.881  33.004  31.795  1.00  0.00    -0.014 A 
BRANCH  14  15
ATOM     15  C   UNL A   1      38.072  33.200  32.617  1.00  0.00     0.031 A 
ATOM     16  C   UNL A   1      39.347  33.436  31.878  1.00  0.00     0.074 A 
ATOM     17  C   UNL A   1      37.965  33.307  33.949  1.00  0.00     0.049 A 
ATOM     18  N   UNL A   1      40.569  33.418  32.313  1.00  0.00    -0.248 NA
ATOM     19  C   UNL A   1      39.219  33.724  30.436  1.00  0.00     0.031 C 
ATOM     20  C   UNL A   1      36.707  33.308  34.701  1.00  0.00     0.029 A 
ATOM     21  N   UNL A   1      38.930  33.440  34.903  1.00  0.00    -0.354 N 
ATOM     22  C   UNL A   1      41.360  33.611  31.189  1.00  0.00     0.074 A 
ATOM     23  C   UNL A   1      40.482  33.768  30.054  1.00  0.00     0.031 C 
ATOM     24  C   UNL A   1      36.983  33.401  36.011  1.00  0.00     0.029 A 
ATOM     25  C   UNL A   1      38.431  33.367  36.181  1.00  0.00     0.049 A 
ATOM     26  H   UNL A   1      39.884  33.573  34.699  1.00  0.00     0.167 HD
ATOM     27  C   UNL A   1      42.708  33.616  31.134  1.00  0.00     0.037 A 
ATOM     28  C   UNL A   1      39.090  33.199  37.340  1.00  0.00     0.037 A 
ATOM     29  C   UNL A   1      43.508  33.449  32.315  1.00  0.00     0.049 A 
ATOM     30  C   UNL A   1      40.590  33.100  37.260  1.00  0.00     0.074 A 
ATOM     31  C   UNL A   1      44.877  33.360  32.434  1.00  0.00     0.029 A 
ATOM     32  N   UNL A   1      42.977  33.339  33.599  1.00  0.00    -0.354 N 
ATOM     33  N   UNL A   1      41.358  33.163  36.193  1.00  0.00    -0.248 NA
ATOM     34  C   UNL A   1      41.315  32.897  38.515  1.00  0.00     0.031 C 
ATOM     35  C   UNL A   1      45.171  33.139  33.784  1.00  0.00     0.029 A 
ATOM     36  C   UNL A   1      43.989  33.165  34.518  1.00  0.00     0.049 A 
ATOM     37  H   UNL A   1      42.018  33.380  33.818  1.00  0.00     0.167 HD
ATOM     38  C   UNL A   1      42.661  33.035  36.648  1.00  0.00     0.074 A 
ATOM     39  C   UNL A   1      42.573  32.885  38.091  1.00  0.00     0.031 C 
ATOM     40  C   UNL A   1      43.825  33.047  35.950  1.00  0.00     0.037 A 
BRANCH  27  41
ATOM     41  C   UNL A   1      43.334  33.672  29.769  1.00  0.00     0.058 A 
ATOM     42  C   UNL A   1      43.589  34.881  29.101  1.00  0.00     0.135 A 
ATOM     43  C   UNL A   1      43.584  32.478  29.070  1.00  0.00     0.135 A 
ATOM     44  F   UNL A   1      43.331  36.055  29.702  1.00  0.00    -0.206 F 
ATOM     45  C   UNL A   1      44.018  34.906  27.775  1.00  0.00     0.059 A 
ATOM     46  C   UNL A   1      44.043  32.479  27.757  1.00  0.00     0.059 A 
ATOM     47  F   UNL A   1      43.340  31.292  29.650  1.00  0.00    -0.206 F 
ATOM     48  C   UNL A   1      44.232  33.697  27.109  1.00  0.00     0.060 A 
BRANCH  48  49
ATOM     49  S   UNL A   1      44.731  33.745  25.375  1.00  0.00     0.124 S 
ATOM     50  O   UNL A   1      44.912  32.328  25.083  1.00  0.00    -0.237 OA
ATOM     51  O   UNL A   1      43.590  34.385  24.737  1.00  0.00    -0.237 OA
ATOM     52  O   UNL A   1      45.961  34.542  25.400  1.00  0.00    -0.744 OA
ENDBRANCH  48  49
ENDBRANCH  27  41
BRANCH  28  53
ATOM     53  C   UNL A   1      38.327  33.038  38.604  1.00  0.00     0.058 A 
ATOM     54  C   UNL A   1      38.287  34.055  39.567  1.00  0.00     0.135 A 
ATOM     55  C   UNL A   1      37.541  31.894  38.835  1.00  0.00     0.135 A 
ATOM     56  F   UNL A   1      39.019  35.166  39.398  1.00  0.00    -0.206 F 
ATOM     57  C   UNL A   1      37.493  33.950  40.707  1.00  0.00     0.059 A 
ATOM     58  C   UNL A   1      36.720  31.777  39.951  1.00  0.00     0.059 A 
ATOM     59  F   UNL A   1      37.529  30.895  37.937  1.00  0.00    -0.206 F 
ATOM     60  C   UNL A   1      36.702  32.811  40.884  1.00  0.00     0.060 A 
BRANCH  60  61
ATOM     61  S   UNL A   1      35.613  32.726  42.322  1.00  0.00     0.124 S 
ATOM     62  O   UNL A   1      35.458  34.136  42.659  1.00  0.00    -0.237 OA
ATOM     63  O   UNL A   1      34.433  32.067  41.770  1.00  0.00    -0.237 OA
ATOM     64  O   UNL A   1      36.376  31.928  43.278  1.00  0.00    -0.744 OA
ENDBRANCH  60  61
ENDBRANCH  28  53
BRANCH  40  65
ATOM     65  C   UNL A   1      45.095  32.968  36.742  1.00  0.00     0.058 A 
ATOM     66  C   UNL A   1      45.730  31.746  36.997  1.00  0.00     0.135 A 
ATOM     67  C   UNL A   1      45.746  34.154  37.117  1.00  0.00     0.135 A 
ATOM     68  F   UNL A   1      45.135  30.590  36.662  1.00  0.00    -0.206 F 
ATOM     69  C   UNL A   1      46.982  31.702  37.594  1.00  0.00     0.059 A 
ATOM     70  C   UNL A   1      47.010  34.133  37.687  1.00  0.00     0.059 A 
ATOM     71  F   UNL A   1      45.174  35.344  36.879  1.00  0.00    -0.206 F 
ATOM     72  C   UNL A   1      47.621  32.902  37.919  1.00  0.00     0.060 A 
BRANCH  72  73
ATOM     73  S   UNL A   1      49.291  32.833  38.593  1.00  0.00     0.124 S 
ATOM     74  O   UNL A   1      49.227  33.847  39.640  1.00  0.00    -0.237 OA
ATOM     75  O   UNL A   1      49.383  31.451  39.052  1.00  0.00    -0.237 OA
ATOM     76  O   UNL A   1      50.134  33.165  37.448  1.00  0.00    -0.744 OA
ENDBRANCH  72  73
ENDBRANCH  40  65
ENDBRANCH  14  15
ENDBRANCH   7   9
ENDBRANCH   6   7
ENDBRANCH   5   6
ENDBRANCH   4   5
ENDBRANCH   3   4
ENDBRANCH   2   3
ENDBRANCH   1   2
BRANCH   1  77
ATOM     77  O   UNL A   1      30.075  27.366  24.434  1.00  0.00    -0.377 OA
BRANCH  77  78
ATOM     78  C   UNL A   1      30.114  27.694  23.051  1.00  0.00     0.188 C 
BRANCH  78  79
ATOM     79  C   UNL A   1      31.158  27.006  22.170  1.00  0.00     0.188 C 
BRANCH  79  80
ATOM     80  O   UNL A   1      32.452  27.546  22.290  1.00  0.00    -0.376 OA
BRANCH  80  81
ATOM     81  C   UNL A   1      33.546  26.670  22.550  1.00  0.00     0.202 C 
BRANCH  81  82
ATOM     82  C   UNL A   1      33.730  25.863  23.861  1.00  0.00     0.261 C 
BRANCH  82  83
ATOM     83  O   UNL A   1      32.948  24.657  24.040  1.00  0.00    -0.462 OA
BRANCH  83  84
ATOM     84  C   UNL A   1      33.646  23.523  24.349  1.00  0.00     0.334 C 
ATOM     85  O   UNL A   1      34.555  23.086  23.641  1.00  0.00    -0.250 OA
BRANCH  84  86
ATOM     86  C   UNL A   1      33.247  22.796  25.682  1.00  0.00     0.249 C 
ATOM     87  C   UNL A   1      32.776  23.540  26.955  1.00  0.00     0.298 C 
ATOM     88  N   UNL A   1      32.160  21.838  25.412  1.00  0.00    -0.331 N 
ATOM     89  N   UNL A   1      31.559  24.350  26.753  1.00  0.00    -0.343 N 
ATOM     90  C   UNL A   1      30.886  22.474  25.086  1.00  0.00     0.180 C 
ATOM     91  C   UNL A   1      30.494  23.459  26.237  1.00  0.00     0.282 C 
ATOM     92  H   UNL A   1      31.746  25.092  26.077  1.00  0.00     0.346 HD
ATOM     93  H   UNL A   1      31.269  24.777  27.632  1.00  0.00     0.346 HD
BRANCH  88  94
ATOM     94  C   UNL A   1      32.496  20.553  25.069  1.00  0.00     0.148 A 
ATOM     95  N   UNL A   1      32.886  19.726  26.065  1.00  0.00    -0.237 NA
ATOM     96  C   UNL A   1      32.434  20.090  23.736  1.00  0.00     0.084 A 
ATOM     97  C   UNL A   1      33.160  18.434  25.758  1.00  0.00     0.126 A 
ATOM     98  C   UNL A   1      32.753  18.767  23.445  1.00  0.00     0.039 A 
ATOM     99  Cl  UNL A   1      32.077  21.104  22.375  1.00  0.00    -0.080 Cl
ATOM    100  C   UNL A   1      33.130  17.911  24.474  1.00  0.00     0.075 A 
BRANCH 100 101
ATOM    101  C   UNL A   1      33.521  16.493  24.219  1.00  0.00     0.417 C 
ATOM    102  F   UNL A   1      32.646  15.606  24.770  1.00  0.00    -0.166 F 
ATOM    103  F   UNL A   1      33.585  16.189  22.896  1.00  0.00    -0.166 F 
ATOM    104  F   UNL A   1      34.741  16.172  24.736  1.00  0.00    -0.166 F 
ENDBRANCH 100 101
ENDBRANCH  88  94
ENDBRANCH  84  86
ENDBRANCH  83  84
ENDBRANCH  82  83
ENDBRANCH  81  82
ENDBRANCH  80  81
ENDBRANCH  79  80
ENDBRANCH  78  79
ENDBRANCH  77  78
ENDBRANCH   1  77
TORSDOF 25
ENDMDL
