MODEL 1
REMARK VINA RESULT:     -10.2      0.000      0.000
REMARK SMILES C[C@]1(C(=O)OCCOCCOCCOCCOC(=O)c2ccc(-c3c4nc(c(-c5c(F)cc(S(=O)(=O)[O-])cc5F)c5ccc([nH]5)c(-c5c(F)cc(S(=O)(=O)[O-])cc5F)c5nc(c(-c6c(F)cc(S(=O)(=O)[O-])cc6F)c6ccc3[nH]6)C=C5)C=C4)cc2)[NH2+]C2(C(=O)c3ccccc3C2=O)[C@@H]2C(=O)N(c3ccccc3)C(=O)[C@H]21
REMARK SMILES IDX 12 1 11 2 10 3 9 4 8 5 7 6 6 7 5 8 3 9 4 10 2 11 1 12 86 13
REMARK SMILES IDX 110 14 87 15 98 18 108 19 88 20 96 21 99 22 101 23 109 24
REMARK SMILES IDX 89 25 90 26 95 27 97 28 100 29 91 30 94 31 92 32 93 33
REMARK SMILES IDX 102 34 103 35 107 36 104 37 106 38 105 39 13 40 14 41 15 42
REMARK SMILES IDX 16 43 17 44 18 45 19 46 20 47 21 48 85 49 22 50 84 51 23 52
REMARK SMILES IDX 24 53 25 54 78 55 26 56 83 57 77 58 79 59 27 60 82 61 76 62
REMARK SMILES IDX 75 63 28 65 62 66 41 67 61 68 42 69 45 70 60 71 80 72 43 73
REMARK SMILES IDX 44 74 59 76 81 77 46 78 29 79 30 80 39 81 31 82 32 83 38 84
REMARK SMILES IDX 40 85 33 86 34 87 35 88 36 89 37 90 63 91 64 92 73 93 65 94
REMARK SMILES IDX 66 95 72 96 74 97 67 98 68 99 69 100 70 101 71 102 47 103
REMARK SMILES IDX 48 104 57 105 49 106 50 107 56 108 58 109 51 110 52 111
REMARK SMILES IDX 53 112 54 113 55 114
REMARK H PARENT 86 16 86 17 79 64 45 75
REMARK Flexibility Score: inf
ROOT
ATOM      1  C   UNL A   1      46.177  43.442  28.824  1.00  0.00     0.188 C 
ENDROOT
BRANCH   1   2
ATOM      2  O   UNL A   1      47.438  43.504  28.180  1.00  0.00    -0.377 OA
BRANCH   2   3
ATOM      3  C   UNL A   1      47.643  42.764  27.001  1.00  0.00     0.188 C 
BRANCH   3   4
ATOM      4  C   UNL A   1      47.348  43.520  25.700  1.00  0.00     0.188 C 
BRANCH   4   5
ATOM      5  O   UNL A   1      46.697  44.772  25.748  1.00  0.00    -0.376 OA
BRANCH   5   6
ATOM      6  C   UNL A   1      45.352  44.974  25.339  1.00  0.00     0.202 C 
BRANCH   6   7
ATOM      7  C   UNL A   1      44.828  45.139  23.901  1.00  0.00     0.261 C 
BRANCH   7   8
ATOM      8  O   UNL A   1      45.629  44.651  22.829  1.00  0.00    -0.459 OA
BRANCH   8   9
ATOM      9  C   UNL A   1      45.255  43.470  22.294  1.00  0.00     0.368 C 
ATOM     10  O   UNL A   1      45.265  42.412  22.914  1.00  0.00    -0.245 OA
BRANCH   9  11
ATOM     11  C   UNL A   1      44.841  43.585  20.800  1.00  0.00     0.205 C 
ATOM     12  C   UNL A   1      43.903  42.417  20.493  1.00  0.00     0.093 C 
ATOM     13  N   UNL A   1      44.159  44.889  20.394  1.00  0.00    -0.313 N 
ATOM     14  C   UNL A   1      46.071  43.650  19.947  1.00  0.00     0.172 C 
ATOM     15  C   UNL A   1      45.185  45.789  19.718  1.00  0.00     0.237 C 
ATOM     16  H   UNL A   1      43.787  45.354  21.222  1.00  0.00     0.348 HD
ATOM     17  H   UNL A   1      43.392  44.693  19.750  1.00  0.00     0.348 HD
ATOM     18  C   UNL A   1      46.452  45.115  20.108  1.00  0.00     0.177 C 
ATOM     19  C   UNL A   1      47.356  42.976  20.262  1.00  0.00     0.244 C 
ATOM     20  C   UNL A   1      44.859  45.899  18.228  1.00  0.00     0.232 C 
ATOM     21  C   UNL A   1      45.046  47.236  20.204  1.00  0.00     0.232 C 
ATOM     22  C   UNL A   1      47.796  45.103  19.489  1.00  0.00     0.245 C 
ATOM     23  N   UNL A   1      48.341  43.893  19.914  1.00  0.00    -0.250 N 
ATOM     24  O   UNL A   1      47.442  41.825  20.654  1.00  0.00    -0.273 OA
ATOM     25  O   UNL A   1      44.794  44.989  17.418  1.00  0.00    -0.286 OA
ATOM     26  C   UNL A   1      44.468  47.277  17.935  1.00  0.00     0.036 A 
ATOM     27  C   UNL A   1      44.559  48.052  19.084  1.00  0.00     0.036 A 
ATOM     28  O   UNL A   1      45.305  47.698  21.299  1.00  0.00    -0.286 OA
ATOM     29  O   UNL A   1      48.276  46.017  18.840  1.00  0.00    -0.273 OA
ATOM     30  C   UNL A   1      44.020  47.800  16.734  1.00  0.00     0.013 A 
ATOM     31  C   UNL A   1      44.212  49.392  19.077  1.00  0.00     0.013 A 
ATOM     32  C   UNL A   1      43.666  49.152  16.708  1.00  0.00     0.001 A 
ATOM     33  C   UNL A   1      43.763  49.941  17.870  1.00  0.00     0.001 A 
BRANCH  23  34
ATOM     34  C   UNL A   1      49.708  43.646  20.143  1.00  0.00     0.052 A 
ATOM     35  C   UNL A   1      50.295  43.993  21.367  1.00  0.00     0.027 A 
ATOM     36  C   UNL A   1      50.524  43.212  19.093  1.00  0.00     0.027 A 
ATOM     37  C   UNL A   1      51.677  43.926  21.536  1.00  0.00     0.002 A 
ATOM     38  C   UNL A   1      51.912  43.186  19.251  1.00  0.00     0.002 A 
ATOM     39  C   UNL A   1      52.486  43.539  20.472  1.00  0.00     0.000 A 
ENDBRANCH  23  34
ENDBRANCH   9  11
ENDBRANCH   8   9
ENDBRANCH   7   8
ENDBRANCH   6   7
ENDBRANCH   5   6
ENDBRANCH   4   5
ENDBRANCH   3   4
ENDBRANCH   2   3
ENDBRANCH   1   2
BRANCH   1  40
ATOM     40  C   UNL A   1      45.537  42.079  29.165  1.00  0.00     0.188 C 
BRANCH  40  41
ATOM     41  O   UNL A   1      46.448  41.054  29.537  1.00  0.00    -0.376 OA
BRANCH  41  42
ATOM     42  C   UNL A   1      46.010  39.705  29.546  1.00  0.00     0.202 C 
BRANCH  42  43
ATOM     43  C   UNL A   1      46.990  38.621  30.025  1.00  0.00     0.261 C 
BRANCH  43  44
ATOM     44  O   UNL A   1      46.683  37.271  29.654  1.00  0.00    -0.460 OA
BRANCH  44  45
ATOM     45  C   UNL A   1      47.080  36.845  28.434  1.00  0.00     0.338 C 
ATOM     46  O   UNL A   1      47.642  37.501  27.577  1.00  0.00    -0.246 OA
BRANCH  45  47
ATOM     47  C   UNL A   1      46.901  35.375  28.399  1.00  0.00     0.060 A 
ATOM     48  C   UNL A   1      46.844  34.638  29.583  1.00  0.00     0.016 A 
ATOM     49  C   UNL A   1      46.822  34.729  27.158  1.00  0.00     0.016 A 
ATOM     50  C   UNL A   1      46.653  33.255  29.522  1.00  0.00     0.010 A 
ATOM     51  C   UNL A   1      46.638  33.345  27.099  1.00  0.00     0.010 A 
ATOM     52  C   UNL A   1      46.510  32.605  28.281  1.00  0.00    -0.014 A 
BRANCH  52  53
ATOM     53  C   UNL A   1      45.994  31.212  28.246  1.00  0.00     0.031 A 
ATOM     54  C   UNL A   1      44.587  30.858  28.617  1.00  0.00     0.074 A 
ATOM     55  C   UNL A   1      46.855  30.250  27.858  1.00  0.00     0.049 A 
ATOM     56  N   UNL A   1      43.979  29.706  28.492  1.00  0.00    -0.248 NA
ATOM     57  C   UNL A   1      43.761  31.916  29.215  1.00  0.00     0.031 C 
ATOM     58  C   UNL A   1      48.266  30.476  27.535  1.00  0.00     0.029 A 
ATOM     59  N   UNL A   1      46.676  28.907  27.644  1.00  0.00    -0.354 N 
ATOM     60  C   UNL A   1      42.686  29.903  28.961  1.00  0.00     0.074 A 
ATOM     61  C   UNL A   1      42.621  31.271  29.436  1.00  0.00     0.031 C 
ATOM     62  C   UNL A   1      48.808  29.329  27.106  1.00  0.00     0.029 A 
ATOM     63  C   UNL A   1      47.796  28.279  27.152  1.00  0.00     0.049 A 
ATOM     64  H   UNL A   1      45.829  28.440  27.825  1.00  0.00     0.167 HD
ATOM     65  C   UNL A   1      41.650  29.028  28.966  1.00  0.00     0.037 A 
ATOM     66  C   UNL A   1      47.985  27.005  26.759  1.00  0.00     0.037 A 
ATOM     67  C   UNL A   1      41.743  27.661  28.510  1.00  0.00     0.049 A 
ATOM     68  C   UNL A   1      46.831  26.044  26.808  1.00  0.00     0.074 A 
ATOM     69  C   UNL A   1      40.740  26.709  28.443  1.00  0.00     0.029 A 
ATOM     70  N   UNL A   1      42.902  27.047  28.057  1.00  0.00    -0.354 N 
ATOM     71  N   UNL A   1      45.589  26.272  27.163  1.00  0.00    -0.248 NA
ATOM     72  C   UNL A   1      47.096  24.657  26.402  1.00  0.00     0.031 C 
ATOM     73  C   UNL A   1      41.302  25.508  28.004  1.00  0.00     0.029 A 
ATOM     74  C   UNL A   1      42.644  25.723  27.737  1.00  0.00     0.049 A 
ATOM     75  H   UNL A   1      43.779  27.487  27.976  1.00  0.00     0.167 HD
ATOM     76  C   UNL A   1      44.920  25.065  26.998  1.00  0.00     0.074 A 
ATOM     77  C   UNL A   1      45.891  24.111  26.505  1.00  0.00     0.031 C 
ATOM     78  C   UNL A   1      43.616  24.781  27.233  1.00  0.00     0.037 A 
BRANCH  65  79
ATOM     79  C   UNL A   1      40.312  29.518  29.452  1.00  0.00     0.058 A 
ATOM     80  C   UNL A   1      40.071  29.735  30.818  1.00  0.00     0.135 A 
ATOM     81  C   UNL A   1      39.291  29.862  28.549  1.00  0.00     0.135 A 
ATOM     82  F   UNL A   1      41.009  29.426  31.727  1.00  0.00    -0.206 F 
ATOM     83  C   UNL A   1      38.859  30.245  31.274  1.00  0.00     0.059 A 
ATOM     84  C   UNL A   1      38.080  30.402  28.981  1.00  0.00     0.059 A 
ATOM     85  F   UNL A   1      39.469  29.691  27.230  1.00  0.00    -0.206 F 
ATOM     86  C   UNL A   1      37.870  30.577  30.348  1.00  0.00     0.060 A 
BRANCH  86  87
ATOM     87  S   UNL A   1      36.307  31.236  30.966  1.00  0.00     0.124 S 
ATOM     88  O   UNL A   1      35.825  30.126  31.784  1.00  0.00    -0.237 OA
ATOM     89  O   UNL A   1      36.739  32.420  31.700  1.00  0.00    -0.237 OA
ATOM     90  O   UNL A   1      35.541  31.496  29.752  1.00  0.00    -0.744 OA
ENDBRANCH  86  87
ENDBRANCH  65  79
BRANCH  66  91
ATOM     91  C   UNL A   1      49.311  26.594  26.225  1.00  0.00     0.058 A 
ATOM     92  C   UNL A   1      49.661  26.860  24.893  1.00  0.00     0.135 A 
ATOM     93  C   UNL A   1      50.271  25.980  27.044  1.00  0.00     0.135 A 
ATOM     94  F   UNL A   1      48.777  27.446  24.071  1.00  0.00    -0.206 F 
ATOM     95  C   UNL A   1      50.912  26.523  24.389  1.00  0.00     0.059 A 
ATOM     96  C   UNL A   1      51.539  25.659  26.571  1.00  0.00     0.059 A 
ATOM     97  F   UNL A   1      49.992  25.724  28.332  1.00  0.00    -0.206 F 
ATOM     98  C   UNL A   1      51.847  25.929  25.238  1.00  0.00     0.060 A 
BRANCH  98  99
ATOM     99  S   UNL A   1      53.485  25.548  24.582  1.00  0.00     0.124 S 
ATOM    100  O   UNL A   1      53.593  24.122  24.868  1.00  0.00    -0.237 OA
ATOM    101  O   UNL A   1      53.339  25.908  23.175  1.00  0.00    -0.237 OA
ATOM    102  O   UNL A   1      54.369  26.416  25.356  1.00  0.00    -0.744 OA
ENDBRANCH  98  99
ENDBRANCH  66  91
BRANCH  78 103
ATOM    103  C   UNL A   1      43.132  23.384  26.950  1.00  0.00     0.058 A 
ATOM    104  C   UNL A   1      42.996  22.906  25.639  1.00  0.00     0.135 A 
ATOM    105  C   UNL A   1      42.934  22.476  28.005  1.00  0.00     0.135 A 
ATOM    106  F   UNL A   1      43.160  23.735  24.597  1.00  0.00    -0.206 F 
ATOM    107  C   UNL A   1      42.698  21.572  25.380  1.00  0.00     0.059 A 
ATOM    108  C   UNL A   1      42.660  21.132  27.768  1.00  0.00     0.059 A 
ATOM    109  F   UNL A   1      43.053  22.881  29.278  1.00  0.00    -0.206 F 
ATOM    110  C   UNL A   1      42.551  20.688  26.451  1.00  0.00     0.060 A 
BRANCH 110 111
ATOM    111  S   UNL A   1      42.272  18.940  26.093  1.00  0.00     0.124 S 
ATOM    112  O   UNL A   1      43.161  18.724  24.956  1.00  0.00    -0.237 OA
ATOM    113  O   UNL A   1      42.675  18.302  27.342  1.00  0.00    -0.237 OA
ATOM    114  O   UNL A   1      40.845  18.876  25.793  1.00  0.00    -0.744 OA
ENDBRANCH 110 111
ENDBRANCH  78 103
ENDBRANCH  52  53
ENDBRANCH  45  47
ENDBRANCH  44  45
ENDBRANCH  43  44
ENDBRANCH  42  43
ENDBRANCH  41  42
ENDBRANCH  40  41
ENDBRANCH   1  40
TORSDOF 24
ENDMDL
MODEL 2
REMARK VINA RESULT:      -9.8      7.307     11.602
REMARK SMILES C[C@]1(C(=O)OCCOCCOCCOCCOC(=O)c2ccc(-c3c4nc(c(-c5c(F)cc(S(=O)(=O)[O-])cc5F)c5ccc([nH]5)c(-c5c(F)cc(S(=O)(=O)[O-])cc5F)c5nc(c(-c6c(F)cc(S(=O)(=O)[O-])cc6F)c6ccc3[nH]6)C=C5)C=C4)cc2)[NH2+]C2(C(=O)c3ccccc3C2=O)[C@@H]2C(=O)N(c3ccccc3)C(=O)[C@H]21
REMARK SMILES IDX 12 1 11 2 10 3 9 4 8 5 7 6 6 7 5 8 3 9 4 10 2 11 1 12 86 13
REMARK SMILES IDX 110 14 87 15 98 18 108 19 88 20 96 21 99 22 101 23 109 24
REMARK SMILES IDX 89 25 90 26 95 27 97 28 100 29 91 30 94 31 92 32 93 33
REMARK SMILES IDX 102 34 103 35 107 36 104 37 106 38 105 39 13 40 14 41 15 42
REMARK SMILES IDX 16 43 17 44 18 45 19 46 20 47 21 48 85 49 22 50 84 51 23 52
REMARK SMILES IDX 24 53 25 54 78 55 26 56 83 57 77 58 79 59 27 60 82 61 76 62
REMARK SMILES IDX 75 63 28 65 62 66 41 67 61 68 42 69 45 70 60 71 80 72 43 73
REMARK SMILES IDX 44 74 59 76 81 77 46 78 29 79 30 80 39 81 31 82 32 83 38 84
REMARK SMILES IDX 40 85 33 86 34 87 35 88 36 89 37 90 63 91 64 92 73 93 65 94
REMARK SMILES IDX 66 95 72 96 74 97 67 98 68 99 69 100 70 101 71 102 47 103
REMARK SMILES IDX 48 104 57 105 49 106 50 107 56 108 58 109 51 110 52 111
REMARK SMILES IDX 53 112 54 113 55 114
REMARK H PARENT 86 16 86 17 79 64 45 75
REMARK Flexibility Score: inf
ROOT
ATOM      1  C   UNL A   1      39.167  34.634  29.943  1.00  0.00     0.188 C 
ENDROOT
BRANCH   1   2
ATOM      2  O   UNL A   1      40.307  33.970  30.462  1.00  0.00    -0.377 OA
BRANCH   2   3
ATOM      3  C   UNL A   1      41.022  34.561  31.520  1.00  0.00     0.188 C 
BRANCH   3   4
ATOM      4  C   UNL A   1      42.520  34.756  31.261  1.00  0.00     0.188 C 
BRANCH   4   5
ATOM      5  O   UNL A   1      42.958  35.262  30.016  1.00  0.00    -0.376 OA
BRANCH   5   6
ATOM      6  C   UNL A   1      43.694  34.496  29.074  1.00  0.00     0.202 C 
BRANCH   6   7
ATOM      7  C   UNL A   1      43.460  33.027  28.678  1.00  0.00     0.261 C 
BRANCH   7   8
ATOM      8  O   UNL A   1      44.197  32.497  27.580  1.00  0.00    -0.459 OA
BRANCH   8   9
ATOM      9  C   UNL A   1      44.529  31.191  27.658  1.00  0.00     0.368 C 
ATOM     10  O   UNL A   1      43.774  30.325  28.086  1.00  0.00    -0.245 OA
BRANCH   9  11
ATOM     11  C   UNL A   1      45.979  30.905  27.178  1.00  0.00     0.205 C 
ATOM     12  C   UNL A   1      45.977  29.530  26.509  1.00  0.00     0.093 C 
ATOM     13  N   UNL A   1      46.578  31.925  26.212  1.00  0.00    -0.313 N 
ATOM     14  C   UNL A   1      46.923  31.046  28.333  1.00  0.00     0.172 C 
ATOM     15  C   UNL A   1      47.495  32.859  26.992  1.00  0.00     0.237 C 
ATOM     16  H   UNL A   1      45.830  32.464  25.776  1.00  0.00     0.348 HD
ATOM     17  H   UNL A   1      47.109  31.445  25.486  1.00  0.00     0.348 HD
ATOM     18  C   UNL A   1      47.081  32.559  28.388  1.00  0.00     0.177 C 
ATOM     19  C   UNL A   1      46.584  30.734  29.745  1.00  0.00     0.244 C 
ATOM     20  C   UNL A   1      48.948  32.586  26.598  1.00  0.00     0.232 C 
ATOM     21  C   UNL A   1      47.292  34.313  26.555  1.00  0.00     0.232 C 
ATOM     22  C   UNL A   1      47.790  32.698  29.680  1.00  0.00     0.245 C 
ATOM     23  N   UNL A   1      47.180  31.744  30.492  1.00  0.00    -0.250 N 
ATOM     24  O   UNL A   1      45.982  29.733  30.095  1.00  0.00    -0.273 OA
ATOM     25  O   UNL A   1      49.557  31.535  26.707  1.00  0.00    -0.286 OA
ATOM     26  C   UNL A   1      49.472  33.761  25.904  1.00  0.00     0.036 A 
ATOM     27  C   UNL A   1      48.508  34.759  25.862  1.00  0.00     0.036 A 
ATOM     28  O   UNL A   1      46.331  35.036  26.743  1.00  0.00    -0.286 OA
ATOM     29  O   UNL A   1      48.641  33.536  29.925  1.00  0.00    -0.273 OA
ATOM     30  C   UNL A   1      50.713  33.918  25.311  1.00  0.00     0.013 A 
ATOM     31  C   UNL A   1      48.749  35.966  25.229  1.00  0.00     0.013 A 
ATOM     32  C   UNL A   1      50.975  35.131  24.669  1.00  0.00     0.001 A 
ATOM     33  C   UNL A   1      50.001  36.147  24.629  1.00  0.00     0.001 A 
BRANCH  23  34
ATOM     34  C   UNL A   1      47.016  31.839  31.887  1.00  0.00     0.052 A 
ATOM     35  C   UNL A   1      45.864  32.428  32.425  1.00  0.00     0.027 A 
ATOM     36  C   UNL A   1      48.073  31.504  32.739  1.00  0.00     0.027 A 
ATOM     37  C   UNL A   1      45.774  32.695  33.790  1.00  0.00     0.002 A 
ATOM     38  C   UNL A   1      47.999  31.812  34.100  1.00  0.00     0.002 A 
ATOM     39  C   UNL A   1      46.850  32.404  34.623  1.00  0.00     0.000 A 
ENDBRANCH  23  34
ENDBRANCH   9  11
ENDBRANCH   8   9
ENDBRANCH   7   8
ENDBRANCH   6   7
ENDBRANCH   5   6
ENDBRANCH   4   5
ENDBRANCH   3   4
ENDBRANCH   2   3
ENDBRANCH   1   2
BRANCH   1  40
ATOM     40  C   UNL A   1      37.747  34.160  30.317  1.00  0.00     0.188 C 
BRANCH  40  41
ATOM     41  O   UNL A   1      37.023  33.520  29.276  1.00  0.00    -0.376 OA
BRANCH  41  42
ATOM     42  C   UNL A   1      35.611  33.647  29.231  1.00  0.00     0.202 C 
BRANCH  42  43
ATOM     43  C   UNL A   1      34.856  33.013  28.051  1.00  0.00     0.261 C 
BRANCH  43  44
ATOM     44  O   UNL A   1      34.151  31.795  28.321  1.00  0.00    -0.460 OA
BRANCH  44  45
ATOM     45  C   UNL A   1      34.487  30.699  27.606  1.00  0.00     0.338 C 
ATOM     46  O   UNL A   1      33.946  30.291  26.595  1.00  0.00    -0.246 OA
BRANCH  45  47
ATOM     47  C   UNL A   1      35.768  30.191  28.149  1.00  0.00     0.060 A 
ATOM     48  C   UNL A   1      36.937  30.253  27.388  1.00  0.00     0.016 A 
ATOM     49  C   UNL A   1      35.786  29.616  29.427  1.00  0.00     0.016 A 
ATOM     50  C   UNL A   1      38.137  29.787  27.932  1.00  0.00     0.010 A 
ATOM     51  C   UNL A   1      36.985  29.144  29.967  1.00  0.00     0.010 A 
ATOM     52  C   UNL A   1      38.176  29.265  29.239  1.00  0.00    -0.014 A 
BRANCH  52  53
ATOM     53  C   UNL A   1      39.490  29.079  29.907  1.00  0.00     0.031 A 
ATOM     54  C   UNL A   1      39.893  29.840  31.132  1.00  0.00     0.074 A 
ATOM     55  C   UNL A   1      40.331  28.178  29.361  1.00  0.00     0.049 A 
ATOM     56  N   UNL A   1      40.949  29.665  31.886  1.00  0.00    -0.248 NA
ATOM     57  C   UNL A   1      39.019  30.939  31.561  1.00  0.00     0.031 C 
ATOM     58  C   UNL A   1      40.064  27.427  28.132  1.00  0.00     0.029 A 
ATOM     59  N   UNL A   1      41.557  27.719  29.771  1.00  0.00    -0.354 N 
ATOM     60  C   UNL A   1      40.853  30.607  32.902  1.00  0.00     0.074 A 
ATOM     61  C   UNL A   1      39.668  31.395  32.626  1.00  0.00     0.031 C 
ATOM     62  C   UNL A   1      41.063  26.561  27.919  1.00  0.00     0.029 A 
ATOM     63  C   UNL A   1      42.056  26.713  28.977  1.00  0.00     0.049 A 
ATOM     64  H   UNL A   1      42.033  28.076  30.554  1.00  0.00     0.167 HD
ATOM     65  C   UNL A   1      41.667  30.775  33.974  1.00  0.00     0.037 A 
ATOM     66  C   UNL A   1      43.177  25.975  29.097  1.00  0.00     0.037 A 
ATOM     67  C   UNL A   1      42.856  29.994  34.218  1.00  0.00     0.049 A 
ATOM     68  C   UNL A   1      44.082  26.205  30.275  1.00  0.00     0.074 A 
ATOM     69  C   UNL A   1      43.724  30.065  35.294  1.00  0.00     0.029 A 
ATOM     70  N   UNL A   1      43.353  29.011  33.372  1.00  0.00    -0.354 N 
ATOM     71  N   UNL A   1      43.926  27.034  31.279  1.00  0.00    -0.248 NA
ATOM     72  C   UNL A   1      45.309  25.401  30.343  1.00  0.00     0.031 C 
ATOM     73  C   UNL A   1      44.773  29.169  35.073  1.00  0.00     0.029 A 
ATOM     74  C   UNL A   1      44.530  28.491  33.890  1.00  0.00     0.049 A 
ATOM     75  H   UNL A   1      42.933  28.726  32.529  1.00  0.00     0.167 HD
ATOM     76  C   UNL A   1      45.021  26.832  32.111  1.00  0.00     0.074 A 
ATOM     77  C   UNL A   1      45.828  25.799  31.497  1.00  0.00     0.031 C 
ATOM     78  C   UNL A   1      45.323  27.451  33.278  1.00  0.00     0.037 A 
BRANCH  65  79
ATOM     79  C   UNL A   1      41.292  31.821  34.990  1.00  0.00     0.058 A 
ATOM     80  C   UNL A   1      41.878  33.098  34.966  1.00  0.00     0.135 A 
ATOM     81  C   UNL A   1      40.280  31.587  35.937  1.00  0.00     0.135 A 
ATOM     82  F   UNL A   1      42.849  33.379  34.083  1.00  0.00    -0.206 F 
ATOM     83  C   UNL A   1      41.498  34.092  35.861  1.00  0.00     0.059 A 
ATOM     84  C   UNL A   1      39.863  32.579  36.824  1.00  0.00     0.059 A 
ATOM     85  F   UNL A   1      39.675  30.392  35.998  1.00  0.00    -0.206 F 
ATOM     86  C   UNL A   1      40.488  33.825  36.786  1.00  0.00     0.060 A 
BRANCH  86  87
ATOM     87  S   UNL A   1      40.013  35.132  37.937  1.00  0.00     0.124 S 
ATOM     88  O   UNL A   1      38.762  34.607  38.476  1.00  0.00    -0.237 OA
ATOM     89  O   UNL A   1      41.140  35.152  38.863  1.00  0.00    -0.237 OA
ATOM     90  O   UNL A   1      39.883  36.309  37.085  1.00  0.00    -0.744 OA
ENDBRANCH  86  87
ENDBRANCH  65  79
BRANCH  66  91
ATOM     91  C   UNL A   1      43.461  24.910  28.100  1.00  0.00     0.058 A 
ATOM     92  C   UNL A   1      44.288  25.163  26.996  1.00  0.00     0.135 A 
ATOM     93  C   UNL A   1      42.960  23.608  28.258  1.00  0.00     0.135 A 
ATOM     94  F   UNL A   1      44.792  26.391  26.803  1.00  0.00    -0.206 F 
ATOM     95  C   UNL A   1      44.601  24.167  26.078  1.00  0.00     0.059 A 
ATOM     96  C   UNL A   1      43.281  22.588  27.369  1.00  0.00     0.059 A 
ATOM     97  F   UNL A   1      42.183  23.309  29.310  1.00  0.00    -0.206 F 
ATOM     98  C   UNL A   1      44.098  22.880  26.277  1.00  0.00     0.060 A 
BRANCH  98  99
ATOM     99  S   UNL A   1      44.558  21.586  25.105  1.00  0.00     0.124 S 
ATOM    100  O   UNL A   1      43.592  20.542  25.426  1.00  0.00    -0.237 OA
ATOM    101  O   UNL A   1      44.370  22.257  23.823  1.00  0.00    -0.237 OA
ATOM    102  O   UNL A   1      45.945  21.292  25.455  1.00  0.00    -0.744 OA
ENDBRANCH  98  99
ENDBRANCH  66  91
BRANCH  78 103
ATOM    103  C   UNL A   1      46.573  27.029  34.002  1.00  0.00     0.058 A 
ATOM    104  C   UNL A   1      47.810  27.640  33.749  1.00  0.00     0.135 A 
ATOM    105  C   UNL A   1      46.503  26.098  35.053  1.00  0.00     0.135 A 
ATOM    106  F   UNL A   1      47.935  28.524  32.747  1.00  0.00    -0.206 F 
ATOM    107  C   UNL A   1      48.931  27.357  34.523  1.00  0.00     0.059 A 
ATOM    108  C   UNL A   1      47.605  25.820  35.856  1.00  0.00     0.059 A 
ATOM    109  F   UNL A   1      45.344  25.485  35.338  1.00  0.00    -0.206 F 
ATOM    110  C   UNL A   1      48.814  26.460  35.588  1.00  0.00     0.060 A 
BRANCH 110 111
ATOM    111  S   UNL A   1      50.251  26.190  36.647  1.00  0.00     0.124 S 
ATOM    112  O   UNL A   1      49.951  27.056  37.782  1.00  0.00    -0.237 OA
ATOM    113  O   UNL A   1      50.175  24.756  36.908  1.00  0.00    -0.237 OA
ATOM    114  O   UNL A   1      51.373  26.613  35.815  1.00  0.00    -0.744 OA
ENDBRANCH 110 111
ENDBRANCH  78 103
ENDBRANCH  52  53
ENDBRANCH  45  47
ENDBRANCH  44  45
ENDBRANCH  43  44
ENDBRANCH  42  43
ENDBRANCH  41  42
ENDBRANCH  40  41
ENDBRANCH   1  40
TORSDOF 24
ENDMDL
MODEL 3
REMARK VINA RESULT:      -9.8      4.057     10.139
REMARK SMILES C[C@]1(C(=O)OCCOCCOCCOCCOC(=O)c2ccc(-c3c4nc(c(-c5c(F)cc(S(=O)(=O)[O-])cc5F)c5ccc([nH]5)c(-c5c(F)cc(S(=O)(=O)[O-])cc5F)c5nc(c(-c6c(F)cc(S(=O)(=O)[O-])cc6F)c6ccc3[nH]6)C=C5)C=C4)cc2)[NH2+]C2(C(=O)c3ccccc3C2=O)[C@@H]2C(=O)N(c3ccccc3)C(=O)[C@H]21
REMARK SMILES IDX 12 1 11 2 10 3 9 4 8 5 7 6 6 7 5 8 3 9 4 10 2 11 1 12 86 13
REMARK SMILES IDX 110 14 87 15 98 18 108 19 88 20 96 21 99 22 101 23 109 24
REMARK SMILES IDX 89 25 90 26 95 27 97 28 100 29 91 30 94 31 92 32 93 33
REMARK SMILES IDX 102 34 103 35 107 36 104 37 106 38 105 39 13 40 14 41 15 42
REMARK SMILES IDX 16 43 17 44 18 45 19 46 20 47 21 48 85 49 22 50 84 51 23 52
REMARK SMILES IDX 24 53 25 54 78 55 26 56 83 57 77 58 79 59 27 60 82 61 76 62
REMARK SMILES IDX 75 63 28 65 62 66 41 67 61 68 42 69 45 70 60 71 80 72 43 73
REMARK SMILES IDX 44 74 59 76 81 77 46 78 29 79 30 80 39 81 31 82 32 83 38 84
REMARK SMILES IDX 40 85 33 86 34 87 35 88 36 89 37 90 63 91 64 92 73 93 65 94
REMARK SMILES IDX 66 95 72 96 74 97 67 98 68 99 69 100 70 101 71 102 47 103
REMARK SMILES IDX 48 104 57 105 49 106 50 107 56 108 58 109 51 110 52 111
REMARK SMILES IDX 53 112 54 113 55 114
REMARK H PARENT 86 16 86 17 79 64 45 75
REMARK Flexibility Score: inf
ROOT
ATOM      1  C   UNL A   1      38.114  34.622  32.380  1.00  0.00     0.188 C 
ENDROOT
BRANCH   1   2
ATOM      2  O   UNL A   1      38.835  34.517  31.164  1.00  0.00    -0.377 OA
BRANCH   2   3
ATOM      3  C   UNL A   1      40.227  34.318  31.207  1.00  0.00     0.188 C 
BRANCH   3   4
ATOM      4  C   UNL A   1      40.870  33.940  29.868  1.00  0.00     0.188 C 
BRANCH   4   5
ATOM      5  O   UNL A   1      42.150  34.438  29.537  1.00  0.00    -0.376 OA
BRANCH   5   6
ATOM      6  C   UNL A   1      42.385  35.767  29.096  1.00  0.00     0.202 C 
BRANCH   6   7
ATOM      7  C   UNL A   1      43.735  36.504  29.030  1.00  0.00     0.261 C 
BRANCH   7   8
ATOM      8  O   UNL A   1      43.780  37.775  28.390  1.00  0.00    -0.459 OA
BRANCH   8   9
ATOM      9  C   UNL A   1      44.089  38.829  29.175  1.00  0.00     0.368 C 
ATOM     10  O   UNL A   1      43.272  39.414  29.877  1.00  0.00    -0.245 OA
BRANCH   9  11
ATOM     11  C   UNL A   1      45.585  39.243  29.071  1.00  0.00     0.205 C 
ATOM     12  C   UNL A   1      46.011  39.766  30.444  1.00  0.00     0.093 C 
ATOM     13  N   UNL A   1      46.554  38.147  28.634  1.00  0.00    -0.313 N 
ATOM     14  C   UNL A   1      45.755  40.214  27.943  1.00  0.00     0.172 C 
ATOM     15  C   UNL A   1      46.862  38.327  27.154  1.00  0.00     0.237 C 
ATOM     16  H   UNL A   1      46.129  37.233  28.788  1.00  0.00     0.348 HD
ATOM     17  H   UNL A   1      47.415  38.209  29.178  1.00  0.00     0.348 HD
ATOM     18  C   UNL A   1      45.781  39.267  26.753  1.00  0.00     0.177 C 
ATOM     19  C   UNL A   1      44.729  41.199  27.513  1.00  0.00     0.244 C 
ATOM     20  C   UNL A   1      48.312  38.788  26.990  1.00  0.00     0.232 C 
ATOM     21  C   UNL A   1      46.850  36.978  26.426  1.00  0.00     0.232 C 
ATOM     22  C   UNL A   1      45.680  40.241  25.643  1.00  0.00     0.245 C 
ATOM     23  N   UNL A   1      44.781  41.191  26.123  1.00  0.00    -0.250 N 
ATOM     24  O   UNL A   1      44.086  41.892  28.282  1.00  0.00    -0.273 OA
ATOM     25  O   UNL A   1      48.820  39.797  27.447  1.00  0.00    -0.286 OA
ATOM     26  C   UNL A   1      49.065  37.730  26.319  1.00  0.00     0.036 A 
ATOM     27  C   UNL A   1      48.223  36.671  26.005  1.00  0.00     0.036 A 
ATOM     28  O   UNL A   1      45.902  36.256  26.180  1.00  0.00    -0.286 OA
ATOM     29  O   UNL A   1      46.224  40.125  24.558  1.00  0.00    -0.273 OA
ATOM     30  C   UNL A   1      50.421  37.693  26.042  1.00  0.00     0.013 A 
ATOM     31  C   UNL A   1      48.703  35.529  25.389  1.00  0.00     0.013 A 
ATOM     32  C   UNL A   1      50.923  36.547  25.418  1.00  0.00     0.001 A 
ATOM     33  C   UNL A   1      50.071  35.475  25.094  1.00  0.00     0.001 A 
BRANCH  23  34
ATOM     34  C   UNL A   1      43.891  41.947  25.338  1.00  0.00     0.052 A 
ATOM     35  C   UNL A   1      42.660  41.406  24.942  1.00  0.00     0.027 A 
ATOM     36  C   UNL A   1      44.300  43.174  24.804  1.00  0.00     0.027 A 
ATOM     37  C   UNL A   1      41.857  42.069  24.015  1.00  0.00     0.002 A 
ATOM     38  C   UNL A   1      43.514  43.815  23.843  1.00  0.00     0.002 A 
ATOM     39  C   UNL A   1      42.294  43.264  23.453  1.00  0.00     0.000 A 
ENDBRANCH  23  34
ENDBRANCH   9  11
ENDBRANCH   8   9
ENDBRANCH   7   8
ENDBRANCH   6   7
ENDBRANCH   5   6
ENDBRANCH   4   5
ENDBRANCH   3   4
ENDBRANCH   2   3
ENDBRANCH   1   2
BRANCH   1  40
ATOM     40  C   UNL A   1      37.006  33.603  32.723  1.00  0.00     0.188 C 
BRANCH  40  41
ATOM     41  O   UNL A   1      36.047  33.378  31.699  1.00  0.00    -0.376 OA
BRANCH  41  42
ATOM     42  C   UNL A   1      36.152  32.214  30.894  1.00  0.00     0.202 C 
BRANCH  42  43
ATOM     43  C   UNL A   1      36.155  30.842  31.588  1.00  0.00     0.261 C 
BRANCH  43  44
ATOM     44  O   UNL A   1      37.112  30.658  32.639  1.00  0.00    -0.460 OA
BRANCH  44  45
ATOM     45  C   UNL A   1      37.679  29.439  32.771  1.00  0.00     0.338 C 
ATOM     46  O   UNL A   1      37.178  28.449  33.269  1.00  0.00    -0.246 OA
BRANCH  45  47
ATOM     47  C   UNL A   1      38.949  29.457  32.009  1.00  0.00     0.060 A 
ATOM     48  C   UNL A   1      40.174  29.550  32.673  1.00  0.00     0.016 A 
ATOM     49  C   UNL A   1      38.904  29.413  30.609  1.00  0.00     0.016 A 
ATOM     50  C   UNL A   1      41.359  29.543  31.932  1.00  0.00     0.010 A 
ATOM     51  C   UNL A   1      40.090  29.413  29.869  1.00  0.00     0.010 A 
ATOM     52  C   UNL A   1      41.326  29.435  30.528  1.00  0.00    -0.014 A 
BRANCH  52  53
ATOM     53  C   UNL A   1      42.577  29.109  29.795  1.00  0.00     0.031 A 
ATOM     54  C   UNL A   1      43.749  30.038  29.737  1.00  0.00     0.074 A 
ATOM     55  C   UNL A   1      42.624  27.916  29.169  1.00  0.00     0.049 A 
ATOM     56  N   UNL A   1      44.944  29.809  29.252  1.00  0.00    -0.248 NA
ATOM     57  C   UNL A   1      43.563  31.393  30.271  1.00  0.00     0.031 C 
ATOM     58  C   UNL A   1      41.514  26.962  29.109  1.00  0.00     0.029 A 
ATOM     59  N   UNL A   1      43.638  27.290  28.490  1.00  0.00    -0.354 N 
ATOM     60  C   UNL A   1      45.668  30.977  29.453  1.00  0.00     0.074 A 
ATOM     61  C   UNL A   1      44.754  31.935  30.043  1.00  0.00     0.031 C 
ATOM     62  C   UNL A   1      41.925  25.848  28.486  1.00  0.00     0.029 A 
ATOM     63  C   UNL A   1      43.314  26.019  28.075  1.00  0.00     0.049 A 
ATOM     64  H   UNL A   1      44.511  27.708  28.316  1.00  0.00     0.167 HD
ATOM     65  C   UNL A   1      46.978  31.210  29.191  1.00  0.00     0.037 A 
ATOM     66  C   UNL A   1      44.056  25.084  27.452  1.00  0.00     0.037 A 
ATOM     67  C   UNL A   1      47.865  30.249  28.581  1.00  0.00     0.049 A 
ATOM     68  C   UNL A   1      45.496  25.380  27.140  1.00  0.00     0.074 A 
ATOM     69  C   UNL A   1      49.217  30.380  28.309  1.00  0.00     0.029 A 
ATOM     70  N   UNL A   1      47.493  28.988  28.136  1.00  0.00    -0.354 N 
ATOM     71  N   UNL A   1      46.192  26.454  27.424  1.00  0.00    -0.248 NA
ATOM     72  C   UNL A   1      46.254  24.342  26.429  1.00  0.00     0.031 C 
ATOM     73  C   UNL A   1      49.647  29.225  27.651  1.00  0.00     0.029 A 
ATOM     74  C   UNL A   1      48.581  28.345  27.567  1.00  0.00     0.049 A 
ATOM     75  H   UNL A   1      46.589  28.607  28.213  1.00  0.00     0.167 HD
ATOM     76  C   UNL A   1      47.476  26.211  26.950  1.00  0.00     0.074 A 
ATOM     77  C   UNL A   1      47.463  24.885  26.368  1.00  0.00     0.031 C 
ATOM     78  C   UNL A   1      48.564  27.017  26.999  1.00  0.00     0.037 A 
BRANCH  65  79
ATOM     79  C   UNL A   1      47.552  32.545  29.588  1.00  0.00     0.058 A 
ATOM     80  C   UNL A   1      48.070  32.758  30.876  1.00  0.00     0.135 A 
ATOM     81  C   UNL A   1      47.671  33.591  28.657  1.00  0.00     0.135 A 
ATOM     82  F   UNL A   1      47.985  31.794  31.806  1.00  0.00    -0.206 F 
ATOM     83  C   UNL A   1      48.657  33.967  31.236  1.00  0.00     0.059 A 
ATOM     84  C   UNL A   1      48.282  34.801  28.987  1.00  0.00     0.059 A 
ATOM     85  F   UNL A   1      47.207  33.440  27.407  1.00  0.00    -0.206 F 
ATOM     86  C   UNL A   1      48.760  34.982  30.284  1.00  0.00     0.060 A 
BRANCH  86  87
ATOM     87  S   UNL A   1      49.525  36.542  30.777  1.00  0.00     0.124 S 
ATOM     88  O   UNL A   1      48.355  37.342  31.131  1.00  0.00    -0.237 OA
ATOM     89  O   UNL A   1      50.371  36.132  31.893  1.00  0.00    -0.237 OA
ATOM     90  O   UNL A   1      50.235  36.970  29.577  1.00  0.00    -0.744 OA
ENDBRANCH  86  87
ENDBRANCH  65  79
BRANCH  66  91
ATOM     91  C   UNL A   1      43.456  23.759  27.146  1.00  0.00     0.058 A 
ATOM     92  C   UNL A   1      43.351  22.772  28.137  1.00  0.00     0.135 A 
ATOM     93  C   UNL A   1      42.926  23.470  25.878  1.00  0.00     0.135 A 
ATOM     94  F   UNL A   1      43.842  23.001  29.365  1.00  0.00    -0.206 F 
ATOM     95  C   UNL A   1      42.753  21.544  27.881  1.00  0.00     0.059 A 
ATOM     96  C   UNL A   1      42.297  22.260  25.605  1.00  0.00     0.059 A 
ATOM     97  F   UNL A   1      42.981  24.390  24.901  1.00  0.00    -0.206 F 
ATOM     98  C   UNL A   1      42.222  21.300  26.613  1.00  0.00     0.060 A 
BRANCH  98  99
ATOM     99  S   UNL A   1      41.399  19.721  26.314  1.00  0.00     0.124 S 
ATOM    100  O   UNL A   1      40.088  20.156  25.848  1.00  0.00    -0.237 OA
ATOM    101  O   UNL A   1      42.266  19.114  25.308  1.00  0.00    -0.237 OA
ATOM    102  O   UNL A   1      41.423  19.075  27.623  1.00  0.00    -0.744 OA
ENDBRANCH  98  99
ENDBRANCH  66  91
BRANCH  78 103
ATOM    103  C   UNL A   1      49.856  26.501  26.426  1.00  0.00     0.058 A 
ATOM    104  C   UNL A   1      50.211  26.734  25.089  1.00  0.00     0.135 A 
ATOM    105  C   UNL A   1      50.805  25.885  27.260  1.00  0.00     0.135 A 
ATOM    106  F   UNL A   1      49.336  27.305  24.247  1.00  0.00    -0.206 F 
ATOM    107  C   UNL A   1      51.468  26.391  24.602  1.00  0.00     0.059 A 
ATOM    108  C   UNL A   1      52.077  25.558  26.800  1.00  0.00     0.059 A 
ATOM    109  F   UNL A   1      50.516  25.640  28.548  1.00  0.00    -0.206 F 
ATOM    110  C   UNL A   1      52.402  25.822  25.471  1.00  0.00     0.060 A 
BRANCH 110 111
ATOM    111  S   UNL A   1      54.063  25.484  24.848  1.00  0.00     0.124 S 
ATOM    112  O   UNL A   1      54.110  24.027  24.901  1.00  0.00    -0.237 OA
ATOM    113  O   UNL A   1      54.014  26.068  23.511  1.00  0.00    -0.237 OA
ATOM    114  O   UNL A   1      54.931  26.174  25.797  1.00  0.00    -0.744 OA
ENDBRANCH 110 111
ENDBRANCH  78 103
ENDBRANCH  52  53
ENDBRANCH  45  47
ENDBRANCH  44  45
ENDBRANCH  43  44
ENDBRANCH  42  43
ENDBRANCH  41  42
ENDBRANCH  40  41
ENDBRANCH   1  40
TORSDOF 24
ENDMDL
