MODEL 1
REMARK VINA RESULT:      -8.8      0.000      0.000
REMARK SMILES C/C(=N\NC(N)=S)c1nnn(-c2ccc(C(=O)OCCOCCOCCOCCOC(=O)c3ccc(-c4c5nc(c(-c6c(F)cc(S(=O)(=O)[O-])cc6F)c6ccc([nH]6)c(-c6c(F)cc(S(=O)(=O)[O-])cc6F)c6nc(c(-c7c(F)cc(S(=O)(=O)[O-])cc7F)c7ccc4[nH]7)C=C6)C=C5)cc3)cc2)c1C
REMARK SMILES IDX 23 1 22 2 21 3 20 4 19 5 18 6 16 7 17 8 15 9 12 10 13 11
REMARK SMILES IDX 100 12 14 13 99 14 11 15 8 16 9 17 101 18 10 19 102 20 2 21
REMARK SMILES IDX 1 22 3 23 4 24 5 26 7 27 6 28 24 31 25 32 26 33 27 34 28 35
REMARK SMILES IDX 29 36 30 37 31 38 32 39 33 40 34 41 98 42 35 43 97 44 36 45
REMARK SMILES IDX 37 46 38 47 91 48 39 49 96 50 90 51 92 52 40 53 95 54 89 55
REMARK SMILES IDX 88 56 41 58 75 59 54 60 74 61 55 62 58 63 73 64 93 65 56 66
REMARK SMILES IDX 57 67 72 69 94 70 59 71 42 72 43 73 52 74 44 75 45 76 51 77
REMARK SMILES IDX 53 78 46 79 47 80 48 81 49 82 50 83 76 84 77 85 86 86 78 87
REMARK SMILES IDX 79 88 85 89 87 90 80 91 81 92 82 93 83 94 84 95 60 96 61 97
REMARK SMILES IDX 70 98 62 99 63 100 69 101 71 102 64 103 65 104 66 105 67 106
REMARK SMILES IDX 68 107
REMARK H PARENT 4 25 6 29 6 30 92 57 58 68
REMARK Flexibility Score: inf
ROOT
ATOM      1  C   UNL A   1      38.325  29.552  28.112  1.00  0.00     0.188 C 
ENDROOT
BRANCH   1   2
ATOM      2  C   UNL A   1      37.024  30.267  27.677  1.00  0.00     0.188 C 
BRANCH   2   3
ATOM      3  O   UNL A   1      35.761  30.045  28.303  1.00  0.00    -0.376 OA
BRANCH   3   4
ATOM      4  C   UNL A   1      34.878  31.114  28.602  1.00  0.00     0.202 C 
BRANCH   4   5
ATOM      5  C   UNL A   1      33.703  31.394  27.660  1.00  0.00     0.261 C 
BRANCH   5   6
ATOM      6  O   UNL A   1      33.692  30.605  26.472  1.00  0.00    -0.460 OA
BRANCH   6   7
ATOM      7  C   UNL A   1      32.477  30.158  26.091  1.00  0.00     0.338 C 
ATOM      8  O   UNL A   1      31.453  30.814  25.948  1.00  0.00    -0.246 OA
BRANCH   7   9
ATOM      9  C   UNL A   1      32.579  28.728  25.737  1.00  0.00     0.060 A 
ATOM     10  C   UNL A   1      32.683  26.000  25.352  1.00  0.00     0.067 A 
ATOM     11  C   UNL A   1      31.437  26.630  25.324  1.00  0.00     0.029 A 
ATOM     12  C   UNL A   1      33.877  26.733  25.403  1.00  0.00     0.029 A 
ATOM     13  C   UNL A   1      31.390  28.003  25.549  1.00  0.00     0.018 A 
ATOM     14  C   UNL A   1      33.823  28.107  25.592  1.00  0.00     0.018 A 
BRANCH  10  15
ATOM     15  N   UNL A   1      32.724  24.630  25.671  1.00  0.00    -0.217 N 
ATOM     16  C   UNL A   1      33.395  22.565  25.776  1.00  0.00     0.132 A 
ATOM     17  N   UNL A   1      32.707  22.862  26.922  1.00  0.00    -0.128 NA
ATOM     18  C   UNL A   1      33.472  23.689  24.981  1.00  0.00     0.071 A 
ATOM     19  N   UNL A   1      32.380  24.148  26.885  1.00  0.00    -0.061 NA
ATOM     20  C   UNL A   1      34.285  23.978  23.772  1.00  0.00     0.069 C 
BRANCH  16  21
ATOM     21  C   UNL A   1      34.094  21.315  25.576  1.00  0.00     0.087 C 
ATOM     22  C   UNL A   1      35.555  21.286  25.947  1.00  0.00     0.071 C 
ATOM     23  N   UNL A   1      33.377  20.345  25.089  1.00  0.00    -0.176 NA
BRANCH  23  24
ATOM     24  N   UNL A   1      33.942  19.126  24.864  1.00  0.00    -0.254 N 
ATOM     25  H   UNL A   1      34.847  19.119  24.475  1.00  0.00     0.193 HD
BRANCH  24  26
ATOM     26  C   UNL A   1      33.365  17.900  25.130  1.00  0.00     0.184 C 
ATOM     27  S   UNL A   1      33.340  16.524  24.194  1.00  0.00    -0.040 S 
BRANCH  26  28
ATOM     28  N   UNL A   1      32.758  17.868  26.353  1.00  0.00    -0.375 N 
ATOM     29  H   UNL A   1      32.080  17.180  26.548  1.00  0.00     0.159 HD
ATOM     30  H   UNL A   1      32.997  18.531  27.040  1.00  0.00     0.159 HD
ENDBRANCH  26  28
ENDBRANCH  24  26
ENDBRANCH  23  24
ENDBRANCH  16  21
ENDBRANCH  10  15
ENDBRANCH   7   9
ENDBRANCH   6   7
ENDBRANCH   5   6
ENDBRANCH   4   5
ENDBRANCH   3   4
ENDBRANCH   2   3
ENDBRANCH   1   2
BRANCH   1  31
ATOM     31  O   UNL A   1      38.270  28.135  28.102  1.00  0.00    -0.377 OA
BRANCH  31  32
ATOM     32  C   UNL A   1      39.147  27.503  29.032  1.00  0.00     0.188 C 
BRANCH  32  33
ATOM     33  C   UNL A   1      39.595  26.065  28.683  1.00  0.00     0.188 C 
BRANCH  33  34
ATOM     34  O   UNL A   1      39.227  25.653  27.367  1.00  0.00    -0.376 OA
BRANCH  34  35
ATOM     35  C   UNL A   1      40.082  24.774  26.651  1.00  0.00     0.202 C 
BRANCH  35  36
ATOM     36  C   UNL A   1      41.560  24.965  26.983  1.00  0.00     0.261 C 
BRANCH  36  37
ATOM     37  O   UNL A   1      42.254  25.706  25.996  1.00  0.00    -0.460 OA
BRANCH  37  38
ATOM     38  C   UNL A   1      43.550  25.959  26.251  1.00  0.00     0.338 C 
ATOM     39  O   UNL A   1      44.409  25.158  26.606  1.00  0.00    -0.246 OA
BRANCH  38  40
ATOM     40  C   UNL A   1      43.784  27.393  26.100  1.00  0.00     0.060 A 
ATOM     41  C   UNL A   1      44.983  27.875  26.626  1.00  0.00     0.016 A 
ATOM     42  C   UNL A   1      42.692  28.220  25.804  1.00  0.00     0.016 A 
ATOM     43  C   UNL A   1      44.975  29.137  27.163  1.00  0.00     0.010 A 
ATOM     44  C   UNL A   1      42.673  29.464  26.365  1.00  0.00     0.010 A 
ATOM     45  C   UNL A   1      43.773  29.845  27.131  1.00  0.00    -0.014 A 
BRANCH  45  46
ATOM     46  C   UNL A   1      43.626  30.955  28.038  1.00  0.00     0.031 A 
ATOM     47  C   UNL A   1      44.199  32.218  27.541  1.00  0.00     0.074 A 
ATOM     48  C   UNL A   1      42.876  30.807  29.147  1.00  0.00     0.049 A 
ATOM     49  N   UNL A   1      45.138  32.934  28.060  1.00  0.00    -0.248 NA
ATOM     50  C   UNL A   1      43.763  32.662  26.205  1.00  0.00     0.031 C 
ATOM     51  C   UNL A   1      42.024  29.665  29.507  1.00  0.00     0.029 A 
ATOM     52  N   UNL A   1      42.608  31.708  30.123  1.00  0.00    -0.354 N 
ATOM     53  C   UNL A   1      45.244  34.040  27.227  1.00  0.00     0.074 A 
ATOM     54  C   UNL A   1      44.543  33.721  26.012  1.00  0.00     0.031 C 
ATOM     55  C   UNL A   1      41.173  30.042  30.486  1.00  0.00     0.029 A 
ATOM     56  C   UNL A   1      41.489  31.402  30.884  1.00  0.00     0.049 A 
ATOM     57  H   UNL A   1      43.158  32.510  30.279  1.00  0.00     0.167 HD
ATOM     58  C   UNL A   1      45.645  35.249  27.695  1.00  0.00     0.037 A 
ATOM     59  C   UNL A   1      40.815  32.263  31.686  1.00  0.00     0.037 A 
ATOM     60  C   UNL A   1      46.359  35.137  28.937  1.00  0.00     0.049 A 
ATOM     61  C   UNL A   1      41.722  33.414  31.953  1.00  0.00     0.074 A 
ATOM     62  C   UNL A   1      47.509  34.480  29.329  1.00  0.00     0.029 A 
ATOM     63  N   UNL A   1      45.690  35.455  30.094  1.00  0.00    -0.354 N 
ATOM     64  N   UNL A   1      42.836  33.334  32.633  1.00  0.00    -0.248 NA
ATOM     65  C   UNL A   1      41.609  34.586  31.095  1.00  0.00     0.031 C 
ATOM     66  C   UNL A   1      47.265  34.054  30.665  1.00  0.00     0.029 A 
ATOM     67  C   UNL A   1      45.990  34.494  31.028  1.00  0.00     0.049 A 
ATOM     68  H   UNL A   1      45.102  36.233  30.229  1.00  0.00     0.167 HD
ATOM     69  C   UNL A   1      43.712  34.210  32.004  1.00  0.00     0.074 A 
ATOM     70  C   UNL A   1      42.869  35.028  31.139  1.00  0.00     0.031 C 
ATOM     71  C   UNL A   1      45.063  34.007  32.031  1.00  0.00     0.037 A 
BRANCH  58  72
ATOM     72  C   UNL A   1      45.061  36.537  27.183  1.00  0.00     0.058 A 
ATOM     73  C   UNL A   1      45.913  37.573  26.765  1.00  0.00     0.135 A 
ATOM     74  C   UNL A   1      43.694  36.880  27.322  1.00  0.00     0.135 A 
ATOM     75  F   UNL A   1      47.231  37.360  26.636  1.00  0.00    -0.206 F 
ATOM     76  C   UNL A   1      45.446  38.867  26.538  1.00  0.00     0.059 A 
ATOM     77  C   UNL A   1      43.197  38.142  27.035  1.00  0.00     0.059 A 
ATOM     78  F   UNL A   1      42.793  36.033  27.838  1.00  0.00    -0.206 F 
ATOM     79  C   UNL A   1      44.088  39.142  26.688  1.00  0.00     0.060 A 
BRANCH  79  80
ATOM     80  S   UNL A   1      43.494  40.832  26.513  1.00  0.00     0.124 S 
ATOM     81  O   UNL A   1      43.658  41.044  25.080  1.00  0.00    -0.237 OA
ATOM     82  O   UNL A   1      42.119  40.724  26.992  1.00  0.00    -0.237 OA
ATOM     83  O   UNL A   1      44.393  41.593  27.374  1.00  0.00    -0.744 OA
ENDBRANCH  79  80
ENDBRANCH  58  72
BRANCH  59  84
ATOM     84  C   UNL A   1      39.344  32.310  31.907  1.00  0.00     0.058 A 
ATOM     85  C   UNL A   1      38.803  32.303  33.204  1.00  0.00     0.135 A 
ATOM     86  C   UNL A   1      38.441  32.609  30.864  1.00  0.00     0.135 A 
ATOM     87  F   UNL A   1      39.593  32.065  34.263  1.00  0.00    -0.206 F 
ATOM     88  C   UNL A   1      37.458  32.603  33.454  1.00  0.00     0.059 A 
ATOM     89  C   UNL A   1      37.095  32.887  31.085  1.00  0.00     0.059 A 
ATOM     90  F   UNL A   1      38.857  32.729  29.595  1.00  0.00    -0.206 F 
ATOM     91  C   UNL A   1      36.613  32.906  32.386  1.00  0.00     0.060 A 
BRANCH  91  92
ATOM     92  S   UNL A   1      34.917  33.439  32.709  1.00  0.00     0.124 S 
ATOM     93  O   UNL A   1      34.948  34.828  32.263  1.00  0.00    -0.237 OA
ATOM     94  O   UNL A   1      34.144  32.520  31.882  1.00  0.00    -0.237 OA
ATOM     95  O   UNL A   1      34.770  33.250  34.150  1.00  0.00    -0.744 OA
ENDBRANCH  91  92
ENDBRANCH  59  84
BRANCH  71  96
ATOM     96  C   UNL A   1      45.604  32.988  33.003  1.00  0.00     0.058 A 
ATOM     97  C   UNL A   1      45.771  31.627  32.691  1.00  0.00     0.135 A 
ATOM     98  C   UNL A   1      46.143  33.433  34.219  1.00  0.00     0.135 A 
ATOM     99  F   UNL A   1      45.383  31.143  31.504  1.00  0.00    -0.206 F 
ATOM    100  C   UNL A   1      46.415  30.743  33.558  1.00  0.00     0.059 A 
ATOM    101  C   UNL A   1      46.818  32.575  35.087  1.00  0.00     0.059 A 
ATOM    102  F   UNL A   1      46.076  34.735  34.547  1.00  0.00    -0.206 F 
ATOM    103  C   UNL A   1      46.943  31.228  34.752  1.00  0.00     0.060 A 
BRANCH 103 104
ATOM    104  S   UNL A   1      47.886  30.108  35.811  1.00  0.00     0.124 S 
ATOM    105  O   UNL A   1      47.185  28.843  35.622  1.00  0.00    -0.237 OA
ATOM    106  O   UNL A   1      49.227  30.182  35.238  1.00  0.00    -0.237 OA
ATOM    107  O   UNL A   1      47.755  30.704  37.139  1.00  0.00    -0.744 OA
ENDBRANCH 103 104
ENDBRANCH  71  96
ENDBRANCH  45  46
ENDBRANCH  38  40
ENDBRANCH  37  38
ENDBRANCH  36  37
ENDBRANCH  35  36
ENDBRANCH  34  35
ENDBRANCH  33  34
ENDBRANCH  32  33
ENDBRANCH  31  32
ENDBRANCH   1  31
TORSDOF 28
ENDMDL
MODEL 2
REMARK VINA RESULT:      -8.3      4.816     10.330
REMARK SMILES C/C(=N\NC(N)=S)c1nnn(-c2ccc(C(=O)OCCOCCOCCOCCOC(=O)c3ccc(-c4c5nc(c(-c6c(F)cc(S(=O)(=O)[O-])cc6F)c6ccc([nH]6)c(-c6c(F)cc(S(=O)(=O)[O-])cc6F)c6nc(c(-c7c(F)cc(S(=O)(=O)[O-])cc7F)c7ccc4[nH]7)C=C6)C=C5)cc3)cc2)c1C
REMARK SMILES IDX 23 1 22 2 21 3 20 4 19 5 18 6 16 7 17 8 15 9 12 10 13 11
REMARK SMILES IDX 100 12 14 13 99 14 11 15 8 16 9 17 101 18 10 19 102 20 2 21
REMARK SMILES IDX 1 22 3 23 4 24 5 26 7 27 6 28 24 31 25 32 26 33 27 34 28 35
REMARK SMILES IDX 29 36 30 37 31 38 32 39 33 40 34 41 98 42 35 43 97 44 36 45
REMARK SMILES IDX 37 46 38 47 91 48 39 49 96 50 90 51 92 52 40 53 95 54 89 55
REMARK SMILES IDX 88 56 41 58 75 59 54 60 74 61 55 62 58 63 73 64 93 65 56 66
REMARK SMILES IDX 57 67 72 69 94 70 59 71 42 72 43 73 52 74 44 75 45 76 51 77
REMARK SMILES IDX 53 78 46 79 47 80 48 81 49 82 50 83 76 84 77 85 86 86 78 87
REMARK SMILES IDX 79 88 85 89 87 90 80 91 81 92 82 93 83 94 84 95 60 96 61 97
REMARK SMILES IDX 70 98 62 99 63 100 69 101 71 102 64 103 65 104 66 105 67 106
REMARK SMILES IDX 68 107
REMARK H PARENT 4 25 6 29 6 30 92 57 58 68
REMARK Flexibility Score: inf
ROOT
ATOM      1  C   UNL A   1      39.788  29.685  29.431  1.00  0.00     0.188 C 
ENDROOT
BRANCH   1   2
ATOM      2  C   UNL A   1      38.493  30.506  29.640  1.00  0.00     0.188 C 
BRANCH   2   3
ATOM      3  O   UNL A   1      37.366  30.021  30.369  1.00  0.00    -0.376 OA
BRANCH   3   4
ATOM      4  C   UNL A   1      36.517  30.891  31.097  1.00  0.00     0.202 C 
BRANCH   4   5
ATOM      5  C   UNL A   1      35.596  31.847  30.331  1.00  0.00     0.261 C 
BRANCH   5   6
ATOM      6  O   UNL A   1      35.563  31.637  28.921  1.00  0.00    -0.460 OA
BRANCH   6   7
ATOM      7  C   UNL A   1      34.371  31.870  28.334  1.00  0.00     0.338 C 
ATOM      8  O   UNL A   1      33.695  32.889  28.398  1.00  0.00    -0.246 OA
BRANCH   7   9
ATOM      9  C   UNL A   1      34.029  30.725  27.466  1.00  0.00     0.060 A 
ATOM     10  C   UNL A   1      33.611  28.674  25.671  1.00  0.00     0.067 A 
ATOM     11  C   UNL A   1      34.666  28.561  26.579  1.00  0.00     0.029 A 
ATOM     12  C   UNL A   1      32.673  29.711  25.760  1.00  0.00     0.029 A 
ATOM     13  C   UNL A   1      34.889  29.614  27.462  1.00  0.00     0.018 A 
ATOM     14  C   UNL A   1      32.882  30.741  26.667  1.00  0.00     0.018 A 
BRANCH  10  15
ATOM     15  N   UNL A   1      33.691  27.944  24.470  1.00  0.00    -0.217 N 
ATOM     16  C   UNL A   1      33.238  26.497  22.914  1.00  0.00     0.132 A 
ATOM     17  N   UNL A   1      33.796  27.605  22.334  1.00  0.00    -0.128 NA
ATOM     18  C   UNL A   1      33.105  26.704  24.270  1.00  0.00     0.071 A 
ATOM     19  N   UNL A   1      33.985  28.514  23.282  1.00  0.00    -0.061 NA
ATOM     20  C   UNL A   1      32.367  25.941  25.309  1.00  0.00     0.069 C 
BRANCH  16  21
ATOM     21  C   UNL A   1      32.695  25.395  22.150  1.00  0.00     0.087 C 
ATOM     22  C   UNL A   1      32.184  25.712  20.768  1.00  0.00     0.071 C 
ATOM     23  N   UNL A   1      32.704  24.241  22.749  1.00  0.00    -0.176 NA
BRANCH  23  24
ATOM     24  N   UNL A   1      32.214  23.139  22.115  1.00  0.00    -0.254 N 
ATOM     25  H   UNL A   1      31.823  23.276  21.221  1.00  0.00     0.193 HD
BRANCH  24  26
ATOM     26  C   UNL A   1      32.215  21.849  22.607  1.00  0.00     0.184 C 
ATOM     27  S   UNL A   1      32.682  21.295  24.105  1.00  0.00    -0.040 S 
BRANCH  26  28
ATOM     28  N   UNL A   1      31.742  20.947  21.696  1.00  0.00    -0.375 N 
ATOM     29  H   UNL A   1      32.365  20.332  21.244  1.00  0.00     0.159 HD
ATOM     30  H   UNL A   1      30.781  20.912  21.491  1.00  0.00     0.159 HD
ENDBRANCH  26  28
ENDBRANCH  24  26
ENDBRANCH  23  24
ENDBRANCH  16  21
ENDBRANCH  10  15
ENDBRANCH   7   9
ENDBRANCH   6   7
ENDBRANCH   5   6
ENDBRANCH   4   5
ENDBRANCH   3   4
ENDBRANCH   2   3
ENDBRANCH   1   2
BRANCH   1  31
ATOM     31  O   UNL A   1      39.596  28.361  28.962  1.00  0.00    -0.377 OA
BRANCH  31  32
ATOM     32  C   UNL A   1      40.785  27.575  28.911  1.00  0.00     0.188 C 
BRANCH  32  33
ATOM     33  C   UNL A   1      40.638  26.146  28.338  1.00  0.00     0.188 C 
BRANCH  33  34
ATOM     34  O   UNL A   1      39.378  25.908  27.710  1.00  0.00    -0.376 OA
BRANCH  34  35
ATOM     35  C   UNL A   1      38.933  24.570  27.536  1.00  0.00     0.202 C 
BRANCH  35  36
ATOM     36  C   UNL A   1      40.072  23.555  27.484  1.00  0.00     0.261 C 
BRANCH  36  37
ATOM     37  O   UNL A   1      40.140  22.867  26.249  1.00  0.00    -0.460 OA
BRANCH  37  38
ATOM     38  C   UNL A   1      41.161  22.002  26.110  1.00  0.00     0.338 C 
ATOM     39  O   UNL A   1      41.142  20.792  26.309  1.00  0.00    -0.246 OA
BRANCH  38  40
ATOM     40  C   UNL A   1      42.358  22.750  25.737  1.00  0.00     0.060 A 
ATOM     41  C   UNL A   1      43.577  22.165  26.084  1.00  0.00     0.016 A 
ATOM     42  C   UNL A   1      42.226  24.108  25.420  1.00  0.00     0.016 A 
ATOM     43  C   UNL A   1      44.604  23.004  26.434  1.00  0.00     0.010 A 
ATOM     44  C   UNL A   1      43.236  24.946  25.796  1.00  0.00     0.010 A 
ATOM     45  C   UNL A   1      44.355  24.377  26.404  1.00  0.00    -0.014 A 
BRANCH  45  46
ATOM     46  C   UNL A   1      45.239  25.234  27.152  1.00  0.00     0.031 A 
ATOM     47  C   UNL A   1      45.007  25.216  28.606  1.00  0.00     0.074 A 
ATOM     48  C   UNL A   1      46.265  25.836  26.520  1.00  0.00     0.049 A 
ATOM     49  N   UNL A   1      44.680  26.194  29.380  1.00  0.00    -0.248 NA
ATOM     50  C   UNL A   1      44.997  23.895  29.258  1.00  0.00     0.031 C 
ATOM     51  C   UNL A   1      46.720  25.618  25.140  1.00  0.00     0.029 A 
ATOM     52  N   UNL A   1      47.205  26.673  27.023  1.00  0.00    -0.354 N 
ATOM     53  C   UNL A   1      44.651  25.645  30.655  1.00  0.00     0.074 A 
ATOM     54  C   UNL A   1      44.639  24.216  30.498  1.00  0.00     0.031 C 
ATOM     55  C   UNL A   1      47.966  26.122  25.002  1.00  0.00     0.029 A 
ATOM     56  C   UNL A   1      48.345  26.780  26.240  1.00  0.00     0.049 A 
ATOM     57  H   UNL A   1      47.090  27.161  27.870  1.00  0.00     0.167 HD
ATOM     58  C   UNL A   1      44.932  26.386  31.757  1.00  0.00     0.037 A 
ATOM     59  C   UNL A   1      49.543  27.269  26.644  1.00  0.00     0.037 A 
ATOM     60  C   UNL A   1      44.789  27.795  31.510  1.00  0.00     0.049 A 
ATOM     61  C   UNL A   1      49.297  28.063  27.880  1.00  0.00     0.074 A 
ATOM     62  C   UNL A   1      43.743  28.598  31.102  1.00  0.00     0.029 A 
ATOM     63  N   UNL A   1      45.932  28.534  31.319  1.00  0.00    -0.354 N 
ATOM     64  N   UNL A   1      48.602  29.170  27.920  1.00  0.00    -0.248 NA
ATOM     65  C   UNL A   1      49.465  27.398  29.165  1.00  0.00     0.031 C 
ATOM     66  C   UNL A   1      44.334  29.604  30.286  1.00  0.00     0.029 A 
ATOM     67  C   UNL A   1      45.712  29.378  30.258  1.00  0.00     0.049 A 
ATOM     68  H   UNL A   1      46.760  28.469  31.848  1.00  0.00     0.167 HD
ATOM     69  C   UNL A   1      47.924  29.133  29.132  1.00  0.00     0.074 A 
ATOM     70  C   UNL A   1      48.579  28.078  29.897  1.00  0.00     0.031 C 
ATOM     71  C   UNL A   1      46.723  29.765  29.294  1.00  0.00     0.037 A 
BRANCH  58  72
ATOM     72  C   UNL A   1      45.678  25.818  32.932  1.00  0.00     0.058 A 
ATOM     73  C   UNL A   1      45.095  25.845  34.210  1.00  0.00     0.135 A 
ATOM     74  C   UNL A   1      47.051  25.470  32.887  1.00  0.00     0.135 A 
ATOM     75  F   UNL A   1      43.810  26.196  34.364  1.00  0.00    -0.206 F 
ATOM     76  C   UNL A   1      45.833  25.584  35.364  1.00  0.00     0.059 A 
ATOM     77  C   UNL A   1      47.785  25.140  34.015  1.00  0.00     0.059 A 
ATOM     78  F   UNL A   1      47.767  25.532  31.756  1.00  0.00    -0.206 F 
ATOM     79  C   UNL A   1      47.180  25.243  35.254  1.00  0.00     0.060 A 
BRANCH  79  80
ATOM     80  S   UNL A   1      48.169  25.020  36.742  1.00  0.00     0.124 S 
ATOM     81  O   UNL A   1      48.110  26.355  37.325  1.00  0.00    -0.237 OA
ATOM     82  O   UNL A   1      47.429  23.979  37.447  1.00  0.00    -0.237 OA
ATOM     83  O   UNL A   1      49.470  24.612  36.220  1.00  0.00    -0.744 OA
ENDBRANCH  79  80
ENDBRANCH  58  72
BRANCH  59  84
ATOM     84  C   UNL A   1      50.889  26.780  26.240  1.00  0.00     0.058 A 
ATOM     85  C   UNL A   1      51.828  27.641  25.646  1.00  0.00     0.135 A 
ATOM     86  C   UNL A   1      51.380  25.520  26.645  1.00  0.00     0.135 A 
ATOM     87  F   UNL A   1      51.462  28.874  25.261  1.00  0.00    -0.206 F 
ATOM     88  C   UNL A   1      53.173  27.287  25.490  1.00  0.00     0.059 A 
ATOM     89  C   UNL A   1      52.707  25.136  26.480  1.00  0.00     0.059 A 
ATOM     90  F   UNL A   1      50.601  24.646  27.300  1.00  0.00    -0.206 F 
ATOM     91  C   UNL A   1      53.606  26.033  25.922  1.00  0.00     0.060 A 
BRANCH  91  92
ATOM     92  S   UNL A   1      55.366  25.624  25.864  1.00  0.00     0.124 S 
ATOM     93  O   UNL A   1      55.945  26.669  26.701  1.00  0.00    -0.237 OA
ATOM     94  O   UNL A   1      55.386  24.276  26.419  1.00  0.00    -0.237 OA
ATOM     95  O   UNL A   1      55.689  25.715  24.442  1.00  0.00    -0.744 OA
ENDBRANCH  91  92
ENDBRANCH  59  84
BRANCH  71  96
ATOM     96  C   UNL A   1      46.293  30.749  28.233  1.00  0.00     0.058 A 
ATOM     97  C   UNL A   1      45.570  30.386  27.083  1.00  0.00     0.135 A 
ATOM     98  C   UNL A   1      46.454  32.120  28.479  1.00  0.00     0.135 A 
ATOM     99  F   UNL A   1      45.279  29.103  26.832  1.00  0.00    -0.206 F 
ATOM    100  C   UNL A   1      45.058  31.339  26.202  1.00  0.00     0.059 A 
ATOM    101  C   UNL A   1      45.924  33.091  27.630  1.00  0.00     0.059 A 
ATOM    102  F   UNL A   1      47.077  32.534  29.596  1.00  0.00    -0.206 F 
ATOM    103  C   UNL A   1      45.232  32.691  26.487  1.00  0.00     0.060 A 
BRANCH 103 104
ATOM    104  S   UNL A   1      44.458  33.920  25.412  1.00  0.00     0.124 S 
ATOM    105  O   UNL A   1      43.629  33.091  24.545  1.00  0.00    -0.237 OA
ATOM    106  O   UNL A   1      43.737  34.764  26.361  1.00  0.00    -0.237 OA
ATOM    107  O   UNL A   1      45.595  34.566  24.760  1.00  0.00    -0.744 OA
ENDBRANCH 103 104
ENDBRANCH  71  96
ENDBRANCH  45  46
ENDBRANCH  38  40
ENDBRANCH  37  38
ENDBRANCH  36  37
ENDBRANCH  35  36
ENDBRANCH  34  35
ENDBRANCH  33  34
ENDBRANCH  32  33
ENDBRANCH  31  32
ENDBRANCH   1  31
TORSDOF 28
ENDMDL
MODEL 3
REMARK VINA RESULT:      -7.9      5.187      9.909
REMARK SMILES C/C(=N\NC(N)=S)c1nnn(-c2ccc(C(=O)OCCOCCOCCOCCOC(=O)c3ccc(-c4c5nc(c(-c6c(F)cc(S(=O)(=O)[O-])cc6F)c6ccc([nH]6)c(-c6c(F)cc(S(=O)(=O)[O-])cc6F)c6nc(c(-c7c(F)cc(S(=O)(=O)[O-])cc7F)c7ccc4[nH]7)C=C6)C=C5)cc3)cc2)c1C
REMARK SMILES IDX 23 1 22 2 21 3 20 4 19 5 18 6 16 7 17 8 15 9 12 10 13 11
REMARK SMILES IDX 100 12 14 13 99 14 11 15 8 16 9 17 101 18 10 19 102 20 2 21
REMARK SMILES IDX 1 22 3 23 4 24 5 26 7 27 6 28 24 31 25 32 26 33 27 34 28 35
REMARK SMILES IDX 29 36 30 37 31 38 32 39 33 40 34 41 98 42 35 43 97 44 36 45
REMARK SMILES IDX 37 46 38 47 91 48 39 49 96 50 90 51 92 52 40 53 95 54 89 55
REMARK SMILES IDX 88 56 41 58 75 59 54 60 74 61 55 62 58 63 73 64 93 65 56 66
REMARK SMILES IDX 57 67 72 69 94 70 59 71 42 72 43 73 52 74 44 75 45 76 51 77
REMARK SMILES IDX 53 78 46 79 47 80 48 81 49 82 50 83 76 84 77 85 86 86 78 87
REMARK SMILES IDX 79 88 85 89 87 90 80 91 81 92 82 93 83 94 84 95 60 96 61 97
REMARK SMILES IDX 70 98 62 99 63 100 69 101 71 102 64 103 65 104 66 105 67 106
REMARK SMILES IDX 68 107
REMARK H PARENT 4 25 6 29 6 30 92 57 58 68
REMARK Flexibility Score: inf
ROOT
ATOM      1  C   UNL A   1      39.782  30.058  29.499  1.00  0.00     0.188 C 
ENDROOT
BRANCH   1   2
ATOM      2  C   UNL A   1      38.342  30.603  29.656  1.00  0.00     0.188 C 
BRANCH   2   3
ATOM      3  O   UNL A   1      37.300  29.885  30.316  1.00  0.00    -0.376 OA
BRANCH   3   4
ATOM      4  C   UNL A   1      36.316  30.546  31.094  1.00  0.00     0.202 C 
BRANCH   4   5
ATOM      5  C   UNL A   1      35.525  31.700  30.472  1.00  0.00     0.261 C 
BRANCH   5   6
ATOM      6  O   UNL A   1      35.538  31.728  29.046  1.00  0.00    -0.460 OA
BRANCH   6   7
ATOM      7  C   UNL A   1      34.340  31.949  28.465  1.00  0.00     0.338 C 
ATOM      8  O   UNL A   1      33.641  32.950  28.558  1.00  0.00    -0.246 OA
BRANCH   7   9
ATOM      9  C   UNL A   1      34.024  30.820  27.567  1.00  0.00     0.060 A 
ATOM     10  C   UNL A   1      33.627  28.830  25.700  1.00  0.00     0.067 A 
ATOM     11  C   UNL A   1      34.773  28.778  26.497  1.00  0.00     0.029 A 
ATOM     12  C   UNL A   1      32.608  29.762  25.938  1.00  0.00     0.029 A 
ATOM     13  C   UNL A   1      34.981  29.802  27.416  1.00  0.00     0.018 A 
ATOM     14  C   UNL A   1      32.807  30.761  26.882  1.00  0.00     0.018 A 
BRANCH  10  15
ATOM     15  N   UNL A   1      33.656  28.173  24.456  1.00  0.00    -0.217 N 
ATOM     16  C   UNL A   1      33.269  26.707  22.899  1.00  0.00     0.132 A 
ATOM     17  N   UNL A   1      33.463  27.929  22.313  1.00  0.00    -0.128 NA
ATOM     18  C   UNL A   1      33.331  26.838  24.270  1.00  0.00     0.071 A 
ATOM     19  N   UNL A   1      33.610  28.830  23.277  1.00  0.00    -0.061 NA
ATOM     20  C   UNL A   1      32.967  25.898  25.360  1.00  0.00     0.069 C 
BRANCH  16  21
ATOM     21  C   UNL A   1      32.857  25.534  22.161  1.00  0.00     0.087 C 
ATOM     22  C   UNL A   1      32.544  25.726  20.699  1.00  0.00     0.071 C 
ATOM     23  N   UNL A   1      32.798  24.431  22.848  1.00  0.00    -0.176 NA
BRANCH  23  24
ATOM     24  N   UNL A   1      32.421  23.270  22.245  1.00  0.00    -0.254 N 
ATOM     25  H   UNL A   1      32.340  23.283  21.264  1.00  0.00     0.193 HD
BRANCH  24  26
ATOM     26  C   UNL A   1      32.140  22.077  22.881  1.00  0.00     0.184 C 
ATOM     27  S   UNL A   1      32.132  21.727  24.508  1.00  0.00    -0.040 S 
BRANCH  26  28
ATOM     28  N   UNL A   1      31.814  21.085  21.999  1.00  0.00    -0.375 N 
ATOM     29  H   UNL A   1      31.646  21.303  21.054  1.00  0.00     0.159 HD
ATOM     30  H   UNL A   1      31.747  20.153  22.309  1.00  0.00     0.159 HD
ENDBRANCH  26  28
ENDBRANCH  24  26
ENDBRANCH  23  24
ENDBRANCH  16  21
ENDBRANCH  10  15
ENDBRANCH   7   9
ENDBRANCH   6   7
ENDBRANCH   5   6
ENDBRANCH   4   5
ENDBRANCH   3   4
ENDBRANCH   2   3
ENDBRANCH   1   2
BRANCH   1  31
ATOM     31  O   UNL A   1      39.890  28.816  28.824  1.00  0.00    -0.377 OA
BRANCH  31  32
ATOM     32  C   UNL A   1      41.144  28.160  28.992  1.00  0.00     0.188 C 
BRANCH  32  33
ATOM     33  C   UNL A   1      41.372  26.889  28.141  1.00  0.00     0.188 C 
BRANCH  33  34
ATOM     34  O   UNL A   1      40.362  26.669  27.156  1.00  0.00    -0.376 OA
BRANCH  34  35
ATOM     35  C   UNL A   1      40.317  25.424  26.475  1.00  0.00     0.202 C 
BRANCH  35  36
ATOM     36  C   UNL A   1      41.599  24.608  26.621  1.00  0.00     0.261 C 
BRANCH  36  37
ATOM     37  O   UNL A   1      42.265  24.404  25.388  1.00  0.00    -0.460 OA
BRANCH  37  38
ATOM     38  C   UNL A   1      43.025  23.298  25.304  1.00  0.00     0.338 C 
ATOM     39  O   UNL A   1      42.661  22.168  24.993  1.00  0.00    -0.246 OA
BRANCH  38  40
ATOM     40  C   UNL A   1      44.386  23.635  25.713  1.00  0.00     0.060 A 
ATOM     41  C   UNL A   1      44.926  22.858  26.738  1.00  0.00     0.016 A 
ATOM     42  C   UNL A   1      44.903  24.885  25.349  1.00  0.00     0.016 A 
ATOM     43  C   UNL A   1      45.777  23.475  27.618  1.00  0.00     0.010 A 
ATOM     44  C   UNL A   1      45.726  25.511  26.240  1.00  0.00     0.010 A 
ATOM     45  C   UNL A   1      46.047  24.829  27.413  1.00  0.00    -0.014 A 
BRANCH  45  46
ATOM     46  C   UNL A   1      46.571  25.583  28.523  1.00  0.00     0.031 A 
ATOM     47  C   UNL A   1      45.540  26.106  29.435  1.00  0.00     0.074 A 
ATOM     48  C   UNL A   1      47.902  25.619  28.727  1.00  0.00     0.049 A 
ATOM     49  N   UNL A   1      45.284  27.333  29.739  1.00  0.00    -0.248 NA
ATOM     50  C   UNL A   1      44.569  25.132  29.965  1.00  0.00     0.031 C 
ATOM     51  C   UNL A   1      48.937  24.841  28.031  1.00  0.00     0.029 A 
ATOM     52  N   UNL A   1      48.601  26.259  29.696  1.00  0.00    -0.354 N 
ATOM     53  C   UNL A   1      44.265  27.261  30.680  1.00  0.00     0.074 A 
ATOM     54  C   UNL A   1      43.729  25.928  30.620  1.00  0.00     0.031 C 
ATOM     55  C   UNL A   1      50.080  24.885  28.751  1.00  0.00     0.029 A 
ATOM     56  C   UNL A   1      49.884  25.767  29.888  1.00  0.00     0.049 A 
ATOM     57  H   UNL A   1      48.231  27.006  30.219  1.00  0.00     0.167 HD
ATOM     58  C   UNL A   1      44.120  28.203  31.647  1.00  0.00     0.037 A 
ATOM     59  C   UNL A   1      50.664  25.987  30.975  1.00  0.00     0.037 A 
ATOM     60  C   UNL A   1      44.784  29.432  31.307  1.00  0.00     0.049 A 
ATOM     61  C   UNL A   1      50.106  27.174  31.681  1.00  0.00     0.074 A 
ATOM     62  C   UNL A   1      44.670  30.328  30.263  1.00  0.00     0.029 A 
ATOM     63  N   UNL A   1      45.990  29.698  31.908  1.00  0.00    -0.354 N 
ATOM     64  N   UNL A   1      50.095  28.386  31.191  1.00  0.00    -0.248 NA
ATOM     65  C   UNL A   1      49.165  26.943  32.768  1.00  0.00     0.031 C 
ATOM     66  C   UNL A   1      45.993  30.795  30.020  1.00  0.00     0.029 A 
ATOM     67  C   UNL A   1      46.841  30.178  30.942  1.00  0.00     0.049 A 
ATOM     68  H   UNL A   1      46.206  29.569  32.860  1.00  0.00     0.167 HD
ATOM     69  C   UNL A   1      48.899  28.945  31.624  1.00  0.00     0.074 A 
ATOM     70  C   UNL A   1      48.426  28.052  32.675  1.00  0.00     0.031 C 
ATOM     71  C   UNL A   1      48.266  29.917  30.902  1.00  0.00     0.037 A 
BRANCH  58  72
ATOM     72  C   UNL A   1      43.676  27.854  33.041  1.00  0.00     0.058 A 
ATOM     73  C   UNL A   1      44.434  26.955  33.810  1.00  0.00     0.135 A 
ATOM     74  C   UNL A   1      42.399  28.183  33.556  1.00  0.00     0.135 A 
ATOM     75  F   UNL A   1      45.643  26.552  33.392  1.00  0.00    -0.206 F 
ATOM     76  C   UNL A   1      43.940  26.393  34.988  1.00  0.00     0.059 A 
ATOM     77  C   UNL A   1      41.917  27.690  34.758  1.00  0.00     0.059 A 
ATOM     78  F   UNL A   1      41.519  28.921  32.866  1.00  0.00    -0.206 F 
ATOM     79  C   UNL A   1      42.676  26.760  35.445  1.00  0.00     0.060 A 
BRANCH  79  80
ATOM     80  S   UNL A   1      41.983  25.953  36.897  1.00  0.00     0.124 S 
ATOM     81  O   UNL A   1      41.764  24.602  36.394  1.00  0.00    -0.237 OA
ATOM     82  O   UNL A   1      43.056  26.108  37.874  1.00  0.00    -0.237 OA
ATOM     83  O   UNL A   1      40.778  26.731  37.169  1.00  0.00    -0.744 OA
ENDBRANCH  79  80
ENDBRANCH  58  72
BRANCH  59  84
ATOM     84  C   UNL A   1      51.601  25.021  31.611  1.00  0.00     0.058 A 
ATOM     85  C   UNL A   1      52.986  25.259  31.633  1.00  0.00     0.135 A 
ATOM     86  C   UNL A   1      51.144  23.962  32.425  1.00  0.00     0.135 A 
ATOM     87  F   UNL A   1      53.508  26.268  30.919  1.00  0.00    -0.206 F 
ATOM     88  C   UNL A   1      53.859  24.513  32.435  1.00  0.00     0.059 A 
ATOM     89  C   UNL A   1      51.995  23.192  33.213  1.00  0.00     0.059 A 
ATOM     90  F   UNL A   1      49.836  23.695  32.553  1.00  0.00    -0.206 F 
ATOM     91  C   UNL A   1      53.350  23.488  33.232  1.00  0.00     0.060 A 
BRANCH  91  92
ATOM     92  S   UNL A   1      54.444  22.620  34.381  1.00  0.00     0.124 S 
ATOM     93  O   UNL A   1      53.968  23.104  35.672  1.00  0.00    -0.237 OA
ATOM     94  O   UNL A   1      54.160  21.223  34.078  1.00  0.00    -0.237 OA
ATOM     95  O   UNL A   1      55.776  23.080  33.995  1.00  0.00    -0.744 OA
ENDBRANCH  91  92
ENDBRANCH  59  84
BRANCH  71  96
ATOM     96  C   UNL A   1      49.036  30.585  29.788  1.00  0.00     0.058 A 
ATOM     97  C   UNL A   1      49.973  31.612  29.998  1.00  0.00     0.135 A 
ATOM     98  C   UNL A   1      48.962  30.043  28.497  1.00  0.00     0.135 A 
ATOM     99  F   UNL A   1      50.184  32.109  31.223  1.00  0.00    -0.206 F 
ATOM    100  C   UNL A   1      50.777  32.100  28.966  1.00  0.00     0.059 A 
ATOM    101  C   UNL A   1      49.776  30.493  27.458  1.00  0.00     0.059 A 
ATOM    102  F   UNL A   1      48.135  29.014  28.247  1.00  0.00    -0.206 F 
ATOM    103  C   UNL A   1      50.677  31.528  27.700  1.00  0.00     0.060 A 
BRANCH 103 104
ATOM    104  S   UNL A   1      51.808  32.076  26.401  1.00  0.00     0.124 S 
ATOM    105  O   UNL A   1      51.261  31.419  25.219  1.00  0.00    -0.237 OA
ATOM    106  O   UNL A   1      51.662  33.529  26.444  1.00  0.00    -0.237 OA
ATOM    107  O   UNL A   1      53.107  31.579  26.848  1.00  0.00    -0.744 OA
ENDBRANCH 103 104
ENDBRANCH  71  96
ENDBRANCH  45  46
ENDBRANCH  38  40
ENDBRANCH  37  38
ENDBRANCH  36  37
ENDBRANCH  35  36
ENDBRANCH  34  35
ENDBRANCH  33  34
ENDBRANCH  32  33
ENDBRANCH  31  32
ENDBRANCH   1  31
TORSDOF 28
ENDMDL
