MODEL 1
REMARK VINA RESULT:      -8.9      0.000      0.000
REMARK SMILES Cc1ccc(Cl)c(Nc2ccccc2C(=O)NCC(=O)OCCOCCOCCOCCOC(=O)c2ccc(-c3c4nc(c(-c5c(F)cc(S(=O)(=O)[O-])cc5F)c5ccc([nH]5)c(-c5c(F)cc(S(=O)(=O)[O-])cc5F)c5nc(c(-c6c(F)cc(S(=O)(=O)[O-])cc6F)c6ccc3[nH]6)C=C5)C=C4)cc2)c1Cl
REMARK SMILES IDX 26 1 25 2 24 3 23 4 22 5 21 6 19 7 20 8 18 9 17 10 15 11
REMARK SMILES IDX 16 12 14 14 9 15 10 16 11 17 13 18 12 19 8 20 7 22 1 23 2 24
REMARK SMILES IDX 3 25 102 26 4 27 103 28 5 29 6 30 27 31 28 32 29 33 30 34
REMARK SMILES IDX 31 35 32 36 33 37 34 38 35 39 36 40 37 41 101 42 38 43
REMARK SMILES IDX 100 44 39 45 40 46 41 47 94 48 42 49 99 50 93 51 95 52 43 53
REMARK SMILES IDX 98 54 92 55 91 56 44 58 78 59 57 60 77 61 58 62 61 63 76 64
REMARK SMILES IDX 96 65 59 66 60 67 75 69 97 70 62 71 45 72 46 73 55 74 47 75
REMARK SMILES IDX 48 76 54 77 56 78 49 79 50 80 51 81 52 82 53 83 79 84 80 85
REMARK SMILES IDX 89 86 81 87 82 88 88 89 90 90 83 91 84 92 85 93 86 94 87 95
REMARK SMILES IDX 63 96 64 97 73 98 65 99 66 100 72 101 74 102 67 103 68 104
REMARK SMILES IDX 69 105 70 106 71 107
REMARK H PARENT 17 13 8 21 95 57 61 68
REMARK Flexibility Score: inf
ROOT
ATOM      1  C   UNL A   1      35.318  34.089  29.191  1.00  0.00     0.188 C 
ENDROOT
BRANCH   1   2
ATOM      2  C   UNL A   1      35.130  32.930  28.195  1.00  0.00     0.188 C 
BRANCH   2   3
ATOM      3  O   UNL A   1      34.182  31.954  28.563  1.00  0.00    -0.376 OA
BRANCH   3   4
ATOM      4  C   UNL A   1      33.559  31.090  27.622  1.00  0.00     0.202 C 
BRANCH   4   5
ATOM      5  C   UNL A   1      34.199  29.851  26.979  1.00  0.00     0.261 C 
BRANCH   5   6
ATOM      6  O   UNL A   1      33.775  28.590  27.493  1.00  0.00    -0.462 OA
BRANCH   6   7
ATOM      7  C   UNL A   1      32.474  28.341  27.257  1.00  0.00     0.325 C 
ATOM      8  O   UNL A   1      31.667  27.964  28.107  1.00  0.00    -0.250 OA
BRANCH   7   9
ATOM      9  C   UNL A   1      31.975  28.720  25.889  1.00  0.00     0.239 C 
BRANCH   9  10
ATOM     10  N   UNL A   1      32.461  28.548  24.543  1.00  0.00    -0.341 N 
ATOM     11  C   UNL A   1      31.741  28.995  23.440  1.00  0.00     0.253 C 
ATOM     12  O   UNL A   1      32.302  29.197  22.366  1.00  0.00    -0.269 OA
ATOM     13  H   UNL A   1      33.326  28.100  24.401  1.00  0.00     0.164 HD
BRANCH  11  14
ATOM     14  C   UNL A   1      30.240  29.023  23.516  1.00  0.00     0.063 A 
ATOM     15  C   UNL A   1      29.352  27.947  23.265  1.00  0.00     0.051 A 
ATOM     16  C   UNL A   1      28.009  28.270  22.978  1.00  0.00     0.027 A 
ATOM     17  C   UNL A   1      27.543  29.586  23.006  1.00  0.00     0.002 A 
ATOM     18  C   UNL A   1      29.741  30.337  23.620  1.00  0.00     0.016 A 
ATOM     19  C   UNL A   1      28.400  30.616  23.369  1.00  0.00     0.001 A 
BRANCH  15  20
ATOM     20  N   UNL A   1      29.655  26.561  23.261  1.00  0.00    -0.352 N 
ATOM     21  H   UNL A   1      28.962  26.015  22.826  1.00  0.00     0.167 HD
BRANCH  20  22
ATOM     22  C   UNL A   1      30.743  25.796  23.749  1.00  0.00     0.077 A 
ATOM     23  C   UNL A   1      32.244  24.397  26.992  1.00  0.00     0.046 C 
ATOM     24  C   UNL A   1      32.084  24.819  25.557  1.00  0.00    -0.030 A 
ATOM     25  C   UNL A   1      33.175  24.690  24.686  1.00  0.00     0.006 A 
ATOM     26  C   UNL A   1      30.867  25.356  25.081  1.00  0.00     0.069 A 
ATOM     27  C   UNL A   1      33.040  25.016  23.342  1.00  0.00     0.023 A 
ATOM     28  Cl  UNL A   1      29.472  25.311  26.121  1.00  0.00    -0.082 Cl
ATOM     29  C   UNL A   1      31.832  25.537  22.878  1.00  0.00     0.066 A 
ATOM     30  Cl  UNL A   1      31.721  25.896  21.185  1.00  0.00    -0.082 Cl
ENDBRANCH  20  22
ENDBRANCH  15  20
ENDBRANCH  11  14
ENDBRANCH   9  10
ENDBRANCH   7   9
ENDBRANCH   6   7
ENDBRANCH   5   6
ENDBRANCH   4   5
ENDBRANCH   3   4
ENDBRANCH   2   3
ENDBRANCH   1   2
BRANCH   1  31
ATOM     31  O   UNL A   1      35.879  33.800  30.460  1.00  0.00    -0.377 OA
BRANCH  31  32
ATOM     32  C   UNL A   1      37.215  34.213  30.756  1.00  0.00     0.188 C 
BRANCH  32  33
ATOM     33  C   UNL A   1      38.382  33.203  30.853  1.00  0.00     0.188 C 
BRANCH  33  34
ATOM     34  O   UNL A   1      39.480  33.468  29.997  1.00  0.00    -0.376 OA
BRANCH  34  35
ATOM     35  C   UNL A   1      39.541  34.760  29.413  1.00  0.00     0.202 C 
BRANCH  35  36
ATOM     36  C   UNL A   1      40.930  35.222  28.949  1.00  0.00     0.261 C 
BRANCH  36  37
ATOM     37  O   UNL A   1      40.981  35.892  27.677  1.00  0.00    -0.460 OA
BRANCH  37  38
ATOM     38  C   UNL A   1      42.144  36.476  27.318  1.00  0.00     0.338 C 
ATOM     39  O   UNL A   1      42.397  37.669  27.315  1.00  0.00    -0.246 OA
BRANCH  38  40
ATOM     40  C   UNL A   1      43.151  35.408  27.134  1.00  0.00     0.060 A 
ATOM     41  C   UNL A   1      43.807  34.899  28.263  1.00  0.00     0.016 A 
ATOM     42  C   UNL A   1      43.442  34.908  25.862  1.00  0.00     0.016 A 
ATOM     43  C   UNL A   1      44.794  33.925  28.117  1.00  0.00     0.010 A 
ATOM     44  C   UNL A   1      44.448  33.949  25.714  1.00  0.00     0.010 A 
ATOM     45  C   UNL A   1      45.159  33.487  26.837  1.00  0.00    -0.014 A 
BRANCH  45  46
ATOM     46  C   UNL A   1      46.433  32.745  26.671  1.00  0.00     0.031 A 
ATOM     47  C   UNL A   1      46.382  31.241  26.680  1.00  0.00     0.074 A 
ATOM     48  C   UNL A   1      47.599  33.380  26.454  1.00  0.00     0.049 A 
ATOM     49  N   UNL A   1      47.347  30.372  26.530  1.00  0.00    -0.248 NA
ATOM     50  C   UNL A   1      45.056  30.636  26.887  1.00  0.00     0.031 C 
ATOM     51  C   UNL A   1      47.775  34.828  26.390  1.00  0.00     0.029 A 
ATOM     52  N   UNL A   1      48.859  32.876  26.251  1.00  0.00    -0.354 N 
ATOM     53  C   UNL A   1      46.747  29.122  26.618  1.00  0.00     0.074 A 
ATOM     54  C   UNL A   1      45.342  29.344  26.882  1.00  0.00     0.031 C 
ATOM     55  C   UNL A   1      49.075  35.098  26.175  1.00  0.00     0.029 A 
ATOM     56  C   UNL A   1      49.825  33.843  26.109  1.00  0.00     0.049 A 
ATOM     57  H   UNL A   1      49.053  31.911  26.210  1.00  0.00     0.167 HD
ATOM     58  C   UNL A   1      47.308  27.897  26.477  1.00  0.00     0.037 A 
ATOM     59  C   UNL A   1      51.159  33.727  25.959  1.00  0.00     0.037 A 
ATOM     60  C   UNL A   1      48.710  27.677  26.237  1.00  0.00     0.049 A 
ATOM     61  C   UNL A   1      51.778  32.355  25.869  1.00  0.00     0.074 A 
ATOM     62  C   UNL A   1      49.381  26.478  26.085  1.00  0.00     0.029 A 
ATOM     63  N   UNL A   1      49.661  28.683  26.128  1.00  0.00    -0.354 N 
ATOM     64  N   UNL A   1      51.197  31.180  25.933  1.00  0.00    -0.248 NA
ATOM     65  C   UNL A   1      53.233  32.294  25.672  1.00  0.00     0.031 C 
ATOM     66  C   UNL A   1      50.745  26.755  25.937  1.00  0.00     0.029 A 
ATOM     67  C   UNL A   1      50.917  28.130  25.932  1.00  0.00     0.049 A 
ATOM     68  H   UNL A   1      49.472  29.647  26.182  1.00  0.00     0.167 HD
ATOM     69  C   UNL A   1      52.212  30.241  25.760  1.00  0.00     0.074 A 
ATOM     70  C   UNL A   1      53.438  30.989  25.570  1.00  0.00     0.031 C 
ATOM     71  C   UNL A   1      52.134  28.885  25.755  1.00  0.00     0.037 A 
BRANCH  58  72
ATOM     72  C   UNL A   1      46.397  26.706  26.615  1.00  0.00     0.058 A 
ATOM     73  C   UNL A   1      46.233  26.037  27.840  1.00  0.00     0.135 A 
ATOM     74  C   UNL A   1      45.690  26.217  25.505  1.00  0.00     0.135 A 
ATOM     75  F   UNL A   1      46.901  26.446  28.931  1.00  0.00    -0.206 F 
ATOM     76  C   UNL A   1      45.438  24.901  27.949  1.00  0.00     0.059 A 
ATOM     77  C   UNL A   1      44.863  25.101  25.599  1.00  0.00     0.059 A 
ATOM     78  F   UNL A   1      45.810  26.814  24.309  1.00  0.00    -0.206 F 
ATOM     79  C   UNL A   1      44.760  24.438  26.821  1.00  0.00     0.060 A 
BRANCH  79  80
ATOM     80  S   UNL A   1      43.750  22.949  26.971  1.00  0.00     0.124 S 
ATOM     81  O   UNL A   1      44.559  21.974  26.245  1.00  0.00    -0.237 OA
ATOM     82  O   UNL A   1      43.681  22.763  28.417  1.00  0.00    -0.237 OA
ATOM     83  O   UNL A   1      42.494  23.323  26.330  1.00  0.00    -0.744 OA
ENDBRANCH  79  80
ENDBRANCH  58  72
BRANCH  59  84
ATOM     84  C   UNL A   1      52.001  34.952  25.890  1.00  0.00     0.058 A 
ATOM     85  C   UNL A   1      52.367  35.522  24.662  1.00  0.00     0.135 A 
ATOM     86  C   UNL A   1      52.440  35.590  27.062  1.00  0.00     0.135 A 
ATOM     87  F   UNL A   1      51.987  34.942  23.513  1.00  0.00    -0.206 F 
ATOM     88  C   UNL A   1      53.138  36.680  24.595  1.00  0.00     0.059 A 
ATOM     89  C   UNL A   1      53.188  36.763  27.021  1.00  0.00     0.059 A 
ATOM     90  F   UNL A   1      52.114  35.089  28.263  1.00  0.00    -0.206 F 
ATOM     91  C   UNL A   1      53.534  37.299  25.782  1.00  0.00     0.060 A 
BRANCH  91  92
ATOM     92  S   UNL A   1      54.459  38.848  25.684  1.00  0.00     0.124 S 
ATOM     93  O   UNL A   1      53.752  39.549  24.619  1.00  0.00    -0.237 OA
ATOM     94  O   UNL A   1      54.286  39.389  27.030  1.00  0.00    -0.237 OA
ATOM     95  O   UNL A   1      55.814  38.411  25.364  1.00  0.00    -0.744 OA
ENDBRANCH  91  92
ENDBRANCH  59  84
BRANCH  71  96
ATOM     96  C   UNL A   1      53.409  28.120  25.504  1.00  0.00     0.058 A 
ATOM     97  C   UNL A   1      53.828  27.777  24.208  1.00  0.00     0.135 A 
ATOM     98  C   UNL A   1      54.235  27.744  26.576  1.00  0.00     0.135 A 
ATOM     99  F   UNL A   1      53.079  28.113  23.145  1.00  0.00    -0.206 F 
ATOM    100  C   UNL A   1      54.992  27.047  23.988  1.00  0.00     0.059 A 
ATOM    101  C   UNL A   1      55.421  27.043  26.377  1.00  0.00     0.059 A 
ATOM    102  F   UNL A   1      53.896  28.061  27.836  1.00  0.00    -0.206 F 
ATOM    103  C   UNL A   1      55.779  26.678  25.080  1.00  0.00     0.060 A 
BRANCH 103 104
ATOM    104  S   UNL A   1      57.280  25.719  24.785  1.00  0.00     0.124 S 
ATOM    105  O   UNL A   1      58.174  26.253  25.807  1.00  0.00    -0.237 OA
ATOM    106  O   UNL A   1      56.823  24.349  24.997  1.00  0.00    -0.237 OA
ATOM    107  O   UNL A   1      57.631  26.051  23.407  1.00  0.00    -0.744 OA
ENDBRANCH 103 104
ENDBRANCH  71  96
ENDBRANCH  45  46
ENDBRANCH  38  40
ENDBRANCH  37  38
ENDBRANCH  36  37
ENDBRANCH  35  36
ENDBRANCH  34  35
ENDBRANCH  33  34
ENDBRANCH  32  33
ENDBRANCH  31  32
ENDBRANCH   1  31
TORSDOF 27
ENDMDL
MODEL 2
REMARK VINA RESULT:      -8.8      2.975      8.569
REMARK SMILES Cc1ccc(Cl)c(Nc2ccccc2C(=O)NCC(=O)OCCOCCOCCOCCOC(=O)c2ccc(-c3c4nc(c(-c5c(F)cc(S(=O)(=O)[O-])cc5F)c5ccc([nH]5)c(-c5c(F)cc(S(=O)(=O)[O-])cc5F)c5nc(c(-c6c(F)cc(S(=O)(=O)[O-])cc6F)c6ccc3[nH]6)C=C5)C=C4)cc2)c1Cl
REMARK SMILES IDX 26 1 25 2 24 3 23 4 22 5 21 6 19 7 20 8 18 9 17 10 15 11
REMARK SMILES IDX 16 12 14 14 9 15 10 16 11 17 13 18 12 19 8 20 7 22 1 23 2 24
REMARK SMILES IDX 3 25 102 26 4 27 103 28 5 29 6 30 27 31 28 32 29 33 30 34
REMARK SMILES IDX 31 35 32 36 33 37 34 38 35 39 36 40 37 41 101 42 38 43
REMARK SMILES IDX 100 44 39 45 40 46 41 47 94 48 42 49 99 50 93 51 95 52 43 53
REMARK SMILES IDX 98 54 92 55 91 56 44 58 78 59 57 60 77 61 58 62 61 63 76 64
REMARK SMILES IDX 96 65 59 66 60 67 75 69 97 70 62 71 45 72 46 73 55 74 47 75
REMARK SMILES IDX 48 76 54 77 56 78 49 79 50 80 51 81 52 82 53 83 79 84 80 85
REMARK SMILES IDX 89 86 81 87 82 88 88 89 90 90 83 91 84 92 85 93 86 94 87 95
REMARK SMILES IDX 63 96 64 97 73 98 65 99 66 100 72 101 74 102 67 103 68 104
REMARK SMILES IDX 69 105 70 106 71 107
REMARK H PARENT 17 13 8 21 95 57 61 68
REMARK Flexibility Score: inf
ROOT
ATOM      1  C   UNL A   1      35.713  34.244  30.543  1.00  0.00     0.188 C 
ENDROOT
BRANCH   1   2
ATOM      2  C   UNL A   1      35.267  34.164  29.071  1.00  0.00     0.188 C 
BRANCH   2   3
ATOM      3  O   UNL A   1      35.836  33.119  28.315  1.00  0.00    -0.376 OA
BRANCH   3   4
ATOM      4  C   UNL A   1      35.057  32.121  27.668  1.00  0.00     0.202 C 
BRANCH   4   5
ATOM      5  C   UNL A   1      33.682  31.615  28.129  1.00  0.00     0.261 C 
BRANCH   5   6
ATOM      6  O   UNL A   1      33.304  30.321  27.662  1.00  0.00    -0.462 OA
BRANCH   6   7
ATOM      7  C   UNL A   1      32.303  30.363  26.764  1.00  0.00     0.325 C 
ATOM      8  O   UNL A   1      31.646  31.369  26.492  1.00  0.00    -0.250 OA
BRANCH   7   9
ATOM      9  C   UNL A   1      32.113  29.119  25.939  1.00  0.00     0.239 C 
BRANCH   9  10
ATOM     10  N   UNL A   1      32.581  28.669  24.652  1.00  0.00    -0.341 N 
ATOM     11  C   UNL A   1      31.853  28.891  23.488  1.00  0.00     0.253 C 
ATOM     12  O   UNL A   1      32.403  28.861  22.390  1.00  0.00    -0.269 OA
ATOM     13  H   UNL A   1      33.438  28.189  24.597  1.00  0.00     0.164 HD
BRANCH  11  14
ATOM     14  C   UNL A   1      30.354  28.955  23.570  1.00  0.00     0.063 A 
ATOM     15  C   UNL A   1      29.443  27.877  23.435  1.00  0.00     0.051 A 
ATOM     16  C   UNL A   1      28.104  28.196  23.125  1.00  0.00     0.027 A 
ATOM     17  C   UNL A   1      27.663  29.518  23.025  1.00  0.00     0.002 A 
ATOM     18  C   UNL A   1      29.879  30.283  23.546  1.00  0.00     0.016 A 
ATOM     19  C   UNL A   1      28.542  30.562  23.278  1.00  0.00     0.001 A 
BRANCH  15  20
ATOM     20  N   UNL A   1      29.720  26.493  23.566  1.00  0.00    -0.352 N 
ATOM     21  H   UNL A   1      28.916  25.930  23.502  1.00  0.00     0.167 HD
BRANCH  20  22
ATOM     22  C   UNL A   1      30.908  25.748  23.769  1.00  0.00     0.077 A 
ATOM     23  C   UNL A   1      33.598  23.771  21.876  1.00  0.00     0.046 C 
ATOM     24  C   UNL A   1      32.751  24.329  22.986  1.00  0.00    -0.030 A 
ATOM     25  C   UNL A   1      32.977  23.889  24.298  1.00  0.00     0.006 A 
ATOM     26  C   UNL A   1      31.729  25.270  22.729  1.00  0.00     0.069 A 
ATOM     27  C   UNL A   1      32.251  24.429  25.353  1.00  0.00     0.023 A 
ATOM     28  Cl  UNL A   1      31.610  25.956  21.134  1.00  0.00    -0.082 Cl
ATOM     29  C   UNL A   1      31.250  25.365  25.091  1.00  0.00     0.066 A 
ATOM     30  Cl  UNL A   1      30.401  26.020  26.454  1.00  0.00    -0.082 Cl
ENDBRANCH  20  22
ENDBRANCH  15  20
ENDBRANCH  11  14
ENDBRANCH   9  10
ENDBRANCH   7   9
ENDBRANCH   6   7
ENDBRANCH   5   6
ENDBRANCH   4   5
ENDBRANCH   3   4
ENDBRANCH   2   3
ENDBRANCH   1   2
BRANCH   1  31
ATOM     31  O   UNL A   1      37.027  33.827  30.870  1.00  0.00    -0.377 OA
BRANCH  31  32
ATOM     32  C   UNL A   1      37.530  34.042  32.191  1.00  0.00     0.188 C 
BRANCH  32  33
ATOM     33  C   UNL A   1      37.954  32.869  33.107  1.00  0.00     0.188 C 
BRANCH  33  34
ATOM     34  O   UNL A   1      37.806  31.579  32.539  1.00  0.00    -0.376 OA
BRANCH  34  35
ATOM     35  C   UNL A   1      36.481  31.116  32.334  1.00  0.00     0.202 C 
BRANCH  35  36
ATOM     36  C   UNL A   1      36.243  30.308  31.049  1.00  0.00     0.261 C 
BRANCH  36  37
ATOM     37  O   UNL A   1      37.148  30.571  29.962  1.00  0.00    -0.460 OA
BRANCH  37  38
ATOM     38  C   UNL A   1      37.351  29.588  29.059  1.00  0.00     0.338 C 
ATOM     39  O   UNL A   1      36.499  28.922  28.494  1.00  0.00    -0.246 OA
BRANCH  38  40
ATOM     40  C   UNL A   1      38.784  29.595  28.694  1.00  0.00     0.060 A 
ATOM     41  C   UNL A   1      39.141  29.361  27.360  1.00  0.00     0.016 A 
ATOM     42  C   UNL A   1      39.767  29.835  29.657  1.00  0.00     0.016 A 
ATOM     43  C   UNL A   1      40.486  29.315  26.995  1.00  0.00     0.010 A 
ATOM     44  C   UNL A   1      41.115  29.765  29.295  1.00  0.00     0.010 A 
ATOM     45  C   UNL A   1      41.480  29.461  27.971  1.00  0.00    -0.014 A 
BRANCH  45  46
ATOM     46  C   UNL A   1      42.868  29.050  27.645  1.00  0.00     0.031 A 
ATOM     47  C   UNL A   1      43.948  30.096  27.709  1.00  0.00     0.074 A 
ATOM     48  C   UNL A   1      43.180  27.773  27.362  1.00  0.00     0.049 A 
ATOM     49  N   UNL A   1      45.233  29.983  27.495  1.00  0.00    -0.248 NA
ATOM     50  C   UNL A   1      43.516  31.458  28.063  1.00  0.00     0.031 C 
ATOM     51  C   UNL A   1      42.233  26.662  27.301  1.00  0.00     0.029 A 
ATOM     52  N   UNL A   1      44.393  27.200  27.068  1.00  0.00    -0.354 N 
ATOM     53  C   UNL A   1      45.762  31.252  27.694  1.00  0.00     0.074 A 
ATOM     54  C   UNL A   1      44.653  32.130  28.000  1.00  0.00     0.031 C 
ATOM     55  C   UNL A   1      42.899  25.540  26.976  1.00  0.00     0.029 A 
ATOM     56  C   UNL A   1      44.315  25.858  26.784  1.00  0.00     0.049 A 
ATOM     57  H   UNL A   1      45.239  27.703  27.062  1.00  0.00     0.167 HD
ATOM     58  C   UNL A   1      47.055  31.652  27.645  1.00  0.00     0.037 A 
ATOM     59  C   UNL A   1      45.273  24.992  26.398  1.00  0.00     0.037 A 
ATOM     60  C   UNL A   1      48.154  30.782  27.318  1.00  0.00     0.049 A 
ATOM     61  C   UNL A   1      46.699  25.468  26.283  1.00  0.00     0.074 A 
ATOM     62  C   UNL A   1      49.500  31.088  27.234  1.00  0.00     0.029 A 
ATOM     63  N   UNL A   1      48.031  29.434  27.008  1.00  0.00    -0.354 N 
ATOM     64  N   UNL A   1      47.190  26.667  26.494  1.00  0.00    -0.248 NA
ATOM     65  C   UNL A   1      47.703  24.469  25.891  1.00  0.00     0.031 C 
ATOM     66  C   UNL A   1      50.185  29.938  26.822  1.00  0.00     0.029 A 
ATOM     67  C   UNL A   1      49.275  28.899  26.711  1.00  0.00     0.049 A 
ATOM     68  H   UNL A   1      47.185  28.931  27.000  1.00  0.00     0.167 HD
ATOM     69  C   UNL A   1      48.564  26.560  26.285  1.00  0.00     0.074 A 
ATOM     70  C   UNL A   1      48.824  25.175  25.949  1.00  0.00     0.031 C 
ATOM     71  C   UNL A   1      49.521  27.520  26.366  1.00  0.00     0.037 A 
BRANCH  58  72
ATOM     72  C   UNL A   1      47.334  33.107  27.918  1.00  0.00     0.058 A 
ATOM     73  C   UNL A   1      47.635  33.573  29.210  1.00  0.00     0.135 A 
ATOM     74  C   UNL A   1      47.285  34.049  26.879  1.00  0.00     0.135 A 
ATOM     75  F   UNL A   1      47.674  32.720  30.246  1.00  0.00    -0.206 F 
ATOM     76  C   UNL A   1      47.832  34.926  29.467  1.00  0.00     0.059 A 
ATOM     77  C   UNL A   1      47.513  35.403  27.109  1.00  0.00     0.059 A 
ATOM     78  F   UNL A   1      47.000  33.661  25.626  1.00  0.00    -0.206 F 
ATOM     79  C   UNL A   1      47.765  35.834  28.410  1.00  0.00     0.060 A 
BRANCH  79  80
ATOM     80  S   UNL A   1      48.000  37.588  28.763  1.00  0.00     0.124 S 
ATOM     81  O   UNL A   1      49.253  37.860  28.064  1.00  0.00    -0.237 OA
ATOM     82  O   UNL A   1      46.804  38.188  28.176  1.00  0.00    -0.237 OA
ATOM     83  O   UNL A   1      48.071  37.638  30.219  1.00  0.00    -0.744 OA
ENDBRANCH  79  80
ENDBRANCH  58  72
BRANCH  59  84
ATOM     84  C   UNL A   1      44.909  23.583  26.086  1.00  0.00     0.058 A 
ATOM     85  C   UNL A   1      45.023  23.066  24.788  1.00  0.00     0.135 A 
ATOM     86  C   UNL A   1      44.456  22.717  27.096  1.00  0.00     0.135 A 
ATOM     87  F   UNL A   1      45.435  23.856  23.785  1.00  0.00    -0.206 F 
ATOM     88  C   UNL A   1      44.702  21.742  24.499  1.00  0.00     0.059 A 
ATOM     89  C   UNL A   1      44.156  21.383  26.837  1.00  0.00     0.059 A 
ATOM     90  F   UNL A   1      44.333  23.160  28.356  1.00  0.00    -0.206 F 
ATOM     91  C   UNL A   1      44.280  20.905  25.533  1.00  0.00     0.060 A 
BRANCH  91  92
ATOM     92  S   UNL A   1      43.951  19.168  25.164  1.00  0.00     0.124 S 
ATOM     93  O   UNL A   1      43.634  19.223  23.741  1.00  0.00    -0.237 OA
ATOM     94  O   UNL A   1      45.221  18.538  25.512  1.00  0.00    -0.237 OA
ATOM     95  O   UNL A   1      42.836  18.842  26.048  1.00  0.00    -0.744 OA
ENDBRANCH  91  92
ENDBRANCH  59  84
BRANCH  71  96
ATOM     96  C   UNL A   1      50.947  27.096  26.120  1.00  0.00     0.058 A 
ATOM     97  C   UNL A   1      51.786  26.664  27.160  1.00  0.00     0.135 A 
ATOM     98  C   UNL A   1      51.475  27.104  24.818  1.00  0.00     0.135 A 
ATOM     99  F   UNL A   1      51.334  26.635  28.424  1.00  0.00    -0.206 F 
ATOM    100  C   UNL A   1      53.109  26.303  26.927  1.00  0.00     0.059 A 
ATOM    101  C   UNL A   1      52.786  26.714  24.556  1.00  0.00     0.059 A 
ATOM    102  F   UNL A   1      50.715  27.490  23.780  1.00  0.00    -0.206 F 
ATOM    103  C   UNL A   1      53.603  26.337  25.621  1.00  0.00     0.060 A 
BRANCH 103 104
ATOM    104  S   UNL A   1      55.325  25.879  25.331  1.00  0.00     0.124 S 
ATOM    105  O   UNL A   1      55.239  24.423  25.303  1.00  0.00    -0.237 OA
ATOM    106  O   UNL A   1      55.608  26.522  24.051  1.00  0.00    -0.237 OA
ATOM    107  O   UNL A   1      56.026  26.445  26.480  1.00  0.00    -0.744 OA
ENDBRANCH 103 104
ENDBRANCH  71  96
ENDBRANCH  45  46
ENDBRANCH  38  40
ENDBRANCH  37  38
ENDBRANCH  36  37
ENDBRANCH  35  36
ENDBRANCH  34  35
ENDBRANCH  33  34
ENDBRANCH  32  33
ENDBRANCH  31  32
ENDBRANCH   1  31
TORSDOF 27
ENDMDL
MODEL 3
REMARK VINA RESULT:      -8.8      9.613     17.641
REMARK SMILES Cc1ccc(Cl)c(Nc2ccccc2C(=O)NCC(=O)OCCOCCOCCOCCOC(=O)c2ccc(-c3c4nc(c(-c5c(F)cc(S(=O)(=O)[O-])cc5F)c5ccc([nH]5)c(-c5c(F)cc(S(=O)(=O)[O-])cc5F)c5nc(c(-c6c(F)cc(S(=O)(=O)[O-])cc6F)c6ccc3[nH]6)C=C5)C=C4)cc2)c1Cl
REMARK SMILES IDX 26 1 25 2 24 3 23 4 22 5 21 6 19 7 20 8 18 9 17 10 15 11
REMARK SMILES IDX 16 12 14 14 9 15 10 16 11 17 13 18 12 19 8 20 7 22 1 23 2 24
REMARK SMILES IDX 3 25 102 26 4 27 103 28 5 29 6 30 27 31 28 32 29 33 30 34
REMARK SMILES IDX 31 35 32 36 33 37 34 38 35 39 36 40 37 41 101 42 38 43
REMARK SMILES IDX 100 44 39 45 40 46 41 47 94 48 42 49 99 50 93 51 95 52 43 53
REMARK SMILES IDX 98 54 92 55 91 56 44 58 78 59 57 60 77 61 58 62 61 63 76 64
REMARK SMILES IDX 96 65 59 66 60 67 75 69 97 70 62 71 45 72 46 73 55 74 47 75
REMARK SMILES IDX 48 76 54 77 56 78 49 79 50 80 51 81 52 82 53 83 79 84 80 85
REMARK SMILES IDX 89 86 81 87 82 88 88 89 90 90 83 91 84 92 85 93 86 94 87 95
REMARK SMILES IDX 63 96 64 97 73 98 65 99 66 100 72 101 74 102 67 103 68 104
REMARK SMILES IDX 69 105 70 106 71 107
REMARK H PARENT 17 13 8 21 95 57 61 68
REMARK Flexibility Score: inf
ROOT
ATOM      1  C   UNL A   1      44.515  24.429  32.730  1.00  0.00     0.188 C 
ENDROOT
BRANCH   1   2
ATOM      2  C   UNL A   1      45.487  23.464  33.433  1.00  0.00     0.188 C 
BRANCH   2   3
ATOM      3  O   UNL A   1      44.981  22.177  33.710  1.00  0.00    -0.376 OA
BRANCH   3   4
ATOM      4  C   UNL A   1      45.402  21.406  34.827  1.00  0.00     0.202 C 
BRANCH   4   5
ATOM      5  C   UNL A   1      44.823  20.048  35.252  1.00  0.00     0.261 C 
BRANCH   5   6
ATOM      6  O   UNL A   1      45.768  19.077  35.695  1.00  0.00    -0.462 OA
BRANCH   6   7
ATOM      7  C   UNL A   1      45.932  19.081  37.032  1.00  0.00     0.325 C 
ATOM      8  O   UNL A   1      45.195  18.500  37.829  1.00  0.00    -0.250 OA
BRANCH   7   9
ATOM      9  C   UNL A   1      47.203  19.709  37.532  1.00  0.00     0.239 C 
BRANCH   9  10
ATOM     10  N   UNL A   1      47.542  20.959  38.166  1.00  0.00    -0.341 N 
ATOM     11  C   UNL A   1      48.855  21.416  38.232  1.00  0.00     0.253 C 
ATOM     12  O   UNL A   1      49.095  22.607  38.412  1.00  0.00    -0.269 OA
ATOM     13  H   UNL A   1      46.825  21.502  38.564  1.00  0.00     0.164 HD
BRANCH  11  14
ATOM     14  C   UNL A   1      49.971  20.412  38.295  1.00  0.00     0.063 A 
ATOM     15  C   UNL A   1      50.559  19.718  37.208  1.00  0.00     0.051 A 
ATOM     16  C   UNL A   1      51.275  18.539  37.504  1.00  0.00     0.027 A 
ATOM     17  C   UNL A   1      51.467  18.100  38.816  1.00  0.00     0.002 A 
ATOM     18  C   UNL A   1      50.239  20.002  39.617  1.00  0.00     0.016 A 
ATOM     19  C   UNL A   1      50.985  18.856  39.876  1.00  0.00     0.001 A 
BRANCH  15  20
ATOM     20  N   UNL A   1      50.508  20.066  35.834  1.00  0.00    -0.352 N 
ATOM     21  H   UNL A   1      49.881  19.510  35.317  1.00  0.00     0.167 HD
BRANCH  20  22
ATOM     22  C   UNL A   1      51.165  21.045  35.048  1.00  0.00     0.077 A 
ATOM     23  C   UNL A   1      50.475  24.037  32.745  1.00  0.00     0.046 C 
ATOM     24  C   UNL A   1      51.178  22.914  33.458  1.00  0.00    -0.030 A 
ATOM     25  C   UNL A   1      52.516  22.640  33.139  1.00  0.00     0.006 A 
ATOM     26  C   UNL A   1      50.513  22.126  34.424  1.00  0.00     0.069 A 
ATOM     27  C   UNL A   1      53.209  21.647  33.820  1.00  0.00     0.023 A 
ATOM     28  Cl  UNL A   1      48.929  22.617  34.952  1.00  0.00    -0.082 Cl
ATOM     29  C   UNL A   1      52.547  20.881  34.780  1.00  0.00     0.066 A 
ATOM     30  Cl  UNL A   1      53.478  19.679  35.614  1.00  0.00    -0.082 Cl
ENDBRANCH  20  22
ENDBRANCH  15  20
ENDBRANCH  11  14
ENDBRANCH   9  10
ENDBRANCH   7   9
ENDBRANCH   6   7
ENDBRANCH   5   6
ENDBRANCH   4   5
ENDBRANCH   3   4
ENDBRANCH   2   3
ENDBRANCH   1   2
BRANCH   1  31
ATOM     31  O   UNL A   1      44.356  24.318  31.327  1.00  0.00    -0.377 OA
BRANCH  31  32
ATOM     32  C   UNL A   1      45.383  24.799  30.457  1.00  0.00     0.188 C 
BRANCH  32  33
ATOM     33  C   UNL A   1      45.074  25.325  29.036  1.00  0.00     0.188 C 
BRANCH  33  34
ATOM     34  O   UNL A   1      45.123  24.349  28.010  1.00  0.00    -0.376 OA
BRANCH  34  35
ATOM     35  C   UNL A   1      43.922  23.643  27.737  1.00  0.00     0.202 C 
BRANCH  35  36
ATOM     36  C   UNL A   1      43.318  23.861  26.342  1.00  0.00     0.261 C 
BRANCH  36  37
ATOM     37  O   UNL A   1      41.925  24.220  26.306  1.00  0.00    -0.460 OA
BRANCH  37  38
ATOM     38  C   UNL A   1      41.610  25.499  26.013  1.00  0.00     0.338 C 
ATOM     39  O   UNL A   1      41.193  25.928  24.950  1.00  0.00    -0.246 OA
BRANCH  38  40
ATOM     40  C   UNL A   1      41.644  26.275  27.271  1.00  0.00     0.060 A 
ATOM     41  C   UNL A   1      40.833  25.866  28.338  1.00  0.00     0.016 A 
ATOM     42  C   UNL A   1      42.472  27.393  27.401  1.00  0.00     0.016 A 
ATOM     43  C   UNL A   1      40.809  26.605  29.521  1.00  0.00     0.010 A 
ATOM     44  C   UNL A   1      42.429  28.147  28.578  1.00  0.00     0.010 A 
ATOM     45  C   UNL A   1      41.564  27.781  29.625  1.00  0.00    -0.014 A 
BRANCH  45  46
ATOM     46  C   UNL A   1      41.253  28.736  30.717  1.00  0.00     0.031 A 
ATOM     47  C   UNL A   1      42.110  28.698  31.954  1.00  0.00     0.074 A 
ATOM     48  C   UNL A   1      40.279  29.656  30.598  1.00  0.00     0.049 A 
ATOM     49  N   UNL A   1      42.057  29.441  33.029  1.00  0.00    -0.248 NA
ATOM     50  C   UNL A   1      43.174  27.681  31.979  1.00  0.00     0.031 C 
ATOM     51  C   UNL A   1      39.403  29.817  29.440  1.00  0.00     0.029 A 
ATOM     52  N   UNL A   1      39.867  30.630  31.472  1.00  0.00    -0.354 N 
ATOM     53  C   UNL A   1      43.080  28.986  33.853  1.00  0.00     0.074 A 
ATOM     54  C   UNL A   1      43.707  27.873  33.174  1.00  0.00     0.031 C 
ATOM     55  C   UNL A   1      38.545  30.824  29.681  1.00  0.00     0.029 A 
ATOM     56  C   UNL A   1      38.797  31.363  31.018  1.00  0.00     0.049 A 
ATOM     57  H   UNL A   1      40.298  30.789  32.344  1.00  0.00     0.167 HD
ATOM     58  C   UNL A   1      43.475  29.460  35.058  1.00  0.00     0.037 A 
ATOM     59  C   UNL A   1      38.094  32.343  31.619  1.00  0.00     0.037 A 
ATOM     60  C   UNL A   1      42.836  30.553  35.742  1.00  0.00     0.049 A 
ATOM     61  C   UNL A   1      38.506  32.816  32.991  1.00  0.00     0.074 A 
ATOM     62  C   UNL A   1      43.153  31.107  36.969  1.00  0.00     0.029 A 
ATOM     63  N   UNL A   1      41.736  31.252  35.262  1.00  0.00    -0.354 N 
ATOM     64  N   UNL A   1      39.489  32.392  33.751  1.00  0.00    -0.248 NA
ATOM     65  C   UNL A   1      37.722  33.911  33.579  1.00  0.00     0.031 C 
ATOM     66  C   UNL A   1      42.213  32.105  37.255  1.00  0.00     0.029 A 
ATOM     67  C   UNL A   1      41.349  32.217  36.178  1.00  0.00     0.049 A 
ATOM     68  H   UNL A   1      41.295  31.086  34.397  1.00  0.00     0.167 HD
ATOM     69  C   UNL A   1      39.456  33.184  34.897  1.00  0.00     0.074 A 
ATOM     70  C   UNL A   1      38.367  34.124  34.718  1.00  0.00     0.031 C 
ATOM     71  C   UNL A   1      40.255  33.140  35.994  1.00  0.00     0.037 A 
BRANCH  58  72
ATOM     72  C   UNL A   1      44.636  28.766  35.721  1.00  0.00     0.058 A 
ATOM     73  C   UNL A   1      44.450  27.671  36.583  1.00  0.00     0.135 A 
ATOM     74  C   UNL A   1      45.950  29.210  35.504  1.00  0.00     0.135 A 
ATOM     75  F   UNL A   1      43.214  27.217  36.844  1.00  0.00    -0.206 F 
ATOM     76  C   UNL A   1      45.520  27.072  37.239  1.00  0.00     0.059 A 
ATOM     77  C   UNL A   1      47.038  28.604  36.124  1.00  0.00     0.059 A 
ATOM     78  F   UNL A   1      46.186  30.253  34.693  1.00  0.00    -0.206 F 
ATOM     79  C   UNL A   1      46.811  27.549  37.007  1.00  0.00     0.060 A 
BRANCH  79  80
ATOM     80  S   UNL A   1      48.187  26.777  37.883  1.00  0.00     0.124 S 
ATOM     81  O   UNL A   1      47.577  26.476  39.175  1.00  0.00    -0.237 OA
ATOM     82  O   UNL A   1      48.485  25.622  37.040  1.00  0.00    -0.237 OA
ATOM     83  O   UNL A   1      49.209  27.818  37.899  1.00  0.00    -0.744 OA
ENDBRANCH  79  80
ENDBRANCH  58  72
BRANCH  59  84
ATOM     84  C   UNL A   1      36.921  32.940  30.925  1.00  0.00     0.058 A 
ATOM     85  C   UNL A   1      35.609  32.558  31.240  1.00  0.00     0.135 A 
ATOM     86  C   UNL A   1      37.094  33.925  29.939  1.00  0.00     0.135 A 
ATOM     87  F   UNL A   1      35.390  31.609  32.163  1.00  0.00    -0.206 F 
ATOM     88  C   UNL A   1      34.510  33.130  30.606  1.00  0.00     0.059 A 
ATOM     89  C   UNL A   1      36.011  34.531  29.310  1.00  0.00     0.059 A 
ATOM     90  F   UNL A   1      38.328  34.330  29.602  1.00  0.00    -0.206 F 
ATOM     91  C   UNL A   1      34.721  34.124  29.649  1.00  0.00     0.060 A 
BRANCH  91  92
ATOM     92  S   UNL A   1      33.286  34.921  28.896  1.00  0.00     0.124 S 
ATOM     93  O   UNL A   1      32.429  35.145  30.054  1.00  0.00    -0.237 OA
ATOM     94  O   UNL A   1      33.880  36.114  28.300  1.00  0.00    -0.237 OA
ATOM     95  O   UNL A   1      32.811  33.925  27.940  1.00  0.00    -0.744 OA
ENDBRANCH  91  92
ENDBRANCH  59  84
BRANCH  71  96
ATOM     96  C   UNL A   1      40.003  34.161  37.075  1.00  0.00     0.058 A 
ATOM     97  C   UNL A   1      39.103  33.925  38.127  1.00  0.00     0.135 A 
ATOM     98  C   UNL A   1      40.688  35.388  37.067  1.00  0.00     0.135 A 
ATOM     99  F   UNL A   1      38.421  32.769  38.186  1.00  0.00    -0.206 F 
ATOM    100  C   UNL A   1      38.855  34.885  39.103  1.00  0.00     0.059 A 
ATOM    101  C   UNL A   1      40.481  36.349  38.052  1.00  0.00     0.059 A 
ATOM    102  F   UNL A   1      41.574  35.663  36.096  1.00  0.00    -0.206 F 
ATOM    103  C   UNL A   1      39.545  36.098  39.054  1.00  0.00     0.060 A 
BRANCH 103 104
ATOM    104  S   UNL A   1      39.206  37.342  40.317  1.00  0.00     0.124 S 
ATOM    105  O   UNL A   1      40.555  37.708  40.736  1.00  0.00    -0.237 OA
ATOM    106  O   UNL A   1      38.477  38.360  39.567  1.00  0.00    -0.237 OA
ATOM    107  O   UNL A   1      38.416  36.616  41.308  1.00  0.00    -0.744 OA
ENDBRANCH 103 104
ENDBRANCH  71  96
ENDBRANCH  45  46
ENDBRANCH  38  40
ENDBRANCH  37  38
ENDBRANCH  36  37
ENDBRANCH  35  36
ENDBRANCH  34  35
ENDBRANCH  33  34
ENDBRANCH  32  33
ENDBRANCH  31  32
ENDBRANCH   1  31
TORSDOF 27
ENDMDL
