MODEL 1
REMARK VINA RESULT:      -7.4      0.000      0.000
REMARK SMILES CC(=O)NNC(=O)C[NH2+][C@@](C)(C(=O)OCCOCCOCCOCCOC(=O)c1ccc(-c2c3nc(c(-c4c(F)cc(S(=O)(=O)[O-])cc4F)c4ccc([nH]4)c(-c4c(F)cc(S(=O)(=O)[O-])cc4F)c4nc(c(-c5c(F)cc(S(=O)(=O)[O-])cc5F)c5ccc2[nH]5)C=C4)C=C3)cc1)C(F)(F)F
REMARK SMILES IDX 19 1 18 2 17 3 16 4 15 5 14 6 12 7 13 8 10 9 11 10 9 11 8 14
REMARK SMILES IDX 6 15 5 16 7 18 4 19 1 20 2 21 3 22 95 24 96 25 97 26 98 27
REMARK SMILES IDX 20 28 21 29 22 30 23 31 24 32 25 33 26 34 27 35 28 36 29 37
REMARK SMILES IDX 30 38 94 39 31 40 93 41 32 42 33 43 34 44 87 45 35 46 92 47
REMARK SMILES IDX 86 48 88 49 36 50 91 51 85 52 84 53 37 55 71 56 50 57 70 58
REMARK SMILES IDX 51 59 54 60 69 61 89 62 52 63 53 64 68 66 90 67 55 68 38 69
REMARK SMILES IDX 39 70 48 71 40 72 41 73 47 74 49 75 42 76 43 77 44 78 45 79
REMARK SMILES IDX 46 80 72 81 73 82 82 83 74 84 75 85 81 86 83 87 76 88 77 89
REMARK SMILES IDX 78 90 79 91 80 92 56 93 57 94 66 95 58 96 59 97 65 98 67 99
REMARK SMILES IDX 60 100 61 101 62 102 63 103 64 104
REMARK H PARENT 9 12 9 13 5 17 4 23 88 54 54 65
REMARK Flexibility Score: inf
ROOT
ATOM      1  C   UNL A   1      52.684  22.267  42.113  1.00  0.00     0.188 C 
ENDROOT
BRANCH   1   2
ATOM      2  C   UNL A   1      51.639  21.227  42.546  1.00  0.00     0.188 C 
BRANCH   2   3
ATOM      3  O   UNL A   1      51.811  20.467  43.732  1.00  0.00    -0.376 OA
BRANCH   3   4
ATOM      4  C   UNL A   1      51.144  19.228  43.925  1.00  0.00     0.202 C 
BRANCH   4   5
ATOM      5  C   UNL A   1      49.942  19.031  44.872  1.00  0.00     0.261 C 
BRANCH   5   6
ATOM      6  O   UNL A   1      49.009  17.987  44.555  1.00  0.00    -0.458 OA
BRANCH   6   7
ATOM      7  C   UNL A   1      47.966  18.337  43.760  1.00  0.00     0.377 C 
ATOM      8  O   UNL A   1      48.044  19.229  42.921  1.00  0.00    -0.244 OA
BRANCH   7   9
ATOM      9  C   UNL A   1      46.662  17.563  44.053  1.00  0.00     0.287 C 
ATOM     10  C   UNL A   1      47.116  16.268  44.738  1.00  0.00     0.103 C 
BRANCH   9  11
ATOM     11  N   UNL A   1      45.881  17.213  42.796  1.00  0.00    -0.317 N 
ATOM     12  H   UNL A   1      45.146  17.910  42.675  1.00  0.00     0.347 HD
ATOM     13  H   UNL A   1      46.556  17.204  42.032  1.00  0.00     0.347 HD
BRANCH  11  14
ATOM     14  C   UNL A   1      45.253  15.880  42.813  1.00  0.00     0.364 C 
BRANCH  14  15
ATOM     15  C   UNL A   1      43.767  15.965  43.186  1.00  0.00     0.293 C 
ATOM     16  N   UNL A   1      42.825  16.232  42.219  1.00  0.00    -0.263 N 
ATOM     17  H   UNL A   1      41.898  16.375  42.520  1.00  0.00     0.191 HD
ATOM     18  O   UNL A   1      43.398  15.822  44.354  1.00  0.00    -0.267 OA
BRANCH  16  19
ATOM     19  N   UNL A   1      43.071  16.317  40.851  1.00  0.00    -0.268 N 
ATOM     20  C   UNL A   1      41.904  14.175  40.422  1.00  0.00     0.116 C 
ATOM     21  C   UNL A   1      42.699  15.360  39.938  1.00  0.00     0.235 C 
ATOM     22  O   UNL A   1      43.021  15.475  38.756  1.00  0.00    -0.274 OA
ATOM     23  H   UNL A   1      43.543  17.114  40.517  1.00  0.00     0.191 HD
ENDBRANCH  16  19
ENDBRANCH  14  15
ENDBRANCH  11  14
ENDBRANCH   9  11
BRANCH   9  24
ATOM     24  C   UNL A   1      45.899  18.480  45.045  1.00  0.00     0.455 C 
ATOM     25  F   UNL A   1      45.857  17.937  46.289  1.00  0.00    -0.164 F 
ATOM     26  F   UNL A   1      46.549  19.669  45.183  1.00  0.00    -0.164 F 
ATOM     27  F   UNL A   1      44.639  18.790  44.688  1.00  0.00    -0.164 F 
ENDBRANCH   9  24
ENDBRANCH   7   9
ENDBRANCH   6   7
ENDBRANCH   5   6
ENDBRANCH   4   5
ENDBRANCH   3   4
ENDBRANCH   2   3
ENDBRANCH   1   2
BRANCH   1  28
ATOM     28  O   UNL A   1      52.205  23.595  42.077  1.00  0.00    -0.377 OA
BRANCH  28  29
ATOM     29  C   UNL A   1      51.601  24.024  40.864  1.00  0.00     0.188 C 
BRANCH  29  30
ATOM     30  C   UNL A   1      50.190  23.501  40.523  1.00  0.00     0.188 C 
BRANCH  30  31
ATOM     31  O   UNL A   1      49.877  23.514  39.137  1.00  0.00    -0.376 OA
BRANCH  31  32
ATOM     32  C   UNL A   1      48.515  23.552  38.736  1.00  0.00     0.202 C 
BRANCH  32  33
ATOM     33  C   UNL A   1      48.185  24.117  37.345  1.00  0.00     0.261 C 
BRANCH  33  34
ATOM     34  O   UNL A   1      47.126  25.082  37.267  1.00  0.00    -0.460 OA
BRANCH  34  35
ATOM     35  C   UNL A   1      47.411  26.361  37.586  1.00  0.00     0.338 C 
ATOM     36  O   UNL A   1      48.458  26.786  38.045  1.00  0.00    -0.246 OA
BRANCH  35  37
ATOM     37  C   UNL A   1      46.306  27.203  37.082  1.00  0.00     0.060 A 
ATOM     38  C   UNL A   1      44.991  26.735  37.202  1.00  0.00     0.016 A 
ATOM     39  C   UNL A   1      46.561  28.451  36.508  1.00  0.00     0.016 A 
ATOM     40  C   UNL A   1      43.931  27.493  36.707  1.00  0.00     0.010 A 
ATOM     41  C   UNL A   1      45.501  29.200  35.991  1.00  0.00     0.010 A 
ATOM     42  C   UNL A   1      44.187  28.704  36.051  1.00  0.00    -0.014 A 
BRANCH  42  43
ATOM     43  C   UNL A   1      43.118  29.335  35.239  1.00  0.00     0.031 A 
ATOM     44  C   UNL A   1      42.312  30.438  35.869  1.00  0.00     0.074 A 
ATOM     45  C   UNL A   1      42.886  28.962  33.968  1.00  0.00     0.049 A 
ATOM     46  N   UNL A   1      41.297  31.106  35.388  1.00  0.00    -0.248 NA
ATOM     47  C   UNL A   1      42.704  30.840  37.232  1.00  0.00     0.031 C 
ATOM     48  C   UNL A   1      43.630  27.938  33.238  1.00  0.00     0.029 A 
ATOM     49  N   UNL A   1      41.946  29.401  33.070  1.00  0.00    -0.354 N 
ATOM     50  C   UNL A   1      40.926  32.000  36.386  1.00  0.00     0.074 A 
ATOM     51  C   UNL A   1      41.800  31.765  37.514  1.00  0.00     0.031 C 
ATOM     52  C   UNL A   1      43.104  27.814  32.006  1.00  0.00     0.029 A 
ATOM     53  C   UNL A   1      41.967  28.724  31.874  1.00  0.00     0.049 A 
ATOM     54  H   UNL A   1      41.315  30.132  33.264  1.00  0.00     0.167 HD
ATOM     55  C   UNL A   1      39.952  32.941  36.361  1.00  0.00     0.037 A 
ATOM     56  C   UNL A   1      41.145  28.812  30.808  1.00  0.00     0.037 A 
ATOM     57  C   UNL A   1      39.083  33.163  35.235  1.00  0.00     0.049 A 
ATOM     58  C   UNL A   1      40.017  29.814  30.830  1.00  0.00     0.074 A 
ATOM     59  C   UNL A   1      38.069  34.095  35.104  1.00  0.00     0.029 A 
ATOM     60  N   UNL A   1      39.120  32.441  34.051  1.00  0.00    -0.354 N 
ATOM     61  N   UNL A   1      39.686  30.667  31.772  1.00  0.00    -0.248 NA
ATOM     62  C   UNL A   1      39.152  29.871  29.643  1.00  0.00     0.031 C 
ATOM     63  C   UNL A   1      37.455  33.897  33.864  1.00  0.00     0.029 A 
ATOM     64  C   UNL A   1      38.129  32.889  33.194  1.00  0.00     0.049 A 
ATOM     65  H   UNL A   1      39.757  31.719  33.850  1.00  0.00     0.167 HD
ATOM     66  C   UNL A   1      38.598  31.381  31.279  1.00  0.00     0.074 A 
ATOM     67  C   UNL A   1      38.334  30.867  29.951  1.00  0.00     0.031 C 
ATOM     68  C   UNL A   1      37.884  32.372  31.869  1.00  0.00     0.037 A 
BRANCH  55  69
ATOM     69  C   UNL A   1      39.759  33.776  37.596  1.00  0.00     0.058 A 
ATOM     70  C   UNL A   1      40.477  34.964  37.810  1.00  0.00     0.135 A 
ATOM     71  C   UNL A   1      38.821  33.397  38.571  1.00  0.00     0.135 A 
ATOM     72  F   UNL A   1      41.402  35.363  36.922  1.00  0.00    -0.206 F 
ATOM     73  C   UNL A   1      40.292  35.732  38.954  1.00  0.00     0.059 A 
ATOM     74  C   UNL A   1      38.595  34.166  39.708  1.00  0.00     0.059 A 
ATOM     75  F   UNL A   1      38.110  32.268  38.422  1.00  0.00    -0.206 F 
ATOM     76  C   UNL A   1      39.346  35.326  39.898  1.00  0.00     0.060 A 
BRANCH  76  77
ATOM     77  S   UNL A   1      39.111  36.338  41.373  1.00  0.00     0.124 S 
ATOM     78  O   UNL A   1      38.847  37.649  40.788  1.00  0.00    -0.237 OA
ATOM     79  O   UNL A   1      37.970  35.690  42.015  1.00  0.00    -0.237 OA
ATOM     80  O   UNL A   1      40.381  36.211  42.081  1.00  0.00    -0.744 OA
ENDBRANCH  76  77
ENDBRANCH  55  69
BRANCH  56  81
ATOM     81  C   UNL A   1      41.343  27.913  29.639  1.00  0.00     0.058 A 
ATOM     82  C   UNL A   1      40.415  26.910  29.323  1.00  0.00     0.135 A 
ATOM     83  C   UNL A   1      42.472  28.038  28.813  1.00  0.00     0.135 A 
ATOM     84  F   UNL A   1      39.326  26.738  30.089  1.00  0.00    -0.206 F 
ATOM     85  C   UNL A   1      40.602  26.055  28.241  1.00  0.00     0.059 A 
ATOM     86  C   UNL A   1      42.667  27.216  27.708  1.00  0.00     0.059 A 
ATOM     87  F   UNL A   1      43.388  28.986  29.065  1.00  0.00    -0.206 F 
ATOM     88  C   UNL A   1      41.731  26.220  27.435  1.00  0.00     0.060 A 
BRANCH  88  89
ATOM     89  S   UNL A   1      41.937  25.140  26.002  1.00  0.00     0.124 S 
ATOM     90  O   UNL A   1      43.388  25.021  25.929  1.00  0.00    -0.237 OA
ATOM     91  O   UNL A   1      41.216  23.941  26.417  1.00  0.00    -0.237 OA
ATOM     92  O   UNL A   1      41.310  25.895  24.921  1.00  0.00    -0.744 OA
ENDBRANCH  88  89
ENDBRANCH  56  81
BRANCH  68  93
ATOM     93  C   UNL A   1      36.774  33.004  31.072  1.00  0.00     0.058 A 
ATOM     94  C   UNL A   1      35.427  32.669  31.277  1.00  0.00     0.135 A 
ATOM     95  C   UNL A   1      37.060  34.007  30.130  1.00  0.00     0.135 A 
ATOM     96  F   UNL A   1      35.095  31.716  32.162  1.00  0.00    -0.206 F 
ATOM     97  C   UNL A   1      34.406  33.286  30.559  1.00  0.00     0.059 A 
ATOM     98  C   UNL A   1      36.055  34.660  29.424  1.00  0.00     0.059 A 
ATOM     99  F   UNL A   1      38.331  34.377  29.902  1.00  0.00    -0.206 F 
ATOM    100  C   UNL A   1      34.730  34.283  29.637  1.00  0.00     0.060 A 
BRANCH 100 101
ATOM    101  S   UNL A   1      33.393  35.098  28.738  1.00  0.00     0.124 S 
ATOM    102  O   UNL A   1      34.126  36.090  27.958  1.00  0.00    -0.237 OA
ATOM    103  O   UNL A   1      32.813  33.996  27.978  1.00  0.00    -0.237 OA
ATOM    104  O   UNL A   1      32.547  35.636  29.799  1.00  0.00    -0.744 OA
ENDBRANCH 100 101
ENDBRANCH  68  93
ENDBRANCH  42  43
ENDBRANCH  35  37
ENDBRANCH  34  35
ENDBRANCH  33  34
ENDBRANCH  32  33
ENDBRANCH  31  32
ENDBRANCH  30  31
ENDBRANCH  29  30
ENDBRANCH  28  29
ENDBRANCH   1  28
TORSDOF 28
ENDMDL
MODEL 2
REMARK VINA RESULT:      -7.3      4.446      5.286
REMARK SMILES CC(=O)NNC(=O)C[NH2+][C@@](C)(C(=O)OCCOCCOCCOCCOC(=O)c1ccc(-c2c3nc(c(-c4c(F)cc(S(=O)(=O)[O-])cc4F)c4ccc([nH]4)c(-c4c(F)cc(S(=O)(=O)[O-])cc4F)c4nc(c(-c5c(F)cc(S(=O)(=O)[O-])cc5F)c5ccc2[nH]5)C=C4)C=C3)cc1)C(F)(F)F
REMARK SMILES IDX 19 1 18 2 17 3 16 4 15 5 14 6 12 7 13 8 10 9 11 10 9 11 8 14
REMARK SMILES IDX 6 15 5 16 7 18 4 19 1 20 2 21 3 22 95 24 96 25 97 26 98 27
REMARK SMILES IDX 20 28 21 29 22 30 23 31 24 32 25 33 26 34 27 35 28 36 29 37
REMARK SMILES IDX 30 38 94 39 31 40 93 41 32 42 33 43 34 44 87 45 35 46 92 47
REMARK SMILES IDX 86 48 88 49 36 50 91 51 85 52 84 53 37 55 71 56 50 57 70 58
REMARK SMILES IDX 51 59 54 60 69 61 89 62 52 63 53 64 68 66 90 67 55 68 38 69
REMARK SMILES IDX 39 70 48 71 40 72 41 73 47 74 49 75 42 76 43 77 44 78 45 79
REMARK SMILES IDX 46 80 72 81 73 82 82 83 74 84 75 85 81 86 83 87 76 88 77 89
REMARK SMILES IDX 78 90 79 91 80 92 56 93 57 94 66 95 58 96 59 97 65 98 67 99
REMARK SMILES IDX 60 100 61 101 62 102 63 103 64 104
REMARK H PARENT 9 12 9 13 5 17 4 23 88 54 54 65
REMARK Flexibility Score: inf
ROOT
ATOM      1  C   UNL A   1      49.459  24.835  39.119  1.00  0.00     0.188 C 
ENDROOT
BRANCH   1   2
ATOM      2  C   UNL A   1      50.681  25.057  38.214  1.00  0.00     0.188 C 
BRANCH   2   3
ATOM      3  O   UNL A   1      50.807  24.376  36.975  1.00  0.00    -0.376 OA
BRANCH   3   4
ATOM      4  C   UNL A   1      50.297  23.065  36.791  1.00  0.00     0.202 C 
BRANCH   4   5
ATOM      5  C   UNL A   1      48.798  22.733  36.634  1.00  0.00     0.261 C 
BRANCH   5   6
ATOM      6  O   UNL A   1      48.138  23.186  35.442  1.00  0.00    -0.458 OA
BRANCH   6   7
ATOM      7  C   UNL A   1      47.188  24.141  35.610  1.00  0.00     0.377 C 
ATOM      8  O   UNL A   1      47.432  25.238  36.102  1.00  0.00    -0.244 OA
BRANCH   7   9
ATOM      9  C   UNL A   1      45.769  23.698  35.191  1.00  0.00     0.287 C 
ATOM     10  C   UNL A   1      44.915  23.861  36.454  1.00  0.00     0.103 C 
BRANCH   9  11
ATOM     11  N   UNL A   1      45.707  22.249  34.733  1.00  0.00    -0.317 N 
ATOM     12  H   UNL A   1      44.961  22.166  34.042  1.00  0.00     0.347 HD
ATOM     13  H   UNL A   1      46.629  22.027  34.357  1.00  0.00     0.347 HD
BRANCH  11  14
ATOM     14  C   UNL A   1      45.451  21.274  35.807  1.00  0.00     0.364 C 
BRANCH  14  15
ATOM     15  C   UNL A   1      45.517  19.832  35.284  1.00  0.00     0.293 C 
ATOM     16  N   UNL A   1      46.726  19.279  34.930  1.00  0.00    -0.263 N 
ATOM     17  H   UNL A   1      46.709  18.390  34.508  1.00  0.00     0.191 HD
ATOM     18  O   UNL A   1      44.493  19.160  35.150  1.00  0.00    -0.267 OA
BRANCH  16  19
ATOM     19  N   UNL A   1      47.972  19.871  35.119  1.00  0.00    -0.268 N 
ATOM     20  C   UNL A   1      48.666  19.353  32.799  1.00  0.00     0.116 C 
ATOM     21  C   UNL A   1      48.962  19.912  34.166  1.00  0.00     0.235 C 
ATOM     22  O   UNL A   1      50.063  20.389  34.438  1.00  0.00    -0.274 OA
ATOM     23  H   UNL A   1      48.157  20.288  35.993  1.00  0.00     0.191 HD
ENDBRANCH  16  19
ENDBRANCH  14  15
ENDBRANCH  11  14
ENDBRANCH   9  11
BRANCH   9  24
ATOM     24  C   UNL A   1      45.361  24.729  34.106  1.00  0.00     0.455 C 
ATOM     25  F   UNL A   1      46.124  24.599  32.989  1.00  0.00    -0.164 F 
ATOM     26  F   UNL A   1      44.079  24.509  33.705  1.00  0.00    -0.164 F 
ATOM     27  F   UNL A   1      45.410  26.018  34.490  1.00  0.00    -0.164 F 
ENDBRANCH   9  24
ENDBRANCH   7   9
ENDBRANCH   6   7
ENDBRANCH   5   6
ENDBRANCH   4   5
ENDBRANCH   3   4
ENDBRANCH   2   3
ENDBRANCH   1   2
BRANCH   1  28
ATOM     28  O   UNL A   1      49.747  24.855  40.502  1.00  0.00    -0.377 OA
BRANCH  28  29
ATOM     29  C   UNL A   1      49.283  25.981  41.235  1.00  0.00     0.188 C 
BRANCH  29  30
ATOM     30  C   UNL A   1      47.977  26.664  40.778  1.00  0.00     0.188 C 
BRANCH  30  31
ATOM     31  O   UNL A   1      48.153  27.971  40.247  1.00  0.00    -0.376 OA
BRANCH  31  32
ATOM     32  C   UNL A   1      49.420  28.601  40.366  1.00  0.00     0.202 C 
BRANCH  32  33
ATOM     33  C   UNL A   1      50.239  28.829  39.085  1.00  0.00     0.261 C 
BRANCH  33  34
ATOM     34  O   UNL A   1      49.599  29.549  38.022  1.00  0.00    -0.460 OA
BRANCH  34  35
ATOM     35  C   UNL A   1      49.235  28.859  36.922  1.00  0.00     0.338 C 
ATOM     36  O   UNL A   1      49.748  27.839  36.492  1.00  0.00    -0.246 OA
BRANCH  35  37
ATOM     37  C   UNL A   1      47.962  29.434  36.437  1.00  0.00     0.060 A 
ATOM     38  C   UNL A   1      46.777  28.712  36.632  1.00  0.00     0.016 A 
ATOM     39  C   UNL A   1      47.933  30.680  35.806  1.00  0.00     0.016 A 
ATOM     40  C   UNL A   1      45.566  29.213  36.156  1.00  0.00     0.010 A 
ATOM     41  C   UNL A   1      46.724  31.171  35.308  1.00  0.00     0.010 A 
ATOM     42  C   UNL A   1      45.543  30.420  35.445  1.00  0.00    -0.014 A 
BRANCH  42  43
ATOM     43  C   UNL A   1      44.339  30.781  34.658  1.00  0.00     0.031 A 
ATOM     44  C   UNL A   1      43.346  31.725  35.281  1.00  0.00     0.074 A 
ATOM     45  C   UNL A   1      44.143  30.309  33.414  1.00  0.00     0.049 A 
ATOM     46  N   UNL A   1      42.199  32.148  34.820  1.00  0.00    -0.248 NA
ATOM     47  C   UNL A   1      43.696  32.261  36.608  1.00  0.00     0.031 C 
ATOM     48  C   UNL A   1      45.055  29.425  32.692  1.00  0.00     0.029 A 
ATOM     49  N   UNL A   1      43.100  30.505  32.544  1.00  0.00    -0.354 N 
ATOM     50  C   UNL A   1      41.689  32.993  35.799  1.00  0.00     0.074 A 
ATOM     51  C   UNL A   1      42.632  32.995  36.895  1.00  0.00     0.031 C 
ATOM     52  C   UNL A   1      44.521  29.139  31.490  1.00  0.00     0.029 A 
ATOM     53  C   UNL A   1      43.218  29.791  31.374  1.00  0.00     0.049 A 
ATOM     54  H   UNL A   1      42.340  31.100  32.737  1.00  0.00     0.167 HD
ATOM     55  C   UNL A   1      40.542  33.714  35.782  1.00  0.00     0.037 A 
ATOM     56  C   UNL A   1      42.357  29.660  30.344  1.00  0.00     0.037 A 
ATOM     57  C   UNL A   1      39.605  33.701  34.689  1.00  0.00     0.049 A 
ATOM     58  C   UNL A   1      41.048  30.410  30.378  1.00  0.00     0.074 A 
ATOM     59  C   UNL A   1      38.417  34.399  34.568  1.00  0.00     0.029 A 
ATOM     60  N   UNL A   1      39.747  32.947  33.533  1.00  0.00    -0.354 N 
ATOM     61  N   UNL A   1      40.584  31.221  31.301  1.00  0.00    -0.248 NA
ATOM     62  C   UNL A   1      40.148  30.234  29.229  1.00  0.00     0.031 C 
ATOM     63  C   UNL A   1      37.812  34.022  33.365  1.00  0.00     0.029 A 
ATOM     64  C   UNL A   1      38.655  33.142  32.704  1.00  0.00     0.049 A 
ATOM     65  H   UNL A   1      40.512  32.361  33.331  1.00  0.00     0.167 HD
ATOM     66  C   UNL A   1      39.354  31.674  30.830  1.00  0.00     0.074 A 
ATOM     67  C   UNL A   1      39.154  31.056  29.535  1.00  0.00     0.031 C 
ATOM     68  C   UNL A   1      38.474  32.526  31.412  1.00  0.00     0.037 A 
BRANCH  55  69
ATOM     69  C   UNL A   1      40.225  34.549  36.992  1.00  0.00     0.058 A 
ATOM     70  C   UNL A   1      40.645  35.885  37.103  1.00  0.00     0.135 A 
ATOM     71  C   UNL A   1      39.467  34.014  38.046  1.00  0.00     0.135 A 
ATOM     72  F   UNL A   1      41.392  36.441  36.135  1.00  0.00    -0.206 F 
ATOM     73  C   UNL A   1      40.348  36.651  38.224  1.00  0.00     0.059 A 
ATOM     74  C   UNL A   1      39.129  34.772  39.163  1.00  0.00     0.059 A 
ATOM     75  F   UNL A   1      39.044  32.741  37.997  1.00  0.00    -0.206 F 
ATOM     76  C   UNL A   1      39.586  36.086  39.250  1.00  0.00     0.060 A 
BRANCH  76  77
ATOM     77  S   UNL A   1      39.201  37.097  40.694  1.00  0.00     0.124 S 
ATOM     78  O   UNL A   1      38.310  38.100  40.119  1.00  0.00    -0.237 OA
ATOM     79  O   UNL A   1      38.572  36.130  41.590  1.00  0.00    -0.237 OA
ATOM     80  O   UNL A   1      40.506  37.590  41.124  1.00  0.00    -0.744 OA
ENDBRANCH  76  77
ENDBRANCH  55  69
BRANCH  56  81
ATOM     81  C   UNL A   1      42.693  28.766  29.202  1.00  0.00     0.058 A 
ATOM     82  C   UNL A   1      42.256  27.434  29.164  1.00  0.00     0.135 A 
ATOM     83  C   UNL A   1      43.465  29.229  28.124  1.00  0.00     0.135 A 
ATOM     84  F   UNL A   1      41.527  26.937  30.175  1.00  0.00    -0.206 F 
ATOM     85  C   UNL A   1      42.581  26.588  28.107  1.00  0.00     0.059 A 
ATOM     86  C   UNL A   1      43.779  28.412  27.042  1.00  0.00     0.059 A 
ATOM     87  F   UNL A   1      43.904  30.497  28.107  1.00  0.00    -0.206 F 
ATOM     88  C   UNL A   1      43.340  27.089  27.047  1.00  0.00     0.060 A 
BRANCH  88  89
ATOM     89  S   UNL A   1      43.710  25.999  25.655  1.00  0.00     0.124 S 
ATOM     90  O   UNL A   1      43.853  24.710  26.321  1.00  0.00    -0.237 OA
ATOM     91  O   UNL A   1      42.525  26.159  24.819  1.00  0.00    -0.237 OA
ATOM     92  O   UNL A   1      44.937  26.565  25.103  1.00  0.00    -0.744 OA
ENDBRANCH  88  89
ENDBRANCH  56  81
BRANCH  68  93
ATOM     93  C   UNL A   1      37.229  32.880  30.643  1.00  0.00     0.058 A 
ATOM     94  C   UNL A   1      37.215  33.897  29.676  1.00  0.00     0.135 A 
ATOM     95  C   UNL A   1      36.045  32.146  30.835  1.00  0.00     0.135 A 
ATOM     96  F   UNL A   1      38.316  34.633  29.454  1.00  0.00    -0.206 F 
ATOM     97  C   UNL A   1      36.068  34.192  28.947  1.00  0.00     0.059 A 
ATOM     98  C   UNL A   1      34.896  32.401  30.094  1.00  0.00     0.059 A 
ATOM     99  F   UNL A   1      36.005  31.153  31.737  1.00  0.00    -0.206 F 
ATOM    100  C   UNL A   1      34.914  33.436  29.160  1.00  0.00     0.060 A 
BRANCH 100 101
ATOM    101  S   UNL A   1      33.442  33.807  28.181  1.00  0.00     0.124 S 
ATOM    102  O   UNL A   1      32.587  34.453  29.170  1.00  0.00    -0.237 OA
ATOM    103  O   UNL A   1      33.975  34.677  27.137  1.00  0.00    -0.237 OA
ATOM    104  O   UNL A   1      32.995  32.494  27.728  1.00  0.00    -0.744 OA
ENDBRANCH 100 101
ENDBRANCH  68  93
ENDBRANCH  42  43
ENDBRANCH  35  37
ENDBRANCH  34  35
ENDBRANCH  33  34
ENDBRANCH  32  33
ENDBRANCH  31  32
ENDBRANCH  30  31
ENDBRANCH  29  30
ENDBRANCH  28  29
ENDBRANCH   1  28
TORSDOF 28
ENDMDL
MODEL 3
REMARK VINA RESULT:      -7.1      1.414      2.521
REMARK SMILES CC(=O)NNC(=O)C[NH2+][C@@](C)(C(=O)OCCOCCOCCOCCOC(=O)c1ccc(-c2c3nc(c(-c4c(F)cc(S(=O)(=O)[O-])cc4F)c4ccc([nH]4)c(-c4c(F)cc(S(=O)(=O)[O-])cc4F)c4nc(c(-c5c(F)cc(S(=O)(=O)[O-])cc5F)c5ccc2[nH]5)C=C4)C=C3)cc1)C(F)(F)F
REMARK SMILES IDX 19 1 18 2 17 3 16 4 15 5 14 6 12 7 13 8 10 9 11 10 9 11 8 14
REMARK SMILES IDX 6 15 5 16 7 18 4 19 1 20 2 21 3 22 95 24 96 25 97 26 98 27
REMARK SMILES IDX 20 28 21 29 22 30 23 31 24 32 25 33 26 34 27 35 28 36 29 37
REMARK SMILES IDX 30 38 94 39 31 40 93 41 32 42 33 43 34 44 87 45 35 46 92 47
REMARK SMILES IDX 86 48 88 49 36 50 91 51 85 52 84 53 37 55 71 56 50 57 70 58
REMARK SMILES IDX 51 59 54 60 69 61 89 62 52 63 53 64 68 66 90 67 55 68 38 69
REMARK SMILES IDX 39 70 48 71 40 72 41 73 47 74 49 75 42 76 43 77 44 78 45 79
REMARK SMILES IDX 46 80 72 81 73 82 82 83 74 84 75 85 81 86 83 87 76 88 77 89
REMARK SMILES IDX 78 90 79 91 80 92 56 93 57 94 66 95 58 96 59 97 65 98 67 99
REMARK SMILES IDX 60 100 61 101 62 102 63 103 64 104
REMARK H PARENT 9 12 9 13 5 17 4 23 88 54 54 65
REMARK Flexibility Score: inf
ROOT
ATOM      1  C   UNL A   1      52.810  22.085  41.752  1.00  0.00     0.188 C 
ENDROOT
BRANCH   1   2
ATOM      2  C   UNL A   1      51.638  21.130  42.031  1.00  0.00     0.188 C 
BRANCH   2   3
ATOM      3  O   UNL A   1      51.768  20.066  42.961  1.00  0.00    -0.376 OA
BRANCH   3   4
ATOM      4  C   UNL A   1      50.916  18.931  42.917  1.00  0.00     0.202 C 
BRANCH   4   5
ATOM      5  C   UNL A   1      49.426  18.951  43.315  1.00  0.00     0.261 C 
BRANCH   5   6
ATOM      6  O   UNL A   1      48.534  18.082  42.599  1.00  0.00    -0.458 OA
BRANCH   6   7
ATOM      7  C   UNL A   1      47.502  18.683  41.955  1.00  0.00     0.377 C 
ATOM      8  O   UNL A   1      47.615  19.764  41.387  1.00  0.00    -0.244 OA
BRANCH   7   9
ATOM      9  C   UNL A   1      46.164  17.918  42.059  1.00  0.00     0.287 C 
ATOM     10  C   UNL A   1      45.086  18.965  41.755  1.00  0.00     0.103 C 
BRANCH   9  11
ATOM     11  N   UNL A   1      45.916  17.336  43.442  1.00  0.00    -0.317 N 
ATOM     12  H   UNL A   1      46.256  16.374  43.447  1.00  0.00     0.347 HD
ATOM     13  H   UNL A   1      46.409  17.940  44.100  1.00  0.00     0.347 HD
BRANCH  11  14
ATOM     14  C   UNL A   1      44.504  17.328  43.862  1.00  0.00     0.364 C 
BRANCH  14  15
ATOM     15  C   UNL A   1      43.786  16.056  43.391  1.00  0.00     0.293 C 
ATOM     16  N   UNL A   1      43.959  14.872  44.069  1.00  0.00    -0.263 N 
ATOM     17  H   UNL A   1      43.559  14.063  43.674  1.00  0.00     0.191 HD
ATOM     18  O   UNL A   1      43.067  16.069  42.389  1.00  0.00    -0.267 OA
BRANCH  16  19
ATOM     19  N   UNL A   1      44.652  14.720  45.267  1.00  0.00    -0.268 N 
ATOM     20  C   UNL A   1      43.731  12.447  45.611  1.00  0.00     0.116 C 
ATOM     21  C   UNL A   1      44.564  13.612  46.076  1.00  0.00     0.235 C 
ATOM     22  O   UNL A   1      45.152  13.589  47.157  1.00  0.00    -0.274 OA
ATOM     23  H   UNL A   1      45.242  15.455  45.554  1.00  0.00     0.191 HD
ENDBRANCH  16  19
ENDBRANCH  14  15
ENDBRANCH  11  14
ENDBRANCH   9  11
BRANCH   9  24
ATOM     24  C   UNL A   1      46.249  16.861  40.927  1.00  0.00     0.455 C 
ATOM     25  F   UNL A   1      45.021  16.373  40.613  1.00  0.00    -0.164 F 
ATOM     26  F   UNL A   1      46.723  17.431  39.785  1.00  0.00    -0.164 F 
ATOM     27  F   UNL A   1      47.057  15.814  41.177  1.00  0.00    -0.164 F 
ENDBRANCH   9  24
ENDBRANCH   7   9
ENDBRANCH   6   7
ENDBRANCH   5   6
ENDBRANCH   4   5
ENDBRANCH   3   4
ENDBRANCH   2   3
ENDBRANCH   1   2
BRANCH   1  28
ATOM     28  O   UNL A   1      52.498  23.453  41.914  1.00  0.00    -0.377 OA
BRANCH  28  29
ATOM     29  C   UNL A   1      51.753  24.067  40.870  1.00  0.00     0.188 C 
BRANCH  29  30
ATOM     30  C   UNL A   1      50.280  23.649  40.679  1.00  0.00     0.188 C 
BRANCH  30  31
ATOM     31  O   UNL A   1      49.839  23.652  39.328  1.00  0.00    -0.376 OA
BRANCH  31  32
ATOM     32  C   UNL A   1      48.457  23.832  39.052  1.00  0.00     0.202 C 
BRANCH  32  33
ATOM     33  C   UNL A   1      48.047  24.203  37.618  1.00  0.00     0.261 C 
BRANCH  33  34
ATOM     34  O   UNL A   1      47.046  25.220  37.468  1.00  0.00    -0.460 OA
BRANCH  34  35
ATOM     35  C   UNL A   1      47.414  26.503  37.660  1.00  0.00     0.338 C 
ATOM     36  O   UNL A   1      48.505  26.905  38.029  1.00  0.00    -0.246 OA
BRANCH  35  37
ATOM     37  C   UNL A   1      46.329  27.361  37.138  1.00  0.00     0.060 A 
ATOM     38  C   UNL A   1      45.000  26.968  37.342  1.00  0.00     0.016 A 
ATOM     39  C   UNL A   1      46.619  28.551  36.465  1.00  0.00     0.016 A 
ATOM     40  C   UNL A   1      43.957  27.740  36.832  1.00  0.00     0.010 A 
ATOM     41  C   UNL A   1      45.575  29.313  35.935  1.00  0.00     0.010 A 
ATOM     42  C   UNL A   1      44.242  28.888  36.081  1.00  0.00    -0.014 A 
BRANCH  42  43
ATOM     43  C   UNL A   1      43.171  29.511  35.266  1.00  0.00     0.031 A 
ATOM     44  C   UNL A   1      42.392  30.646  35.874  1.00  0.00     0.074 A 
ATOM     45  C   UNL A   1      42.914  29.104  34.010  1.00  0.00     0.049 A 
ATOM     46  N   UNL A   1      41.380  31.316  35.388  1.00  0.00    -0.248 NA
ATOM     47  C   UNL A   1      42.810  31.082  37.218  1.00  0.00     0.031 C 
ATOM     48  C   UNL A   1      43.631  28.047  33.301  1.00  0.00     0.029 A 
ATOM     49  N   UNL A   1      41.967  29.532  33.114  1.00  0.00    -0.354 N 
ATOM     50  C   UNL A   1      41.039  32.244  36.364  1.00  0.00     0.074 A 
ATOM     51  C   UNL A   1      41.926  32.029  37.486  1.00  0.00     0.031 C 
ATOM     52  C   UNL A   1      43.084  27.895  32.081  1.00  0.00     0.029 A 
ATOM     53  C   UNL A   1      41.960  28.819  31.938  1.00  0.00     0.049 A 
ATOM     54  H   UNL A   1      41.351  30.279  33.295  1.00  0.00     0.167 HD
ATOM     55  C   UNL A   1      40.080  33.200  36.325  1.00  0.00     0.037 A 
ATOM     56  C   UNL A   1      41.123  28.888  30.882  1.00  0.00     0.037 A 
ATOM     57  C   UNL A   1      39.197  33.403  35.206  1.00  0.00     0.049 A 
ATOM     58  C   UNL A   1      40.011  29.909  30.891  1.00  0.00     0.074 A 
ATOM     59  C   UNL A   1      38.196  34.346  35.062  1.00  0.00     0.029 A 
ATOM     60  N   UNL A   1      39.205  32.645  34.044  1.00  0.00    -0.354 N 
ATOM     61  N   UNL A   1      39.709  30.795  31.811  1.00  0.00    -0.248 NA
ATOM     62  C   UNL A   1      39.130  29.945  29.715  1.00  0.00     0.031 C 
ATOM     63  C   UNL A   1      37.560  34.121  33.837  1.00  0.00     0.029 A 
ATOM     64  C   UNL A   1      38.208  33.083  33.188  1.00  0.00     0.049 A 
ATOM     65  H   UNL A   1      39.827  31.907  33.855  1.00  0.00     0.167 HD
ATOM     66  C   UNL A   1      38.624  31.511  31.313  1.00  0.00     0.074 A 
ATOM     67  C   UNL A   1      38.332  30.962  30.004  1.00  0.00     0.031 C 
ATOM     68  C   UNL A   1      37.935  32.531  31.883  1.00  0.00     0.037 A 
BRANCH  55  69
ATOM     69  C   UNL A   1      39.918  34.075  37.538  1.00  0.00     0.058 A 
ATOM     70  C   UNL A   1      39.097  33.705  38.616  1.00  0.00     0.135 A 
ATOM     71  C   UNL A   1      40.616  35.290  37.635  1.00  0.00     0.135 A 
ATOM     72  F   UNL A   1      38.390  32.565  38.567  1.00  0.00    -0.206 F 
ATOM     73  C   UNL A   1      38.954  34.519  39.735  1.00  0.00     0.059 A 
ATOM     74  C   UNL A   1      40.514  36.105  38.758  1.00  0.00     0.059 A 
ATOM     75  F   UNL A   1      41.410  35.696  36.632  1.00  0.00    -0.206 F 
ATOM     76  C   UNL A   1      39.669  35.718  39.798  1.00  0.00     0.060 A 
BRANCH  76  77
ATOM     77  S   UNL A   1      39.478  36.758  41.260  1.00  0.00     0.124 S 
ATOM     78  O   UNL A   1      38.577  35.951  42.076  1.00  0.00    -0.237 OA
ATOM     79  O   UNL A   1      40.851  36.863  41.747  1.00  0.00    -0.237 OA
ATOM     80  O   UNL A   1      38.908  37.992  40.729  1.00  0.00    -0.744 OA
ENDBRANCH  76  77
ENDBRANCH  55  69
BRANCH  56  81
ATOM     81  C   UNL A   1      41.289  27.952  29.738  1.00  0.00     0.058 A 
ATOM     82  C   UNL A   1      42.366  28.072  28.846  1.00  0.00     0.135 A 
ATOM     83  C   UNL A   1      40.368  26.918  29.509  1.00  0.00     0.135 A 
ATOM     84  F   UNL A   1      43.267  29.053  29.009  1.00  0.00    -0.206 F 
ATOM     85  C   UNL A   1      42.517  27.211  27.763  1.00  0.00     0.059 A 
ATOM     86  C   UNL A   1      40.513  26.025  28.452  1.00  0.00     0.059 A 
ATOM     87  F   UNL A   1      39.323  26.753  30.336  1.00  0.00    -0.206 F 
ATOM     88  C   UNL A   1      41.587  26.185  27.578  1.00  0.00     0.060 A 
BRANCH  88  89
ATOM     89  S   UNL A   1      41.824  25.040  26.202  1.00  0.00     0.124 S 
ATOM     90  O   UNL A   1      40.758  24.073  26.437  1.00  0.00    -0.237 OA
ATOM     91  O   UNL A   1      41.652  25.912  25.045  1.00  0.00    -0.237 OA
ATOM     92  O   UNL A   1      43.182  24.545  26.407  1.00  0.00    -0.744 OA
ENDBRANCH  88  89
ENDBRANCH  56  81
BRANCH  68  93
ATOM     93  C   UNL A   1      36.823  33.157  31.084  1.00  0.00     0.058 A 
ATOM     94  C   UNL A   1      37.074  34.042  30.025  1.00  0.00     0.135 A 
ATOM     95  C   UNL A   1      35.484  32.816  31.346  1.00  0.00     0.135 A 
ATOM     96  F   UNL A   1      38.333  34.406  29.732  1.00  0.00    -0.206 F 
ATOM     97  C   UNL A   1      36.039  34.587  29.271  1.00  0.00     0.059 A 
ATOM     98  C   UNL A   1      34.436  33.322  30.585  1.00  0.00     0.059 A 
ATOM     99  F   UNL A   1      35.187  31.963  32.339  1.00  0.00    -0.206 F 
ATOM    100  C   UNL A   1      34.723  34.218  29.556  1.00  0.00     0.060 A 
BRANCH 100 101
ATOM    101  S   UNL A   1      33.392  34.906  28.548  1.00  0.00     0.124 S 
ATOM    102  O   UNL A   1      32.916  33.721  27.842  1.00  0.00    -0.237 OA
ATOM    103  O   UNL A   1      32.488  35.450  29.555  1.00  0.00    -0.237 OA
ATOM    104  O   UNL A   1      34.071  35.898  27.720  1.00  0.00    -0.744 OA
ENDBRANCH 100 101
ENDBRANCH  68  93
ENDBRANCH  42  43
ENDBRANCH  35  37
ENDBRANCH  34  35
ENDBRANCH  33  34
ENDBRANCH  32  33
ENDBRANCH  31  32
ENDBRANCH  30  31
ENDBRANCH  29  30
ENDBRANCH  28  29
ENDBRANCH   1  28
TORSDOF 28
ENDMDL
