MODEL 1
REMARK VINA RESULT:      -5.6      0.000      0.000
REMARK SMILES CCOc1cc([C@@H]2[NH2+][C@H](C(=O)OCCOCCOCCOCCOC(=O)c3ccc(-c4c5nc(c(-c6c(F)cc(S(=O)(=O)[O-])cc6F)c6ccc([nH]6)c(-c6c(F)cc(S(=O)(=O)[O-])cc6F)c6nc(c(-c7c(F)cc(S(=O)(=O)[O-])cc7F)c7ccc4[nH]7)C=C6)C=C5)cc3)CS2)ccc1OCc1ccc(Cl)cc1
REMARK SMILES IDX 17 1 16 2 15 3 14 4 13 5 12 6 10 7 11 8 9 9 7 10 8 11 94 12
REMARK SMILES IDX 93 15 6 16 4 17 5 18 97 19 96 20 95 21 3 22 2 23 1 24 98 25
REMARK SMILES IDX 99 26 100 27 101 28 106 29 102 30 105 31 103 32 104 33 18 34
REMARK SMILES IDX 19 35 20 36 21 37 22 38 23 39 24 40 25 41 26 42 27 43 28 44
REMARK SMILES IDX 92 45 29 46 91 47 30 48 31 49 32 50 85 51 33 52 90 53 84 54
REMARK SMILES IDX 86 55 34 56 89 57 83 58 82 59 35 61 69 62 48 63 68 64 49 65
REMARK SMILES IDX 52 66 67 67 87 68 50 69 51 70 66 72 88 73 53 74 36 75 37 76
REMARK SMILES IDX 46 77 38 78 39 79 45 80 47 81 40 82 41 83 42 84 43 85 44 86
REMARK SMILES IDX 70 87 71 88 80 89 72 90 73 91 79 92 81 93 74 94 75 95 76 96
REMARK SMILES IDX 77 97 78 98 54 99 55 100 64 101 56 102 57 103 63 104 65 105
REMARK SMILES IDX 58 106 59 107 60 108 61 109 62 110
REMARK H PARENT 8 13 8 14 86 60 52 71
REMARK Flexibility Score: inf
ROOT
ATOM      1  C   UNL A   1      40.194  29.874  35.344  1.00  0.00     0.188 C 
ENDROOT
BRANCH   1   2
ATOM      2  C   UNL A   1      41.597  30.412  35.026  1.00  0.00     0.188 C 
BRANCH   2   3
ATOM      3  O   UNL A   1      41.752  31.383  34.002  1.00  0.00    -0.376 OA
BRANCH   3   4
ATOM      4  C   UNL A   1      42.669  31.206  32.927  1.00  0.00     0.202 C 
BRANCH   4   5
ATOM      5  C   UNL A   1      43.153  29.813  32.494  1.00  0.00     0.261 C 
BRANCH   5   6
ATOM      6  O   UNL A   1      44.430  29.472  33.048  1.00  0.00    -0.459 OA
BRANCH   6   7
ATOM      7  C   UNL A   1      44.697  28.163  33.277  1.00  0.00     0.365 C 
ATOM      8  O   UNL A   1      45.172  27.745  34.329  1.00  0.00    -0.245 OA
BRANCH   7   9
ATOM      9  C   UNL A   1      44.191  27.218  32.153  1.00  0.00     0.304 C 
ATOM     10  C   UNL A   1      46.023  26.387  30.820  1.00  0.00     0.274 C 
ATOM     11  N   UNL A   1      44.879  27.312  30.824  1.00  0.00    -0.319 N 
ATOM     12  S   UNL A   1      45.267  24.863  31.445  1.00  0.00    -0.087 SA
ATOM     13  H   UNL A   1      44.228  27.058  30.081  1.00  0.00     0.348 HD
ATOM     14  H   UNL A   1      45.202  28.267  30.667  1.00  0.00     0.348 HD
ATOM     15  C   UNL A   1      44.190  25.757  32.611  1.00  0.00     0.153 C 
BRANCH  10  16
ATOM     16  C   UNL A   1      47.168  26.988  31.626  1.00  0.00     0.024 A 
ATOM     17  C   UNL A   1      48.249  29.050  32.394  1.00  0.00     0.161 A 
ATOM     18  C   UNL A   1      47.516  28.351  31.425  1.00  0.00     0.061 A 
ATOM     19  C   UNL A   1      48.640  28.375  33.560  1.00  0.00     0.161 A 
ATOM     20  C   UNL A   1      48.388  27.010  33.712  1.00  0.00     0.051 A 
ATOM     21  C   UNL A   1      47.712  26.310  32.727  1.00  0.00     0.015 A 
BRANCH  17  22
ATOM     22  O   UNL A   1      48.471  30.399  32.289  1.00  0.00    -0.490 OA
BRANCH  22  23
ATOM     23  C   UNL A   1      49.712  30.755  31.661  1.00  0.00     0.226 C 
ATOM     24  C   UNL A   1      50.324  31.919  32.435  1.00  0.00     0.049 C 
ENDBRANCH  22  23
ENDBRANCH  17  22
BRANCH  19  25
ATOM     25  O   UNL A   1      49.351  28.902  34.598  1.00  0.00    -0.485 OA
BRANCH  25  26
ATOM     26  C   UNL A   1      48.605  29.246  35.770  1.00  0.00     0.265 C 
BRANCH  26  27
ATOM     27  C   UNL A   1      47.668  30.446  35.720  1.00  0.00    -0.011 A 
ATOM     28  C   UNL A   1      48.199  31.707  35.423  1.00  0.00     0.009 A 
ATOM     29  C   UNL A   1      46.282  30.373  35.930  1.00  0.00     0.009 A 
ATOM     30  C   UNL A   1      47.345  32.765  35.091  1.00  0.00     0.021 A 
ATOM     31  C   UNL A   1      45.432  31.416  35.637  1.00  0.00     0.021 A 
ATOM     32  C   UNL A   1      45.968  32.565  35.113  1.00  0.00     0.041 A 
ATOM     33  Cl  UNL A   1      44.854  33.589  34.343  1.00  0.00    -0.084 Cl
ENDBRANCH  26  27
ENDBRANCH  25  26
ENDBRANCH  19  25
ENDBRANCH  10  16
ENDBRANCH   7   9
ENDBRANCH   6   7
ENDBRANCH   5   6
ENDBRANCH   4   5
ENDBRANCH   3   4
ENDBRANCH   2   3
ENDBRANCH   1   2
BRANCH   1  34
ATOM     34  O   UNL A   1      39.102  30.514  34.722  1.00  0.00    -0.377 OA
BRANCH  34  35
ATOM     35  C   UNL A   1      38.163  31.076  35.621  1.00  0.00     0.188 C 
BRANCH  35  36
ATOM     36  C   UNL A   1      37.425  32.297  35.064  1.00  0.00     0.188 C 
BRANCH  36  37
ATOM     37  O   UNL A   1      37.088  32.416  33.685  1.00  0.00    -0.376 OA
BRANCH  37  38
ATOM     38  C   UNL A   1      35.732  32.444  33.278  1.00  0.00     0.202 C 
BRANCH  38  39
ATOM     39  C   UNL A   1      35.420  32.043  31.820  1.00  0.00     0.261 C 
BRANCH  39  40
ATOM     40  O   UNL A   1      35.976  30.803  31.347  1.00  0.00    -0.460 OA
BRANCH  40  41
ATOM     41  C   UNL A   1      36.061  30.680  30.009  1.00  0.00     0.338 C 
ATOM     42  O   UNL A   1      35.226  31.056  29.179  1.00  0.00    -0.246 OA
BRANCH  41  43
ATOM     43  C   UNL A   1      37.354  30.084  29.624  1.00  0.00     0.060 A 
ATOM     44  C   UNL A   1      38.179  29.576  30.632  1.00  0.00     0.016 A 
ATOM     45  C   UNL A   1      37.812  30.121  28.301  1.00  0.00     0.016 A 
ATOM     46  C   UNL A   1      39.472  29.143  30.326  1.00  0.00     0.010 A 
ATOM     47  C   UNL A   1      39.115  29.689  27.998  1.00  0.00     0.010 A 
ATOM     48  C   UNL A   1      39.963  29.215  29.013  1.00  0.00    -0.014 A 
BRANCH  48  49
ATOM     49  C   UNL A   1      41.418  29.010  28.775  1.00  0.00     0.031 A 
ATOM     50  C   UNL A   1      41.861  27.656  28.281  1.00  0.00     0.074 A 
ATOM     51  C   UNL A   1      42.332  29.984  28.963  1.00  0.00     0.049 A 
ATOM     52  N   UNL A   1      43.062  27.229  27.990  1.00  0.00    -0.248 NA
ATOM     53  C   UNL A   1      40.805  26.641  28.122  1.00  0.00     0.031 C 
ATOM     54  C   UNL A   1      42.057  31.322  29.483  1.00  0.00     0.029 A 
ATOM     55  N   UNL A   1      43.687  30.000  28.727  1.00  0.00    -0.354 N 
ATOM     56  C   UNL A   1      42.912  25.891  27.642  1.00  0.00     0.074 A 
ATOM     57  C   UNL A   1      41.504  25.578  27.756  1.00  0.00     0.031 C 
ATOM     58  C   UNL A   1      43.195  32.042  29.484  1.00  0.00     0.029 A 
ATOM     59  C   UNL A   1      44.289  31.209  28.999  1.00  0.00     0.049 A 
ATOM     60  H   UNL A   1      44.182  29.216  28.394  1.00  0.00     0.167 HD
ATOM     61  C   UNL A   1      43.863  24.997  27.282  1.00  0.00     0.037 A 
ATOM     62  C   UNL A   1      45.579  31.587  28.880  1.00  0.00     0.037 A 
ATOM     63  C   UNL A   1      45.267  25.299  27.194  1.00  0.00     0.049 A 
ATOM     64  C   UNL A   1      46.609  30.575  28.450  1.00  0.00     0.074 A 
ATOM     65  C   UNL A   1      46.307  24.461  26.834  1.00  0.00     0.029 A 
ATOM     66  N   UNL A   1      45.831  26.532  27.484  1.00  0.00    -0.354 N 
ATOM     67  N   UNL A   1      46.448  29.316  28.127  1.00  0.00    -0.248 NA
ATOM     68  C   UNL A   1      48.005  31.038  28.401  1.00  0.00     0.031 C 
ATOM     69  C   UNL A   1      47.506  25.172  26.955  1.00  0.00     0.029 A 
ATOM     70  C   UNL A   1      47.205  26.471  27.328  1.00  0.00     0.049 A 
ATOM     71  H   UNL A   1      45.328  27.333  27.760  1.00  0.00     0.167 HD
ATOM     72  C   UNL A   1      47.723  28.833  27.856  1.00  0.00     0.074 A 
ATOM     73  C   UNL A   1      48.639  29.943  28.012  1.00  0.00     0.031 C 
ATOM     74  C   UNL A   1      48.106  27.578  27.519  1.00  0.00     0.037 A 
BRANCH  61  75
ATOM     75  C   UNL A   1      43.417  23.588  27.011  1.00  0.00     0.058 A 
ATOM     76  C   UNL A   1      43.132  22.686  28.049  1.00  0.00     0.135 A 
ATOM     77  C   UNL A   1      43.259  23.137  25.690  1.00  0.00     0.135 A 
ATOM     78  F   UNL A   1      43.289  23.058  29.330  1.00  0.00    -0.206 F 
ATOM     79  C   UNL A   1      42.736  21.380  27.787  1.00  0.00     0.059 A 
ATOM     80  C   UNL A   1      42.835  21.844  25.404  1.00  0.00     0.059 A 
ATOM     81  F   UNL A   1      43.523  23.957  24.660  1.00  0.00    -0.206 F 
ATOM     82  C   UNL A   1      42.590  20.968  26.460  1.00  0.00     0.060 A 
BRANCH  82  83
ATOM     83  S   UNL A   1      42.072  19.270  26.136  1.00  0.00     0.124 S 
ATOM     84  O   UNL A   1      42.831  18.961  24.927  1.00  0.00    -0.237 OA
ATOM     85  O   UNL A   1      42.502  18.576  27.347  1.00  0.00    -0.237 OA
ATOM     86  O   UNL A   1      40.628  19.382  25.959  1.00  0.00    -0.744 OA
ENDBRANCH  82  83
ENDBRANCH  61  75
BRANCH  62  87
ATOM     87  C   UNL A   1      46.042  32.963  29.199  1.00  0.00     0.058 A 
ATOM     88  C   UNL A   1      46.337  33.329  30.521  1.00  0.00     0.135 A 
ATOM     89  C   UNL A   1      46.041  33.971  28.225  1.00  0.00     0.135 A 
ATOM     90  F   UNL A   1      46.314  32.406  31.494  1.00  0.00    -0.206 F 
ATOM     91  C   UNL A   1      46.618  34.648  30.868  1.00  0.00     0.059 A 
ATOM     92  C   UNL A   1      46.296  35.302  28.553  1.00  0.00     0.059 A 
ATOM     93  F   UNL A   1      45.782  33.664  26.944  1.00  0.00    -0.206 F 
ATOM     94  C   UNL A   1      46.595  35.630  29.878  1.00  0.00     0.060 A 
BRANCH  94  95
ATOM     95  S   UNL A   1      47.137  37.305  30.326  1.00  0.00     0.124 S 
ATOM     96  O   UNL A   1      48.222  37.528  29.379  1.00  0.00    -0.237 OA
ATOM     97  O   UNL A   1      45.925  38.087  30.094  1.00  0.00    -0.237 OA
ATOM     98  O   UNL A   1      47.545  37.179  31.722  1.00  0.00    -0.744 OA
ENDBRANCH  94  95
ENDBRANCH  62  87
BRANCH  74  99
ATOM     99  C   UNL A   1      49.573  27.345  27.299  1.00  0.00     0.058 A 
ATOM    100  C   UNL A   1      50.166  27.515  26.038  1.00  0.00     0.135 A 
ATOM    101  C   UNL A   1      50.399  26.972  28.371  1.00  0.00     0.135 A 
ATOM    102  F   UNL A   1      49.416  27.857  24.979  1.00  0.00    -0.206 F 
ATOM    103  C   UNL A   1      51.526  27.299  25.843  1.00  0.00     0.059 A 
ATOM    104  C   UNL A   1      51.765  26.780  28.203  1.00  0.00     0.059 A 
ATOM    105  F   UNL A   1      49.880  26.799  29.597  1.00  0.00    -0.206 F 
ATOM    106  C   UNL A   1      52.318  26.934  26.933  1.00  0.00     0.060 A 
BRANCH 106 107
ATOM    107  S   UNL A   1      54.087  26.688  26.673  1.00  0.00     0.124 S 
ATOM    108  O   UNL A   1      54.659  27.647  27.612  1.00  0.00    -0.237 OA
ATOM    109  O   UNL A   1      54.259  25.280  27.021  1.00  0.00    -0.237 OA
ATOM    110  O   UNL A   1      54.271  27.006  25.260  1.00  0.00    -0.744 OA
ENDBRANCH 106 107
ENDBRANCH  74  99
ENDBRANCH  48  49
ENDBRANCH  41  43
ENDBRANCH  40  41
ENDBRANCH  39  40
ENDBRANCH  38  39
ENDBRANCH  37  38
ENDBRANCH  36  37
ENDBRANCH  35  36
ENDBRANCH  34  35
ENDBRANCH   1  34
TORSDOF 29
ENDMDL
MODEL 2
REMARK VINA RESULT:      -5.6      3.914     10.073
REMARK SMILES CCOc1cc([C@@H]2[NH2+][C@H](C(=O)OCCOCCOCCOCCOC(=O)c3ccc(-c4c5nc(c(-c6c(F)cc(S(=O)(=O)[O-])cc6F)c6ccc([nH]6)c(-c6c(F)cc(S(=O)(=O)[O-])cc6F)c6nc(c(-c7c(F)cc(S(=O)(=O)[O-])cc7F)c7ccc4[nH]7)C=C6)C=C5)cc3)CS2)ccc1OCc1ccc(Cl)cc1
REMARK SMILES IDX 17 1 16 2 15 3 14 4 13 5 12 6 10 7 11 8 9 9 7 10 8 11 94 12
REMARK SMILES IDX 93 15 6 16 4 17 5 18 97 19 96 20 95 21 3 22 2 23 1 24 98 25
REMARK SMILES IDX 99 26 100 27 101 28 106 29 102 30 105 31 103 32 104 33 18 34
REMARK SMILES IDX 19 35 20 36 21 37 22 38 23 39 24 40 25 41 26 42 27 43 28 44
REMARK SMILES IDX 92 45 29 46 91 47 30 48 31 49 32 50 85 51 33 52 90 53 84 54
REMARK SMILES IDX 86 55 34 56 89 57 83 58 82 59 35 61 69 62 48 63 68 64 49 65
REMARK SMILES IDX 52 66 67 67 87 68 50 69 51 70 66 72 88 73 53 74 36 75 37 76
REMARK SMILES IDX 46 77 38 78 39 79 45 80 47 81 40 82 41 83 42 84 43 85 44 86
REMARK SMILES IDX 70 87 71 88 80 89 72 90 73 91 79 92 81 93 74 94 75 95 76 96
REMARK SMILES IDX 77 97 78 98 54 99 55 100 64 101 56 102 57 103 63 104 65 105
REMARK SMILES IDX 58 106 59 107 60 108 61 109 62 110
REMARK H PARENT 8 13 8 14 86 60 52 71
REMARK Flexibility Score: inf
ROOT
ATOM      1  C   UNL A   1      37.141  31.392  39.265  1.00  0.00     0.188 C 
ENDROOT
BRANCH   1   2
ATOM      2  C   UNL A   1      37.421  30.749  37.898  1.00  0.00     0.188 C 
BRANCH   2   3
ATOM      3  O   UNL A   1      37.415  31.564  36.735  1.00  0.00    -0.376 OA
BRANCH   3   4
ATOM      4  C   UNL A   1      37.390  32.986  36.810  1.00  0.00     0.202 C 
BRANCH   4   5
ATOM      5  C   UNL A   1      37.440  33.865  35.551  1.00  0.00     0.261 C 
BRANCH   5   6
ATOM      6  O   UNL A   1      38.070  33.211  34.442  1.00  0.00    -0.459 OA
BRANCH   6   7
ATOM      7  C   UNL A   1      37.302  32.883  33.375  1.00  0.00     0.365 C 
ATOM      8  O   UNL A   1      36.665  31.836  33.298  1.00  0.00    -0.245 OA
BRANCH   7   9
ATOM      9  C   UNL A   1      37.163  34.025  32.332  1.00  0.00     0.304 C 
ATOM     10  C   UNL A   1      38.600  33.650  30.430  1.00  0.00     0.274 C 
ATOM     11  N   UNL A   1      38.416  34.469  31.638  1.00  0.00    -0.319 N 
ATOM     12  S   UNL A   1      36.956  33.738  29.670  1.00  0.00    -0.087 SA
ATOM     13  H   UNL A   1      38.335  35.452  31.378  1.00  0.00     0.348 HD
ATOM     14  H   UNL A   1      39.216  34.356  32.260  1.00  0.00     0.348 HD
ATOM     15  C   UNL A   1      36.102  33.693  31.279  1.00  0.00     0.153 C 
BRANCH  10  16
ATOM     16  C   UNL A   1      39.123  32.273  30.821  1.00  0.00     0.024 A 
ATOM     17  C   UNL A   1      39.190  29.889  30.254  1.00  0.00     0.161 A 
ATOM     18  C   UNL A   1      38.514  31.116  30.263  1.00  0.00     0.061 A 
ATOM     19  C   UNL A   1      40.475  29.823  30.814  1.00  0.00     0.161 A 
ATOM     20  C   UNL A   1      41.031  30.933  31.453  1.00  0.00     0.051 A 
ATOM     21  C   UNL A   1      40.336  32.129  31.509  1.00  0.00     0.015 A 
BRANCH  17  22
ATOM     22  O   UNL A   1      38.684  28.798  29.596  1.00  0.00    -0.490 OA
BRANCH  22  23
ATOM     23  C   UNL A   1      38.308  29.043  28.232  1.00  0.00     0.226 C 
ATOM     24  C   UNL A   1      36.883  29.589  28.219  1.00  0.00     0.049 C 
ENDBRANCH  22  23
ENDBRANCH  17  22
BRANCH  19  25
ATOM     25  O   UNL A   1      41.268  28.716  30.886  1.00  0.00    -0.485 OA
BRANCH  25  26
ATOM     26  C   UNL A   1      42.142  28.486  29.775  1.00  0.00     0.265 C 
BRANCH  26  27
ATOM     27  C   UNL A   1      42.184  27.099  29.147  1.00  0.00    -0.011 A 
ATOM     28  C   UNL A   1      43.264  26.257  29.438  1.00  0.00     0.009 A 
ATOM     29  C   UNL A   1      41.187  26.586  28.303  1.00  0.00     0.009 A 
ATOM     30  C   UNL A   1      43.198  24.897  29.116  1.00  0.00     0.021 A 
ATOM     31  C   UNL A   1      41.125  25.256  27.952  1.00  0.00     0.021 A 
ATOM     32  C   UNL A   1      42.074  24.404  28.459  1.00  0.00     0.041 A 
ATOM     33  Cl  UNL A   1      41.669  22.757  28.390  1.00  0.00    -0.084 Cl
ENDBRANCH  26  27
ENDBRANCH  25  26
ENDBRANCH  19  25
ENDBRANCH  10  16
ENDBRANCH   7   9
ENDBRANCH   6   7
ENDBRANCH   5   6
ENDBRANCH   4   5
ENDBRANCH   3   4
ENDBRANCH   2   3
ENDBRANCH   1   2
BRANCH   1  34
ATOM     34  O   UNL A   1      35.790  31.530  39.648  1.00  0.00    -0.377 OA
BRANCH  34  35
ATOM     35  C   UNL A   1      35.434  32.832  40.077  1.00  0.00     0.188 C 
BRANCH  35  36
ATOM     36  C   UNL A   1      35.888  33.161  41.502  1.00  0.00     0.188 C 
BRANCH  36  37
ATOM     37  O   UNL A   1      37.071  33.911  41.768  1.00  0.00    -0.376 OA
BRANCH  37  38
ATOM     38  C   UNL A   1      37.916  34.316  40.706  1.00  0.00     0.202 C 
BRANCH  38  39
ATOM     39  C   UNL A   1      39.415  34.500  41.023  1.00  0.00     0.261 C 
BRANCH  39  40
ATOM     40  O   UNL A   1      40.344  34.310  39.941  1.00  0.00    -0.460 OA
BRANCH  40  41
ATOM     41  C   UNL A   1      40.817  33.058  39.799  1.00  0.00     0.338 C 
ATOM     42  O   UNL A   1      40.702  32.129  40.606  1.00  0.00    -0.246 OA
BRANCH  41  43
ATOM     43  C   UNL A   1      41.455  32.892  38.480  1.00  0.00     0.060 A 
ATOM     44  C   UNL A   1      40.675  32.431  37.416  1.00  0.00     0.016 A 
ATOM     45  C   UNL A   1      42.833  33.076  38.305  1.00  0.00     0.016 A 
ATOM     46  C   UNL A   1      41.274  32.116  36.192  1.00  0.00     0.010 A 
ATOM     47  C   UNL A   1      43.433  32.754  37.075  1.00  0.00     0.010 A 
ATOM     48  C   UNL A   1      42.660  32.253  36.015  1.00  0.00    -0.014 A 
BRANCH  48  49
ATOM     49  C   UNL A   1      43.294  31.652  34.809  1.00  0.00     0.031 A 
ATOM     50  C   UNL A   1      43.488  32.542  33.606  1.00  0.00     0.074 A 
ATOM     51  C   UNL A   1      43.712  30.371  34.766  1.00  0.00     0.049 A 
ATOM     52  N   UNL A   1      44.021  32.265  32.445  1.00  0.00    -0.248 NA
ATOM     53  C   UNL A   1      42.985  33.921  33.726  1.00  0.00     0.031 C 
ATOM     54  C   UNL A   1      43.546  29.384  35.831  1.00  0.00     0.029 A 
ATOM     55  N   UNL A   1      44.375  29.676  33.781  1.00  0.00    -0.354 N 
ATOM     56  C   UNL A   1      43.892  33.424  31.686  1.00  0.00     0.074 A 
ATOM     57  C   UNL A   1      43.233  34.405  32.519  1.00  0.00     0.031 C 
ATOM     58  C   UNL A   1      44.131  28.228  35.463  1.00  0.00     0.029 A 
ATOM     59  C   UNL A   1      44.684  28.378  34.122  1.00  0.00     0.049 A 
ATOM     60  H   UNL A   1      44.610  30.073  32.910  1.00  0.00     0.167 HD
ATOM     61  C   UNL A   1      44.268  33.643  30.404  1.00  0.00     0.037 A 
ATOM     62  C   UNL A   1      45.327  27.421  33.420  1.00  0.00     0.037 A 
ATOM     63  C   UNL A   1      44.899  32.659  29.565  1.00  0.00     0.049 A 
ATOM     64  C   UNL A   1      45.757  27.706  32.005  1.00  0.00     0.074 A 
ATOM     65  C   UNL A   1      45.320  32.788  28.253  1.00  0.00     0.029 A 
ATOM     66  N   UNL A   1      45.185  31.358  29.949  1.00  0.00    -0.354 N 
ATOM     67  N   UNL A   1      45.626  28.806  31.306  1.00  0.00    -0.248 NA
ATOM     68  C   UNL A   1      46.399  26.599  31.277  1.00  0.00     0.031 C 
ATOM     69  C   UNL A   1      45.816  31.552  27.828  1.00  0.00     0.029 A 
ATOM     70  C   UNL A   1      45.761  30.670  28.894  1.00  0.00     0.049 A 
ATOM     71  H   UNL A   1      45.006  30.979  30.841  1.00  0.00     0.167 HD
ATOM     72  C   UNL A   1      46.150  28.516  30.050  1.00  0.00     0.074 A 
ATOM     73  C   UNL A   1      46.636  27.154  30.098  1.00  0.00     0.031 C 
ATOM     74  C   UNL A   1      46.211  29.304  28.950  1.00  0.00     0.037 A 
BRANCH  61  75
ATOM     75  C   UNL A   1      43.952  34.988  29.814  1.00  0.00     0.058 A 
ATOM     76  C   UNL A   1      44.895  36.029  29.789  1.00  0.00     0.135 A 
ATOM     77  C   UNL A   1      42.688  35.235  29.253  1.00  0.00     0.135 A 
ATOM     78  F   UNL A   1      46.109  35.854  30.333  1.00  0.00    -0.206 F 
ATOM     79  C   UNL A   1      44.585  37.275  29.255  1.00  0.00     0.059 A 
ATOM     80  C   UNL A   1      42.368  36.463  28.686  1.00  0.00     0.059 A 
ATOM     81  F   UNL A   1      41.748  34.276  29.256  1.00  0.00    -0.206 F 
ATOM     82  C   UNL A   1      43.318  37.482  28.705  1.00  0.00     0.060 A 
BRANCH  82  83
ATOM     83  S   UNL A   1      42.933  39.104  28.014  1.00  0.00     0.124 S 
ATOM     84  O   UNL A   1      43.130  38.865  26.586  1.00  0.00    -0.237 OA
ATOM     85  O   UNL A   1      41.550  39.304  28.437  1.00  0.00    -0.237 OA
ATOM     86  O   UNL A   1      43.913  39.984  28.643  1.00  0.00    -0.744 OA
ENDBRANCH  82  83
ENDBRANCH  61  75
BRANCH  62  87
ATOM     87  C   UNL A   1      45.597  26.068  33.973  1.00  0.00     0.058 A 
ATOM     88  C   UNL A   1      46.825  25.780  34.589  1.00  0.00     0.135 A 
ATOM     89  C   UNL A   1      44.708  25.006  33.756  1.00  0.00     0.135 A 
ATOM     90  F   UNL A   1      47.723  26.758  34.785  1.00  0.00    -0.206 F 
ATOM     91  C   UNL A   1      47.165  24.485  34.972  1.00  0.00     0.059 A 
ATOM     92  C   UNL A   1      45.036  23.698  34.109  1.00  0.00     0.059 A 
ATOM     93  F   UNL A   1      43.515  25.238  33.187  1.00  0.00    -0.206 F 
ATOM     94  C   UNL A   1      46.265  23.447  34.727  1.00  0.00     0.060 A 
BRANCH  94  95
ATOM     95  S   UNL A   1      46.657  21.804  35.395  1.00  0.00     0.124 S 
ATOM     96  O   UNL A   1      48.076  21.940  35.701  1.00  0.00    -0.237 OA
ATOM     97  O   UNL A   1      45.767  21.728  36.552  1.00  0.00    -0.237 OA
ATOM     98  O   UNL A   1      46.340  20.895  34.298  1.00  0.00    -0.744 OA
ENDBRANCH  94  95
ENDBRANCH  62  87
BRANCH  74  99
ATOM     99  C   UNL A   1      46.825  28.708  27.716  1.00  0.00     0.058 A 
ATOM    100  C   UNL A   1      48.208  28.756  27.483  1.00  0.00     0.135 A 
ATOM    101  C   UNL A   1      46.019  28.060  26.766  1.00  0.00     0.135 A 
ATOM    102  F   UNL A   1      49.020  29.377  28.353  1.00  0.00    -0.206 F 
ATOM    103  C   UNL A   1      48.770  28.200  26.339  1.00  0.00     0.059 A 
ATOM    104  C   UNL A   1      46.563  27.473  25.630  1.00  0.00     0.059 A 
ATOM    105  F   UNL A   1      44.690  27.986  26.944  1.00  0.00    -0.206 F 
ATOM    106  C   UNL A   1      47.939  27.558  25.418  1.00  0.00     0.060 A 
BRANCH 106 107
ATOM    107  S   UNL A   1      48.682  26.813  23.952  1.00  0.00     0.124 S 
ATOM    108  O   UNL A   1      50.042  26.552  24.411  1.00  0.00    -0.237 OA
ATOM    109  O   UNL A   1      47.846  25.635  23.743  1.00  0.00    -0.237 OA
ATOM    110  O   UNL A   1      48.551  27.856  22.938  1.00  0.00    -0.744 OA
ENDBRANCH 106 107
ENDBRANCH  74  99
ENDBRANCH  48  49
ENDBRANCH  41  43
ENDBRANCH  40  41
ENDBRANCH  39  40
ENDBRANCH  38  39
ENDBRANCH  37  38
ENDBRANCH  36  37
ENDBRANCH  35  36
ENDBRANCH  34  35
ENDBRANCH   1  34
TORSDOF 29
ENDMDL
MODEL 3
REMARK VINA RESULT:      -5.5      2.578      3.955
REMARK SMILES CCOc1cc([C@@H]2[NH2+][C@H](C(=O)OCCOCCOCCOCCOC(=O)c3ccc(-c4c5nc(c(-c6c(F)cc(S(=O)(=O)[O-])cc6F)c6ccc([nH]6)c(-c6c(F)cc(S(=O)(=O)[O-])cc6F)c6nc(c(-c7c(F)cc(S(=O)(=O)[O-])cc7F)c7ccc4[nH]7)C=C6)C=C5)cc3)CS2)ccc1OCc1ccc(Cl)cc1
REMARK SMILES IDX 17 1 16 2 15 3 14 4 13 5 12 6 10 7 11 8 9 9 7 10 8 11 94 12
REMARK SMILES IDX 93 15 6 16 4 17 5 18 97 19 96 20 95 21 3 22 2 23 1 24 98 25
REMARK SMILES IDX 99 26 100 27 101 28 106 29 102 30 105 31 103 32 104 33 18 34
REMARK SMILES IDX 19 35 20 36 21 37 22 38 23 39 24 40 25 41 26 42 27 43 28 44
REMARK SMILES IDX 92 45 29 46 91 47 30 48 31 49 32 50 85 51 33 52 90 53 84 54
REMARK SMILES IDX 86 55 34 56 89 57 83 58 82 59 35 61 69 62 48 63 68 64 49 65
REMARK SMILES IDX 52 66 67 67 87 68 50 69 51 70 66 72 88 73 53 74 36 75 37 76
REMARK SMILES IDX 46 77 38 78 39 79 45 80 47 81 40 82 41 83 42 84 43 85 44 86
REMARK SMILES IDX 70 87 71 88 80 89 72 90 73 91 79 92 81 93 74 94 75 95 76 96
REMARK SMILES IDX 77 97 78 98 54 99 55 100 64 101 56 102 57 103 63 104 65 105
REMARK SMILES IDX 58 106 59 107 60 108 61 109 62 110
REMARK H PARENT 8 13 8 14 86 60 52 71
REMARK Flexibility Score: inf
ROOT
ATOM      1  C   UNL A   1      40.517  30.022  35.414  1.00  0.00     0.188 C 
ENDROOT
BRANCH   1   2
ATOM      2  C   UNL A   1      42.053  30.044  35.399  1.00  0.00     0.188 C 
BRANCH   2   3
ATOM      3  O   UNL A   1      42.725  31.141  34.797  1.00  0.00    -0.376 OA
BRANCH   3   4
ATOM      4  C   UNL A   1      43.951  30.980  34.090  1.00  0.00     0.202 C 
BRANCH   4   5
ATOM      5  C   UNL A   1      44.943  29.857  34.432  1.00  0.00     0.261 C 
BRANCH   5   6
ATOM      6  O   UNL A   1      45.052  28.877  33.392  1.00  0.00    -0.459 OA
BRANCH   6   7
ATOM      7  C   UNL A   1      46.191  28.850  32.659  1.00  0.00     0.365 C 
ATOM      8  O   UNL A   1      47.300  29.100  33.124  1.00  0.00    -0.245 OA
BRANCH   7   9
ATOM      9  C   UNL A   1      45.992  28.308  31.217  1.00  0.00     0.304 C 
ATOM     10  C   UNL A   1      47.050  26.157  30.939  1.00  0.00     0.274 C 
ATOM     11  N   UNL A   1      47.149  27.584  30.596  1.00  0.00    -0.319 N 
ATOM     12  S   UNL A   1      45.319  25.800  30.535  1.00  0.00    -0.087 SA
ATOM     13  H   UNL A   1      47.122  27.697  29.583  1.00  0.00     0.348 HD
ATOM     14  H   UNL A   1      48.028  27.967  30.948  1.00  0.00     0.348 HD
ATOM     15  C   UNL A   1      44.744  27.426  31.120  1.00  0.00     0.153 C 
BRANCH  10  16
ATOM     16  C   UNL A   1      47.496  25.946  32.381  1.00  0.00     0.024 A 
ATOM     17  C   UNL A   1      47.101  24.729  34.473  1.00  0.00     0.161 A 
ATOM     18  C   UNL A   1      46.612  25.308  33.293  1.00  0.00     0.061 A 
ATOM     19  C   UNL A   1      48.476  24.800  34.739  1.00  0.00     0.161 A 
ATOM     20  C   UNL A   1      49.329  25.516  33.895  1.00  0.00     0.051 A 
ATOM     21  C   UNL A   1      48.833  26.133  32.760  1.00  0.00     0.015 A 
BRANCH  17  22
ATOM     22  O   UNL A   1      46.292  23.986  35.292  1.00  0.00    -0.490 OA
BRANCH  22  23
ATOM     23  C   UNL A   1      45.265  23.249  34.613  1.00  0.00     0.226 C 
ATOM     24  C   UNL A   1      44.045  23.173  35.527  1.00  0.00     0.049 C 
ENDBRANCH  22  23
ENDBRANCH  17  22
BRANCH  19  25
ATOM     25  O   UNL A   1      49.114  24.292  35.831  1.00  0.00    -0.485 OA
BRANCH  25  26
ATOM     26  C   UNL A   1      49.706  22.997  35.676  1.00  0.00     0.265 C 
BRANCH  26  27
ATOM     27  C   UNL A   1      48.799  21.776  35.617  1.00  0.00    -0.011 A 
ATOM     28  C   UNL A   1      48.173  21.340  36.791  1.00  0.00     0.009 A 
ATOM     29  C   UNL A   1      48.521  21.057  34.443  1.00  0.00     0.009 A 
ATOM     30  C   UNL A   1      47.127  20.413  36.724  1.00  0.00     0.021 A 
ATOM     31  C   UNL A   1      47.515  20.120  34.369  1.00  0.00     0.021 A 
ATOM     32  C   UNL A   1      46.754  19.892  35.488  1.00  0.00     0.041 A 
ATOM     33  Cl  UNL A   1      45.273  19.114  35.201  1.00  0.00    -0.084 Cl
ENDBRANCH  26  27
ENDBRANCH  25  26
ENDBRANCH  19  25
ENDBRANCH  10  16
ENDBRANCH   7   9
ENDBRANCH   6   7
ENDBRANCH   5   6
ENDBRANCH   4   5
ENDBRANCH   3   4
ENDBRANCH   2   3
ENDBRANCH   1   2
BRANCH   1  34
ATOM     34  O   UNL A   1      39.851  31.130  34.850  1.00  0.00    -0.377 OA
BRANCH  34  35
ATOM     35  C   UNL A   1      39.408  32.090  35.793  1.00  0.00     0.188 C 
BRANCH  35  36
ATOM     36  C   UNL A   1      39.164  33.479  35.196  1.00  0.00     0.188 C 
BRANCH  36  37
ATOM     37  O   UNL A   1      38.852  33.668  33.819  1.00  0.00    -0.376 OA
BRANCH  37  38
ATOM     38  C   UNL A   1      37.522  33.943  33.416  1.00  0.00     0.202 C 
BRANCH  38  39
ATOM     39  C   UNL A   1      36.998  33.219  32.158  1.00  0.00     0.261 C 
BRANCH  39  40
ATOM     40  O   UNL A   1      37.297  31.817  32.035  1.00  0.00    -0.460 OA
BRANCH  40  41
ATOM     41  C   UNL A   1      37.011  31.268  30.839  1.00  0.00     0.338 C 
ATOM     42  O   UNL A   1      35.950  31.370  30.215  1.00  0.00    -0.246 OA
BRANCH  41  43
ATOM     43  C   UNL A   1      38.185  30.555  30.302  1.00  0.00     0.060 A 
ATOM     44  C   UNL A   1      39.143  30.079  31.201  1.00  0.00     0.016 A 
ATOM     45  C   UNL A   1      38.410  30.450  28.924  1.00  0.00     0.016 A 
ATOM     46  C   UNL A   1      40.341  29.535  30.726  1.00  0.00     0.010 A 
ATOM     47  C   UNL A   1      39.617  29.907  28.450  1.00  0.00     0.010 A 
ATOM     48  C   UNL A   1      40.601  29.463  29.349  1.00  0.00    -0.014 A 
BRANCH  48  49
ATOM     49  C   UNL A   1      41.981  29.141  28.892  1.00  0.00     0.031 A 
ATOM     50  C   UNL A   1      42.235  27.751  28.367  1.00  0.00     0.074 A 
ATOM     51  C   UNL A   1      42.984  30.042  28.912  1.00  0.00     0.049 A 
ATOM     52  N   UNL A   1      43.340  27.227  27.902  1.00  0.00    -0.248 NA
ATOM     53  C   UNL A   1      41.093  26.821  28.399  1.00  0.00     0.031 C 
ATOM     54  C   UNL A   1      42.898  31.403  29.436  1.00  0.00     0.029 A 
ATOM     55  N   UNL A   1      44.282  29.948  28.467  1.00  0.00    -0.354 N 
ATOM     56  C   UNL A   1      43.035  25.901  27.614  1.00  0.00     0.074 A 
ATOM     57  C   UNL A   1      41.644  25.701  27.954  1.00  0.00     0.031 C 
ATOM     58  C   UNL A   1      44.073  32.032  29.243  1.00  0.00     0.029 A 
ATOM     59  C   UNL A   1      45.010  31.109  28.612  1.00  0.00     0.049 A 
ATOM     60  H   UNL A   1      44.658  29.124  28.079  1.00  0.00     0.167 HD
ATOM     61  C   UNL A   1      43.847  24.930  27.132  1.00  0.00     0.037 A 
ATOM     62  C   UNL A   1      46.290  31.382  28.285  1.00  0.00     0.037 A 
ATOM     63  C   UNL A   1      45.238  25.119  26.819  1.00  0.00     0.049 A 
ATOM     64  C   UNL A   1      47.160  30.287  27.724  1.00  0.00     0.074 A 
ATOM     65  C   UNL A   1      46.142  24.197  26.322  1.00  0.00     0.029 A 
ATOM     66  N   UNL A   1      45.933  26.308  26.988  1.00  0.00    -0.354 N 
ATOM     67  N   UNL A   1      46.854  29.041  27.460  1.00  0.00    -0.248 NA
ATOM     68  C   UNL A   1      48.562  30.638  27.446  1.00  0.00     0.031 C 
ATOM     69  C   UNL A   1      47.395  24.813  26.236  1.00  0.00     0.029 A 
ATOM     70  C   UNL A   1      47.257  26.136  26.621  1.00  0.00     0.049 A 
ATOM     71  H   UNL A   1      45.543  27.149  27.320  1.00  0.00     0.167 HD
ATOM     72  C   UNL A   1      48.030  28.456  27.005  1.00  0.00     0.074 A 
ATOM     73  C   UNL A   1      49.041  29.491  26.990  1.00  0.00     0.031 C 
ATOM     74  C   UNL A   1      48.258  27.170  26.643  1.00  0.00     0.037 A 
BRANCH  61  75
ATOM     75  C   UNL A   1      43.258  23.558  26.967  1.00  0.00     0.058 A 
ATOM     76  C   UNL A   1      43.123  22.673  28.049  1.00  0.00     0.135 A 
ATOM     77  C   UNL A   1      42.809  23.127  25.708  1.00  0.00     0.135 A 
ATOM     78  F   UNL A   1      43.557  23.026  29.270  1.00  0.00    -0.206 F 
ATOM     79  C   UNL A   1      42.591  21.399  27.883  1.00  0.00     0.059 A 
ATOM     80  C   UNL A   1      42.246  21.868  25.524  1.00  0.00     0.059 A 
ATOM     81  F   UNL A   1      42.920  23.931  24.639  1.00  0.00    -0.206 F 
ATOM     82  C   UNL A   1      42.155  21.007  26.615  1.00  0.00     0.060 A 
BRANCH  82  83
ATOM     83  S   UNL A   1      41.465  19.350  26.416  1.00  0.00     0.124 S 
ATOM     84  O   UNL A   1      42.452  18.729  25.537  1.00  0.00    -0.237 OA
ATOM     85  O   UNL A   1      41.438  18.856  27.789  1.00  0.00    -0.237 OA
ATOM     86  O   UNL A   1      40.158  19.597  25.815  1.00  0.00    -0.744 OA
ENDBRANCH  82  83
ENDBRANCH  61  75
BRANCH  62  87
ATOM     87  C   UNL A   1      46.901  32.721  28.495  1.00  0.00     0.058 A 
ATOM     88  C   UNL A   1      46.925  33.665  27.456  1.00  0.00     0.135 A 
ATOM     89  C   UNL A   1      47.606  33.020  29.668  1.00  0.00     0.135 A 
ATOM     90  F   UNL A   1      46.295  33.407  26.300  1.00  0.00    -0.206 F 
ATOM     91  C   UNL A   1      47.627  34.861  27.572  1.00  0.00     0.059 A 
ATOM     92  C   UNL A   1      48.336  34.202  29.798  1.00  0.00     0.059 A 
ATOM     93  F   UNL A   1      47.595  32.156  30.694  1.00  0.00    -0.206 F 
ATOM     94  C   UNL A   1      48.332  35.123  28.747  1.00  0.00     0.060 A 
BRANCH  94  95
ATOM     95  S   UNL A   1      49.090  36.763  28.940  1.00  0.00     0.124 S 
ATOM     96  O   UNL A   1      50.407  36.552  28.352  1.00  0.00    -0.237 OA
ATOM     97  O   UNL A   1      48.181  37.607  28.167  1.00  0.00    -0.237 OA
ATOM     98  O   UNL A   1      49.079  36.986  30.382  1.00  0.00    -0.744 OA
ENDBRANCH  94  95
ENDBRANCH  62  87
BRANCH  74  99
ATOM     99  C   UNL A   1      49.651  26.820  26.202  1.00  0.00     0.058 A 
ATOM    100  C   UNL A   1      50.592  26.280  27.093  1.00  0.00     0.135 A 
ATOM    101  C   UNL A   1      50.039  27.006  24.866  1.00  0.00     0.135 A 
ATOM    102  F   UNL A   1      50.274  26.096  28.384  1.00  0.00    -0.206 F 
ATOM    103  C   UNL A   1      51.879  25.955  26.678  1.00  0.00     0.059 A 
ATOM    104  C   UNL A   1      51.311  26.662  24.424  1.00  0.00     0.059 A 
ATOM    105  F   UNL A   1      49.175  27.518  23.975  1.00  0.00    -0.206 F 
ATOM    106  C   UNL A   1      52.228  26.148  25.339  1.00  0.00     0.060 A 
BRANCH 106 107
ATOM    107  S   UNL A   1      53.892  25.695  24.805  1.00  0.00     0.124 S 
ATOM    108  O   UNL A   1      53.911  24.264  25.084  1.00  0.00    -0.237 OA
ATOM    109  O   UNL A   1      53.877  26.067  23.393  1.00  0.00    -0.237 OA
ATOM    110  O   UNL A   1      54.755  26.512  25.653  1.00  0.00    -0.744 OA
ENDBRANCH 106 107
ENDBRANCH  74  99
ENDBRANCH  48  49
ENDBRANCH  41  43
ENDBRANCH  40  41
ENDBRANCH  39  40
ENDBRANCH  38  39
ENDBRANCH  37  38
ENDBRANCH  36  37
ENDBRANCH  35  36
ENDBRANCH  34  35
ENDBRANCH   1  34
TORSDOF 29
ENDMDL
