MODEL 1
REMARK VINA RESULT:      -9.8      0.000      0.000
REMARK SMILES C[C@H]1OCC[C@@H]1C(=O)Nc1ccc(Cl)c(C(=O)OCCOCCOCCOCCOC(=O)c2ccc(-c3c4nc(c(-c5c(F)cc(S(=O)(=O)[O-])cc5F)c5ccc([nH]5)c(-c5c(F)cc(S(=O)(=O)[O-])cc5F)c5nc(c(-c6c(F)cc(S(=O)(=O)[O-])cc6F)c6ccc3[nH]6)C=C5)C=C4)cc2)c1
REMARK SMILES IDX 25 1 24 2 23 3 22 4 21 5 20 6 19 7 18 8 16 9 17 10 15 11
REMARK SMILES IDX 10 12 11 13 99 14 12 15 13 16 14 17 9 18 7 19 8 20 6 22 1 23
REMARK SMILES IDX 2 24 3 25 4 26 5 27 26 28 27 29 28 30 29 31 30 32 31 33
REMARK SMILES IDX 32 34 33 35 34 36 98 37 35 38 97 39 36 40 37 41 38 42 91 43
REMARK SMILES IDX 39 44 96 45 90 46 92 47 40 48 95 49 89 50 88 51 41 53 75 54
REMARK SMILES IDX 54 55 74 56 55 57 58 58 73 59 93 60 56 61 57 62 72 64 94 65
REMARK SMILES IDX 59 66 42 67 43 68 52 69 44 70 45 71 51 72 53 73 46 74 47 75
REMARK SMILES IDX 48 76 49 77 50 78 76 79 77 80 86 81 78 82 79 83 85 84 87 85
REMARK SMILES IDX 80 86 81 87 82 88 83 89 84 90 60 91 61 92 70 93 62 94 63 95
REMARK SMILES IDX 69 96 71 97 64 98 65 99 66 100 67 101 68 102
REMARK H PARENT 9 21 92 52 58 63
REMARK Flexibility Score: inf
ROOT
ATOM      1  C   UNL A   1      33.209  33.391  27.864  1.00  0.00     0.188 C 
ENDROOT
BRANCH   1   2
ATOM      2  O   UNL A   1      31.916  33.405  27.269  1.00  0.00    -0.377 OA
BRANCH   2   3
ATOM      3  C   UNL A   1      31.415  32.182  26.772  1.00  0.00     0.188 C 
BRANCH   3   4
ATOM      4  C   UNL A   1      32.414  31.010  26.857  1.00  0.00     0.188 C 
BRANCH   4   5
ATOM      5  O   UNL A   1      32.128  29.751  26.271  1.00  0.00    -0.376 OA
BRANCH   5   6
ATOM      6  C   UNL A   1      32.964  29.150  25.291  1.00  0.00     0.202 C 
BRANCH   6   7
ATOM      7  C   UNL A   1      32.664  29.098  23.783  1.00  0.00     0.261 C 
BRANCH   7   8
ATOM      8  O   UNL A   1      32.349  27.814  23.258  1.00  0.00    -0.460 OA
BRANCH   8   9
ATOM      9  C   UNL A   1      33.243  27.259  22.415  1.00  0.00     0.339 C 
ATOM     10  O   UNL A   1      34.124  27.827  21.793  1.00  0.00    -0.246 OA
BRANCH   9  11
ATOM     11  C   UNL A   1      33.196  25.797  22.617  1.00  0.00     0.080 A 
ATOM     12  C   UNL A   1      33.257  24.008  24.243  1.00  0.00     0.042 A 
ATOM     13  C   UNL A   1      32.885  23.100  23.255  1.00  0.00     0.028 A 
ATOM     14  C   UNL A   1      33.346  25.363  23.944  1.00  0.00     0.043 A 
ATOM     15  C   UNL A   1      32.725  23.530  21.936  1.00  0.00     0.023 A 
ATOM     16  C   UNL A   1      32.912  24.876  21.603  1.00  0.00     0.055 A 
ATOM     17  Cl  UNL A   1      32.788  25.307  19.939  1.00  0.00    -0.083 Cl
BRANCH  12  18
ATOM     18  N   UNL A   1      33.530  23.579  25.541  1.00  0.00    -0.326 N 
ATOM     19  C   UNL A   1      34.756  23.334  26.099  1.00  0.00     0.230 C 
ATOM     20  O   UNL A   1      34.779  22.956  27.277  1.00  0.00    -0.274 OA
ATOM     21  H   UNL A   1      32.751  23.436  26.125  1.00  0.00     0.169 HD
BRANCH  19  22
ATOM     22  C   UNL A   1      36.080  23.566  25.364  1.00  0.00     0.110 C 
ATOM     23  C   UNL A   1      36.690  22.889  22.986  1.00  0.00     0.039 C 
ATOM     24  C   UNL A   1      36.453  22.429  24.418  1.00  0.00     0.127 C 
ATOM     25  O   UNL A   1      37.657  21.839  24.922  1.00  0.00    -0.378 OA
ATOM     26  C   UNL A   1      38.321  22.785  25.759  1.00  0.00     0.161 C 
ATOM     27  C   UNL A   1      37.288  23.778  26.250  1.00  0.00     0.044 C 
ENDBRANCH  19  22
ENDBRANCH  12  18
ENDBRANCH   9  11
ENDBRANCH   8   9
ENDBRANCH   7   8
ENDBRANCH   6   7
ENDBRANCH   5   6
ENDBRANCH   4   5
ENDBRANCH   3   4
ENDBRANCH   2   3
ENDBRANCH   1   2
BRANCH   1  28
ATOM     28  C   UNL A   1      33.668  34.579  28.743  1.00  0.00     0.188 C 
BRANCH  28  29
ATOM     29  O   UNL A   1      35.073  34.798  28.756  1.00  0.00    -0.376 OA
BRANCH  29  30
ATOM     30  C   UNL A   1      35.929  33.685  28.945  1.00  0.00     0.202 C 
BRANCH  30  31
ATOM     31  C   UNL A   1      35.338  32.489  29.707  1.00  0.00     0.261 C 
BRANCH  31  32
ATOM     32  O   UNL A   1      36.240  31.398  29.934  1.00  0.00    -0.460 OA
BRANCH  32  33
ATOM     33  C   UNL A   1      37.213  31.603  30.853  1.00  0.00     0.338 C 
ATOM     34  O   UNL A   1      37.087  32.102  31.950  1.00  0.00    -0.246 OA
BRANCH  33  35
ATOM     35  C   UNL A   1      38.438  30.929  30.369  1.00  0.00     0.060 A 
ATOM     36  C   UNL A   1      39.490  30.726  31.270  1.00  0.00     0.016 A 
ATOM     37  C   UNL A   1      38.548  30.510  29.041  1.00  0.00     0.016 A 
ATOM     38  C   UNL A   1      40.679  30.144  30.830  1.00  0.00     0.010 A 
ATOM     39  C   UNL A   1      39.746  29.942  28.599  1.00  0.00     0.010 A 
ATOM     40  C   UNL A   1      40.829  29.792  29.483  1.00  0.00    -0.014 A 
BRANCH  40  41
ATOM     41  C   UNL A   1      42.179  29.453  28.967  1.00  0.00     0.031 A 
ATOM     42  C   UNL A   1      42.440  28.040  28.517  1.00  0.00     0.074 A 
ATOM     43  C   UNL A   1      43.139  30.388  28.857  1.00  0.00     0.049 A 
ATOM     44  N   UNL A   1      43.535  27.508  28.041  1.00  0.00    -0.248 NA
ATOM     45  C   UNL A   1      41.311  27.098  28.622  1.00  0.00     0.031 C 
ATOM     46  C   UNL A   1      42.995  31.796  29.226  1.00  0.00     0.029 A 
ATOM     47  N   UNL A   1      44.431  30.290  28.403  1.00  0.00    -0.354 N 
ATOM     48  C   UNL A   1      43.232  26.174  27.794  1.00  0.00     0.074 A 
ATOM     49  C   UNL A   1      41.861  25.967  28.206  1.00  0.00     0.031 C 
ATOM     50  C   UNL A   1      44.158  32.429  28.992  1.00  0.00     0.029 A 
ATOM     51  C   UNL A   1      45.137  31.467  28.488  1.00  0.00     0.049 A 
ATOM     52  H   UNL A   1      44.816  29.455  28.052  1.00  0.00     0.167 HD
ATOM     53  C   UNL A   1      44.021  25.211  27.262  1.00  0.00     0.037 A 
ATOM     54  C   UNL A   1      46.430  31.730  28.207  1.00  0.00     0.037 A 
ATOM     55  C   UNL A   1      45.385  25.426  26.853  1.00  0.00     0.049 A 
ATOM     56  C   UNL A   1      47.309  30.625  27.674  1.00  0.00     0.074 A 
ATOM     57  C   UNL A   1      46.262  24.519  26.283  1.00  0.00     0.029 A 
ATOM     58  N   UNL A   1      46.073  26.623  26.978  1.00  0.00    -0.354 N 
ATOM     59  N   UNL A   1      47.000  29.375  27.416  1.00  0.00    -0.248 NA
ATOM     60  C   UNL A   1      48.708  30.966  27.387  1.00  0.00     0.031 C 
ATOM     61  C   UNL A   1      47.498  25.152  26.121  1.00  0.00     0.029 A 
ATOM     62  C   UNL A   1      47.373  26.472  26.523  1.00  0.00     0.049 A 
ATOM     63  H   UNL A   1      45.693  27.458  27.337  1.00  0.00     0.167 HD
ATOM     64  C   UNL A   1      48.158  28.793  26.906  1.00  0.00     0.074 A 
ATOM     65  C   UNL A   1      49.167  29.831  26.880  1.00  0.00     0.031 C 
ATOM     66  C   UNL A   1      48.366  27.517  26.496  1.00  0.00     0.037 A 
BRANCH  53  67
ATOM     67  C   UNL A   1      43.442  23.830  27.116  1.00  0.00     0.058 A 
ATOM     68  C   UNL A   1      43.424  22.915  28.181  1.00  0.00     0.135 A 
ATOM     69  C   UNL A   1      42.855  23.433  25.904  1.00  0.00     0.135 A 
ATOM     70  F   UNL A   1      43.991  23.233  29.356  1.00  0.00    -0.206 F 
ATOM     71  C   UNL A   1      42.860  21.650  28.044  1.00  0.00     0.059 A 
ATOM     72  C   UNL A   1      42.258  22.185  25.754  1.00  0.00     0.059 A 
ATOM     73  F   UNL A   1      42.850  24.265  24.851  1.00  0.00    -0.206 F 
ATOM     74  C   UNL A   1      42.274  21.297  26.827  1.00  0.00     0.060 A 
BRANCH  74  75
ATOM     75  S   UNL A   1      41.526  19.661  26.675  1.00  0.00     0.124 S 
ATOM     76  O   UNL A   1      42.174  18.941  27.767  1.00  0.00    -0.237 OA
ATOM     77  O   UNL A   1      40.108  19.950  26.861  1.00  0.00    -0.237 OA
ATOM     78  O   UNL A   1      41.906  19.236  25.332  1.00  0.00    -0.744 OA
ENDBRANCH  74  75
ENDBRANCH  53  67
BRANCH  54  79
ATOM     79  C   UNL A   1      46.984  33.093  28.438  1.00  0.00     0.058 A 
ATOM     80  C   UNL A   1      47.510  33.466  29.685  1.00  0.00     0.135 A 
ATOM     81  C   UNL A   1      46.980  34.059  27.419  1.00  0.00     0.135 A 
ATOM     82  F   UNL A   1      47.526  32.586  30.697  1.00  0.00    -0.206 F 
ATOM     83  C   UNL A   1      47.990  34.751  29.920  1.00  0.00     0.059 A 
ATOM     84  C   UNL A   1      47.483  35.340  27.620  1.00  0.00     0.059 A 
ATOM     85  F   UNL A   1      46.496  33.753  26.205  1.00  0.00    -0.206 F 
ATOM     86  C   UNL A   1      47.975  35.681  28.879  1.00  0.00     0.060 A 
BRANCH  86  87
ATOM     87  S   UNL A   1      48.635  37.334  29.184  1.00  0.00     0.124 S 
ATOM     88  O   UNL A   1      48.012  37.668  30.460  1.00  0.00    -0.237 OA
ATOM     89  O   UNL A   1      50.073  37.085  29.220  1.00  0.00    -0.237 OA
ATOM     90  O   UNL A   1      48.167  38.101  28.033  1.00  0.00    -0.744 OA
ENDBRANCH  86  87
ENDBRANCH  54  79
BRANCH  66  91
ATOM     91  C   UNL A   1      49.724  27.176  25.937  1.00  0.00     0.058 A 
ATOM     92  C   UNL A   1      50.784  26.759  26.757  1.00  0.00     0.135 A 
ATOM     93  C   UNL A   1      49.953  27.227  24.551  1.00  0.00     0.135 A 
ATOM     94  F   UNL A   1      50.623  26.693  28.089  1.00  0.00    -0.206 F 
ATOM     95  C   UNL A   1      52.031  26.437  26.228  1.00  0.00     0.059 A 
ATOM     96  C   UNL A   1      51.180  26.877  23.998  1.00  0.00     0.059 A 
ATOM     97  F   UNL A   1      48.971  27.605  23.717  1.00  0.00    -0.206 F 
ATOM     98  C   UNL A   1      52.219  26.499  24.846  1.00  0.00     0.060 A 
BRANCH  98  99
ATOM     99  S   UNL A   1      53.835  26.062  24.173  1.00  0.00     0.124 S 
ATOM    100  O   UNL A   1      54.693  27.070  24.788  1.00  0.00    -0.237 OA
ATOM    101  O   UNL A   1      54.016  24.697  24.655  1.00  0.00    -0.237 OA
ATOM    102  O   UNL A   1      53.651  26.193  22.731  1.00  0.00    -0.744 OA
ENDBRANCH  98  99
ENDBRANCH  66  91
ENDBRANCH  40  41
ENDBRANCH  33  35
ENDBRANCH  32  33
ENDBRANCH  31  32
ENDBRANCH  30  31
ENDBRANCH  29  30
ENDBRANCH  28  29
ENDBRANCH   1  28
TORSDOF 25
ENDMDL
MODEL 2
REMARK VINA RESULT:      -9.7      2.023      3.007
REMARK SMILES C[C@H]1OCC[C@@H]1C(=O)Nc1ccc(Cl)c(C(=O)OCCOCCOCCOCCOC(=O)c2ccc(-c3c4nc(c(-c5c(F)cc(S(=O)(=O)[O-])cc5F)c5ccc([nH]5)c(-c5c(F)cc(S(=O)(=O)[O-])cc5F)c5nc(c(-c6c(F)cc(S(=O)(=O)[O-])cc6F)c6ccc3[nH]6)C=C5)C=C4)cc2)c1
REMARK SMILES IDX 25 1 24 2 23 3 22 4 21 5 20 6 19 7 18 8 16 9 17 10 15 11
REMARK SMILES IDX 10 12 11 13 99 14 12 15 13 16 14 17 9 18 7 19 8 20 6 22 1 23
REMARK SMILES IDX 2 24 3 25 4 26 5 27 26 28 27 29 28 30 29 31 30 32 31 33
REMARK SMILES IDX 32 34 33 35 34 36 98 37 35 38 97 39 36 40 37 41 38 42 91 43
REMARK SMILES IDX 39 44 96 45 90 46 92 47 40 48 95 49 89 50 88 51 41 53 75 54
REMARK SMILES IDX 54 55 74 56 55 57 58 58 73 59 93 60 56 61 57 62 72 64 94 65
REMARK SMILES IDX 59 66 42 67 43 68 52 69 44 70 45 71 51 72 53 73 46 74 47 75
REMARK SMILES IDX 48 76 49 77 50 78 76 79 77 80 86 81 78 82 79 83 85 84 87 85
REMARK SMILES IDX 80 86 81 87 82 88 83 89 84 90 60 91 61 92 70 93 62 94 63 95
REMARK SMILES IDX 69 96 71 97 64 98 65 99 66 100 67 101 68 102
REMARK H PARENT 9 21 92 52 58 63
REMARK Flexibility Score: inf
ROOT
ATOM      1  C   UNL A   1      32.888  35.956  30.197  1.00  0.00     0.188 C 
ENDROOT
BRANCH   1   2
ATOM      2  O   UNL A   1      33.096  34.602  29.811  1.00  0.00    -0.377 OA
BRANCH   2   3
ATOM      3  C   UNL A   1      33.348  34.345  28.446  1.00  0.00     0.188 C 
BRANCH   3   4
ATOM      4  C   UNL A   1      34.396  33.242  28.194  1.00  0.00     0.188 C 
BRANCH   4   5
ATOM      5  O   UNL A   1      34.076  31.869  28.349  1.00  0.00    -0.376 OA
BRANCH   5   6
ATOM      6  C   UNL A   1      33.777  31.020  27.249  1.00  0.00     0.202 C 
BRANCH   6   7
ATOM      7  C   UNL A   1      33.217  29.592  27.361  1.00  0.00     0.261 C 
BRANCH   7   8
ATOM      8  O   UNL A   1      32.974  28.923  26.128  1.00  0.00    -0.460 OA
BRANCH   8   9
ATOM      9  C   UNL A   1      31.786  29.144  25.532  1.00  0.00     0.339 C 
ATOM     10  O   UNL A   1      31.282  30.222  25.266  1.00  0.00    -0.246 OA
BRANCH   9  11
ATOM     11  C   UNL A   1      31.333  27.865  24.953  1.00  0.00     0.080 A 
ATOM     12  C   UNL A   1      30.304  25.724  25.411  1.00  0.00     0.042 A 
ATOM     13  C   UNL A   1      30.188  25.489  24.044  1.00  0.00     0.028 A 
ATOM     14  C   UNL A   1      30.811  26.936  25.868  1.00  0.00     0.043 A 
ATOM     15  C   UNL A   1      30.698  26.415  23.131  1.00  0.00     0.023 A 
ATOM     16  C   UNL A   1      31.304  27.593  23.581  1.00  0.00     0.055 A 
ATOM     17  Cl  UNL A   1      31.990  28.637  22.393  1.00  0.00    -0.083 Cl
BRANCH  12  18
ATOM     18  N   UNL A   1      29.904  24.762  26.338  1.00  0.00    -0.326 N 
ATOM     19  C   UNL A   1      30.625  23.694  26.797  1.00  0.00     0.230 C 
ATOM     20  O   UNL A   1      30.079  22.953  27.625  1.00  0.00    -0.274 OA
ATOM     21  H   UNL A   1      28.996  24.863  26.704  1.00  0.00     0.169 HD
BRANCH  19  22
ATOM     22  C   UNL A   1      32.075  23.416  26.390  1.00  0.00     0.110 C 
ATOM     23  C   UNL A   1      32.974  22.873  24.069  1.00  0.00     0.039 C 
ATOM     24  C   UNL A   1      32.203  22.374  25.284  1.00  0.00     0.127 C 
ATOM     25  O   UNL A   1      32.894  21.249  25.842  1.00  0.00    -0.378 OA
ATOM     26  C   UNL A   1      33.631  21.681  26.986  1.00  0.00     0.161 C 
ATOM     27  C   UNL A   1      32.987  22.950  27.504  1.00  0.00     0.044 C 
ENDBRANCH  19  22
ENDBRANCH  12  18
ENDBRANCH   9  11
ENDBRANCH   8   9
ENDBRANCH   7   8
ENDBRANCH   6   7
ENDBRANCH   5   6
ENDBRANCH   4   5
ENDBRANCH   3   4
ENDBRANCH   2   3
ENDBRANCH   1   2
BRANCH   1  28
ATOM     28  C   UNL A   1      33.309  36.431  31.608  1.00  0.00     0.188 C 
BRANCH  28  29
ATOM     29  O   UNL A   1      33.809  35.404  32.454  1.00  0.00    -0.376 OA
BRANCH  29  30
ATOM     30  C   UNL A   1      35.130  35.525  32.956  1.00  0.00     0.202 C 
BRANCH  30  31
ATOM     31  C   UNL A   1      35.997  34.258  32.908  1.00  0.00     0.261 C 
BRANCH  31  32
ATOM     32  O   UNL A   1      36.237  33.725  31.599  1.00  0.00    -0.460 OA
BRANCH  32  33
ATOM     33  C   UNL A   1      35.976  32.407  31.429  1.00  0.00     0.338 C 
ATOM     34  O   UNL A   1      34.894  31.866  31.486  1.00  0.00    -0.246 OA
BRANCH  33  35
ATOM     35  C   UNL A   1      37.221  31.759  30.962  1.00  0.00     0.060 A 
ATOM     36  C   UNL A   1      38.050  31.144  31.907  1.00  0.00     0.016 A 
ATOM     37  C   UNL A   1      37.569  31.765  29.609  1.00  0.00     0.016 A 
ATOM     38  C   UNL A   1      39.257  30.571  31.506  1.00  0.00     0.010 A 
ATOM     39  C   UNL A   1      38.786  31.206  29.212  1.00  0.00     0.010 A 
ATOM     40  C   UNL A   1      39.652  30.642  30.164  1.00  0.00    -0.014 A 
BRANCH  40  41
ATOM     41  C   UNL A   1      41.051  30.301  29.800  1.00  0.00     0.031 A 
ATOM     42  C   UNL A   1      41.339  28.915  29.285  1.00  0.00     0.074 A 
ATOM     43  C   UNL A   1      42.035  31.213  29.882  1.00  0.00     0.049 A 
ATOM     44  N   UNL A   1      42.475  28.387  28.914  1.00  0.00    -0.248 NA
ATOM     45  C   UNL A   1      40.188  28.002  29.176  1.00  0.00     0.031 C 
ATOM     46  C   UNL A   1      41.873  32.595  30.332  1.00  0.00     0.029 A 
ATOM     47  N   UNL A   1      43.373  31.110  29.590  1.00  0.00    -0.354 N 
ATOM     48  C   UNL A   1      42.180  27.083  28.533  1.00  0.00     0.074 A 
ATOM     49  C   UNL A   1      40.764  26.888  28.751  1.00  0.00     0.031 C 
ATOM     50  C   UNL A   1      43.069  33.209  30.295  1.00  0.00     0.029 A 
ATOM     51  C   UNL A   1      44.085  32.257  29.850  1.00  0.00     0.049 A 
ATOM     52  H   UNL A   1      43.783  30.290  29.230  1.00  0.00     0.167 HD
ATOM     53  C   UNL A   1      43.012  26.137  28.037  1.00  0.00     0.037 A 
ATOM     54  C   UNL A   1      45.408  32.501  29.756  1.00  0.00     0.037 A 
ATOM     55  C   UNL A   1      44.421  26.340  27.821  1.00  0.00     0.049 A 
ATOM     56  C   UNL A   1      46.326  31.411  29.259  1.00  0.00     0.074 A 
ATOM     57  C   UNL A   1      45.346  25.451  27.302  1.00  0.00     0.029 A 
ATOM     58  N   UNL A   1      45.111  27.505  28.119  1.00  0.00    -0.354 N 
ATOM     59  N   UNL A   1      46.028  30.192  28.872  1.00  0.00    -0.248 NA
ATOM     60  C   UNL A   1      47.758  31.731  29.178  1.00  0.00     0.031 C 
ATOM     61  C   UNL A   1      46.605  26.057  27.345  1.00  0.00     0.029 A 
ATOM     62  C   UNL A   1      46.456  27.349  27.824  1.00  0.00     0.049 A 
ATOM     63  H   UNL A   1      44.705  28.324  28.488  1.00  0.00     0.167 HD
ATOM     64  C   UNL A   1      47.230  29.614  28.473  1.00  0.00     0.074 A 
ATOM     65  C   UNL A   1      48.255  30.621  28.651  1.00  0.00     0.031 C 
ATOM     66  C   UNL A   1      47.465  28.364  28.000  1.00  0.00     0.037 A 
BRANCH  53  67
ATOM     67  C   UNL A   1      42.430  24.787  27.718  1.00  0.00     0.058 A 
ATOM     68  C   UNL A   1      41.800  24.520  26.492  1.00  0.00     0.135 A 
ATOM     69  C   UNL A   1      42.545  23.731  28.637  1.00  0.00     0.135 A 
ATOM     70  F   UNL A   1      41.642  25.498  25.585  1.00  0.00    -0.206 F 
ATOM     71  C   UNL A   1      41.291  23.259  26.195  1.00  0.00     0.059 A 
ATOM     72  C   UNL A   1      42.070  22.455  28.348  1.00  0.00     0.059 A 
ATOM     73  F   UNL A   1      43.132  23.932  29.827  1.00  0.00    -0.206 F 
ATOM     74  C   UNL A   1      41.436  22.232  27.128  1.00  0.00     0.060 A 
BRANCH  74  75
ATOM     75  S   UNL A   1      40.791  20.597  26.716  1.00  0.00     0.124 S 
ATOM     76  O   UNL A   1      39.478  20.930  26.171  1.00  0.00    -0.237 OA
ATOM     77  O   UNL A   1      41.771  20.110  25.752  1.00  0.00    -0.237 OA
ATOM     78  O   UNL A   1      40.778  19.903  28.000  1.00  0.00    -0.744 OA
ENDBRANCH  74  75
ENDBRANCH  53  67
BRANCH  54  79
ATOM     79  C   UNL A   1      45.955  33.828  30.155  1.00  0.00     0.058 A 
ATOM     80  C   UNL A   1      46.027  34.892  29.242  1.00  0.00     0.135 A 
ATOM     81  C   UNL A   1      46.433  34.053  31.455  1.00  0.00     0.135 A 
ATOM     82  F   UNL A   1      45.595  34.726  27.983  1.00  0.00    -0.206 F 
ATOM     83  C   UNL A   1      46.574  36.121  29.596  1.00  0.00     0.059 A 
ATOM     84  C   UNL A   1      46.956  35.282  31.842  1.00  0.00     0.059 A 
ATOM     85  F   UNL A   1      46.381  33.072  32.370  1.00  0.00    -0.206 F 
ATOM     86  C   UNL A   1      47.034  36.308  30.901  1.00  0.00     0.060 A 
BRANCH  86  87
ATOM     87  S   UNL A   1      47.709  37.919  31.361  1.00  0.00     0.124 S 
ATOM     88  O   UNL A   1      46.582  38.518  32.067  1.00  0.00    -0.237 OA
ATOM     89  O   UNL A   1      48.854  37.544  32.185  1.00  0.00    -0.237 OA
ATOM     90  O   UNL A   1      48.041  38.523  30.074  1.00  0.00    -0.744 OA
ENDBRANCH  86  87
ENDBRANCH  54  79
BRANCH  66  91
ATOM     91  C   UNL A   1      48.876  28.024  27.595  1.00  0.00     0.058 A 
ATOM     92  C   UNL A   1      49.810  27.509  28.507  1.00  0.00     0.135 A 
ATOM     93  C   UNL A   1      49.286  28.177  26.259  1.00  0.00     0.135 A 
ATOM     94  F   UNL A   1      49.474  27.343  29.797  1.00  0.00    -0.206 F 
ATOM     95  C   UNL A   1      51.108  27.189  28.118  1.00  0.00     0.059 A 
ATOM     96  C   UNL A   1      50.567  27.831  25.841  1.00  0.00     0.059 A 
ATOM     97  F   UNL A   1      48.431  28.652  25.339  1.00  0.00    -0.206 F 
ATOM     98  C   UNL A   1      51.477  27.354  26.782  1.00  0.00     0.060 A 
BRANCH  98  99
ATOM     99  S   UNL A   1      53.158  26.918  26.289  1.00  0.00     0.124 S 
ATOM    100  O   UNL A   1      53.114  27.163  24.850  1.00  0.00    -0.237 OA
ATOM    101  O   UNL A   1      53.964  27.853  27.067  1.00  0.00    -0.237 OA
ATOM    102  O   UNL A   1      53.276  25.518  26.682  1.00  0.00    -0.744 OA
ENDBRANCH  98  99
ENDBRANCH  66  91
ENDBRANCH  40  41
ENDBRANCH  33  35
ENDBRANCH  32  33
ENDBRANCH  31  32
ENDBRANCH  30  31
ENDBRANCH  29  30
ENDBRANCH  28  29
ENDBRANCH   1  28
TORSDOF 25
ENDMDL
MODEL 3
REMARK VINA RESULT:      -9.6      1.437      2.236
REMARK SMILES C[C@H]1OCC[C@@H]1C(=O)Nc1ccc(Cl)c(C(=O)OCCOCCOCCOCCOC(=O)c2ccc(-c3c4nc(c(-c5c(F)cc(S(=O)(=O)[O-])cc5F)c5ccc([nH]5)c(-c5c(F)cc(S(=O)(=O)[O-])cc5F)c5nc(c(-c6c(F)cc(S(=O)(=O)[O-])cc6F)c6ccc3[nH]6)C=C5)C=C4)cc2)c1
REMARK SMILES IDX 25 1 24 2 23 3 22 4 21 5 20 6 19 7 18 8 16 9 17 10 15 11
REMARK SMILES IDX 10 12 11 13 99 14 12 15 13 16 14 17 9 18 7 19 8 20 6 22 1 23
REMARK SMILES IDX 2 24 3 25 4 26 5 27 26 28 27 29 28 30 29 31 30 32 31 33
REMARK SMILES IDX 32 34 33 35 34 36 98 37 35 38 97 39 36 40 37 41 38 42 91 43
REMARK SMILES IDX 39 44 96 45 90 46 92 47 40 48 95 49 89 50 88 51 41 53 75 54
REMARK SMILES IDX 54 55 74 56 55 57 58 58 73 59 93 60 56 61 57 62 72 64 94 65
REMARK SMILES IDX 59 66 42 67 43 68 52 69 44 70 45 71 51 72 53 73 46 74 47 75
REMARK SMILES IDX 48 76 49 77 50 78 76 79 77 80 86 81 78 82 79 83 85 84 87 85
REMARK SMILES IDX 80 86 81 87 82 88 83 89 84 90 60 91 61 92 70 93 62 94 63 95
REMARK SMILES IDX 69 96 71 97 64 98 65 99 66 100 67 101 68 102
REMARK H PARENT 9 21 92 52 58 63
REMARK Flexibility Score: inf
ROOT
ATOM      1  C   UNL A   1      34.473  35.000  28.559  1.00  0.00     0.188 C 
ENDROOT
BRANCH   1   2
ATOM      2  O   UNL A   1      34.687  33.951  27.620  1.00  0.00    -0.377 OA
BRANCH   2   3
ATOM      3  C   UNL A   1      35.687  33.002  27.921  1.00  0.00     0.188 C 
BRANCH   3   4
ATOM      4  C   UNL A   1      35.148  31.582  28.194  1.00  0.00     0.188 C 
BRANCH   4   5
ATOM      5  O   UNL A   1      34.693  30.749  27.142  1.00  0.00    -0.376 OA
BRANCH   5   6
ATOM      6  C   UNL A   1      33.328  30.386  26.983  1.00  0.00     0.202 C 
BRANCH   6   7
ATOM      7  C   UNL A   1      32.658  30.022  25.647  1.00  0.00     0.261 C 
BRANCH   7   8
ATOM      8  O   UNL A   1      33.106  28.817  25.037  1.00  0.00    -0.460 OA
BRANCH   8   9
ATOM      9  C   UNL A   1      32.955  28.711  23.702  1.00  0.00     0.339 C 
ATOM     10  O   UNL A   1      33.723  29.099  22.838  1.00  0.00    -0.246 OA
BRANCH   9  11
ATOM     11  C   UNL A   1      31.861  27.752  23.453  1.00  0.00     0.080 A 
ATOM     12  C   UNL A   1      31.303  25.454  22.943  1.00  0.00     0.042 A 
ATOM     13  C   UNL A   1      29.961  25.726  23.195  1.00  0.00     0.028 A 
ATOM     14  C   UNL A   1      32.261  26.443  23.137  1.00  0.00     0.043 A 
ATOM     15  C   UNL A   1      29.561  27.024  23.519  1.00  0.00     0.023 A 
ATOM     16  C   UNL A   1      30.504  28.052  23.617  1.00  0.00     0.055 A 
ATOM     17  Cl  UNL A   1      29.916  29.643  23.928  1.00  0.00    -0.083 Cl
BRANCH  12  18
ATOM     18  N   UNL A   1      31.707  24.192  22.509  1.00  0.00    -0.326 N 
ATOM     19  C   UNL A   1      32.365  23.233  23.231  1.00  0.00     0.230 C 
ATOM     20  O   UNL A   1      32.634  22.173  22.653  1.00  0.00    -0.274 OA
ATOM     21  H   UNL A   1      31.495  23.965  21.576  1.00  0.00     0.169 HD
BRANCH  19  22
ATOM     22  C   UNL A   1      32.717  23.384  24.714  1.00  0.00     0.110 C 
ATOM     23  C   UNL A   1      34.750  24.532  25.731  1.00  0.00     0.039 C 
ATOM     24  C   UNL A   1      34.215  23.315  24.989  1.00  0.00     0.127 C 
ATOM     25  O   UNL A   1      34.443  22.147  25.787  1.00  0.00    -0.378 OA
ATOM     26  C   UNL A   1      33.226  21.787  26.439  1.00  0.00     0.161 C 
ATOM     27  C   UNL A   1      32.080  22.373  25.641  1.00  0.00     0.044 C 
ENDBRANCH  19  22
ENDBRANCH  12  18
ENDBRANCH   9  11
ENDBRANCH   8   9
ENDBRANCH   7   8
ENDBRANCH   6   7
ENDBRANCH   5   6
ENDBRANCH   4   5
ENDBRANCH   3   4
ENDBRANCH   2   3
ENDBRANCH   1   2
BRANCH   1  28
ATOM     28  C   UNL A   1      33.407  34.840  29.668  1.00  0.00     0.188 C 
BRANCH  28  29
ATOM     29  O   UNL A   1      33.934  34.674  30.978  1.00  0.00    -0.376 OA
BRANCH  29  30
ATOM     30  C   UNL A   1      34.573  33.450  31.299  1.00  0.00     0.202 C 
BRANCH  30  31
ATOM     31  C   UNL A   1      36.023  33.544  31.795  1.00  0.00     0.261 C 
BRANCH  31  32
ATOM     32  O   UNL A   1      36.960  32.690  31.126  1.00  0.00    -0.460 OA
BRANCH  32  33
ATOM     33  C   UNL A   1      37.070  31.427  31.601  1.00  0.00     0.338 C 
ATOM     34  O   UNL A   1      36.263  30.833  32.282  1.00  0.00    -0.246 OA
BRANCH  33  35
ATOM     35  C   UNL A   1      38.265  30.815  30.981  1.00  0.00     0.060 A 
ATOM     36  C   UNL A   1      39.240  30.256  31.817  1.00  0.00     0.016 A 
ATOM     37  C   UNL A   1      38.424  30.799  29.594  1.00  0.00     0.016 A 
ATOM     38  C   UNL A   1      40.403  29.720  31.265  1.00  0.00     0.010 A 
ATOM     39  C   UNL A   1      39.598  30.277  29.045  1.00  0.00     0.010 A 
ATOM     40  C   UNL A   1      40.609  29.770  29.881  1.00  0.00    -0.014 A 
BRANCH  40  41
ATOM     41  C   UNL A   1      41.957  29.474  29.335  1.00  0.00     0.031 A 
ATOM     42  C   UNL A   1      42.225  28.092  28.799  1.00  0.00     0.074 A 
ATOM     43  C   UNL A   1      42.910  30.421  29.276  1.00  0.00     0.049 A 
ATOM     44  N   UNL A   1      43.320  27.599  28.284  1.00  0.00    -0.248 NA
ATOM     45  C   UNL A   1      41.104  27.138  28.854  1.00  0.00     0.031 C 
ATOM     46  C   UNL A   1      42.759  31.802  29.731  1.00  0.00     0.029 A 
ATOM     47  N   UNL A   1      44.199  30.361  28.808  1.00  0.00    -0.354 N 
ATOM     48  C   UNL A   1      43.024  26.280  27.958  1.00  0.00     0.074 A 
ATOM     49  C   UNL A   1      41.658  26.038  28.366  1.00  0.00     0.031 C 
ATOM     50  C   UNL A   1      43.916  32.458  29.528  1.00  0.00     0.029 A 
ATOM     51  C   UNL A   1      44.898  31.535  28.959  1.00  0.00     0.049 A 
ATOM     52  H   UNL A   1      44.587  29.551  28.404  1.00  0.00     0.167 HD
ATOM     53  C   UNL A   1      43.816  25.357  27.363  1.00  0.00     0.037 A 
ATOM     54  C   UNL A   1      46.187  31.824  28.686  1.00  0.00     0.037 A 
ATOM     55  C   UNL A   1      45.175  25.606  26.958  1.00  0.00     0.049 A 
ATOM     56  C   UNL A   1      47.069  30.760  28.081  1.00  0.00     0.074 A 
ATOM     57  C   UNL A   1      46.054  24.743  26.328  1.00  0.00     0.029 A 
ATOM     58  N   UNL A   1      45.856  26.799  27.151  1.00  0.00    -0.354 N 
ATOM     59  N   UNL A   1      46.767  29.526  27.749  1.00  0.00    -0.248 NA
ATOM     60  C   UNL A   1      48.464  31.129  27.806  1.00  0.00     0.031 C 
ATOM     61  C   UNL A   1      47.285  25.393  26.196  1.00  0.00     0.029 A 
ATOM     62  C   UNL A   1      47.154  26.685  26.679  1.00  0.00     0.049 A 
ATOM     63  H   UNL A   1      45.473  27.608  27.563  1.00  0.00     0.167 HD
ATOM     64  C   UNL A   1      47.925  28.985  27.197  1.00  0.00     0.074 A 
ATOM     65  C   UNL A   1      48.926  30.030  27.227  1.00  0.00     0.031 C 
ATOM     66  C   UNL A   1      48.139  27.738  26.708  1.00  0.00     0.037 A 
BRANCH  53  67
ATOM     67  C   UNL A   1      43.246  23.983  27.138  1.00  0.00     0.058 A 
ATOM     68  C   UNL A   1      42.712  23.594  25.899  1.00  0.00     0.135 A 
ATOM     69  C   UNL A   1      43.278  23.026  28.165  1.00  0.00     0.135 A 
ATOM     70  F   UNL A   1      42.635  24.475  24.888  1.00  0.00    -0.206 F 
ATOM     71  C   UNL A   1      42.214  22.311  25.692  1.00  0.00     0.059 A 
ATOM     72  C   UNL A   1      42.814  21.729  27.971  1.00  0.00     0.059 A 
ATOM     73  F   UNL A   1      43.772  23.345  29.371  1.00  0.00    -0.206 F 
ATOM     74  C   UNL A   1      42.274  21.384  26.734  1.00  0.00     0.060 A 
BRANCH  74  75
ATOM     75  S   UNL A   1      41.646  19.717  26.440  1.00  0.00     0.124 S 
ATOM     76  O   UNL A   1      40.224  19.974  26.227  1.00  0.00    -0.237 OA
ATOM     77  O   UNL A   1      42.398  19.305  25.260  1.00  0.00    -0.237 OA
ATOM     78  O   UNL A   1      41.976  19.007  27.671  1.00  0.00    -0.744 OA
ENDBRANCH  74  75
ENDBRANCH  53  67
BRANCH  54  79
ATOM     79  C   UNL A   1      46.732  33.175  28.996  1.00  0.00     0.058 A 
ATOM     80  C   UNL A   1      47.250  33.480  30.264  1.00  0.00     0.135 A 
ATOM     81  C   UNL A   1      46.728  34.196  28.032  1.00  0.00     0.135 A 
ATOM     82  F   UNL A   1      47.266  32.545  31.225  1.00  0.00    -0.206 F 
ATOM     83  C   UNL A   1      47.723  34.752  30.573  1.00  0.00     0.059 A 
ATOM     84  C   UNL A   1      47.225  35.466  28.307  1.00  0.00     0.059 A 
ATOM     85  F   UNL A   1      46.251  33.957  26.800  1.00  0.00    -0.206 F 
ATOM     86  C   UNL A   1      47.709  35.739  29.585  1.00  0.00     0.060 A 
BRANCH  86  87
ATOM     87  S   UNL A   1      48.358  37.375  29.986  1.00  0.00     0.124 S 
ATOM     88  O   UNL A   1      48.773  37.195  31.373  1.00  0.00    -0.237 OA
ATOM     89  O   UNL A   1      49.435  37.521  29.011  1.00  0.00    -0.237 OA
ATOM     90  O   UNL A   1      47.210  38.253  29.778  1.00  0.00    -0.744 OA
ENDBRANCH  86  87
ENDBRANCH  54  79
BRANCH  66  91
ATOM     91  C   UNL A   1      49.495  27.442  26.120  1.00  0.00     0.058 A 
ATOM     92  C   UNL A   1      50.598  27.105  26.921  1.00  0.00     0.135 A 
ATOM     93  C   UNL A   1      49.682  27.453  24.727  1.00  0.00     0.135 A 
ATOM     94  F   UNL A   1      50.478  27.079  28.259  1.00  0.00    -0.206 F 
ATOM     95  C   UNL A   1      51.843  26.824  26.366  1.00  0.00     0.059 A 
ATOM     96  C   UNL A   1      50.908  27.143  24.149  1.00  0.00     0.059 A 
ATOM     97  F   UNL A   1      48.659  27.755  23.910  1.00  0.00    -0.206 F 
ATOM     98  C   UNL A   1      51.987  26.845  24.977  1.00  0.00     0.060 A 
BRANCH  98  99
ATOM     99  S   UNL A   1      53.603  26.461  24.270  1.00  0.00     0.124 S 
ATOM    100  O   UNL A   1      53.542  27.170  22.995  1.00  0.00    -0.237 OA
ATOM    101  O   UNL A   1      54.518  27.017  25.261  1.00  0.00    -0.237 OA
ATOM    102  O   UNL A   1      53.597  25.004  24.177  1.00  0.00    -0.744 OA
ENDBRANCH  98  99
ENDBRANCH  66  91
ENDBRANCH  40  41
ENDBRANCH  33  35
ENDBRANCH  32  33
ENDBRANCH  31  32
ENDBRANCH  30  31
ENDBRANCH  29  30
ENDBRANCH  28  29
ENDBRANCH   1  28
TORSDOF 25
ENDMDL
