MODEL 1
REMARK VINA RESULT:      -9.6      0.000      0.000
REMARK SMILES CC(C)CSc1cc2c(cc1Cl)C=C(C(=O)OCCOCCOCCOCCOC(=O)c1ccc(-c3c4nc(c(-c5c(F)cc(S(=O)(=O)[O-])cc5F)c5ccc([nH]5)c(-c5c(F)cc(S(=O)(=O)[O-])cc5F)c5nc(c(-c6c(F)cc(S(=O)(=O)[O-])cc6F)c6ccc3[nH]6)C=C5)C=C4)cc1)[C@H](C(F)(F)F)O2
REMARK SMILES IDX 23 1 22 2 21 3 20 4 19 5 18 6 17 7 15 8 16 9 14 10 6 11 7 12
REMARK SMILES IDX 11 13 8 14 10 15 12 16 9 17 103 18 13 19 98 20 5 21 4 22
REMARK SMILES IDX 2 23 1 24 3 25 99 26 100 27 101 28 102 29 24 30 25 31 26 32
REMARK SMILES IDX 27 33 28 34 29 35 30 36 31 37 32 38 33 39 97 40 34 41 96 42
REMARK SMILES IDX 35 43 36 44 37 45 90 46 38 47 95 48 89 49 91 50 39 51 94 52
REMARK SMILES IDX 88 53 87 54 40 56 74 57 53 58 73 59 54 60 57 61 72 62 92 63
REMARK SMILES IDX 55 64 56 65 71 67 93 68 58 69 41 70 42 71 51 72 43 73 44 74
REMARK SMILES IDX 50 75 52 76 45 77 46 78 47 79 48 80 49 81 75 82 76 83 85 84
REMARK SMILES IDX 77 85 78 86 84 87 86 88 79 89 80 90 81 91 82 92 83 93 59 94
REMARK SMILES IDX 60 95 69 96 61 97 62 98 68 99 70 100 63 101 64 102 65 103
REMARK SMILES IDX 66 104 67 105
REMARK H PARENT 91 55 57 66
REMARK Flexibility Score: inf
ROOT
ATOM      1  O   UNL A   1      44.581  20.515  25.145  1.00  0.00    -0.377 OA
ENDROOT
BRANCH   1   2
ATOM      2  C   UNL A   1      44.172  19.180  24.915  1.00  0.00     0.188 C 
BRANCH   2   3
ATOM      3  C   UNL A   1      43.108  18.613  25.862  1.00  0.00     0.188 C 
BRANCH   3   4
ATOM      4  O   UNL A   1      41.831  19.212  25.659  1.00  0.00    -0.376 OA
BRANCH   4   5
ATOM      5  C   UNL A   1      41.432  20.227  26.571  1.00  0.00     0.202 C 
BRANCH   5   6
ATOM      6  C   UNL A   1      41.193  21.597  25.918  1.00  0.00     0.261 C 
BRANCH   6   7
ATOM      7  O   UNL A   1      39.815  21.899  25.636  1.00  0.00    -0.460 OA
BRANCH   7   8
ATOM      8  C   UNL A   1      39.160  22.637  26.549  1.00  0.00     0.338 C 
ATOM      9  O   UNL A   1      39.672  23.298  27.438  1.00  0.00    -0.246 OA
BRANCH   8  10
ATOM     10  C   UNL A   1      37.723  22.690  26.211  1.00  0.00     0.087 C 
ATOM     11  C   UNL A   1      32.964  24.266  25.802  1.00  0.00     0.030 A 
ATOM     12  C   UNL A   1      33.576  23.030  26.068  1.00  0.00     0.063 A 
ATOM     13  C   UNL A   1      33.788  25.393  25.607  1.00  0.00     0.055 A 
ATOM     14  C   UNL A   1      34.967  22.914  26.109  1.00  0.00     0.129 A 
ATOM     15  C   UNL A   1      35.181  25.275  25.663  1.00  0.00     0.033 A 
ATOM     16  Cl  UNL A   1      33.156  26.979  25.309  1.00  0.00    -0.083 Cl
ATOM     17  C   UNL A   1      35.771  24.038  25.921  1.00  0.00     0.019 A 
ATOM     18  O   UNL A   1      35.480  21.681  26.424  1.00  0.00    -0.475 OA
ATOM     19  C   UNL A   1      37.205  23.924  26.113  1.00  0.00     0.027 C 
ATOM     20  C   UNL A   1      36.885  21.440  26.083  1.00  0.00     0.316 C 
BRANCH  11  21
ATOM     21  S   UNL A   1      31.174  24.416  25.795  1.00  0.00    -0.124 SA
BRANCH  21  22
ATOM     22  C   UNL A   1      30.784  24.858  24.063  1.00  0.00     0.078 C 
BRANCH  22  23
ATOM     23  C   UNL A   1      31.914  24.610  23.049  1.00  0.00    -0.007 C 
ATOM     24  C   UNL A   1      31.976  23.169  22.540  1.00  0.00     0.008 C 
ATOM     25  C   UNL A   1      31.721  25.551  21.853  1.00  0.00     0.008 C 
ENDBRANCH  22  23
ENDBRANCH  21  22
ENDBRANCH  11  21
BRANCH  20  26
ATOM     26  C   UNL A   1      36.940  20.728  24.715  1.00  0.00     0.430 C 
ATOM     27  F   UNL A   1      37.165  21.600  23.704  1.00  0.00    -0.167 F 
ATOM     28  F   UNL A   1      37.898  19.779  24.658  1.00  0.00    -0.167 F 
ATOM     29  F   UNL A   1      35.766  20.105  24.445  1.00  0.00    -0.167 F 
ENDBRANCH  20  26
ENDBRANCH   8  10
ENDBRANCH   7   8
ENDBRANCH   6   7
ENDBRANCH   5   6
ENDBRANCH   4   5
ENDBRANCH   3   4
ENDBRANCH   2   3
ENDBRANCH   1   2
BRANCH   1  30
ATOM     30  C   UNL A   1      45.608  21.001  24.296  1.00  0.00     0.188 C 
BRANCH  30  31
ATOM     31  C   UNL A   1      46.348  22.237  24.852  1.00  0.00     0.188 C 
BRANCH  31  32
ATOM     32  O   UNL A   1      45.718  23.186  25.713  1.00  0.00    -0.376 OA
BRANCH  32  33
ATOM     33  C   UNL A   1      46.111  24.546  25.707  1.00  0.00     0.202 C 
BRANCH  33  34
ATOM     34  C   UNL A   1      45.022  25.613  25.886  1.00  0.00     0.261 C 
BRANCH  34  35
ATOM     35  O   UNL A   1      43.743  25.129  26.310  1.00  0.00    -0.460 OA
BRANCH  35  36
ATOM     36  C   UNL A   1      42.676  25.839  25.868  1.00  0.00     0.338 C 
ATOM     37  O   UNL A   1      42.123  25.738  24.784  1.00  0.00    -0.246 OA
BRANCH  36  38
ATOM     38  C   UNL A   1      42.159  26.674  26.975  1.00  0.00     0.060 A 
ATOM     39  C   UNL A   1      41.394  26.126  28.008  1.00  0.00     0.016 A 
ATOM     40  C   UNL A   1      42.460  28.043  26.972  1.00  0.00     0.016 A 
ATOM     41  C   UNL A   1      40.969  26.944  29.061  1.00  0.00     0.010 A 
ATOM     42  C   UNL A   1      42.014  28.863  28.007  1.00  0.00     0.010 A 
ATOM     43  C   UNL A   1      41.296  28.312  29.078  1.00  0.00    -0.014 A 
BRANCH  43  44
ATOM     44  C   UNL A   1      41.098  29.114  30.308  1.00  0.00     0.031 A 
ATOM     45  C   UNL A   1      41.961  28.956  31.520  1.00  0.00     0.074 A 
ATOM     46  C   UNL A   1      40.062  29.976  30.319  1.00  0.00     0.049 A 
ATOM     47  N   UNL A   1      41.915  29.615  32.650  1.00  0.00    -0.248 NA
ATOM     48  C   UNL A   1      43.004  27.922  31.467  1.00  0.00     0.031 C 
ATOM     49  C   UNL A   1      39.132  30.178  29.203  1.00  0.00     0.029 A 
ATOM     50  N   UNL A   1      39.612  30.833  31.288  1.00  0.00    -0.354 N 
ATOM     51  C   UNL A   1      42.937  29.102  33.437  1.00  0.00     0.074 A 
ATOM     52  C   UNL A   1      43.559  28.039  32.670  1.00  0.00     0.031 C 
ATOM     53  C   UNL A   1      38.232  31.110  29.547  1.00  0.00     0.029 A 
ATOM     54  C   UNL A   1      38.507  31.557  30.909  1.00  0.00     0.049 A 
ATOM     55  H   UNL A   1      40.038  30.921  32.171  1.00  0.00     0.167 HD
ATOM     56  C   UNL A   1      43.326  29.497  34.674  1.00  0.00     0.037 A 
ATOM     57  C   UNL A   1      37.797  32.483  31.578  1.00  0.00     0.037 A 
ATOM     58  C   UNL A   1      42.676  30.538  35.437  1.00  0.00     0.049 A 
ATOM     59  C   UNL A   1      38.227  32.876  32.961  1.00  0.00     0.074 A 
ATOM     60  C   UNL A   1      43.015  31.027  36.688  1.00  0.00     0.029 A 
ATOM     61  N   UNL A   1      41.551  31.241  35.030  1.00  0.00    -0.354 N 
ATOM     62  N   UNL A   1      39.239  32.428  33.666  1.00  0.00    -0.248 NA
ATOM     63  C   UNL A   1      37.430  33.908  33.636  1.00  0.00     0.031 C 
ATOM     64  C   UNL A   1      42.070  31.991  37.055  1.00  0.00     0.029 A 
ATOM     65  C   UNL A   1      41.171  32.142  36.013  1.00  0.00     0.049 A 
ATOM     66  H   UNL A   1      41.090  31.118  34.169  1.00  0.00     0.167 HD
ATOM     67  C   UNL A   1      39.215  33.140  34.858  1.00  0.00     0.074 A 
ATOM     68  C   UNL A   1      38.095  34.057  34.774  1.00  0.00     0.031 C 
ATOM     69  C   UNL A   1      40.049  33.045  35.923  1.00  0.00     0.037 A 
BRANCH  56  70
ATOM     70  C   UNL A   1      44.519  28.815  35.290  1.00  0.00     0.058 A 
ATOM     71  C   UNL A   1      44.367  27.692  36.120  1.00  0.00     0.135 A 
ATOM     72  C   UNL A   1      45.826  29.231  34.986  1.00  0.00     0.135 A 
ATOM     73  F   UNL A   1      43.141  27.256  36.449  1.00  0.00    -0.206 F 
ATOM     74  C   UNL A   1      45.466  27.017  36.640  1.00  0.00     0.059 A 
ATOM     75  C   UNL A   1      46.941  28.555  35.477  1.00  0.00     0.059 A 
ATOM     76  F   UNL A   1      46.030  30.295  34.195  1.00  0.00    -0.206 F 
ATOM     77  C   UNL A   1      46.750  27.455  36.311  1.00  0.00     0.060 A 
BRANCH  77  78
ATOM     78  S   UNL A   1      48.162  26.560  36.994  1.00  0.00     0.124 S 
ATOM     79  O   UNL A   1      48.015  26.829  38.421  1.00  0.00    -0.237 OA
ATOM     80  O   UNL A   1      47.890  25.187  36.579  1.00  0.00    -0.237 OA
ATOM     81  O   UNL A   1      49.311  27.192  36.353  1.00  0.00    -0.744 OA
ENDBRANCH  77  78
ENDBRANCH  56  70
BRANCH  57  82
ATOM     82  C   UNL A   1      36.638  33.132  30.915  1.00  0.00     0.058 A 
ATOM     83  C   UNL A   1      35.329  32.868  31.343  1.00  0.00     0.135 A 
ATOM     84  C   UNL A   1      36.816  34.066  29.883  1.00  0.00     0.135 A 
ATOM     85  F   UNL A   1      35.111  31.981  32.326  1.00  0.00    -0.206 F 
ATOM     86  C   UNL A   1      34.235  33.501  30.767  1.00  0.00     0.059 A 
ATOM     87  C   UNL A   1      35.738  34.731  29.307  1.00  0.00     0.059 A 
ATOM     88  F   UNL A   1      38.052  34.367  29.455  1.00  0.00    -0.206 F 
ATOM     89  C   UNL A   1      34.450  34.437  29.753  1.00  0.00     0.060 A 
BRANCH  89  90
ATOM     90  S   UNL A   1      33.024  35.296  29.056  1.00  0.00     0.124 S 
ATOM     91  O   UNL A   1      32.562  34.337  28.058  1.00  0.00    -0.237 OA
ATOM     92  O   UNL A   1      32.167  35.463  30.226  1.00  0.00    -0.237 OA
ATOM     93  O   UNL A   1      33.599  36.529  28.527  1.00  0.00    -0.744 OA
ENDBRANCH  89  90
ENDBRANCH  57  82
BRANCH  69  94
ATOM     94  C   UNL A   1      39.793  33.971  37.081  1.00  0.00     0.058 A 
ATOM     95  C   UNL A   1      39.031  33.571  38.190  1.00  0.00     0.135 A 
ATOM     96  C   UNL A   1      40.351  35.260  37.100  1.00  0.00     0.135 A 
ATOM     97  F   UNL A   1      38.468  32.352  38.219  1.00  0.00    -0.206 F 
ATOM     98  C   UNL A   1      38.809  34.425  39.266  1.00  0.00     0.059 A 
ATOM     99  C   UNL A   1      40.165  36.122  38.177  1.00  0.00     0.059 A 
ATOM    100  F   UNL A   1      41.095  35.689  36.069  1.00  0.00    -0.206 F 
ATOM    101  C   UNL A   1      39.383  35.699  39.251  1.00  0.00     0.060 A 
BRANCH 101 102
ATOM    102  S   UNL A   1      39.109  36.786  40.666  1.00  0.00     0.124 S 
ATOM    103  O   UNL A   1      38.424  35.893  41.595  1.00  0.00    -0.237 OA
ATOM    104  O   UNL A   1      40.470  37.165  41.036  1.00  0.00    -0.237 OA
ATOM    105  O   UNL A   1      38.293  37.863  40.115  1.00  0.00    -0.744 OA
ENDBRANCH 101 102
ENDBRANCH  69  94
ENDBRANCH  43  44
ENDBRANCH  36  38
ENDBRANCH  35  36
ENDBRANCH  34  35
ENDBRANCH  33  34
ENDBRANCH  32  33
ENDBRANCH  31  32
ENDBRANCH  30  31
ENDBRANCH   1  30
TORSDOF 27
ENDMDL
MODEL 2
REMARK VINA RESULT:      -8.1      5.435     13.576
REMARK SMILES CC(C)CSc1cc2c(cc1Cl)C=C(C(=O)OCCOCCOCCOCCOC(=O)c1ccc(-c3c4nc(c(-c5c(F)cc(S(=O)(=O)[O-])cc5F)c5ccc([nH]5)c(-c5c(F)cc(S(=O)(=O)[O-])cc5F)c5nc(c(-c6c(F)cc(S(=O)(=O)[O-])cc6F)c6ccc3[nH]6)C=C5)C=C4)cc1)[C@H](C(F)(F)F)O2
REMARK SMILES IDX 23 1 22 2 21 3 20 4 19 5 18 6 17 7 15 8 16 9 14 10 6 11 7 12
REMARK SMILES IDX 11 13 8 14 10 15 12 16 9 17 103 18 13 19 98 20 5 21 4 22
REMARK SMILES IDX 2 23 1 24 3 25 99 26 100 27 101 28 102 29 24 30 25 31 26 32
REMARK SMILES IDX 27 33 28 34 29 35 30 36 31 37 32 38 33 39 97 40 34 41 96 42
REMARK SMILES IDX 35 43 36 44 37 45 90 46 38 47 95 48 89 49 91 50 39 51 94 52
REMARK SMILES IDX 88 53 87 54 40 56 74 57 53 58 73 59 54 60 57 61 72 62 92 63
REMARK SMILES IDX 55 64 56 65 71 67 93 68 58 69 41 70 42 71 51 72 43 73 44 74
REMARK SMILES IDX 50 75 52 76 45 77 46 78 47 79 48 80 49 81 75 82 76 83 85 84
REMARK SMILES IDX 77 85 78 86 84 87 86 88 79 89 80 90 81 91 82 92 83 93 59 94
REMARK SMILES IDX 60 95 69 96 61 97 62 98 68 99 70 100 63 101 64 102 65 103
REMARK SMILES IDX 66 104 67 105
REMARK H PARENT 91 55 57 66
REMARK Flexibility Score: inf
ROOT
ATOM      1  O   UNL A   1      38.655  34.065  36.042  1.00  0.00    -0.377 OA
ENDROOT
BRANCH   1   2
ATOM      2  C   UNL A   1      37.661  33.323  35.360  1.00  0.00     0.188 C 
BRANCH   2   3
ATOM      3  C   UNL A   1      36.686  34.120  34.487  1.00  0.00     0.188 C 
BRANCH   3   4
ATOM      4  O   UNL A   1      35.393  33.521  34.438  1.00  0.00    -0.376 OA
BRANCH   4   5
ATOM      5  C   UNL A   1      34.401  34.170  33.655  1.00  0.00     0.202 C 
BRANCH   5   6
ATOM      6  C   UNL A   1      33.998  33.399  32.388  1.00  0.00     0.261 C 
BRANCH   6   7
ATOM      7  O   UNL A   1      34.879  32.317  32.036  1.00  0.00    -0.460 OA
BRANCH   7   8
ATOM      8  C   UNL A   1      35.234  32.226  30.743  1.00  0.00     0.338 C 
ATOM      9  O   UNL A   1      34.620  32.689  29.796  1.00  0.00    -0.246 OA
BRANCH   8  10
ATOM     10  C   UNL A   1      36.586  31.639  30.637  1.00  0.00     0.087 C 
ATOM     11  C   UNL A   1      40.327  28.318  30.109  1.00  0.00     0.030 A 
ATOM     12  C   UNL A   1      40.115  29.447  30.917  1.00  0.00     0.063 A 
ATOM     13  C   UNL A   1      39.306  27.932  29.218  1.00  0.00     0.055 A 
ATOM     14  C   UNL A   1      38.934  30.187  30.819  1.00  0.00     0.129 A 
ATOM     15  C   UNL A   1      38.118  28.667  29.132  1.00  0.00     0.033 A 
ATOM     16  Cl  UNL A   1      39.429  26.537  28.196  1.00  0.00    -0.083 Cl
ATOM     17  C   UNL A   1      37.929  29.790  29.937  1.00  0.00     0.019 A 
ATOM     18  O   UNL A   1      38.789  31.246  31.679  1.00  0.00    -0.475 OA
ATOM     19  C   UNL A   1      36.654  30.485  29.956  1.00  0.00     0.027 C 
ATOM     20  C   UNL A   1      37.780  32.250  31.331  1.00  0.00     0.316 C 
BRANCH  11  21
ATOM     21  S   UNL A   1      41.829  27.346  30.273  1.00  0.00    -0.124 SA
BRANCH  21  22
ATOM     22  C   UNL A   1      42.625  27.501  28.633  1.00  0.00     0.078 C 
BRANCH  22  23
ATOM     23  C   UNL A   1      43.298  26.222  28.105  1.00  0.00    -0.007 C 
ATOM     24  C   UNL A   1      43.304  25.072  29.112  1.00  0.00     0.008 C 
ATOM     25  C   UNL A   1      42.568  25.768  26.835  1.00  0.00     0.008 C 
ENDBRANCH  22  23
ENDBRANCH  21  22
ENDBRANCH  11  21
BRANCH  20  26
ATOM     26  C   UNL A   1      38.479  33.404  30.581  1.00  0.00     0.430 C 
ATOM     27  F   UNL A   1      39.743  33.077  30.223  1.00  0.00    -0.167 F 
ATOM     28  F   UNL A   1      37.820  33.775  29.462  1.00  0.00    -0.167 F 
ATOM     29  F   UNL A   1      38.562  34.509  31.362  1.00  0.00    -0.167 F 
ENDBRANCH  20  26
ENDBRANCH   8  10
ENDBRANCH   7   8
ENDBRANCH   6   7
ENDBRANCH   5   6
ENDBRANCH   4   5
ENDBRANCH   3   4
ENDBRANCH   2   3
ENDBRANCH   1   2
BRANCH   1  30
ATOM     30  C   UNL A   1      38.476  34.195  37.444  1.00  0.00     0.188 C 
BRANCH  30  31
ATOM     31  C   UNL A   1      37.969  32.909  38.132  1.00  0.00     0.188 C 
BRANCH  31  32
ATOM     32  O   UNL A   1      38.161  32.658  39.525  1.00  0.00    -0.376 OA
BRANCH  32  33
ATOM     33  C   UNL A   1      38.548  33.698  40.404  1.00  0.00     0.202 C 
BRANCH  33  34
ATOM     34  C   UNL A   1      40.015  33.755  40.854  1.00  0.00     0.261 C 
BRANCH  34  35
ATOM     35  O   UNL A   1      40.986  33.779  39.802  1.00  0.00    -0.460 OA
BRANCH  35  36
ATOM     36  C   UNL A   1      41.755  32.668  39.694  1.00  0.00     0.338 C 
ATOM     37  O   UNL A   1      41.950  31.822  40.552  1.00  0.00    -0.246 OA
BRANCH  36  38
ATOM     38  C   UNL A   1      42.218  32.535  38.294  1.00  0.00     0.060 A 
ATOM     39  C   UNL A   1      43.523  32.868  37.922  1.00  0.00     0.016 A 
ATOM     40  C   UNL A   1      41.312  32.056  37.337  1.00  0.00     0.016 A 
ATOM     41  C   UNL A   1      43.932  32.679  36.597  1.00  0.00     0.010 A 
ATOM     42  C   UNL A   1      41.712  31.893  36.012  1.00  0.00     0.010 A 
ATOM     43  C   UNL A   1      43.036  32.168  35.640  1.00  0.00    -0.014 A 
BRANCH  43  44
ATOM     44  C   UNL A   1      43.531  31.704  34.323  1.00  0.00     0.031 A 
ATOM     45  C   UNL A   1      43.487  32.563  33.098  1.00  0.00     0.074 A 
ATOM     46  C   UNL A   1      43.988  30.438  34.250  1.00  0.00     0.049 A 
ATOM     47  N   UNL A   1      43.915  32.291  31.892  1.00  0.00    -0.248 NA
ATOM     48  C   UNL A   1      42.879  33.893  33.236  1.00  0.00     0.031 C 
ATOM     49  C   UNL A   1      44.036  29.502  35.377  1.00  0.00     0.029 A 
ATOM     50  N   UNL A   1      44.490  29.720  33.197  1.00  0.00    -0.354 N 
ATOM     51  C   UNL A   1      43.658  33.421  31.128  1.00  0.00     0.074 A 
ATOM     52  C   UNL A   1      42.990  34.368  32.000  1.00  0.00     0.031 C 
ATOM     53  C   UNL A   1      44.553  28.338  34.957  1.00  0.00     0.029 A 
ATOM     54  C   UNL A   1      44.855  28.438  33.533  1.00  0.00     0.049 A 
ATOM     55  H   UNL A   1      44.580  30.087  32.288  1.00  0.00     0.167 HD
ATOM     56  C   UNL A   1      43.967  33.646  29.827  1.00  0.00     0.037 A 
ATOM     57  C   UNL A   1      45.381  27.454  32.782  1.00  0.00     0.037 A 
ATOM     58  C   UNL A   1      44.606  32.679  28.964  1.00  0.00     0.049 A 
ATOM     59  C   UNL A   1      45.680  27.718  31.335  1.00  0.00     0.074 A 
ATOM     60  C   UNL A   1      44.984  32.826  27.640  1.00  0.00     0.029 A 
ATOM     61  N   UNL A   1      44.948  31.386  29.332  1.00  0.00    -0.354 N 
ATOM     62  N   UNL A   1      45.493  28.817  30.644  1.00  0.00    -0.248 NA
ATOM     63  C   UNL A   1      46.274  26.615  30.569  1.00  0.00     0.031 C 
ATOM     64  C   UNL A   1      45.513  31.609  27.195  1.00  0.00     0.029 A 
ATOM     65  C   UNL A   1      45.513  30.718  28.255  1.00  0.00     0.049 A 
ATOM     66  H   UNL A   1      44.811  30.998  30.226  1.00  0.00     0.167 HD
ATOM     67  C   UNL A   1      45.967  28.548  29.367  1.00  0.00     0.074 A 
ATOM     68  C   UNL A   1      46.462  27.185  29.385  1.00  0.00     0.031 C 
ATOM     69  C   UNL A   1      45.995  29.358  28.281  1.00  0.00     0.037 A 
BRANCH  56  70
ATOM     70  C   UNL A   1      43.635  34.995  29.247  1.00  0.00     0.058 A 
ATOM     71  C   UNL A   1      44.626  35.974  29.068  1.00  0.00     0.135 A 
ATOM     72  C   UNL A   1      42.339  35.287  28.789  1.00  0.00     0.135 A 
ATOM     73  F   UNL A   1      45.880  35.752  29.493  1.00  0.00    -0.206 F 
ATOM     74  C   UNL A   1      44.341  37.199  28.473  1.00  0.00     0.059 A 
ATOM     75  C   UNL A   1      42.037  36.497  28.169  1.00  0.00     0.059 A 
ATOM     76  F   UNL A   1      41.354  34.387  28.931  1.00  0.00    -0.206 F 
ATOM     77  C   UNL A   1      43.043  37.450  28.025  1.00  0.00     0.060 A 
BRANCH  77  78
ATOM     78  S   UNL A   1      42.699  39.045  27.251  1.00  0.00     0.124 S 
ATOM     79  O   UNL A   1      42.461  39.890  28.418  1.00  0.00    -0.237 OA
ATOM     80  O   UNL A   1      43.935  39.310  26.520  1.00  0.00    -0.237 OA
ATOM     81  O   UNL A   1      41.527  38.777  26.422  1.00  0.00    -0.744 OA
ENDBRANCH  77  78
ENDBRANCH  56  70
BRANCH  57  82
ATOM     82  C   UNL A   1      45.700  26.148  33.412  1.00  0.00     0.058 A 
ATOM     83  C   UNL A   1      44.751  25.117  33.442  1.00  0.00     0.135 A 
ATOM     84  C   UNL A   1      46.972  25.886  33.944  1.00  0.00     0.135 A 
ATOM     85  F   UNL A   1      43.521  25.323  32.945  1.00  0.00    -0.206 F 
ATOM     86  C   UNL A   1      45.047  23.872  33.984  1.00  0.00     0.059 A 
ATOM     87  C   UNL A   1      47.300  24.641  34.471  1.00  0.00     0.059 A 
ATOM     88  F   UNL A   1      47.920  26.835  33.918  1.00  0.00    -0.206 F 
ATOM     89  C   UNL A   1      46.327  23.642  34.491  1.00  0.00     0.060 A 
BRANCH  89  90
ATOM     90  S   UNL A   1      46.716  22.002  35.137  1.00  0.00     0.124 S 
ATOM     91  O   UNL A   1      45.895  21.958  36.342  1.00  0.00    -0.237 OA
ATOM     92  O   UNL A   1      46.291  21.135  34.042  1.00  0.00    -0.237 OA
ATOM     93  O   UNL A   1      48.158  22.060  35.359  1.00  0.00    -0.744 OA
ENDBRANCH  89  90
ENDBRANCH  57  82
BRANCH  69  94
ATOM     94  C   UNL A   1      46.597  28.799  27.021  1.00  0.00     0.058 A 
ATOM     95  C   UNL A   1      45.797  28.354  25.956  1.00  0.00     0.135 A 
ATOM     96  C   UNL A   1      47.991  28.744  26.860  1.00  0.00     0.135 A 
ATOM     97  F   UNL A   1      44.459  28.377  26.060  1.00  0.00    -0.206 F 
ATOM     98  C   UNL A   1      46.358  27.851  24.786  1.00  0.00     0.059 A 
ATOM     99  C   UNL A   1      48.574  28.270  25.689  1.00  0.00     0.059 A 
ATOM    100  F   UNL A   1      48.801  29.163  27.844  1.00  0.00    -0.206 F 
ATOM    101  C   UNL A   1      47.749  27.815  24.661  1.00  0.00     0.060 A 
BRANCH 101 102
ATOM    102  S   UNL A   1      48.462  27.185  23.127  1.00  0.00     0.124 S 
ATOM    103  O   UNL A   1      47.644  27.858  22.123  1.00  0.00    -0.237 OA
ATOM    104  O   UNL A   1      49.848  27.633  23.220  1.00  0.00    -0.237 OA
ATOM    105  O   UNL A   1      48.268  25.742  23.229  1.00  0.00    -0.744 OA
ENDBRANCH 101 102
ENDBRANCH  69  94
ENDBRANCH  43  44
ENDBRANCH  36  38
ENDBRANCH  35  36
ENDBRANCH  34  35
ENDBRANCH  33  34
ENDBRANCH  32  33
ENDBRANCH  31  32
ENDBRANCH  30  31
ENDBRANCH   1  30
TORSDOF 27
ENDMDL
MODEL 3
REMARK VINA RESULT:      -7.4      4.844      7.602
REMARK SMILES CC(C)CSc1cc2c(cc1Cl)C=C(C(=O)OCCOCCOCCOCCOC(=O)c1ccc(-c3c4nc(c(-c5c(F)cc(S(=O)(=O)[O-])cc5F)c5ccc([nH]5)c(-c5c(F)cc(S(=O)(=O)[O-])cc5F)c5nc(c(-c6c(F)cc(S(=O)(=O)[O-])cc6F)c6ccc3[nH]6)C=C5)C=C4)cc1)[C@H](C(F)(F)F)O2
REMARK SMILES IDX 23 1 22 2 21 3 20 4 19 5 18 6 17 7 15 8 16 9 14 10 6 11 7 12
REMARK SMILES IDX 11 13 8 14 10 15 12 16 9 17 103 18 13 19 98 20 5 21 4 22
REMARK SMILES IDX 2 23 1 24 3 25 99 26 100 27 101 28 102 29 24 30 25 31 26 32
REMARK SMILES IDX 27 33 28 34 29 35 30 36 31 37 32 38 33 39 97 40 34 41 96 42
REMARK SMILES IDX 35 43 36 44 37 45 90 46 38 47 95 48 89 49 91 50 39 51 94 52
REMARK SMILES IDX 88 53 87 54 40 56 74 57 53 58 73 59 54 60 57 61 72 62 92 63
REMARK SMILES IDX 55 64 56 65 71 67 93 68 58 69 41 70 42 71 51 72 43 73 44 74
REMARK SMILES IDX 50 75 52 76 45 77 46 78 47 79 48 80 49 81 75 82 76 83 85 84
REMARK SMILES IDX 77 85 78 86 84 87 86 88 79 89 80 90 81 91 82 92 83 93 59 94
REMARK SMILES IDX 60 95 69 96 61 97 62 98 68 99 70 100 63 101 64 102 65 103
REMARK SMILES IDX 66 104 67 105
REMARK H PARENT 91 55 57 66
REMARK Flexibility Score: inf
ROOT
ATOM      1  O   UNL A   1      43.725  24.753  28.457  1.00  0.00    -0.377 OA
ENDROOT
BRANCH   1   2
ATOM      2  C   UNL A   1      42.699  23.841  28.803  1.00  0.00     0.188 C 
BRANCH   2   3
ATOM      3  C   UNL A   1      41.372  23.980  28.050  1.00  0.00     0.188 C 
BRANCH   3   4
ATOM      4  O   UNL A   1      40.714  25.211  28.340  1.00  0.00    -0.376 OA
BRANCH   4   5
ATOM      5  C   UNL A   1      41.306  26.403  27.841  1.00  0.00     0.202 C 
BRANCH   5   6
ATOM      6  C   UNL A   1      40.292  27.444  27.342  1.00  0.00     0.261 C 
BRANCH   6   7
ATOM      7  O   UNL A   1      40.100  28.568  28.220  1.00  0.00    -0.460 OA
BRANCH   7   8
ATOM      8  C   UNL A   1      38.839  29.007  28.370  1.00  0.00     0.338 C 
ATOM      9  O   UNL A   1      37.872  28.651  27.715  1.00  0.00    -0.246 OA
BRANCH   8  10
ATOM     10  C   UNL A   1      38.746  29.857  29.574  1.00  0.00     0.087 C 
ATOM     11  C   UNL A   1      37.112  33.228  32.932  1.00  0.00     0.030 A 
ATOM     12  C   UNL A   1      38.371  32.874  32.419  1.00  0.00     0.063 A 
ATOM     13  C   UNL A   1      35.977  32.551  32.444  1.00  0.00     0.055 A 
ATOM     14  C   UNL A   1      38.499  31.857  31.470  1.00  0.00     0.129 A 
ATOM     15  C   UNL A   1      36.107  31.542  31.482  1.00  0.00     0.033 A 
ATOM     16  Cl  UNL A   1      34.366  32.918  32.968  1.00  0.00    -0.083 Cl
ATOM     17  C   UNL A   1      37.366  31.200  30.990  1.00  0.00     0.019 A 
ATOM     18  O   UNL A   1      39.758  31.611  30.987  1.00  0.00    -0.475 OA
ATOM     19  C   UNL A   1      37.506  30.252  29.900  1.00  0.00     0.027 C 
ATOM     20  C   UNL A   1      39.973  30.323  30.321  1.00  0.00     0.316 C 
BRANCH  11  21
ATOM     21  S   UNL A   1      36.952  34.565  34.120  1.00  0.00    -0.124 SA
BRANCH  21  22
ATOM     22  C   UNL A   1      38.177  34.146  35.413  1.00  0.00     0.078 C 
BRANCH  22  23
ATOM     23  C   UNL A   1      37.875  32.868  36.216  1.00  0.00    -0.007 C 
ATOM     24  C   UNL A   1      39.120  32.040  36.540  1.00  0.00     0.008 C 
ATOM     25  C   UNL A   1      37.185  33.262  37.528  1.00  0.00     0.008 C 
ENDBRANCH  22  23
ENDBRANCH  21  22
ENDBRANCH  11  21
BRANCH  20  26
ATOM     26  C   UNL A   1      40.553  29.332  31.352  1.00  0.00     0.430 C 
ATOM     27  F   UNL A   1      39.601  28.499  31.837  1.00  0.00    -0.167 F 
ATOM     28  F   UNL A   1      41.543  28.568  30.844  1.00  0.00    -0.167 F 
ATOM     29  F   UNL A   1      41.081  29.990  32.414  1.00  0.00    -0.167 F 
ENDBRANCH  20  26
ENDBRANCH   8  10
ENDBRANCH   7   8
ENDBRANCH   6   7
ENDBRANCH   5   6
ENDBRANCH   4   5
ENDBRANCH   3   4
ENDBRANCH   2   3
ENDBRANCH   1   2
BRANCH   1  30
ATOM     30  C   UNL A   1      45.050  24.326  28.733  1.00  0.00     0.188 C 
BRANCH  30  31
ATOM     31  C   UNL A   1      45.781  23.723  27.514  1.00  0.00     0.188 C 
BRANCH  31  32
ATOM     32  O   UNL A   1      47.189  23.859  27.320  1.00  0.00    -0.376 OA
BRANCH  32  33
ATOM     33  C   UNL A   1      47.719  24.947  26.584  1.00  0.00     0.202 C 
BRANCH  33  34
ATOM     34  C   UNL A   1      46.807  26.153  26.320  1.00  0.00     0.261 C 
BRANCH  34  35
ATOM     35  O   UNL A   1      46.372  26.318  24.966  1.00  0.00    -0.460 OA
BRANCH  35  36
ATOM     36  C   UNL A   1      46.431  27.584  24.486  1.00  0.00     0.338 C 
ATOM     37  O   UNL A   1      46.680  27.926  23.340  1.00  0.00    -0.246 OA
BRANCH  36  38
ATOM     38  C   UNL A   1      45.985  28.522  25.540  1.00  0.00     0.060 A 
ATOM     39  C   UNL A   1      44.643  28.606  25.923  1.00  0.00     0.016 A 
ATOM     40  C   UNL A   1      46.947  29.331  26.160  1.00  0.00     0.016 A 
ATOM     41  C   UNL A   1      44.275  29.471  26.960  1.00  0.00     0.010 A 
ATOM     42  C   UNL A   1      46.575  30.212  27.175  1.00  0.00     0.010 A 
ATOM     43  C   UNL A   1      45.242  30.261  27.607  1.00  0.00    -0.014 A 
BRANCH  43  44
ATOM     44  C   UNL A   1      44.915  30.958  28.873  1.00  0.00     0.031 A 
ATOM     45  C   UNL A   1      44.793  30.237  30.180  1.00  0.00     0.074 A 
ATOM     46  C   UNL A   1      44.677  32.282  28.803  1.00  0.00     0.049 A 
ATOM     47  N   UNL A   1      44.543  30.729  31.366  1.00  0.00    -0.248 NA
ATOM     48  C   UNL A   1      44.965  28.778  30.157  1.00  0.00     0.031 C 
ATOM     49  C   UNL A   1      44.728  33.075  27.571  1.00  0.00     0.029 A 
ATOM     50  N   UNL A   1      44.343  33.191  29.772  1.00  0.00    -0.354 N 
ATOM     51  C   UNL A   1      44.553  29.651  32.240  1.00  0.00     0.074 A 
ATOM     52  C   UNL A   1      44.789  28.467  31.437  1.00  0.00     0.031 C 
ATOM     53  C   UNL A   1      44.450  34.354  27.862  1.00  0.00     0.029 A 
ATOM     54  C   UNL A   1      44.184  34.469  29.292  1.00  0.00     0.049 A 
ATOM     55  H   UNL A   1      44.228  32.952  30.720  1.00  0.00     0.167 HD
ATOM     56  C   UNL A   1      44.397  29.658  33.587  1.00  0.00     0.037 A 
ATOM     57  C   UNL A   1      43.865  35.609  29.930  1.00  0.00     0.037 A 
ATOM     58  C   UNL A   1      44.133  30.844  34.369  1.00  0.00     0.049 A 
ATOM     59  C   UNL A   1      43.661  35.583  31.417  1.00  0.00     0.074 A 
ATOM     60  C   UNL A   1      43.988  30.954  35.742  1.00  0.00     0.029 A 
ATOM     61  N   UNL A   1      43.963  32.119  33.850  1.00  0.00    -0.354 N 
ATOM     62  N   UNL A   1      43.742  34.564  32.240  1.00  0.00    -0.248 NA
ATOM     63  C   UNL A   1      43.338  36.860  32.065  1.00  0.00     0.031 C 
ATOM     64  C   UNL A   1      43.685  32.286  36.048  1.00  0.00     0.029 A 
ATOM     65  C   UNL A   1      43.692  33.017  34.872  1.00  0.00     0.049 A 
ATOM     66  H   UNL A   1      44.025  32.354  32.896  1.00  0.00     0.167 HD
ATOM     67  C   UNL A   1      43.503  35.080  33.507  1.00  0.00     0.074 A 
ATOM     68  C   UNL A   1      43.287  36.504  33.343  1.00  0.00     0.031 C 
ATOM     69  C   UNL A   1      43.470  34.433  34.697  1.00  0.00     0.037 A 
BRANCH  56  70
ATOM     70  C   UNL A   1      44.519  28.347  34.318  1.00  0.00     0.058 A 
ATOM     71  C   UNL A   1      45.717  27.974  34.948  1.00  0.00     0.135 A 
ATOM     72  C   UNL A   1      43.412  27.494  34.462  1.00  0.00     0.135 A 
ATOM     73  F   UNL A   1      46.808  28.748  34.837  1.00  0.00    -0.206 F 
ATOM     74  C   UNL A   1      45.818  26.796  35.681  1.00  0.00     0.059 A 
ATOM     75  C   UNL A   1      43.485  26.321  35.210  1.00  0.00     0.059 A 
ATOM     76  F   UNL A   1      42.241  27.802  33.884  1.00  0.00    -0.206 F 
ATOM     77  C   UNL A   1      44.695  25.976  35.807  1.00  0.00     0.060 A 
BRANCH  77  78
ATOM     78  S   UNL A   1      44.850  24.454  36.767  1.00  0.00     0.124 S 
ATOM     79  O   UNL A   1      44.071  24.781  37.958  1.00  0.00    -0.237 OA
ATOM     80  O   UNL A   1      44.255  23.462  35.876  1.00  0.00    -0.237 OA
ATOM     81  O   UNL A   1      46.288  24.326  36.975  1.00  0.00    -0.744 OA
ENDBRANCH  77  78
ENDBRANCH  56  70
BRANCH  57  82
ATOM     82  C   UNL A   1      43.772  36.875  29.160  1.00  0.00     0.058 A 
ATOM     83  C   UNL A   1      44.893  37.704  29.009  1.00  0.00     0.135 A 
ATOM     84  C   UNL A   1      42.584  37.252  28.516  1.00  0.00     0.135 A 
ATOM     85  F   UNL A   1      46.050  37.384  29.608  1.00  0.00    -0.206 F 
ATOM     86  C   UNL A   1      44.838  38.868  28.252  1.00  0.00     0.059 A 
ATOM     87  C   UNL A   1      42.511  38.400  27.733  1.00  0.00     0.059 A 
ATOM     88  F   UNL A   1      41.491  36.479  28.614  1.00  0.00    -0.206 F 
ATOM     89  C   UNL A   1      43.643  39.205  27.613  1.00  0.00     0.060 A 
BRANCH  89  90
ATOM     90  S   UNL A   1      43.605  40.688  26.584  1.00  0.00     0.124 S 
ATOM     91  O   UNL A   1      44.554  40.340  25.532  1.00  0.00    -0.237 OA
ATOM     92  O   UNL A   1      42.202  40.746  26.185  1.00  0.00    -0.237 OA
ATOM     93  O   UNL A   1      44.034  41.742  27.498  1.00  0.00    -0.744 OA
ENDBRANCH  89  90
ENDBRANCH  57  82
BRANCH  69  94
ATOM     94  C   UNL A   1      43.208  35.263  35.924  1.00  0.00     0.058 A 
ATOM     95  C   UNL A   1      44.239  35.953  36.582  1.00  0.00     0.135 A 
ATOM     96  C   UNL A   1      41.904  35.401  36.426  1.00  0.00     0.135 A 
ATOM     97  F   UNL A   1      45.505  35.849  36.148  1.00  0.00    -0.206 F 
ATOM     98  C   UNL A   1      43.990  36.732  37.708  1.00  0.00     0.059 A 
ATOM     99  C   UNL A   1      41.627  36.196  37.535  1.00  0.00     0.059 A 
ATOM    100  F   UNL A   1      40.880  34.769  35.831  1.00  0.00    -0.206 F 
ATOM    101  C   UNL A   1      42.678  36.848  38.176  1.00  0.00     0.060 A 
BRANCH 101 102
ATOM    102  S   UNL A   1      42.367  37.884  39.622  1.00  0.00     0.124 S 
ATOM    103  O   UNL A   1      42.924  37.066  40.695  1.00  0.00    -0.237 OA
ATOM    104  O   UNL A   1      43.109  39.099  39.300  1.00  0.00    -0.237 OA
ATOM    105  O   UNL A   1      40.915  38.027  39.631  1.00  0.00    -0.744 OA
ENDBRANCH 101 102
ENDBRANCH  69  94
ENDBRANCH  43  44
ENDBRANCH  36  38
ENDBRANCH  35  36
ENDBRANCH  34  35
ENDBRANCH  33  34
ENDBRANCH  32  33
ENDBRANCH  31  32
ENDBRANCH  30  31
ENDBRANCH   1  30
TORSDOF 27
ENDMDL
