MODEL 1
REMARK VINA RESULT:     -10.3      0.000      0.000
REMARK SMILES O=C(OCCOCCOCCOCCOC(=O)c1cc(/C=C/c2cc(O)cc(O)c2)ccc1O)c1ccc(-c2c3nc(c(-c4c(F)cc(S(=O)(=O)[O-])cc4F)c4ccc([nH]4)c(-c4c(F)cc(S(=O)(=O)[O-])cc4F)c4nc(c(-c5c(F)cc(S(=O)(=O)[O-])cc5F)c5ccc2[nH]5)C=C4)C=C3)cc1
REMARK SMILES IDX 9 1 8 2 7 3 6 4 5 5 4 6 3 7 2 8 1 9 35 10 36 11 100 12 37 13
REMARK SMILES IDX 99 14 38 15 39 16 40 17 93 18 41 19 98 20 92 21 94 22 42 23
REMARK SMILES IDX 97 24 91 25 90 26 43 28 77 29 56 30 76 31 57 32 60 33 75 34
REMARK SMILES IDX 95 35 58 36 59 37 74 39 96 40 61 41 44 42 45 43 54 44 46 45
REMARK SMILES IDX 47 46 53 47 55 48 48 49 49 50 50 51 51 52 52 53 78 54 79 55
REMARK SMILES IDX 88 56 80 57 81 58 87 59 89 60 82 61 83 62 84 63 85 64 86 65
REMARK SMILES IDX 62 66 63 67 72 68 64 69 65 70 71 71 73 72 66 73 67 74 68 75
REMARK SMILES IDX 69 76 70 77 10 78 11 79 12 80 13 81 14 82 15 83 16 84 17 85
REMARK SMILES IDX 18 86 19 87 33 88 20 89 32 90 31 91 34 92 21 94 22 95 23 96
REMARK SMILES IDX 24 97 30 98 25 99 28 100 27 101 26 102 29 104
REMARK H PARENT 94 27 60 38 34 93 26 103 29 105
REMARK Flexibility Score: inf
ROOT
ATOM      1  O   UNL A   1      32.036  27.830  26.584  1.00  0.00    -0.377 OA
ENDROOT
BRANCH   1   2
ATOM      2  C   UNL A   1      32.248  29.169  26.149  1.00  0.00     0.188 C 
BRANCH   2   3
ATOM      3  C   UNL A   1      32.946  30.055  27.179  1.00  0.00     0.188 C 
BRANCH   3   4
ATOM      4  O   UNL A   1      34.352  30.022  26.948  1.00  0.00    -0.376 OA
BRANCH   4   5
ATOM      5  C   UNL A   1      35.137  31.025  27.576  1.00  0.00     0.202 C 
BRANCH   5   6
ATOM      6  C   UNL A   1      34.814  31.290  29.050  1.00  0.00     0.261 C 
BRANCH   6   7
ATOM      7  O   UNL A   1      35.982  31.470  29.868  1.00  0.00    -0.460 OA
BRANCH   7   8
ATOM      8  C   UNL A   1      36.648  30.510  30.566  1.00  0.00     0.338 C 
ATOM      9  O   UNL A   1      36.139  30.042  31.582  1.00  0.00    -0.246 OA
BRANCH   8  10
ATOM     10  C   UNL A   1      37.960  29.970  30.115  1.00  0.00     0.060 A 
ATOM     11  C   UNL A   1      38.886  29.383  30.970  1.00  0.00     0.016 A 
ATOM     12  C   UNL A   1      38.248  29.989  28.744  1.00  0.00     0.016 A 
ATOM     13  C   UNL A   1      40.140  28.999  30.529  1.00  0.00     0.010 A 
ATOM     14  C   UNL A   1      39.476  29.509  28.271  1.00  0.00     0.010 A 
ATOM     15  C   UNL A   1      40.450  29.064  29.175  1.00  0.00    -0.014 A 
BRANCH  15  16
ATOM     16  C   UNL A   1      41.851  28.802  28.779  1.00  0.00     0.031 A 
ATOM     17  C   UNL A   1      42.199  27.427  28.287  1.00  0.00     0.074 A 
ATOM     18  C   UNL A   1      42.732  29.819  28.701  1.00  0.00     0.049 A 
ATOM     19  N   UNL A   1      43.361  26.938  27.952  1.00  0.00    -0.248 NA
ATOM     20  C   UNL A   1      41.084  26.472  28.149  1.00  0.00     0.031 C 
ATOM     21  C   UNL A   1      42.443  31.218  29.041  1.00  0.00     0.029 A 
ATOM     22  N   UNL A   1      44.032  29.849  28.271  1.00  0.00    -0.354 N 
ATOM     23  C   UNL A   1      43.124  25.612  27.607  1.00  0.00     0.074 A 
ATOM     24  C   UNL A   1      41.712  25.366  27.782  1.00  0.00     0.031 C 
ATOM     25  C   UNL A   1      43.518  31.971  28.762  1.00  0.00     0.029 A 
ATOM     26  C   UNL A   1      44.599  31.103  28.316  1.00  0.00     0.049 A 
ATOM     27  H   UNL A   1      44.515  29.051  27.960  1.00  0.00     0.167 HD
ATOM     28  C   UNL A   1      44.013  24.689  27.178  1.00  0.00     0.037 A 
ATOM     29  C   UNL A   1      45.865  31.490  28.066  1.00  0.00     0.037 A 
ATOM     30  C   UNL A   1      45.409  24.975  26.993  1.00  0.00     0.049 A 
ATOM     31  C   UNL A   1      46.851  30.429  27.659  1.00  0.00     0.074 A 
ATOM     32  C   UNL A   1      46.436  24.113  26.662  1.00  0.00     0.029 A 
ATOM     33  N   UNL A   1      45.965  26.244  27.106  1.00  0.00    -0.354 N 
ATOM     34  N   UNL A   1      46.643  29.147  27.456  1.00  0.00    -0.248 NA
ATOM     35  C   UNL A   1      48.243  30.852  27.468  1.00  0.00     0.031 C 
ATOM     36  C   UNL A   1      47.621  24.859  26.600  1.00  0.00     0.029 A 
ATOM     37  C   UNL A   1      47.321  26.191  26.850  1.00  0.00     0.049 A 
ATOM     38  H   UNL A   1      45.466  27.061  27.336  1.00  0.00     0.167 HD
ATOM     39  C   UNL A   1      47.877  28.610  27.113  1.00  0.00     0.074 A 
ATOM     40  C   UNL A   1      48.818  29.714  27.103  1.00  0.00     0.031 C 
ATOM     41  C   UNL A   1      48.214  27.323  26.846  1.00  0.00     0.037 A 
BRANCH  28  42
ATOM     42  C   UNL A   1      43.499  23.296  26.946  1.00  0.00     0.058 A 
ATOM     43  C   UNL A   1      43.185  22.434  28.010  1.00  0.00     0.135 A 
ATOM     44  C   UNL A   1      43.360  22.801  25.640  1.00  0.00     0.135 A 
ATOM     45  F   UNL A   1      43.337  22.842  29.279  1.00  0.00    -0.206 F 
ATOM     46  C   UNL A   1      42.777  21.122  27.785  1.00  0.00     0.059 A 
ATOM     47  C   UNL A   1      42.931  21.500  25.392  1.00  0.00     0.059 A 
ATOM     48  F   UNL A   1      43.664  23.577  24.588  1.00  0.00    -0.206 F 
ATOM     49  C   UNL A   1      42.657  20.663  26.472  1.00  0.00     0.060 A 
BRANCH  49  50
ATOM     50  S   UNL A   1      42.147  18.953  26.197  1.00  0.00     0.124 S 
ATOM     51  O   UNL A   1      42.292  18.388  27.534  1.00  0.00    -0.237 OA
ATOM     52  O   UNL A   1      40.777  19.109  25.721  1.00  0.00    -0.237 OA
ATOM     53  O   UNL A   1      43.102  18.469  25.205  1.00  0.00    -0.744 OA
ENDBRANCH  49  50
ENDBRANCH  28  42
BRANCH  29  54
ATOM     54  C   UNL A   1      46.281  32.906  28.274  1.00  0.00     0.058 A 
ATOM     55  C   UNL A   1      46.278  33.840  27.228  1.00  0.00     0.135 A 
ATOM     56  C   UNL A   1      46.711  33.352  29.536  1.00  0.00     0.135 A 
ATOM     57  F   UNL A   1      45.884  33.469  26.000  1.00  0.00    -0.206 F 
ATOM     58  C   UNL A   1      46.709  35.152  27.417  1.00  0.00     0.059 A 
ATOM     59  C   UNL A   1      47.114  34.664  29.758  1.00  0.00     0.059 A 
ATOM     60  F   UNL A   1      46.726  32.507  30.580  1.00  0.00    -0.206 F 
ATOM     61  C   UNL A   1      47.128  35.554  28.686  1.00  0.00     0.060 A 
BRANCH  61  62
ATOM     62  S   UNL A   1      47.676  37.258  28.932  1.00  0.00     0.124 S 
ATOM     63  O   UNL A   1      47.169  37.905  27.728  1.00  0.00    -0.237 OA
ATOM     64  O   UNL A   1      47.011  37.621  30.180  1.00  0.00    -0.237 OA
ATOM     65  O   UNL A   1      49.127  37.133  29.018  1.00  0.00    -0.744 OA
ENDBRANCH  61  62
ENDBRANCH  29  54
BRANCH  41  66
ATOM     66  C   UNL A   1      49.649  27.064  26.500  1.00  0.00     0.058 A 
ATOM     67  C   UNL A   1      50.598  26.769  27.490  1.00  0.00     0.135 A 
ATOM     68  C   UNL A   1      50.066  27.070  25.160  1.00  0.00     0.135 A 
ATOM     69  F   UNL A   1      50.244  26.758  28.785  1.00  0.00    -0.206 F 
ATOM     70  C   UNL A   1      51.925  26.516  27.165  1.00  0.00     0.059 A 
ATOM     71  C   UNL A   1      51.382  26.795  24.811  1.00  0.00     0.059 A 
ATOM     72  F   UNL A   1      49.188  27.334  24.180  1.00  0.00    -0.206 F 
ATOM     73  C   UNL A   1      52.306  26.533  25.821  1.00  0.00     0.060 A 
BRANCH  73  74
ATOM     74  S   UNL A   1      54.026  26.180  25.407  1.00  0.00     0.124 S 
ATOM     75  O   UNL A   1      53.893  24.951  24.631  1.00  0.00    -0.237 OA
ATOM     76  O   UNL A   1      54.419  27.367  24.654  1.00  0.00    -0.237 OA
ATOM     77  O   UNL A   1      54.664  26.034  26.712  1.00  0.00    -0.744 OA
ENDBRANCH  73  74
ENDBRANCH  41  66
ENDBRANCH  15  16
ENDBRANCH   8  10
ENDBRANCH   7   8
ENDBRANCH   6   7
ENDBRANCH   5   6
ENDBRANCH   4   5
ENDBRANCH   3   4
ENDBRANCH   2   3
ENDBRANCH   1   2
BRANCH   1  78
ATOM     78  C   UNL A   1      33.030  26.881  26.211  1.00  0.00     0.188 C 
BRANCH  78  79
ATOM     79  C   UNL A   1      32.723  25.374  26.356  1.00  0.00     0.188 C 
BRANCH  79  80
ATOM     80  O   UNL A   1      31.586  25.078  27.155  1.00  0.00    -0.376 OA
BRANCH  80  81
ATOM     81  C   UNL A   1      30.735  24.061  26.630  1.00  0.00     0.202 C 
BRANCH  81  82
ATOM     82  C   UNL A   1      31.255  22.637  26.848  1.00  0.00     0.261 C 
BRANCH  82  83
ATOM     83  O   UNL A   1      30.901  21.700  25.815  1.00  0.00    -0.460 OA
BRANCH  83  84
ATOM     84  C   UNL A   1      31.876  21.083  25.107  1.00  0.00     0.342 C 
ATOM     85  O   UNL A   1      32.117  19.889  25.069  1.00  0.00    -0.246 OA
BRANCH  84  86
ATOM     86  C   UNL A   1      32.425  22.098  24.173  1.00  0.00     0.102 A 
ATOM     87  C   UNL A   1      31.585  23.155  23.758  1.00  0.00     0.027 A 
ATOM     88  C   UNL A   1      33.796  22.143  23.901  1.00  0.00     0.130 A 
ATOM     89  C   UNL A   1      32.138  24.296  23.160  1.00  0.00    -0.025 A 
ATOM     90  C   UNL A   1      34.341  23.244  23.247  1.00  0.00     0.048 A 
ATOM     91  C   UNL A   1      33.517  24.315  22.892  1.00  0.00     0.012 A 
BRANCH  88  92
ATOM     92  O   UNL A   1      34.612  21.117  24.283  1.00  0.00    -0.507 OA
ATOM     93  H   UNL A   1      35.216  20.745  23.670  1.00  0.00     0.293 HD
ENDBRANCH  88  92
BRANCH  89  94
ATOM     94  C   UNL A   1      31.367  25.496  22.790  1.00  0.00     0.009 C 
ATOM     95  C   UNL A   1      30.399  26.087  23.513  1.00  0.00     0.009 C 
BRANCH  95  96
ATOM     96  C   UNL A   1      29.739  27.342  23.085  1.00  0.00    -0.018 A 
ATOM     97  C   UNL A   1      28.386  27.593  23.370  1.00  0.00     0.054 A 
ATOM     98  C   UNL A   1      30.473  28.327  22.402  1.00  0.00     0.054 A 
ATOM     99  C   UNL A   1      27.779  28.772  22.940  1.00  0.00     0.119 A 
ATOM    100  C   UNL A   1      29.845  29.505  21.986  1.00  0.00     0.119 A 
ATOM    101  C   UNL A   1      28.498  29.730  22.240  1.00  0.00     0.092 A 
BRANCH  99 102
ATOM    102  O   UNL A   1      26.461  29.022  23.192  1.00  0.00    -0.508 OA
ATOM    103  H   UNL A   1      25.801  28.460  22.835  1.00  0.00     0.293 HD
ENDBRANCH  99 102
BRANCH 100 104
ATOM    104  O   UNL A   1      30.521  30.479  21.309  1.00  0.00    -0.508 OA
ATOM    105  H   UNL A   1      30.885  31.206  21.774  1.00  0.00     0.293 HD
ENDBRANCH 100 104
ENDBRANCH  95  96
ENDBRANCH  89  94
ENDBRANCH  84  86
ENDBRANCH  83  84
ENDBRANCH  82  83
ENDBRANCH  81  82
ENDBRANCH  80  81
ENDBRANCH  79  80
ENDBRANCH  78  79
ENDBRANCH   1  78
TORSDOF 28
ENDMDL
MODEL 2
REMARK VINA RESULT:     -10.0      1.994      5.133
REMARK SMILES O=C(OCCOCCOCCOCCOC(=O)c1cc(/C=C/c2cc(O)cc(O)c2)ccc1O)c1ccc(-c2c3nc(c(-c4c(F)cc(S(=O)(=O)[O-])cc4F)c4ccc([nH]4)c(-c4c(F)cc(S(=O)(=O)[O-])cc4F)c4nc(c(-c5c(F)cc(S(=O)(=O)[O-])cc5F)c5ccc2[nH]5)C=C4)C=C3)cc1
REMARK SMILES IDX 9 1 8 2 7 3 6 4 5 5 4 6 3 7 2 8 1 9 35 10 36 11 100 12 37 13
REMARK SMILES IDX 99 14 38 15 39 16 40 17 93 18 41 19 98 20 92 21 94 22 42 23
REMARK SMILES IDX 97 24 91 25 90 26 43 28 77 29 56 30 76 31 57 32 60 33 75 34
REMARK SMILES IDX 95 35 58 36 59 37 74 39 96 40 61 41 44 42 45 43 54 44 46 45
REMARK SMILES IDX 47 46 53 47 55 48 48 49 49 50 50 51 51 52 52 53 78 54 79 55
REMARK SMILES IDX 88 56 80 57 81 58 87 59 89 60 82 61 83 62 84 63 85 64 86 65
REMARK SMILES IDX 62 66 63 67 72 68 64 69 65 70 71 71 73 72 66 73 67 74 68 75
REMARK SMILES IDX 69 76 70 77 10 78 11 79 12 80 13 81 14 82 15 83 16 84 17 85
REMARK SMILES IDX 18 86 19 87 33 88 20 89 32 90 31 91 34 92 21 94 22 95 23 96
REMARK SMILES IDX 24 97 30 98 25 99 28 100 27 101 26 102 29 104
REMARK H PARENT 94 27 60 38 34 93 26 103 29 105
REMARK Flexibility Score: inf
ROOT
ATOM      1  O   UNL A   1      32.770  36.951  31.294  1.00  0.00    -0.377 OA
ENDROOT
BRANCH   1   2
ATOM      2  C   UNL A   1      33.988  37.049  32.026  1.00  0.00     0.188 C 
BRANCH   2   3
ATOM      3  C   UNL A   1      34.001  36.240  33.322  1.00  0.00     0.188 C 
BRANCH   3   4
ATOM      4  O   UNL A   1      34.460  34.920  33.044  1.00  0.00    -0.376 OA
BRANCH   4   5
ATOM      5  C   UNL A   1      35.831  34.766  32.707  1.00  0.00     0.202 C 
BRANCH   5   6
ATOM      6  C   UNL A   1      36.461  33.425  33.096  1.00  0.00     0.261 C 
BRANCH   6   7
ATOM      7  O   UNL A   1      37.121  32.765  32.003  1.00  0.00    -0.460 OA
BRANCH   7   8
ATOM      8  C   UNL A   1      37.251  31.424  31.815  1.00  0.00     0.338 C 
ATOM      9  O   UNL A   1      36.324  30.680  32.127  1.00  0.00    -0.246 OA
BRANCH   8  10
ATOM     10  C   UNL A   1      38.465  30.824  31.197  1.00  0.00     0.060 A 
ATOM     11  C   UNL A   1      39.426  30.118  31.914  1.00  0.00     0.016 A 
ATOM     12  C   UNL A   1      38.615  30.915  29.807  1.00  0.00     0.016 A 
ATOM     13  C   UNL A   1      40.596  29.679  31.322  1.00  0.00     0.010 A 
ATOM     14  C   UNL A   1      39.749  30.382  29.180  1.00  0.00     0.010 A 
ATOM     15  C   UNL A   1      40.773  29.812  29.949  1.00  0.00    -0.014 A 
BRANCH  15  16
ATOM     16  C   UNL A   1      42.102  29.480  29.393  1.00  0.00     0.031 A 
ATOM     17  C   UNL A   1      42.302  28.109  28.816  1.00  0.00     0.074 A 
ATOM     18  C   UNL A   1      43.036  30.441  29.256  1.00  0.00     0.049 A 
ATOM     19  N   UNL A   1      43.387  27.562  28.338  1.00  0.00    -0.248 NA
ATOM     20  C   UNL A   1      41.118  27.232  28.766  1.00  0.00     0.031 C 
ATOM     21  C   UNL A   1      42.880  31.840  29.676  1.00  0.00     0.029 A 
ATOM     22  N   UNL A   1      44.282  30.409  28.688  1.00  0.00    -0.354 N 
ATOM     23  C   UNL A   1      43.026  26.270  27.974  1.00  0.00     0.074 A 
ATOM     24  C   UNL A   1      41.628  26.105  28.293  1.00  0.00     0.031 C 
ATOM     25  C   UNL A   1      43.967  32.536  29.309  1.00  0.00     0.029 A 
ATOM     26  C   UNL A   1      44.933  31.621  28.717  1.00  0.00     0.049 A 
ATOM     27  H   UNL A   1      44.675  29.596  28.297  1.00  0.00     0.167 HD
ATOM     28  C   UNL A   1      43.801  25.312  27.417  1.00  0.00     0.037 A 
ATOM     29  C   UNL A   1      46.189  31.938  28.344  1.00  0.00     0.037 A 
ATOM     30  C   UNL A   1      45.184  25.518  27.091  1.00  0.00     0.049 A 
ATOM     31  C   UNL A   1      47.053  30.836  27.793  1.00  0.00     0.074 A 
ATOM     32  C   UNL A   1      46.111  24.609  26.619  1.00  0.00     0.029 A 
ATOM     33  N   UNL A   1      45.833  26.743  27.189  1.00  0.00    -0.354 N 
ATOM     34  N   UNL A   1      46.738  29.580  27.568  1.00  0.00    -0.248 NA
ATOM     35  C   UNL A   1      48.441  31.179  27.467  1.00  0.00     0.031 C 
ATOM     36  C   UNL A   1      47.329  25.281  26.455  1.00  0.00     0.029 A 
ATOM     37  C   UNL A   1      47.148  26.617  26.784  1.00  0.00     0.049 A 
ATOM     38  H   UNL A   1      45.418  27.579  27.501  1.00  0.00     0.167 HD
ATOM     39  C   UNL A   1      47.890  28.982  27.073  1.00  0.00     0.074 A 
ATOM     40  C   UNL A   1      48.896  30.024  27.000  1.00  0.00     0.031 C 
ATOM     41  C   UNL A   1      48.109  27.689  26.724  1.00  0.00     0.037 A 
BRANCH  28  42
ATOM     42  C   UNL A   1      43.173  23.966  27.192  1.00  0.00     0.058 A 
ATOM     43  C   UNL A   1      42.990  23.047  28.239  1.00  0.00     0.135 A 
ATOM     44  C   UNL A   1      42.787  23.571  25.901  1.00  0.00     0.135 A 
ATOM     45  F   UNL A   1      43.377  23.358  29.486  1.00  0.00    -0.206 F 
ATOM     46  C   UNL A   1      42.472  21.776  28.008  1.00  0.00     0.059 A 
ATOM     47  C   UNL A   1      42.245  22.313  25.652  1.00  0.00     0.059 A 
ATOM     48  F   UNL A   1      42.956  24.403  24.862  1.00  0.00    -0.206 F 
ATOM     49  C   UNL A   1      42.107  21.417  26.709  1.00  0.00     0.060 A 
BRANCH  49  50
ATOM     50  S   UNL A   1      41.456  19.757  26.422  1.00  0.00     0.124 S 
ATOM     51  O   UNL A   1      41.709  19.119  27.710  1.00  0.00    -0.237 OA
ATOM     52  O   UNL A   1      40.055  20.021  26.111  1.00  0.00    -0.237 OA
ATOM     53  O   UNL A   1      42.262  19.264  25.309  1.00  0.00    -0.744 OA
ENDBRANCH  49  50
ENDBRANCH  28  42
BRANCH  29  54
ATOM     54  C   UNL A   1      46.719  33.315  28.557  1.00  0.00     0.058 A 
ATOM     55  C   UNL A   1      47.341  33.693  29.757  1.00  0.00     0.135 A 
ATOM     56  C   UNL A   1      46.595  34.297  27.558  1.00  0.00     0.135 A 
ATOM     57  F   UNL A   1      47.481  32.799  30.749  1.00  0.00    -0.206 F 
ATOM     58  C   UNL A   1      47.797  34.993  29.967  1.00  0.00     0.059 A 
ATOM     59  C   UNL A   1      47.072  35.591  27.732  1.00  0.00     0.059 A 
ATOM     60  F   UNL A   1      46.018  33.994  26.384  1.00  0.00    -0.206 F 
ATOM     61  C   UNL A   1      47.654  35.936  28.949  1.00  0.00     0.060 A 
BRANCH  61  62
ATOM     62  S   UNL A   1      48.256  37.618  29.219  1.00  0.00     0.124 S 
ATOM     63  O   UNL A   1      47.719  37.911  30.543  1.00  0.00    -0.237 OA
ATOM     64  O   UNL A   1      49.703  37.448  29.140  1.00  0.00    -0.237 OA
ATOM     65  O   UNL A   1      47.660  38.367  28.117  1.00  0.00    -0.744 OA
ENDBRANCH  61  62
ENDBRANCH  29  54
BRANCH  41  66
ATOM     66  C   UNL A   1      49.479  27.355  26.215  1.00  0.00     0.058 A 
ATOM     67  C   UNL A   1      49.786  27.413  24.847  1.00  0.00     0.135 A 
ATOM     68  C   UNL A   1      50.503  27.015  27.113  1.00  0.00     0.135 A 
ATOM     69  F   UNL A   1      48.835  27.730  23.953  1.00  0.00    -0.206 F 
ATOM     70  C   UNL A   1      51.060  27.116  24.381  1.00  0.00     0.059 A 
ATOM     71  C   UNL A   1      51.790  26.738  26.670  1.00  0.00     0.059 A 
ATOM     72  F   UNL A   1      50.257  26.959  28.430  1.00  0.00    -0.206 F 
ATOM     73  C   UNL A   1      52.055  26.778  25.301  1.00  0.00     0.060 A 
BRANCH  73  74
ATOM     74  S   UNL A   1      53.713  26.417  24.688  1.00  0.00     0.124 S 
ATOM     75  O   UNL A   1      53.618  24.986  24.417  1.00  0.00    -0.237 OA
ATOM     76  O   UNL A   1      53.809  27.280  23.515  1.00  0.00    -0.237 OA
ATOM     77  O   UNL A   1      54.574  26.791  25.806  1.00  0.00    -0.744 OA
ENDBRANCH  73  74
ENDBRANCH  41  66
ENDBRANCH  15  16
ENDBRANCH   8  10
ENDBRANCH   7   8
ENDBRANCH   6   7
ENDBRANCH   5   6
ENDBRANCH   4   5
ENDBRANCH   3   4
ENDBRANCH   2   3
ENDBRANCH   1   2
BRANCH   1  78
ATOM     78  C   UNL A   1      32.872  36.444  29.967  1.00  0.00     0.188 C 
BRANCH  78  79
ATOM     79  C   UNL A   1      33.596  35.100  29.730  1.00  0.00     0.188 C 
BRANCH  79  80
ATOM     80  O   UNL A   1      34.441  35.078  28.589  1.00  0.00    -0.376 OA
BRANCH  80  81
ATOM     81  C   UNL A   1      34.989  33.799  28.276  1.00  0.00     0.202 C 
BRANCH  81  82
ATOM     82  C   UNL A   1      34.687  32.717  29.317  1.00  0.00     0.261 C 
BRANCH  82  83
ATOM     83  O   UNL A   1      34.269  31.453  28.771  1.00  0.00    -0.460 OA
BRANCH  83  84
ATOM     84  C   UNL A   1      34.925  30.933  27.707  1.00  0.00     0.342 C 
ATOM     85  O   UNL A   1      36.124  30.970  27.489  1.00  0.00    -0.246 OA
BRANCH  84  86
ATOM     86  C   UNL A   1      33.950  30.074  26.989  1.00  0.00     0.102 A 
ATOM     87  C   UNL A   1      34.292  28.724  26.748  1.00  0.00     0.027 A 
ATOM     88  C   UNL A   1      32.641  30.515  26.770  1.00  0.00     0.130 A 
ATOM     89  C   UNL A   1      33.299  27.804  26.384  1.00  0.00    -0.025 A 
ATOM     90  C   UNL A   1      31.665  29.620  26.345  1.00  0.00     0.048 A 
ATOM     91  C   UNL A   1      31.993  28.273  26.165  1.00  0.00     0.012 A 
BRANCH  88  92
ATOM     92  O   UNL A   1      32.306  31.822  26.984  1.00  0.00    -0.507 OA
ATOM     93  H   UNL A   1      32.666  32.284  27.716  1.00  0.00     0.293 HD
ENDBRANCH  88  92
BRANCH  89  94
ATOM     94  C   UNL A   1      33.529  26.358  26.215  1.00  0.00     0.009 C 
ATOM     95  C   UNL A   1      32.798  25.508  25.471  1.00  0.00     0.009 C 
BRANCH  95  96
ATOM     96  C   UNL A   1      33.162  24.082  25.302  1.00  0.00    -0.018 A 
ATOM     97  C   UNL A   1      32.617  23.305  24.266  1.00  0.00     0.054 A 
ATOM     98  C   UNL A   1      34.091  23.484  26.170  1.00  0.00     0.054 A 
ATOM     99  C   UNL A   1      32.957  21.959  24.137  1.00  0.00     0.119 A 
ATOM    100  C   UNL A   1      34.422  22.134  26.018  1.00  0.00     0.119 A 
ATOM    101  C   UNL A   1      33.852  21.363  25.013  1.00  0.00     0.092 A 
BRANCH  99 102
ATOM    102  O   UNL A   1      32.422  21.186  23.148  1.00  0.00    -0.508 OA
ATOM    103  H   UNL A   1      32.051  20.350  23.354  1.00  0.00     0.293 HD
ENDBRANCH  99 102
BRANCH 100 104
ATOM    104  O   UNL A   1      35.311  21.514  26.850  1.00  0.00    -0.508 OA
ATOM    105  H   UNL A   1      35.284  20.584  26.954  1.00  0.00     0.293 HD
ENDBRANCH 100 104
ENDBRANCH  95  96
ENDBRANCH  89  94
ENDBRANCH  84  86
ENDBRANCH  83  84
ENDBRANCH  82  83
ENDBRANCH  81  82
ENDBRANCH  80  81
ENDBRANCH  79  80
ENDBRANCH  78  79
ENDBRANCH   1  78
TORSDOF 28
ENDMDL
MODEL 3
REMARK VINA RESULT:      -9.2      2.939      5.698
REMARK SMILES O=C(OCCOCCOCCOCCOC(=O)c1cc(/C=C/c2cc(O)cc(O)c2)ccc1O)c1ccc(-c2c3nc(c(-c4c(F)cc(S(=O)(=O)[O-])cc4F)c4ccc([nH]4)c(-c4c(F)cc(S(=O)(=O)[O-])cc4F)c4nc(c(-c5c(F)cc(S(=O)(=O)[O-])cc5F)c5ccc2[nH]5)C=C4)C=C3)cc1
REMARK SMILES IDX 9 1 8 2 7 3 6 4 5 5 4 6 3 7 2 8 1 9 35 10 36 11 100 12 37 13
REMARK SMILES IDX 99 14 38 15 39 16 40 17 93 18 41 19 98 20 92 21 94 22 42 23
REMARK SMILES IDX 97 24 91 25 90 26 43 28 77 29 56 30 76 31 57 32 60 33 75 34
REMARK SMILES IDX 95 35 58 36 59 37 74 39 96 40 61 41 44 42 45 43 54 44 46 45
REMARK SMILES IDX 47 46 53 47 55 48 48 49 49 50 50 51 51 52 52 53 78 54 79 55
REMARK SMILES IDX 88 56 80 57 81 58 87 59 89 60 82 61 83 62 84 63 85 64 86 65
REMARK SMILES IDX 62 66 63 67 72 68 64 69 65 70 71 71 73 72 66 73 67 74 68 75
REMARK SMILES IDX 69 76 70 77 10 78 11 79 12 80 13 81 14 82 15 83 16 84 17 85
REMARK SMILES IDX 18 86 19 87 33 88 20 89 32 90 31 91 34 92 21 94 22 95 23 96
REMARK SMILES IDX 24 97 30 98 25 99 28 100 27 101 26 102 29 104
REMARK H PARENT 94 27 60 38 34 93 26 103 29 105
REMARK Flexibility Score: inf
ROOT
ATOM      1  O   UNL A   1      31.541  27.515  26.327  1.00  0.00    -0.377 OA
ENDROOT
BRANCH   1   2
ATOM      2  C   UNL A   1      32.071  28.739  25.828  1.00  0.00     0.188 C 
BRANCH   2   3
ATOM      3  C   UNL A   1      31.902  29.923  26.780  1.00  0.00     0.188 C 
BRANCH   3   4
ATOM      4  O   UNL A   1      33.038  30.776  26.671  1.00  0.00    -0.376 OA
BRANCH   4   5
ATOM      5  C   UNL A   1      33.269  31.688  27.734  1.00  0.00     0.202 C 
BRANCH   5   6
ATOM      6  C   UNL A   1      34.740  31.937  28.083  1.00  0.00     0.261 C 
BRANCH   6   7
ATOM      7  O   UNL A   1      35.341  30.864  28.827  1.00  0.00    -0.460 OA
BRANCH   7   8
ATOM      8  C   UNL A   1      35.944  29.754  28.319  1.00  0.00     0.338 C 
ATOM      9  O   UNL A   1      35.279  28.951  27.671  1.00  0.00    -0.246 OA
BRANCH   8  10
ATOM     10  C   UNL A   1      37.402  29.500  28.483  1.00  0.00     0.060 A 
ATOM     11  C   UNL A   1      37.978  29.052  29.667  1.00  0.00     0.016 A 
ATOM     12  C   UNL A   1      38.231  29.654  27.364  1.00  0.00     0.016 A 
ATOM     13  C   UNL A   1      39.348  28.940  29.811  1.00  0.00     0.010 A 
ATOM     14  C   UNL A   1      39.612  29.444  27.471  1.00  0.00     0.010 A 
ATOM     15  C   UNL A   1      40.181  29.141  28.715  1.00  0.00    -0.014 A 
BRANCH  15  16
ATOM     16  C   UNL A   1      41.639  29.174  28.958  1.00  0.00     0.031 A 
ATOM     17  C   UNL A   1      42.475  28.069  28.380  1.00  0.00     0.074 A 
ATOM     18  C   UNL A   1      42.205  30.255  29.530  1.00  0.00     0.049 A 
ATOM     19  N   UNL A   1      43.753  27.842  28.514  1.00  0.00    -0.248 NA
ATOM     20  C   UNL A   1      41.778  27.087  27.530  1.00  0.00     0.031 C 
ATOM     21  C   UNL A   1      41.477  31.437  30.010  1.00  0.00     0.029 A 
ATOM     22  N   UNL A   1      43.518  30.564  29.765  1.00  0.00    -0.354 N 
ATOM     23  C   UNL A   1      44.002  26.672  27.805  1.00  0.00     0.074 A 
ATOM     24  C   UNL A   1      42.745  26.228  27.250  1.00  0.00     0.031 C 
ATOM     25  C   UNL A   1      42.358  32.355  30.439  1.00  0.00     0.029 A 
ATOM     26  C   UNL A   1      43.700  31.795  30.352  1.00  0.00     0.049 A 
ATOM     27  H   UNL A   1      44.262  29.961  29.537  1.00  0.00     0.167 HD
ATOM     28  C   UNL A   1      45.181  26.034  27.633  1.00  0.00     0.037 A 
ATOM     29  C   UNL A   1      44.825  32.379  30.809  1.00  0.00     0.037 A 
ATOM     30  C   UNL A   1      46.418  26.518  28.181  1.00  0.00     0.049 A 
ATOM     31  C   UNL A   1      46.114  31.615  30.668  1.00  0.00     0.074 A 
ATOM     32  C   UNL A   1      47.665  25.923  28.171  1.00  0.00     0.029 A 
ATOM     33  N   UNL A   1      46.558  27.741  28.825  1.00  0.00    -0.354 N 
ATOM     34  N   UNL A   1      46.320  30.446  30.104  1.00  0.00    -0.248 NA
ATOM     35  C   UNL A   1      47.317  32.229  31.241  1.00  0.00     0.031 C 
ATOM     36  C   UNL A   1      48.555  26.777  28.833  1.00  0.00     0.029 A 
ATOM     37  C   UNL A   1      47.871  27.923  29.216  1.00  0.00     0.049 A 
ATOM     38  H   UNL A   1      45.830  28.385  28.980  1.00  0.00     0.167 HD
ATOM     39  C   UNL A   1      47.675  30.184  30.253  1.00  0.00     0.074 A 
ATOM     40  C   UNL A   1      48.245  31.334  30.930  1.00  0.00     0.031 C 
ATOM     41  C   UNL A   1      48.389  29.091  29.883  1.00  0.00     0.037 A 
BRANCH  28  42
ATOM     42  C   UNL A   1      45.156  24.735  26.878  1.00  0.00     0.058 A 
ATOM     43  C   UNL A   1      45.126  23.494  27.535  1.00  0.00     0.135 A 
ATOM     44  C   UNL A   1      45.205  24.731  25.475  1.00  0.00     0.135 A 
ATOM     45  F   UNL A   1      45.118  23.440  28.876  1.00  0.00    -0.206 F 
ATOM     46  C   UNL A   1      45.174  22.297  26.828  1.00  0.00     0.059 A 
ATOM     47  C   UNL A   1      45.230  23.545  24.747  1.00  0.00     0.059 A 
ATOM     48  F   UNL A   1      45.253  25.889  24.797  1.00  0.00    -0.206 F 
ATOM     49  C   UNL A   1      45.231  22.332  25.434  1.00  0.00     0.060 A 
BRANCH  49  50
ATOM     50  S   UNL A   1      45.314  20.770  24.532  1.00  0.00     0.124 S 
ATOM     51  O   UNL A   1      44.502  19.902  25.378  1.00  0.00    -0.237 OA
ATOM     52  O   UNL A   1      44.729  21.123  23.242  1.00  0.00    -0.237 OA
ATOM     53  O   UNL A   1      46.741  20.467  24.508  1.00  0.00    -0.744 OA
ENDBRANCH  49  50
ENDBRANCH  28  42
BRANCH  29  54
ATOM     54  C   UNL A   1      44.768  33.696  31.504  1.00  0.00     0.058 A 
ATOM     55  C   UNL A   1      44.706  33.795  32.902  1.00  0.00     0.135 A 
ATOM     56  C   UNL A   1      44.756  34.897  30.772  1.00  0.00     0.135 A 
ATOM     57  F   UNL A   1      44.707  32.681  33.652  1.00  0.00    -0.206 F 
ATOM     58  C   UNL A   1      44.610  35.027  33.546  1.00  0.00     0.059 A 
ATOM     59  C   UNL A   1      44.695  36.140  31.393  1.00  0.00     0.059 A 
ATOM     60  F   UNL A   1      44.824  34.869  29.431  1.00  0.00    -0.206 F 
ATOM     61  C   UNL A   1      44.602  36.194  32.781  1.00  0.00     0.060 A 
BRANCH  61  62
ATOM     62  S   UNL A   1      44.489  37.791  33.618  1.00  0.00     0.124 S 
ATOM     63  O   UNL A   1      43.090  37.806  34.032  1.00  0.00    -0.237 OA
ATOM     64  O   UNL A   1      45.470  37.652  34.689  1.00  0.00    -0.237 OA
ATOM     65  O   UNL A   1      44.847  38.743  32.571  1.00  0.00    -0.744 OA
ENDBRANCH  61  62
ENDBRANCH  29  54
BRANCH  41  66
ATOM     66  C   UNL A   1      49.857  29.114  30.186  1.00  0.00     0.058 A 
ATOM     67  C   UNL A   1      50.783  29.648  29.279  1.00  0.00     0.135 A 
ATOM     68  C   UNL A   1      50.331  28.633  31.417  1.00  0.00     0.135 A 
ATOM     69  F   UNL A   1      50.373  30.114  28.088  1.00  0.00    -0.206 F 
ATOM     70  C   UNL A   1      52.141  29.679  29.569  1.00  0.00     0.059 A 
ATOM     71  C   UNL A   1      51.682  28.678  31.738  1.00  0.00     0.059 A 
ATOM     72  F   UNL A   1      49.478  28.125  32.319  1.00  0.00    -0.206 F 
ATOM     73  C   UNL A   1      52.580  29.190  30.802  1.00  0.00     0.060 A 
BRANCH  73  74
ATOM     74  S   UNL A   1      54.343  29.257  31.180  1.00  0.00     0.124 S 
ATOM     75  O   UNL A   1      54.324  29.409  32.631  1.00  0.00    -0.237 OA
ATOM     76  O   UNL A   1      54.821  27.971  30.682  1.00  0.00    -0.237 OA
ATOM     77  O   UNL A   1      54.804  30.422  30.431  1.00  0.00    -0.744 OA
ENDBRANCH  73  74
ENDBRANCH  41  66
ENDBRANCH  15  16
ENDBRANCH   8  10
ENDBRANCH   7   8
ENDBRANCH   6   7
ENDBRANCH   5   6
ENDBRANCH   4   5
ENDBRANCH   3   4
ENDBRANCH   2   3
ENDBRANCH   1   2
BRANCH   1  78
ATOM     78  C   UNL A   1      32.017  26.324  25.707  1.00  0.00     0.188 C 
BRANCH  78  79
ATOM     79  C   UNL A   1      31.769  24.966  26.400  1.00  0.00     0.188 C 
BRANCH  79  80
ATOM     80  O   UNL A   1      30.578  24.306  25.995  1.00  0.00    -0.376 OA
BRANCH  80  81
ATOM     81  C   UNL A   1      30.764  22.975  25.518  1.00  0.00     0.202 C 
BRANCH  81  82
ATOM     82  C   UNL A   1      31.977  22.259  26.120  1.00  0.00     0.261 C 
BRANCH  82  83
ATOM     83  O   UNL A   1      32.313  21.008  25.494  1.00  0.00    -0.460 OA
BRANCH  83  84
ATOM     84  C   UNL A   1      32.661  20.986  24.186  1.00  0.00     0.342 C 
ATOM     85  O   UNL A   1      32.002  20.558  23.254  1.00  0.00    -0.246 OA
BRANCH  84  86
ATOM     86  C   UNL A   1      33.878  21.826  24.060  1.00  0.00     0.102 A 
ATOM     87  C   UNL A   1      35.056  21.408  24.719  1.00  0.00     0.027 A 
ATOM     88  C   UNL A   1      33.928  22.868  23.128  1.00  0.00     0.130 A 
ATOM     89  C   UNL A   1      36.292  21.969  24.368  1.00  0.00    -0.025 A 
ATOM     90  C   UNL A   1      35.143  23.474  22.825  1.00  0.00     0.048 A 
ATOM     91  C   UNL A   1      36.315  23.018  23.434  1.00  0.00     0.012 A 
BRANCH  88  92
ATOM     92  O   UNL A   1      32.791  23.290  22.500  1.00  0.00    -0.507 OA
ATOM     93  H   UNL A   1      31.997  23.390  22.986  1.00  0.00     0.293 HD
ENDBRANCH  88  92
BRANCH  89  94
ATOM     94  C   UNL A   1      37.588  21.531  24.915  1.00  0.00     0.009 C 
ATOM     95  C   UNL A   1      38.298  22.131  25.887  1.00  0.00     0.009 C 
BRANCH  95  96
ATOM     96  C   UNL A   1      39.556  21.562  26.423  1.00  0.00    -0.018 A 
ATOM     97  C   UNL A   1      40.079  20.353  25.935  1.00  0.00     0.054 A 
ATOM     98  C   UNL A   1      40.269  22.245  27.423  1.00  0.00     0.054 A 
ATOM     99  C   UNL A   1      41.254  19.823  26.469  1.00  0.00     0.119 A 
ATOM    100  C   UNL A   1      41.448  21.698  27.939  1.00  0.00     0.119 A 
ATOM    101  C   UNL A   1      41.940  20.484  27.476  1.00  0.00     0.092 A 
BRANCH  99 102
ATOM    102  O   UNL A   1      41.764  18.640  26.019  1.00  0.00    -0.508 OA
ATOM    103  H   UNL A   1      42.202  18.062  26.613  1.00  0.00     0.293 HD
ENDBRANCH  99 102
BRANCH 100 104
ATOM    104  O   UNL A   1      42.162  22.326  28.920  1.00  0.00    -0.508 OA
ATOM    105  H   UNL A   1      41.862  23.142  29.267  1.00  0.00     0.293 HD
ENDBRANCH 100 104
ENDBRANCH  95  96
ENDBRANCH  89  94
ENDBRANCH  84  86
ENDBRANCH  83  84
ENDBRANCH  82  83
ENDBRANCH  81  82
ENDBRANCH  80  81
ENDBRANCH  79  80
ENDBRANCH  78  79
ENDBRANCH   1  78
TORSDOF 28
ENDMDL
