MODEL 1
REMARK VINA RESULT:      -8.3      0.000      0.000
REMARK SMILES CC(C)CN(C)/C=C\C(=O)OCCOCCOCCOCCOC(=O)c1ccc(-c2c3nc(c(-c4c(F)cc(S(=O)(=O)[O-])cc4F)c4ccc([nH]4)c(-c4c(F)cc(S(=O)(=O)[O-])cc4F)c4nc(c(-c5c(F)cc(S(=O)(=O)[O-])cc5F)c5ccc2[nH]5)C=C4)C=C3)cc1
REMARK SMILES IDX 17 1 16 2 15 3 14 4 13 5 12 6 11 7 9 8 10 9 8 10 7 11 5 12
REMARK SMILES IDX 6 13 4 14 2 15 1 16 3 17 18 18 19 19 20 20 21 21 22 22 23 23
REMARK SMILES IDX 24 24 25 25 26 26 27 27 91 28 28 29 90 30 29 31 30 32 31 33
REMARK SMILES IDX 84 34 32 35 89 36 83 37 85 38 33 39 88 40 82 41 81 42 34 44
REMARK SMILES IDX 68 45 47 46 67 47 48 48 51 49 66 50 86 51 49 52 50 53 65 55
REMARK SMILES IDX 87 56 52 57 35 58 36 59 45 60 37 61 38 62 44 63 46 64 39 65
REMARK SMILES IDX 40 66 41 67 42 68 43 69 69 70 70 71 79 72 71 73 72 74 78 75
REMARK SMILES IDX 80 76 73 77 74 78 75 79 76 80 77 81 53 82 54 83 63 84 55 85
REMARK SMILES IDX 56 86 62 87 64 88 57 89 58 90 59 91 60 92 61 93
REMARK H PARENT 85 43 51 54
REMARK Flexibility Score: inf
ROOT
ATOM      1  O   UNL A   1      39.306  21.315  25.806  1.00  0.00    -0.377 OA
ENDROOT
BRANCH   1   2
ATOM      2  C   UNL A   1      37.972  21.030  25.441  1.00  0.00     0.188 C 
BRANCH   2   3
ATOM      3  C   UNL A   1      37.027  22.220  25.256  1.00  0.00     0.188 C 
BRANCH   3   4
ATOM      4  O   UNL A   1      35.897  22.061  24.404  1.00  0.00    -0.376 OA
BRANCH   4   5
ATOM      5  C   UNL A   1      34.888  21.110  24.745  1.00  0.00     0.202 C 
BRANCH   5   6
ATOM      6  C   UNL A   1      33.448  21.596  24.675  1.00  0.00     0.261 C 
BRANCH   6   7
ATOM      7  O   UNL A   1      33.483  23.034  24.577  1.00  0.00    -0.460 OA
BRANCH   7   8
ATOM      8  C   UNL A   1      32.777  23.592  23.584  1.00  0.00     0.332 C 
ATOM      9  O   UNL A   1      31.592  23.387  23.349  1.00  0.00    -0.247 OA
BRANCH   8  10
ATOM     10  C   UNL A   1      33.521  24.633  22.851  1.00  0.00     0.111 C 
ATOM     11  C   UNL A   1      33.401  25.937  22.574  1.00  0.00     0.088 C 
BRANCH  11  12
ATOM     12  N   UNL A   1      32.567  27.020  22.822  1.00  0.00    -0.380 N 
ATOM     13  C   UNL A   1      33.073  28.137  23.640  1.00  0.00     0.143 C 
BRANCH  12  14
ATOM     14  C   UNL A   1      31.190  27.213  22.338  1.00  0.00     0.118 C 
BRANCH  14  15
ATOM     15  C   UNL A   1      30.200  27.528  23.485  1.00  0.00     0.002 C 
ATOM     16  C   UNL A   1      29.019  28.348  23.003  1.00  0.00     0.009 C 
ATOM     17  C   UNL A   1      29.676  26.234  24.114  1.00  0.00     0.009 C 
ENDBRANCH  14  15
ENDBRANCH  12  14
ENDBRANCH  11  12
ENDBRANCH   8  10
ENDBRANCH   7   8
ENDBRANCH   6   7
ENDBRANCH   5   6
ENDBRANCH   4   5
ENDBRANCH   3   4
ENDBRANCH   2   3
ENDBRANCH   1   2
BRANCH   1  18
ATOM     18  C   UNL A   1      40.125  20.281  26.333  1.00  0.00     0.188 C 
BRANCH  18  19
ATOM     19  C   UNL A   1      41.607  20.623  26.133  1.00  0.00     0.188 C 
BRANCH  19  20
ATOM     20  O   UNL A   1      42.373  21.090  27.245  1.00  0.00    -0.376 OA
BRANCH  20  21
ATOM     21  C   UNL A   1      42.956  22.383  27.173  1.00  0.00     0.202 C 
BRANCH  21  22
ATOM     22  C   UNL A   1      42.205  23.331  26.223  1.00  0.00     0.261 C 
BRANCH  22  23
ATOM     23  O   UNL A   1      42.892  24.550  25.884  1.00  0.00    -0.460 OA
BRANCH  23  24
ATOM     24  C   UNL A   1      42.123  25.669  25.922  1.00  0.00     0.338 C 
ATOM     25  O   UNL A   1      41.422  26.119  25.034  1.00  0.00    -0.246 OA
BRANCH  24  26
ATOM     26  C   UNL A   1      42.231  26.323  27.245  1.00  0.00     0.060 A 
ATOM     27  C   UNL A   1      41.355  25.940  28.269  1.00  0.00     0.016 A 
ATOM     28  C   UNL A   1      43.070  27.427  27.411  1.00  0.00     0.016 A 
ATOM     29  C   UNL A   1      41.268  26.705  29.440  1.00  0.00     0.010 A 
ATOM     30  C   UNL A   1      42.973  28.196  28.576  1.00  0.00     0.010 A 
ATOM     31  C   UNL A   1      42.038  27.870  29.575  1.00  0.00    -0.014 A 
BRANCH  31  32
ATOM     32  C   UNL A   1      41.726  28.876  30.626  1.00  0.00     0.031 A 
ATOM     33  C   UNL A   1      42.550  28.868  31.890  1.00  0.00     0.074 A 
ATOM     34  C   UNL A   1      40.721  29.761  30.492  1.00  0.00     0.049 A 
ATOM     35  N   UNL A   1      42.369  29.523  33.007  1.00  0.00    -0.248 NA
ATOM     36  C   UNL A   1      43.736  27.996  31.888  1.00  0.00     0.031 C 
ATOM     37  C   UNL A   1      39.888  29.924  29.304  1.00  0.00     0.029 A 
ATOM     38  N   UNL A   1      40.221  30.681  31.384  1.00  0.00    -0.354 N 
ATOM     39  C   UNL A   1      43.407  29.131  33.847  1.00  0.00     0.074 A 
ATOM     40  C   UNL A   1      44.202  28.168  33.116  1.00  0.00     0.031 C 
ATOM     41  C   UNL A   1      38.963  30.871  29.547  1.00  0.00     0.029 A 
ATOM     42  C   UNL A   1      39.111  31.349  30.923  1.00  0.00     0.049 A 
ATOM     43  H   UNL A   1      40.620  30.846  32.268  1.00  0.00     0.167 HD
ATOM     44  C   UNL A   1      43.676  29.537  35.111  1.00  0.00     0.037 A 
ATOM     45  C   UNL A   1      38.289  32.216  31.550  1.00  0.00     0.037 A 
ATOM     46  C   UNL A   1      42.885  30.494  35.839  1.00  0.00     0.049 A 
ATOM     47  C   UNL A   1      38.554  32.590  32.991  1.00  0.00     0.074 A 
ATOM     48  C   UNL A   1      43.070  30.958  37.130  1.00  0.00     0.029 A 
ATOM     49  N   UNL A   1      41.762  31.135  35.340  1.00  0.00    -0.354 N 
ATOM     50  N   UNL A   1      39.527  32.199  33.780  1.00  0.00    -0.248 NA
ATOM     51  C   UNL A   1      37.606  33.517  33.628  1.00  0.00     0.031 C 
ATOM     52  C   UNL A   1      42.032  31.848  37.426  1.00  0.00     0.029 A 
ATOM     53  C   UNL A   1      41.235  31.980  36.302  1.00  0.00     0.049 A 
ATOM     54  H   UNL A   1      41.393  31.008  34.436  1.00  0.00     0.167 HD
ATOM     55  C   UNL A   1      39.332  32.867  34.986  1.00  0.00     0.074 A 
ATOM     56  C   UNL A   1      38.146  33.681  34.828  1.00  0.00     0.031 C 
ATOM     57  C   UNL A   1      40.074  32.815  36.120  1.00  0.00     0.037 A 
BRANCH  44  58
ATOM     58  C   UNL A   1      44.864  28.924  35.800  1.00  0.00     0.058 A 
ATOM     59  C   UNL A   1      44.748  27.756  36.570  1.00  0.00     0.135 A 
ATOM     60  C   UNL A   1      46.140  29.495  35.663  1.00  0.00     0.135 A 
ATOM     61  F   UNL A   1      43.549  27.179  36.747  1.00  0.00    -0.206 F 
ATOM     62  C   UNL A   1      45.852  27.190  37.201  1.00  0.00     0.059 A 
ATOM     63  C   UNL A   1      47.261  28.930  36.262  1.00  0.00     0.059 A 
ATOM     64  F   UNL A   1      46.306  30.613  34.938  1.00  0.00    -0.206 F 
ATOM     65  C   UNL A   1      47.104  27.785  37.042  1.00  0.00     0.060 A 
BRANCH  65  66
ATOM     66  S   UNL A   1      48.526  27.038  37.864  1.00  0.00     0.124 S 
ATOM     67  O   UNL A   1      49.315  26.583  36.725  1.00  0.00    -0.237 OA
ATOM     68  O   UNL A   1      49.083  28.163  38.611  1.00  0.00    -0.237 OA
ATOM     69  O   UNL A   1      47.933  25.982  38.679  1.00  0.00    -0.744 OA
ENDBRANCH  65  66
ENDBRANCH  44  58
BRANCH  45  70
ATOM     70  C   UNL A   1      37.113  32.784  30.836  1.00  0.00     0.058 A 
ATOM     71  C   UNL A   1      37.229  33.948  30.061  1.00  0.00     0.135 A 
ATOM     72  C   UNL A   1      35.844  32.191  30.935  1.00  0.00     0.135 A 
ATOM     73  F   UNL A   1      38.417  34.562  29.948  1.00  0.00    -0.206 F 
ATOM     74  C   UNL A   1      36.130  34.514  29.424  1.00  0.00     0.059 A 
ATOM     75  C   UNL A   1      34.734  32.724  30.286  1.00  0.00     0.059 A 
ATOM     76  F   UNL A   1      35.678  31.072  31.658  1.00  0.00    -0.206 F 
ATOM     77  C   UNL A   1      34.885  33.893  29.543  1.00  0.00     0.060 A 
BRANCH  77  78
ATOM     78  S   UNL A   1      33.470  34.612  28.679  1.00  0.00     0.124 S 
ATOM     79  O   UNL A   1      34.084  35.752  28.010  1.00  0.00    -0.237 OA
ATOM     80  O   UNL A   1      33.049  33.512  27.817  1.00  0.00    -0.237 OA
ATOM     81  O   UNL A   1      32.548  34.936  29.764  1.00  0.00    -0.744 OA
ENDBRANCH  77  78
ENDBRANCH  45  70
BRANCH  57  82
ATOM     82  C   UNL A   1      39.685  33.711  37.265  1.00  0.00     0.058 A 
ATOM     83  C   UNL A   1      38.768  33.309  38.247  1.00  0.00     0.135 A 
ATOM     84  C   UNL A   1      40.320  34.954  37.431  1.00  0.00     0.135 A 
ATOM     85  F   UNL A   1      38.129  32.134  38.135  1.00  0.00    -0.206 F 
ATOM     86  C   UNL A   1      38.489  34.110  39.351  1.00  0.00     0.059 A 
ATOM     87  C   UNL A   1      40.075  35.760  38.538  1.00  0.00     0.059 A 
ATOM     88  F   UNL A   1      41.213  35.382  36.525  1.00  0.00    -0.206 F 
ATOM     89  C   UNL A   1      39.154  35.331  39.492  1.00  0.00     0.060 A 
BRANCH  89  90
ATOM     90  S   UNL A   1      38.835  36.328  40.964  1.00  0.00     0.124 S 
ATOM     91  O   UNL A   1      40.163  36.400  41.564  1.00  0.00    -0.237 OA
ATOM     92  O   UNL A   1      38.330  37.574  40.395  1.00  0.00    -0.237 OA
ATOM     93  O   UNL A   1      37.854  35.540  41.703  1.00  0.00    -0.744 OA
ENDBRANCH  89  90
ENDBRANCH  57  82
ENDBRANCH  31  32
ENDBRANCH  24  26
ENDBRANCH  23  24
ENDBRANCH  22  23
ENDBRANCH  21  22
ENDBRANCH  20  21
ENDBRANCH  19  20
ENDBRANCH  18  19
ENDBRANCH   1  18
TORSDOF 26
ENDMDL
MODEL 2
REMARK VINA RESULT:      -8.3      1.371      2.199
REMARK SMILES CC(C)CN(C)/C=C\C(=O)OCCOCCOCCOCCOC(=O)c1ccc(-c2c3nc(c(-c4c(F)cc(S(=O)(=O)[O-])cc4F)c4ccc([nH]4)c(-c4c(F)cc(S(=O)(=O)[O-])cc4F)c4nc(c(-c5c(F)cc(S(=O)(=O)[O-])cc5F)c5ccc2[nH]5)C=C4)C=C3)cc1
REMARK SMILES IDX 17 1 16 2 15 3 14 4 13 5 12 6 11 7 9 8 10 9 8 10 7 11 5 12
REMARK SMILES IDX 6 13 4 14 2 15 1 16 3 17 18 18 19 19 20 20 21 21 22 22 23 23
REMARK SMILES IDX 24 24 25 25 26 26 27 27 91 28 28 29 90 30 29 31 30 32 31 33
REMARK SMILES IDX 84 34 32 35 89 36 83 37 85 38 33 39 88 40 82 41 81 42 34 44
REMARK SMILES IDX 68 45 47 46 67 47 48 48 51 49 66 50 86 51 49 52 50 53 65 55
REMARK SMILES IDX 87 56 52 57 35 58 36 59 45 60 37 61 38 62 44 63 46 64 39 65
REMARK SMILES IDX 40 66 41 67 42 68 43 69 69 70 70 71 79 72 71 73 72 74 78 75
REMARK SMILES IDX 80 76 73 77 74 78 75 79 76 80 77 81 53 82 54 83 63 84 55 85
REMARK SMILES IDX 56 86 62 87 64 88 57 89 58 90 59 91 60 92 61 93
REMARK H PARENT 85 43 51 54
REMARK Flexibility Score: inf
ROOT
ATOM      1  O   UNL A   1      37.986  20.876  25.141  1.00  0.00    -0.377 OA
ENDROOT
BRANCH   1   2
ATOM      2  C   UNL A   1      36.593  20.707  24.982  1.00  0.00     0.188 C 
BRANCH   2   3
ATOM      3  C   UNL A   1      35.681  21.715  25.685  1.00  0.00     0.188 C 
BRANCH   3   4
ATOM      4  O   UNL A   1      34.374  21.927  25.161  1.00  0.00    -0.376 OA
BRANCH   4   5
ATOM      5  C   UNL A   1      33.306  21.071  25.571  1.00  0.00     0.202 C 
BRANCH   5   6
ATOM      6  C   UNL A   1      31.940  21.722  25.729  1.00  0.00     0.261 C 
BRANCH   6   7
ATOM      7  O   UNL A   1      32.092  23.122  25.423  1.00  0.00    -0.460 OA
BRANCH   7   8
ATOM      8  C   UNL A   1      31.244  23.970  26.021  1.00  0.00     0.332 C 
ATOM      9  O   UNL A   1      31.076  24.076  27.230  1.00  0.00    -0.247 OA
BRANCH   8  10
ATOM     10  C   UNL A   1      30.607  24.916  25.087  1.00  0.00     0.111 C 
ATOM     11  C   UNL A   1      30.717  26.205  24.742  1.00  0.00     0.088 C 
BRANCH  11  12
ATOM     12  N   UNL A   1      31.473  27.336  25.026  1.00  0.00    -0.380 N 
ATOM     13  C   UNL A   1      31.874  28.223  23.919  1.00  0.00     0.143 C 
BRANCH  12  14
ATOM     14  C   UNL A   1      31.928  27.795  26.349  1.00  0.00     0.118 C 
BRANCH  14  15
ATOM     15  C   UNL A   1      32.870  29.019  26.256  1.00  0.00     0.002 C 
ATOM     16  C   UNL A   1      32.347  30.196  27.057  1.00  0.00     0.009 C 
ATOM     17  C   UNL A   1      34.270  28.662  26.765  1.00  0.00     0.009 C 
ENDBRANCH  14  15
ENDBRANCH  12  14
ENDBRANCH  11  12
ENDBRANCH   8  10
ENDBRANCH   7   8
ENDBRANCH   6   7
ENDBRANCH   5   6
ENDBRANCH   4   5
ENDBRANCH   3   4
ENDBRANCH   2   3
ENDBRANCH   1   2
BRANCH   1  18
ATOM     18  C   UNL A   1      38.775  19.791  25.606  1.00  0.00     0.188 C 
BRANCH  18  19
ATOM     19  C   UNL A   1      40.188  20.273  25.957  1.00  0.00     0.188 C 
BRANCH  19  20
ATOM     20  O   UNL A   1      40.584  20.341  27.328  1.00  0.00    -0.376 OA
BRANCH  20  21
ATOM     21  C   UNL A   1      41.064  21.577  27.835  1.00  0.00     0.202 C 
BRANCH  21  22
ATOM     22  C   UNL A   1      40.353  22.797  27.226  1.00  0.00     0.261 C 
BRANCH  22  23
ATOM     23  O   UNL A   1      41.209  23.787  26.627  1.00  0.00    -0.460 OA
BRANCH  23  24
ATOM     24  C   UNL A   1      40.675  25.034  26.549  1.00  0.00     0.338 C 
ATOM     25  O   UNL A   1      40.152  25.558  25.582  1.00  0.00    -0.246 OA
BRANCH  24  26
ATOM     26  C   UNL A   1      40.800  25.729  27.848  1.00  0.00     0.060 A 
ATOM     27  C   UNL A   1      39.678  25.821  28.684  1.00  0.00     0.016 A 
ATOM     28  C   UNL A   1      41.964  26.437  28.153  1.00  0.00     0.016 A 
ATOM     29  C   UNL A   1      39.698  26.677  29.792  1.00  0.00     0.010 A 
ATOM     30  C   UNL A   1      41.977  27.300  29.253  1.00  0.00     0.010 A 
ATOM     31  C   UNL A   1      40.830  27.464  30.050  1.00  0.00    -0.014 A 
BRANCH  31  32
ATOM     32  C   UNL A   1      40.763  28.616  30.990  1.00  0.00     0.031 A 
ATOM     33  C   UNL A   1      41.688  28.620  32.182  1.00  0.00     0.074 A 
ATOM     34  C   UNL A   1      39.890  29.627  30.821  1.00  0.00     0.049 A 
ATOM     35  N   UNL A   1      41.706  29.414  33.221  1.00  0.00    -0.248 NA
ATOM     36  C   UNL A   1      42.729  27.580  32.202  1.00  0.00     0.031 C 
ATOM     37  C   UNL A   1      38.986  29.784  29.685  1.00  0.00     0.029 A 
ATOM     38  N   UNL A   1      39.612  30.706  31.626  1.00  0.00    -0.354 N 
ATOM     39  C   UNL A   1      42.746  28.962  34.026  1.00  0.00     0.074 A 
ATOM     40  C   UNL A   1      43.323  27.812  33.363  1.00  0.00     0.031 C 
ATOM     41  C   UNL A   1      38.235  30.884  29.877  1.00  0.00     0.029 A 
ATOM     42  C   UNL A   1      38.574  31.483  31.169  1.00  0.00     0.049 A 
ATOM     43  H   UNL A   1      40.109  30.903  32.453  1.00  0.00     0.167 HD
ATOM     44  C   UNL A   1      43.184  29.458  35.207  1.00  0.00     0.037 A 
ATOM     45  C   UNL A   1      37.947  32.531  31.742  1.00  0.00     0.037 A 
ATOM     46  C   UNL A   1      42.610  30.600  35.868  1.00  0.00     0.049 A 
ATOM     47  C   UNL A   1      38.392  33.015  33.103  1.00  0.00     0.074 A 
ATOM     48  C   UNL A   1      42.975  31.170  37.075  1.00  0.00     0.029 A 
ATOM     49  N   UNL A   1      41.551  31.348  35.376  1.00  0.00    -0.354 N 
ATOM     50  N   UNL A   1      39.364  32.568  33.862  1.00  0.00    -0.248 NA
ATOM     51  C   UNL A   1      37.649  34.143  33.688  1.00  0.00     0.031 C 
ATOM     52  C   UNL A   1      42.109  32.237  37.334  1.00  0.00     0.029 A 
ATOM     53  C   UNL A   1      41.242  32.367  36.262  1.00  0.00     0.049 A 
ATOM     54  H   UNL A   1      41.088  31.181  34.524  1.00  0.00     0.167 HD
ATOM     55  C   UNL A   1      39.378  33.387  34.988  1.00  0.00     0.074 A 
ATOM     56  C   UNL A   1      38.314  34.352  34.818  1.00  0.00     0.031 C 
ATOM     57  C   UNL A   1      40.203  33.346  36.063  1.00  0.00     0.037 A 
BRANCH  44  58
ATOM     58  C   UNL A   1      44.327  28.748  35.879  1.00  0.00     0.058 A 
ATOM     59  C   UNL A   1      45.662  29.111  35.643  1.00  0.00     0.135 A 
ATOM     60  C   UNL A   1      44.081  27.713  36.796  1.00  0.00     0.135 A 
ATOM     61  F   UNL A   1      45.954  30.082  34.763  1.00  0.00    -0.206 F 
ATOM     62  C   UNL A   1      46.715  28.453  36.271  1.00  0.00     0.059 A 
ATOM     63  C   UNL A   1      45.118  27.062  37.457  1.00  0.00     0.059 A 
ATOM     64  F   UNL A   1      42.823  27.327  37.059  1.00  0.00    -0.206 F 
ATOM     65  C   UNL A   1      46.433  27.429  37.176  1.00  0.00     0.060 A 
BRANCH  65  66
ATOM     66  S   UNL A   1      47.809  26.588  37.986  1.00  0.00     0.124 S 
ATOM     67  O   UNL A   1      47.114  25.540  38.728  1.00  0.00    -0.237 OA
ATOM     68  O   UNL A   1      48.611  26.135  36.852  1.00  0.00    -0.237 OA
ATOM     69  O   UNL A   1      48.417  27.635  38.801  1.00  0.00    -0.744 OA
ENDBRANCH  65  66
ENDBRANCH  44  58
BRANCH  45  70
ATOM     70  C   UNL A   1      36.806  33.192  31.051  1.00  0.00     0.058 A 
ATOM     71  C   UNL A   1      37.025  34.167  30.066  1.00  0.00     0.135 A 
ATOM     72  C   UNL A   1      35.477  32.883  31.379  1.00  0.00     0.135 A 
ATOM     73  F   UNL A   1      38.277  34.510  29.728  1.00  0.00    -0.206 F 
ATOM     74  C   UNL A   1      35.969  34.824  29.442  1.00  0.00     0.059 A 
ATOM     75  C   UNL A   1      34.404  33.508  30.751  1.00  0.00     0.059 A 
ATOM     76  F   UNL A   1      35.212  31.952  32.309  1.00  0.00    -0.206 F 
ATOM     77  C   UNL A   1      34.660  34.486  29.792  1.00  0.00     0.060 A 
BRANCH  77  78
ATOM     78  S   UNL A   1      33.294  35.315  28.949  1.00  0.00     0.124 S 
ATOM     79  O   UNL A   1      34.001  36.312  28.156  1.00  0.00    -0.237 OA
ATOM     80  O   UNL A   1      32.684  34.218  28.205  1.00  0.00    -0.237 OA
ATOM     81  O   UNL A   1      32.491  35.838  30.051  1.00  0.00    -0.744 OA
ENDBRANCH  77  78
ENDBRANCH  45  70
BRANCH  57  82
ATOM     82  C   UNL A   1      40.053  34.412  37.115  1.00  0.00     0.058 A 
ATOM     83  C   UNL A   1      40.692  35.655  37.014  1.00  0.00     0.135 A 
ATOM     84  C   UNL A   1      39.171  34.215  38.193  1.00  0.00     0.135 A 
ATOM     85  F   UNL A   1      41.549  35.894  36.009  1.00  0.00    -0.206 F 
ATOM     86  C   UNL A   1      40.469  36.666  37.945  1.00  0.00     0.059 A 
ATOM     87  C   UNL A   1      38.914  35.219  39.122  1.00  0.00     0.059 A 
ATOM     88  F   UNL A   1      38.524  33.046  38.331  1.00  0.00    -0.206 F 
ATOM     89  C   UNL A   1      39.571  36.440  38.992  1.00  0.00     0.060 A 
BRANCH  89  90
ATOM     90  S   UNL A   1      39.237  37.783  40.154  1.00  0.00     0.124 S 
ATOM     91  O   UNL A   1      38.075  38.418  39.542  1.00  0.00    -0.237 OA
ATOM     92  O   UNL A   1      38.984  37.064  41.399  1.00  0.00    -0.237 OA
ATOM     93  O   UNL A   1      40.467  38.568  40.129  1.00  0.00    -0.744 OA
ENDBRANCH  89  90
ENDBRANCH  57  82
ENDBRANCH  31  32
ENDBRANCH  24  26
ENDBRANCH  23  24
ENDBRANCH  22  23
ENDBRANCH  21  22
ENDBRANCH  20  21
ENDBRANCH  19  20
ENDBRANCH  18  19
ENDBRANCH   1  18
TORSDOF 26
ENDMDL
MODEL 3
REMARK VINA RESULT:      -8.1      6.321     12.568
REMARK SMILES CC(C)CN(C)/C=C\C(=O)OCCOCCOCCOCCOC(=O)c1ccc(-c2c3nc(c(-c4c(F)cc(S(=O)(=O)[O-])cc4F)c4ccc([nH]4)c(-c4c(F)cc(S(=O)(=O)[O-])cc4F)c4nc(c(-c5c(F)cc(S(=O)(=O)[O-])cc5F)c5ccc2[nH]5)C=C4)C=C3)cc1
REMARK SMILES IDX 17 1 16 2 15 3 14 4 13 5 12 6 11 7 9 8 10 9 8 10 7 11 5 12
REMARK SMILES IDX 6 13 4 14 2 15 1 16 3 17 18 18 19 19 20 20 21 21 22 22 23 23
REMARK SMILES IDX 24 24 25 25 26 26 27 27 91 28 28 29 90 30 29 31 30 32 31 33
REMARK SMILES IDX 84 34 32 35 89 36 83 37 85 38 33 39 88 40 82 41 81 42 34 44
REMARK SMILES IDX 68 45 47 46 67 47 48 48 51 49 66 50 86 51 49 52 50 53 65 55
REMARK SMILES IDX 87 56 52 57 35 58 36 59 45 60 37 61 38 62 44 63 46 64 39 65
REMARK SMILES IDX 40 66 41 67 42 68 43 69 69 70 70 71 79 72 71 73 72 74 78 75
REMARK SMILES IDX 80 76 73 77 74 78 75 79 76 80 77 81 53 82 54 83 63 84 55 85
REMARK SMILES IDX 56 86 62 87 64 88 57 89 58 90 59 91 60 92 61 93
REMARK H PARENT 85 43 51 54
REMARK Flexibility Score: inf
ROOT
ATOM      1  O   UNL A   1      34.539  34.843  31.284  1.00  0.00    -0.377 OA
ENDROOT
BRANCH   1   2
ATOM      2  C   UNL A   1      34.544  33.840  30.289  1.00  0.00     0.188 C 
BRANCH   2   3
ATOM      3  C   UNL A   1      33.643  34.057  29.072  1.00  0.00     0.188 C 
BRANCH   3   4
ATOM      4  O   UNL A   1      33.851  33.244  27.921  1.00  0.00    -0.376 OA
BRANCH   4   5
ATOM      5  C   UNL A   1      34.960  32.344  27.889  1.00  0.00     0.202 C 
BRANCH   5   6
ATOM      6  C   UNL A   1      34.627  30.866  27.749  1.00  0.00     0.261 C 
BRANCH   6   7
ATOM      7  O   UNL A   1      33.211  30.764  27.498  1.00  0.00    -0.460 OA
BRANCH   7   8
ATOM      8  C   UNL A   1      32.836  30.090  26.403  1.00  0.00     0.332 C 
ATOM      9  O   UNL A   1      31.893  30.379  25.675  1.00  0.00    -0.247 OA
BRANCH   8  10
ATOM     10  C   UNL A   1      33.770  29.012  26.031  1.00  0.00     0.111 C 
ATOM     11  C   UNL A   1      33.862  28.043  25.111  1.00  0.00     0.088 C 
BRANCH  11  12
ATOM     12  N   UNL A   1      33.182  27.533  24.012  1.00  0.00    -0.380 N 
ATOM     13  C   UNL A   1      33.025  28.378  22.814  1.00  0.00     0.143 C 
BRANCH  12  14
ATOM     14  C   UNL A   1      32.590  26.192  23.875  1.00  0.00     0.118 C 
BRANCH  14  15
ATOM     15  C   UNL A   1      31.069  26.246  23.590  1.00  0.00     0.002 C 
ATOM     16  C   UNL A   1      30.475  24.860  23.433  1.00  0.00     0.009 C 
ATOM     17  C   UNL A   1      30.334  26.971  24.721  1.00  0.00     0.009 C 
ENDBRANCH  14  15
ENDBRANCH  12  14
ENDBRANCH  11  12
ENDBRANCH   8  10
ENDBRANCH   7   8
ENDBRANCH   6   7
ENDBRANCH   5   6
ENDBRANCH   4   5
ENDBRANCH   3   4
ENDBRANCH   2   3
ENDBRANCH   1   2
BRANCH   1  18
ATOM     18  C   UNL A   1      33.807  34.637  32.484  1.00  0.00     0.188 C 
BRANCH  18  19
ATOM     19  C   UNL A   1      34.491  33.569  33.346  1.00  0.00     0.188 C 
BRANCH  19  20
ATOM     20  O   UNL A   1      35.918  33.535  33.416  1.00  0.00    -0.376 OA
BRANCH  20  21
ATOM     21  C   UNL A   1      36.572  32.279  33.315  1.00  0.00     0.202 C 
BRANCH  21  22
ATOM     22  C   UNL A   1      35.766  31.241  32.516  1.00  0.00     0.261 C 
BRANCH  22  23
ATOM     23  O   UNL A   1      36.490  30.545  31.485  1.00  0.00    -0.460 OA
BRANCH  23  24
ATOM     24  C   UNL A   1      37.337  29.581  31.931  1.00  0.00     0.338 C 
ATOM     25  O   UNL A   1      37.063  28.613  32.618  1.00  0.00    -0.246 OA
BRANCH  24  26
ATOM     26  C   UNL A   1      38.713  29.845  31.457  1.00  0.00     0.060 A 
ATOM     27  C   UNL A   1      38.900  30.552  30.261  1.00  0.00     0.016 A 
ATOM     28  C   UNL A   1      39.798  29.243  32.096  1.00  0.00     0.016 A 
ATOM     29  C   UNL A   1      40.167  30.600  29.666  1.00  0.00     0.010 A 
ATOM     30  C   UNL A   1      41.061  29.282  31.494  1.00  0.00     0.010 A 
ATOM     31  C   UNL A   1      41.243  29.916  30.252  1.00  0.00    -0.014 A 
BRANCH  31  32
ATOM     32  C   UNL A   1      42.493  29.657  29.487  1.00  0.00     0.031 A 
ATOM     33  C   UNL A   1      42.697  28.284  28.895  1.00  0.00     0.074 A 
ATOM     34  C   UNL A   1      43.446  30.596  29.335  1.00  0.00     0.049 A 
ATOM     35  N   UNL A   1      43.760  27.767  28.337  1.00  0.00    -0.248 NA
ATOM     36  C   UNL A   1      41.541  27.374  28.948  1.00  0.00     0.031 C 
ATOM     37  C   UNL A   1      43.354  31.978  29.797  1.00  0.00     0.029 A 
ATOM     38  N   UNL A   1      44.693  30.513  28.763  1.00  0.00    -0.354 N 
ATOM     39  C   UNL A   1      43.409  26.467  27.988  1.00  0.00     0.074 A 
ATOM     40  C   UNL A   1      42.041  26.270  28.413  1.00  0.00     0.031 C 
ATOM     41  C   UNL A   1      44.507  32.610  29.510  1.00  0.00     0.029 A 
ATOM     42  C   UNL A   1      45.434  31.665  28.885  1.00  0.00     0.049 A 
ATOM     43  H   UNL A   1      45.024  29.705  28.308  1.00  0.00     0.167 HD
ATOM     44  C   UNL A   1      44.156  25.522  27.366  1.00  0.00     0.037 A 
ATOM     45  C   UNL A   1      46.721  31.915  28.565  1.00  0.00     0.037 A 
ATOM     46  C   UNL A   1      45.518  25.717  26.944  1.00  0.00     0.049 A 
ATOM     47  C   UNL A   1      47.566  30.821  27.954  1.00  0.00     0.074 A 
ATOM     48  C   UNL A   1      46.363  24.815  26.320  1.00  0.00     0.029 A 
ATOM     49  N   UNL A   1      46.234  26.894  27.100  1.00  0.00    -0.354 N 
ATOM     50  N   UNL A   1      47.229  29.591  27.645  1.00  0.00    -0.248 NA
ATOM     51  C   UNL A   1      48.969  31.147  27.654  1.00  0.00     0.031 C 
ATOM     52  C   UNL A   1      47.603  25.434  26.137  1.00  0.00     0.029 A 
ATOM     53  C   UNL A   1      47.514  26.738  26.596  1.00  0.00     0.049 A 
ATOM     54  H   UNL A   1      45.884  27.718  27.509  1.00  0.00     0.167 HD
ATOM     55  C   UNL A   1      48.361  29.016  27.075  1.00  0.00     0.074 A 
ATOM     56  C   UNL A   1      49.396  30.027  27.087  1.00  0.00     0.031 C 
ATOM     57  C   UNL A   1      48.525  27.764  26.580  1.00  0.00     0.037 A 
BRANCH  44  58
ATOM     58  C   UNL A   1      43.523  24.179  27.131  1.00  0.00     0.058 A 
ATOM     59  C   UNL A   1      42.888  23.864  25.919  1.00  0.00     0.135 A 
ATOM     60  C   UNL A   1      43.581  23.182  28.119  1.00  0.00     0.135 A 
ATOM     61  F   UNL A   1      42.789  24.786  24.949  1.00  0.00    -0.206 F 
ATOM     62  C   UNL A   1      42.309  22.618  25.706  1.00  0.00     0.059 A 
ATOM     63  C   UNL A   1      43.034  21.920  27.915  1.00  0.00     0.059 A 
ATOM     64  F   UNL A   1      44.177  23.431  29.296  1.00  0.00    -0.206 F 
ATOM     65  C   UNL A   1      42.386  21.652  26.710  1.00  0.00     0.060 A 
BRANCH  65  66
ATOM     66  S   UNL A   1      41.633  20.038  26.417  1.00  0.00     0.124 S 
ATOM     67  O   UNL A   1      40.241  20.406  26.173  1.00  0.00    -0.237 OA
ATOM     68  O   UNL A   1      42.372  19.554  25.255  1.00  0.00    -0.237 OA
ATOM     69  O   UNL A   1      41.881  19.315  27.661  1.00  0.00    -0.744 OA
ENDBRANCH  65  66
ENDBRANCH  44  58
BRANCH  45  70
ATOM     70  C   UNL A   1      47.313  33.254  28.834  1.00  0.00     0.058 A 
ATOM     71  C   UNL A   1      47.900  33.549  30.074  1.00  0.00     0.135 A 
ATOM     72  C   UNL A   1      47.281  34.273  27.869  1.00  0.00     0.135 A 
ATOM     73  F   UNL A   1      47.941  32.615  31.036  1.00  0.00    -0.206 F 
ATOM     74  C   UNL A   1      48.418  34.809  30.355  1.00  0.00     0.059 A 
ATOM     75  C   UNL A   1      47.817  35.533  28.116  1.00  0.00     0.059 A 
ATOM     76  F   UNL A   1      46.738  34.041  26.663  1.00  0.00    -0.206 F 
ATOM     77  C   UNL A   1      48.372  35.795  29.368  1.00  0.00     0.060 A 
BRANCH  77  78
ATOM     78  S   UNL A   1      49.084  37.417  29.726  1.00  0.00     0.124 S 
ATOM     79  O   UNL A   1      49.044  37.439  31.182  1.00  0.00    -0.237 OA
ATOM     80  O   UNL A   1      50.409  37.309  29.122  1.00  0.00    -0.237 OA
ATOM     81  O   UNL A   1      48.171  38.337  29.054  1.00  0.00    -0.744 OA
ENDBRANCH  77  78
ENDBRANCH  45  70
BRANCH  57  82
ATOM     82  C   UNL A   1      49.843  27.421  25.938  1.00  0.00     0.058 A 
ATOM     83  C   UNL A   1      50.887  26.818  26.654  1.00  0.00     0.135 A 
ATOM     84  C   UNL A   1      50.021  27.613  24.557  1.00  0.00     0.135 A 
ATOM     85  F   UNL A   1      50.771  26.618  27.976  1.00  0.00    -0.206 F 
ATOM     86  C   UNL A   1      52.064  26.421  26.026  1.00  0.00     0.059 A 
ATOM     87  C   UNL A   1      51.179  27.201  23.904  1.00  0.00     0.059 A 
ATOM     88  F   UNL A   1      49.049  28.176  23.822  1.00  0.00    -0.206 F 
ATOM     89  C   UNL A   1      52.198  26.610  24.648  1.00  0.00     0.060 A 
BRANCH  89  90
ATOM     90  S   UNL A   1      53.701  26.026  23.834  1.00  0.00     0.124 S 
ATOM     91  O   UNL A   1      54.085  24.910  24.691  1.00  0.00    -0.237 OA
ATOM     92  O   UNL A   1      53.217  25.666  22.504  1.00  0.00    -0.237 OA
ATOM     93  O   UNL A   1      54.585  27.186  23.880  1.00  0.00    -0.744 OA
ENDBRANCH  89  90
ENDBRANCH  57  82
ENDBRANCH  31  32
ENDBRANCH  24  26
ENDBRANCH  23  24
ENDBRANCH  22  23
ENDBRANCH  21  22
ENDBRANCH  20  21
ENDBRANCH  19  20
ENDBRANCH  18  19
ENDBRANCH   1  18
TORSDOF 26
ENDMDL
