MODEL 1
REMARK VINA RESULT:      -8.8      0.000      0.000
REMARK SMILES COc1cnc(SCC(=O)OCCOCCOCCOCCOC(=O)c2ccc(-c3c4nc(c(-c5c(F)cc(S(=O)(=O)[O-])cc5F)c5ccc([nH]5)c(-c5c(F)cc(S(=O)(=O)[O-])cc5F)c5nc(c(-c6c(F)cc(S(=O)(=O)[O-])cc6F)c6ccc3[nH]6)C=C5)C=C4)cc2)[nH]c1=O
REMARK SMILES IDX 17 1 16 2 15 3 14 4 13 5 12 6 11 7 9 8 10 9 8 10 7 11 6 12
REMARK SMILES IDX 3 13 4 14 93 15 5 16 92 17 94 18 2 20 1 21 18 22 19 23 20 24
REMARK SMILES IDX 21 25 22 26 23 27 24 28 25 29 26 30 27 31 91 32 28 33 90 34
REMARK SMILES IDX 29 35 30 36 31 37 84 38 32 39 89 40 83 41 85 42 33 43 88 44
REMARK SMILES IDX 82 45 81 46 34 48 68 49 47 50 67 51 48 52 51 53 66 54 86 55
REMARK SMILES IDX 49 56 50 57 65 59 87 60 52 61 35 62 36 63 45 64 37 65 38 66
REMARK SMILES IDX 44 67 46 68 39 69 40 70 41 71 42 72 43 73 69 74 70 75 79 76
REMARK SMILES IDX 71 77 72 78 78 79 80 80 73 81 74 82 75 83 76 84 77 85 53 86
REMARK SMILES IDX 54 87 63 88 55 89 56 90 62 91 64 92 57 93 58 94 59 95 60 96
REMARK SMILES IDX 61 97
REMARK H PARENT 92 19 85 47 51 58
REMARK Flexibility Score: inf
ROOT
ATOM      1  O   UNL A   1      31.711  28.832  23.213  1.00  0.00    -0.377 OA
ENDROOT
BRANCH   1   2
ATOM      2  C   UNL A   1      31.059  28.011  22.271  1.00  0.00     0.188 C 
BRANCH   2   3
ATOM      3  C   UNL A   1      31.229  26.513  21.967  1.00  0.00     0.188 C 
BRANCH   3   4
ATOM      4  O   UNL A   1      31.851  25.658  22.890  1.00  0.00    -0.376 OA
BRANCH   4   5
ATOM      5  C   UNL A   1      33.215  25.748  23.234  1.00  0.00     0.202 C 
BRANCH   5   6
ATOM      6  C   UNL A   1      34.107  24.588  23.724  1.00  0.00     0.261 C 
BRANCH   6   7
ATOM      7  O   UNL A   1      34.855  23.826  22.757  1.00  0.00    -0.463 OA
BRANCH   7   8
ATOM      8  C   UNL A   1      35.925  23.134  23.215  1.00  0.00     0.316 C 
ATOM      9  O   UNL A   1      36.884  22.849  22.499  1.00  0.00    -0.251 OA
BRANCH   8  10
ATOM     10  C   UNL A   1      35.944  22.743  24.690  1.00  0.00     0.200 C 
BRANCH  10  11
ATOM     11  S   UNL A   1      36.596  21.147  25.255  1.00  0.00    -0.076 SA
BRANCH  11  12
ATOM     12  C   UNL A   1      35.269  20.039  24.972  1.00  0.00     0.168 A 
ATOM     13  C   UNL A   1      33.043  18.408  24.902  1.00  0.00     0.202 A 
ATOM     14  C   UNL A   1      34.302  18.011  24.654  1.00  0.00     0.166 A 
ATOM     15  C   UNL A   1      32.871  19.884  25.092  1.00  0.00     0.293 A 
ATOM     16  N   UNL A   1      35.435  18.797  24.658  1.00  0.00    -0.229 NA
ATOM     17  N   UNL A   1      34.041  20.598  25.180  1.00  0.00    -0.298 N 
ATOM     18  O   UNL A   1      31.779  20.434  25.171  1.00  0.00    -0.265 OA
ATOM     19  H   UNL A   1      33.992  21.557  25.402  1.00  0.00     0.172 HD
BRANCH  13  20
ATOM     20  O   UNL A   1      32.060  17.444  25.058  1.00  0.00    -0.490 OA
ATOM     21  C   UNL A   1      32.389  16.164  25.587  1.00  0.00     0.278 C 
ENDBRANCH  13  20
ENDBRANCH  11  12
ENDBRANCH  10  11
ENDBRANCH   8  10
ENDBRANCH   7   8
ENDBRANCH   6   7
ENDBRANCH   5   6
ENDBRANCH   4   5
ENDBRANCH   3   4
ENDBRANCH   2   3
ENDBRANCH   1   2
BRANCH   1  22
ATOM     22  C   UNL A   1      30.947  29.522  24.164  1.00  0.00     0.188 C 
BRANCH  22  23
ATOM     23  C   UNL A   1      31.324  29.187  25.606  1.00  0.00     0.188 C 
BRANCH  23  24
ATOM     24  O   UNL A   1      31.232  27.800  25.898  1.00  0.00    -0.376 OA
BRANCH  24  25
ATOM     25  C   UNL A   1      32.401  27.115  26.332  1.00  0.00     0.202 C 
BRANCH  25  26
ATOM     26  C   UNL A   1      33.739  27.851  26.527  1.00  0.00     0.261 C 
BRANCH  26  27
ATOM     27  O   UNL A   1      33.945  28.542  27.758  1.00  0.00    -0.460 OA
BRANCH  27  28
ATOM     28  C   UNL A   1      34.433  29.791  27.702  1.00  0.00     0.338 C 
ATOM     29  O   UNL A   1      33.807  30.827  27.545  1.00  0.00    -0.246 OA
BRANCH  28  30
ATOM     30  C   UNL A   1      35.847  29.682  28.096  1.00  0.00     0.060 A 
ATOM     31  C   UNL A   1      36.825  29.983  27.144  1.00  0.00     0.016 A 
ATOM     32  C   UNL A   1      36.197  29.367  29.414  1.00  0.00     0.016 A 
ATOM     33  C   UNL A   1      38.166  29.950  27.500  1.00  0.00     0.010 A 
ATOM     34  C   UNL A   1      37.545  29.300  29.763  1.00  0.00     0.010 A 
ATOM     35  C   UNL A   1      38.528  29.557  28.795  1.00  0.00    -0.014 A 
BRANCH  35  36
ATOM     36  C   UNL A   1      39.932  29.167  29.036  1.00  0.00     0.031 A 
ATOM     37  C   UNL A   1      40.826  30.185  29.684  1.00  0.00     0.074 A 
ATOM     38  C   UNL A   1      40.366  27.927  28.755  1.00  0.00     0.049 A 
ATOM     39  N   UNL A   1      42.084  30.093  30.019  1.00  0.00    -0.248 NA
ATOM     40  C   UNL A   1      40.212  31.488  30.005  1.00  0.00     0.031 C 
ATOM     41  C   UNL A   1      39.552  26.858  28.177  1.00  0.00     0.029 A 
ATOM     42  N   UNL A   1      41.600  27.359  28.926  1.00  0.00    -0.354 N 
ATOM     43  C   UNL A   1      42.410  31.320  30.584  1.00  0.00     0.074 A 
ATOM     44  C   UNL A   1      41.233  32.153  30.517  1.00  0.00     0.031 C 
ATOM     45  C   UNL A   1      40.315  25.759  28.037  1.00  0.00     0.029 A 
ATOM     46  C   UNL A   1      41.674  26.060  28.483  1.00  0.00     0.049 A 
ATOM     47  H   UNL A   1      42.362  27.835  29.328  1.00  0.00     0.167 HD
ATOM     48  C   UNL A   1      43.590  31.709  31.122  1.00  0.00     0.037 A 
ATOM     49  C   UNL A   1      42.731  25.225  28.431  1.00  0.00     0.037 A 
ATOM     50  C   UNL A   1      44.751  30.863  31.166  1.00  0.00     0.049 A 
ATOM     51  C   UNL A   1      44.057  25.710  28.958  1.00  0.00     0.074 A 
ATOM     52  C   UNL A   1      46.003  31.146  31.680  1.00  0.00     0.029 A 
ATOM     53  N   UNL A   1      44.804  29.569  30.664  1.00  0.00    -0.354 N 
ATOM     54  N   UNL A   1      44.355  26.868  29.504  1.00  0.00    -0.248 NA
ATOM     55  C   UNL A   1      45.189  24.780  28.868  1.00  0.00     0.031 C 
ATOM     56  C   UNL A   1      46.830  30.045  31.434  1.00  0.00     0.029 A 
ATOM     57  C   UNL A   1      46.076  29.050  30.831  1.00  0.00     0.049 A 
ATOM     58  H   UNL A   1      44.048  29.093  30.251  1.00  0.00     0.167 HD
ATOM     59  C   UNL A   1      45.701  26.792  29.851  1.00  0.00     0.074 A 
ATOM     60  C   UNL A   1      46.152  25.470  29.461  1.00  0.00     0.031 C 
ATOM     61  C   UNL A   1      46.492  27.725  30.438  1.00  0.00     0.037 A 
BRANCH  48  62
ATOM     62  C   UNL A   1      43.683  33.112  31.655  1.00  0.00     0.058 A 
ATOM     63  C   UNL A   1      44.066  34.194  30.845  1.00  0.00     0.135 A 
ATOM     64  C   UNL A   1      43.375  33.381  32.998  1.00  0.00     0.135 A 
ATOM     65  F   UNL A   1      44.398  33.992  29.559  1.00  0.00    -0.206 F 
ATOM     66  C   UNL A   1      44.165  35.485  31.353  1.00  0.00     0.059 A 
ATOM     67  C   UNL A   1      43.436  34.669  33.521  1.00  0.00     0.059 A 
ATOM     68  F   UNL A   1      43.015  32.384  33.822  1.00  0.00    -0.206 F 
ATOM     69  C   UNL A   1      43.846  35.713  32.693  1.00  0.00     0.060 A 
BRANCH  69  70
ATOM     70  S   UNL A   1      43.969  37.396  33.334  1.00  0.00     0.124 S 
ATOM     71  O   UNL A   1      42.777  37.477  34.173  1.00  0.00    -0.237 OA
ATOM     72  O   UNL A   1      45.243  37.364  34.045  1.00  0.00    -0.237 OA
ATOM     73  O   UNL A   1      43.945  38.222  32.131  1.00  0.00    -0.744 OA
ENDBRANCH  69  70
ENDBRANCH  48  62
BRANCH  49  74
ATOM     74  C   UNL A   1      42.580  23.862  27.851  1.00  0.00     0.058 A 
ATOM     75  C   UNL A   1      42.551  23.658  26.464  1.00  0.00     0.135 A 
ATOM     76  C   UNL A   1      42.465  22.732  28.678  1.00  0.00     0.135 A 
ATOM     77  F   UNL A   1      42.648  24.705  25.630  1.00  0.00    -0.206 F 
ATOM     78  C   UNL A   1      42.399  22.388  25.915  1.00  0.00     0.059 A 
ATOM     79  C   UNL A   1      42.341  21.449  28.154  1.00  0.00     0.059 A 
ATOM     80  F   UNL A   1      42.496  22.868  30.012  1.00  0.00    -0.206 F 
ATOM     81  C   UNL A   1      42.300  21.288  26.770  1.00  0.00     0.060 A 
BRANCH  81  82
ATOM     82  S   UNL A   1      42.153  19.639  26.047  1.00  0.00     0.124 S 
ATOM     83  O   UNL A   1      42.551  18.792  27.166  1.00  0.00    -0.237 OA
ATOM     84  O   UNL A   1      40.741  19.593  25.681  1.00  0.00    -0.237 OA
ATOM     85  O   UNL A   1      43.084  19.680  24.924  1.00  0.00    -0.744 OA
ENDBRANCH  81  82
ENDBRANCH  49  74
BRANCH  61  86
ATOM     86  C   UNL A   1      47.915  27.337  30.734  1.00  0.00     0.058 A 
ATOM     87  C   UNL A   1      48.269  26.656  31.909  1.00  0.00     0.135 A 
ATOM     88  C   UNL A   1      48.928  27.597  29.795  1.00  0.00     0.135 A 
ATOM     89  F   UNL A   1      47.340  26.387  32.841  1.00  0.00    -0.206 F 
ATOM     90  C   UNL A   1      49.581  26.271  32.156  1.00  0.00     0.059 A 
ATOM     91  C   UNL A   1      50.240  27.189  30.006  1.00  0.00     0.059 A 
ATOM     92  F   UNL A   1      48.640  28.233  28.649  1.00  0.00    -0.206 F 
ATOM     93  C   UNL A   1      50.559  26.538  31.196  1.00  0.00     0.060 A 
BRANCH  93  94
ATOM     94  S   UNL A   1      52.252  26.001  31.514  1.00  0.00     0.124 S 
ATOM     95  O   UNL A   1      52.041  24.646  32.014  1.00  0.00    -0.237 OA
ATOM     96  O   UNL A   1      52.864  26.101  30.194  1.00  0.00    -0.237 OA
ATOM     97  O   UNL A   1      52.736  26.964  32.498  1.00  0.00    -0.744 OA
ENDBRANCH  93  94
ENDBRANCH  61  86
ENDBRANCH  35  36
ENDBRANCH  28  30
ENDBRANCH  27  28
ENDBRANCH  26  27
ENDBRANCH  25  26
ENDBRANCH  24  25
ENDBRANCH  23  24
ENDBRANCH  22  23
ENDBRANCH   1  22
TORSDOF 26
ENDMDL
MODEL 2
REMARK VINA RESULT:      -8.8      4.804     10.658
REMARK SMILES COc1cnc(SCC(=O)OCCOCCOCCOCCOC(=O)c2ccc(-c3c4nc(c(-c5c(F)cc(S(=O)(=O)[O-])cc5F)c5ccc([nH]5)c(-c5c(F)cc(S(=O)(=O)[O-])cc5F)c5nc(c(-c6c(F)cc(S(=O)(=O)[O-])cc6F)c6ccc3[nH]6)C=C5)C=C4)cc2)[nH]c1=O
REMARK SMILES IDX 17 1 16 2 15 3 14 4 13 5 12 6 11 7 9 8 10 9 8 10 7 11 6 12
REMARK SMILES IDX 3 13 4 14 93 15 5 16 92 17 94 18 2 20 1 21 18 22 19 23 20 24
REMARK SMILES IDX 21 25 22 26 23 27 24 28 25 29 26 30 27 31 91 32 28 33 90 34
REMARK SMILES IDX 29 35 30 36 31 37 84 38 32 39 89 40 83 41 85 42 33 43 88 44
REMARK SMILES IDX 82 45 81 46 34 48 68 49 47 50 67 51 48 52 51 53 66 54 86 55
REMARK SMILES IDX 49 56 50 57 65 59 87 60 52 61 35 62 36 63 45 64 37 65 38 66
REMARK SMILES IDX 44 67 46 68 39 69 40 70 41 71 42 72 43 73 69 74 70 75 79 76
REMARK SMILES IDX 71 77 72 78 78 79 80 80 73 81 74 82 75 83 76 84 77 85 53 86
REMARK SMILES IDX 54 87 63 88 55 89 56 90 62 91 64 92 57 93 58 94 59 95 60 96
REMARK SMILES IDX 61 97
REMARK H PARENT 92 19 85 47 51 58
REMARK Flexibility Score: inf
ROOT
ATOM      1  O   UNL A   1      34.074  20.650  25.161  1.00  0.00    -0.377 OA
ENDROOT
BRANCH   1   2
ATOM      2  C   UNL A   1      33.313  21.525  25.961  1.00  0.00     0.188 C 
BRANCH   2   3
ATOM      3  C   UNL A   1      32.438  22.729  25.569  1.00  0.00     0.188 C 
BRANCH   3   4
ATOM      4  O   UNL A   1      31.470  22.616  24.559  1.00  0.00    -0.376 OA
BRANCH   4   5
ATOM      5  C   UNL A   1      31.785  22.535  23.188  1.00  0.00     0.202 C 
BRANCH   5   6
ATOM      6  C   UNL A   1      32.743  23.470  22.419  1.00  0.00     0.261 C 
BRANCH   6   7
ATOM      7  O   UNL A   1      32.422  24.871  22.324  1.00  0.00    -0.463 OA
BRANCH   7   8
ATOM      8  C   UNL A   1      33.431  25.748  22.544  1.00  0.00     0.316 C 
ATOM      9  O   UNL A   1      33.853  26.504  21.669  1.00  0.00    -0.251 OA
BRANCH   8  10
ATOM     10  C   UNL A   1      34.021  25.820  23.950  1.00  0.00     0.200 C 
BRANCH  10  11
ATOM     11  S   UNL A   1      33.107  26.542  25.341  1.00  0.00    -0.076 SA
BRANCH  11  12
ATOM     12  C   UNL A   1      31.816  27.436  24.565  1.00  0.00     0.168 A 
ATOM     13  C   UNL A   1      29.762  28.525  23.077  1.00  0.00     0.202 A 
ATOM     14  C   UNL A   1      30.906  29.154  23.395  1.00  0.00     0.166 A 
ATOM     15  C   UNL A   1      29.579  27.183  23.718  1.00  0.00     0.293 A 
ATOM     16  N   UNL A   1      31.944  28.653  24.152  1.00  0.00    -0.229 NA
ATOM     17  N   UNL A   1      30.681  26.700  24.379  1.00  0.00    -0.298 N 
ATOM     18  O   UNL A   1      28.534  26.544  23.664  1.00  0.00    -0.265 OA
ATOM     19  H   UNL A   1      30.652  25.783  24.736  1.00  0.00     0.172 HD
BRANCH  13  20
ATOM     20  O   UNL A   1      28.924  29.104  22.137  1.00  0.00    -0.490 OA
ATOM     21  C   UNL A   1      29.238  30.376  21.584  1.00  0.00     0.278 C 
ENDBRANCH  13  20
ENDBRANCH  11  12
ENDBRANCH  10  11
ENDBRANCH   8  10
ENDBRANCH   7   8
ENDBRANCH   6   7
ENDBRANCH   5   6
ENDBRANCH   4   5
ENDBRANCH   3   4
ENDBRANCH   2   3
ENDBRANCH   1   2
BRANCH   1  22
ATOM     22  C   UNL A   1      35.471  20.660  25.276  1.00  0.00     0.188 C 
BRANCH  22  23
ATOM     23  C   UNL A   1      36.031  21.993  25.771  1.00  0.00     0.188 C 
BRANCH  23  24
ATOM     24  O   UNL A   1      37.420  22.144  25.513  1.00  0.00    -0.376 OA
BRANCH  24  25
ATOM     25  C   UNL A   1      38.114  23.221  26.131  1.00  0.00     0.202 C 
BRANCH  25  26
ATOM     26  C   UNL A   1      39.573  23.076  26.599  1.00  0.00     0.261 C 
BRANCH  26  27
ATOM     27  O   UNL A   1      40.417  24.223  26.512  1.00  0.00    -0.460 OA
BRANCH  27  28
ATOM     28  C   UNL A   1      41.421  24.331  27.396  1.00  0.00     0.338 C 
ATOM     29  O   UNL A   1      42.479  23.723  27.399  1.00  0.00    -0.246 OA
BRANCH  28  30
ATOM     30  C   UNL A   1      41.088  25.496  28.233  1.00  0.00     0.060 A 
ATOM     31  C   UNL A   1      42.073  26.466  28.441  1.00  0.00     0.016 A 
ATOM     32  C   UNL A   1      39.793  25.664  28.736  1.00  0.00     0.016 A 
ATOM     33  C   UNL A   1      41.773  27.606  29.174  1.00  0.00     0.010 A 
ATOM     34  C   UNL A   1      39.501  26.792  29.501  1.00  0.00     0.010 A 
ATOM     35  C   UNL A   1      40.503  27.744  29.748  1.00  0.00    -0.014 A 
BRANCH  35  36
ATOM     36  C   UNL A   1      40.328  28.751  30.815  1.00  0.00     0.031 A 
ATOM     37  C   UNL A   1      41.233  28.651  32.009  1.00  0.00     0.074 A 
ATOM     38  C   UNL A   1      39.446  29.756  30.682  1.00  0.00     0.049 A 
ATOM     39  N   UNL A   1      41.298  29.412  33.068  1.00  0.00    -0.248 NA
ATOM     40  C   UNL A   1      42.205  27.542  32.004  1.00  0.00     0.031 C 
ATOM     41  C   UNL A   1      38.567  29.962  29.532  1.00  0.00     0.029 A 
ATOM     42  N   UNL A   1      39.152  30.795  31.524  1.00  0.00    -0.354 N 
ATOM     43  C   UNL A   1      42.312  28.872  33.852  1.00  0.00     0.074 A 
ATOM     44  C   UNL A   1      42.810  27.702  33.168  1.00  0.00     0.031 C 
ATOM     45  C   UNL A   1      37.825  31.064  29.744  1.00  0.00     0.029 A 
ATOM     46  C   UNL A   1      38.154  31.616  31.056  1.00  0.00     0.049 A 
ATOM     47  H   UNL A   1      39.611  30.940  32.382  1.00  0.00     0.167 HD
ATOM     48  C   UNL A   1      42.788  29.325  35.034  1.00  0.00     0.037 A 
ATOM     49  C   UNL A   1      37.568  32.680  31.641  1.00  0.00     0.037 A 
ATOM     50  C   UNL A   1      42.265  30.487  35.700  1.00  0.00     0.049 A 
ATOM     51  C   UNL A   1      38.057  33.115  32.999  1.00  0.00     0.074 A 
ATOM     52  C   UNL A   1      42.661  31.041  36.903  1.00  0.00     0.029 A 
ATOM     53  N   UNL A   1      41.221  31.268  35.221  1.00  0.00    -0.354 N 
ATOM     54  N   UNL A   1      39.026  32.609  33.729  1.00  0.00    -0.248 NA
ATOM     55  C   UNL A   1      37.382  34.266  33.612  1.00  0.00     0.031 C 
ATOM     56  C   UNL A   1      41.817  32.121  37.181  1.00  0.00     0.029 A 
ATOM     57  C   UNL A   1      40.940  32.283  36.118  1.00  0.00     0.049 A 
ATOM     58  H   UNL A   1      40.751  31.120  34.369  1.00  0.00     0.167 HD
ATOM     59  C   UNL A   1      39.096  33.399  34.872  1.00  0.00     0.074 A 
ATOM     60  C   UNL A   1      38.079  34.422  34.729  1.00  0.00     0.031 C 
ATOM     61  C   UNL A   1      39.924  33.292  35.942  1.00  0.00     0.037 A 
BRANCH  48  62
ATOM     62  C   UNL A   1      43.888  28.537  35.690  1.00  0.00     0.058 A 
ATOM     63  C   UNL A   1      43.623  27.490  36.588  1.00  0.00     0.135 A 
ATOM     64  C   UNL A   1      45.232  28.828  35.408  1.00  0.00     0.135 A 
ATOM     65  F   UNL A   1      42.356  27.185  36.916  1.00  0.00    -0.206 F 
ATOM     66  C   UNL A   1      44.648  26.779  37.201  1.00  0.00     0.059 A 
ATOM     67  C   UNL A   1      46.275  28.109  35.984  1.00  0.00     0.059 A 
ATOM     68  F   UNL A   1      45.546  29.826  34.566  1.00  0.00    -0.206 F 
ATOM     69  C   UNL A   1      45.973  27.094  36.891  1.00  0.00     0.060 A 
BRANCH  69  70
ATOM     70  S   UNL A   1      47.292  26.154  37.687  1.00  0.00     0.124 S 
ATOM     71  O   UNL A   1      48.422  26.434  36.806  1.00  0.00    -0.237 OA
ATOM     72  O   UNL A   1      47.353  26.766  39.011  1.00  0.00    -0.237 OA
ATOM     73  O   UNL A   1      46.799  24.781  37.656  1.00  0.00    -0.744 OA
ENDBRANCH  69  70
ENDBRANCH  48  62
BRANCH  49  74
ATOM     74  C   UNL A   1      36.454  33.391  30.955  1.00  0.00     0.058 A 
ATOM     75  C   UNL A   1      35.142  33.342  31.451  1.00  0.00     0.135 A 
ATOM     76  C   UNL A   1      36.681  34.138  29.788  1.00  0.00     0.135 A 
ATOM     77  F   UNL A   1      34.869  32.634  32.558  1.00  0.00    -0.206 F 
ATOM     78  C   UNL A   1      34.094  33.996  30.809  1.00  0.00     0.059 A 
ATOM     79  C   UNL A   1      35.656  34.824  29.145  1.00  0.00     0.059 A 
ATOM     80  F   UNL A   1      37.918  34.227  29.276  1.00  0.00    -0.206 F 
ATOM     81  C   UNL A   1      34.363  34.739  29.657  1.00  0.00     0.060 A 
BRANCH  81  82
ATOM     82  S   UNL A   1      33.005  35.624  28.860  1.00  0.00     0.124 S 
ATOM     83  O   UNL A   1      33.720  36.660  28.126  1.00  0.00    -0.237 OA
ATOM     84  O   UNL A   1      32.392  34.574  28.052  1.00  0.00    -0.237 OA
ATOM     85  O   UNL A   1      32.200  36.088  29.985  1.00  0.00    -0.744 OA
ENDBRANCH  81  82
ENDBRANCH  49  74
BRANCH  61  86
ATOM     86  C   UNL A   1      39.795  34.332  37.022  1.00  0.00     0.058 A 
ATOM     87  C   UNL A   1      38.928  34.165  38.112  1.00  0.00     0.135 A 
ATOM     88  C   UNL A   1      40.599  35.484  36.992  1.00  0.00     0.135 A 
ATOM     89  F   UNL A   1      38.134  33.085  38.187  1.00  0.00    -0.206 F 
ATOM     90  C   UNL A   1      38.843  35.117  39.122  1.00  0.00     0.059 A 
ATOM     91  C   UNL A   1      40.556  36.430  38.009  1.00  0.00     0.059 A 
ATOM     92  F   UNL A   1      41.456  35.684  35.977  1.00  0.00    -0.206 F 
ATOM     93  C   UNL A   1      39.665  36.244  39.064  1.00  0.00     0.060 A 
BRANCH  93  94
ATOM     94  S   UNL A   1      39.569  37.453  40.400  1.00  0.00     0.124 S 
ATOM     95  O   UNL A   1      38.829  38.537  39.762  1.00  0.00    -0.237 OA
ATOM     96  O   UNL A   1      38.849  36.718  41.434  1.00  0.00    -0.237 OA
ATOM     97  O   UNL A   1      40.968  37.741  40.700  1.00  0.00    -0.744 OA
ENDBRANCH  93  94
ENDBRANCH  61  86
ENDBRANCH  35  36
ENDBRANCH  28  30
ENDBRANCH  27  28
ENDBRANCH  26  27
ENDBRANCH  25  26
ENDBRANCH  24  25
ENDBRANCH  23  24
ENDBRANCH  22  23
ENDBRANCH   1  22
TORSDOF 26
ENDMDL
MODEL 3
REMARK VINA RESULT:      -7.9      2.839      3.846
REMARK SMILES COc1cnc(SCC(=O)OCCOCCOCCOCCOC(=O)c2ccc(-c3c4nc(c(-c5c(F)cc(S(=O)(=O)[O-])cc5F)c5ccc([nH]5)c(-c5c(F)cc(S(=O)(=O)[O-])cc5F)c5nc(c(-c6c(F)cc(S(=O)(=O)[O-])cc6F)c6ccc3[nH]6)C=C5)C=C4)cc2)[nH]c1=O
REMARK SMILES IDX 17 1 16 2 15 3 14 4 13 5 12 6 11 7 9 8 10 9 8 10 7 11 6 12
REMARK SMILES IDX 3 13 4 14 93 15 5 16 92 17 94 18 2 20 1 21 18 22 19 23 20 24
REMARK SMILES IDX 21 25 22 26 23 27 24 28 25 29 26 30 27 31 91 32 28 33 90 34
REMARK SMILES IDX 29 35 30 36 31 37 84 38 32 39 89 40 83 41 85 42 33 43 88 44
REMARK SMILES IDX 82 45 81 46 34 48 68 49 47 50 67 51 48 52 51 53 66 54 86 55
REMARK SMILES IDX 49 56 50 57 65 59 87 60 52 61 35 62 36 63 45 64 37 65 38 66
REMARK SMILES IDX 44 67 46 68 39 69 40 70 41 71 42 72 43 73 69 74 70 75 79 76
REMARK SMILES IDX 71 77 72 78 78 79 80 80 73 81 74 82 75 83 76 84 77 85 53 86
REMARK SMILES IDX 54 87 63 88 55 89 56 90 62 91 64 92 57 93 58 94 59 95 60 96
REMARK SMILES IDX 61 97
REMARK H PARENT 92 19 85 47 51 58
REMARK Flexibility Score: inf
ROOT
ATOM      1  O   UNL A   1      31.376  25.756  25.532  1.00  0.00    -0.377 OA
ENDROOT
BRANCH   1   2
ATOM      2  C   UNL A   1      31.103  24.651  26.362  1.00  0.00     0.188 C 
BRANCH   2   3
ATOM      3  C   UNL A   1      31.954  23.411  26.686  1.00  0.00     0.188 C 
BRANCH   3   4
ATOM      4  O   UNL A   1      33.320  23.374  26.365  1.00  0.00    -0.376 OA
BRANCH   4   5
ATOM      5  C   UNL A   1      33.901  24.163  25.352  1.00  0.00     0.202 C 
BRANCH   5   6
ATOM      6  C   UNL A   1      35.103  23.767  24.469  1.00  0.00     0.261 C 
BRANCH   6   7
ATOM      7  O   UNL A   1      34.880  22.919  23.326  1.00  0.00    -0.463 OA
BRANCH   7   8
ATOM      8  C   UNL A   1      33.690  23.045  22.691  1.00  0.00     0.316 C 
ATOM      9  O   UNL A   1      33.537  23.777  21.713  1.00  0.00    -0.251 OA
BRANCH   8  10
ATOM     10  C   UNL A   1      32.520  22.204  23.193  1.00  0.00     0.200 C 
BRANCH  10  11
ATOM     11  S   UNL A   1      32.022  20.663  22.375  1.00  0.00    -0.076 SA
BRANCH  11  12
ATOM     12  C   UNL A   1      32.485  19.422  23.521  1.00  0.00     0.168 A 
ATOM     13  C   UNL A   1      32.984  17.211  25.096  1.00  0.00     0.202 A 
ATOM     14  C   UNL A   1      32.549  18.400  25.545  1.00  0.00     0.166 A 
ATOM     15  C   UNL A   1      33.339  17.177  23.640  1.00  0.00     0.293 A 
ATOM     16  N   UNL A   1      32.309  19.533  24.796  1.00  0.00    -0.229 NA
ATOM     17  N   UNL A   1      32.990  18.300  22.931  1.00  0.00    -0.298 N 
ATOM     18  O   UNL A   1      33.894  16.227  23.102  1.00  0.00    -0.265 OA
ATOM     19  H   UNL A   1      33.110  18.295  21.954  1.00  0.00     0.172 HD
BRANCH  13  20
ATOM     20  O   UNL A   1      32.970  16.128  25.960  1.00  0.00    -0.490 OA
ATOM     21  C   UNL A   1      32.676  14.825  25.470  1.00  0.00     0.278 C 
ENDBRANCH  13  20
ENDBRANCH  11  12
ENDBRANCH  10  11
ENDBRANCH   8  10
ENDBRANCH   7   8
ENDBRANCH   6   7
ENDBRANCH   5   6
ENDBRANCH   4   5
ENDBRANCH   3   4
ENDBRANCH   2   3
ENDBRANCH   1   2
BRANCH   1  22
ATOM     22  C   UNL A   1      31.068  27.046  25.987  1.00  0.00     0.188 C 
BRANCH  22  23
ATOM     23  C   UNL A   1      31.052  28.095  24.875  1.00  0.00     0.188 C 
BRANCH  23  24
ATOM     24  O   UNL A   1      32.325  28.289  24.275  1.00  0.00    -0.376 OA
BRANCH  24  25
ATOM     25  C   UNL A   1      33.240  29.185  24.895  1.00  0.00     0.202 C 
BRANCH  25  26
ATOM     26  C   UNL A   1      34.217  28.710  25.986  1.00  0.00     0.261 C 
BRANCH  26  27
ATOM     27  O   UNL A   1      34.051  29.237  27.302  1.00  0.00    -0.460 OA
BRANCH  27  28
ATOM     28  C   UNL A   1      34.488  30.485  27.537  1.00  0.00     0.338 C 
ATOM     29  O   UNL A   1      33.900  31.532  27.321  1.00  0.00    -0.246 OA
BRANCH  28  30
ATOM     30  C   UNL A   1      35.726  30.329  28.318  1.00  0.00     0.060 A 
ATOM     31  C   UNL A   1      36.776  31.220  28.080  1.00  0.00     0.016 A 
ATOM     32  C   UNL A   1      35.813  29.367  29.331  1.00  0.00     0.016 A 
ATOM     33  C   UNL A   1      37.934  31.141  28.842  1.00  0.00     0.010 A 
ATOM     34  C   UNL A   1      36.989  29.264  30.073  1.00  0.00     0.010 A 
ATOM     35  C   UNL A   1      38.061  30.129  29.802  1.00  0.00    -0.014 A 
BRANCH  35  36
ATOM     36  C   UNL A   1      39.411  29.829  30.321  1.00  0.00     0.031 A 
ATOM     37  C   UNL A   1      39.842  30.546  31.568  1.00  0.00     0.074 A 
ATOM     38  C   UNL A   1      40.186  28.897  29.741  1.00  0.00     0.049 A 
ATOM     39  N   UNL A   1      40.960  30.453  32.235  1.00  0.00    -0.248 NA
ATOM     40  C   UNL A   1      38.874  31.495  32.147  1.00  0.00     0.031 C 
ATOM     41  C   UNL A   1      39.824  28.112  28.561  1.00  0.00     0.029 A 
ATOM     42  N   UNL A   1      41.437  28.450  30.075  1.00  0.00    -0.354 N 
ATOM     43  C   UNL A   1      40.830  31.330  33.305  1.00  0.00     0.074 A 
ATOM     44  C   UNL A   1      39.543  31.973  33.183  1.00  0.00     0.031 C 
ATOM     45  C   UNL A   1      40.838  27.280  28.266  1.00  0.00     0.029 A 
ATOM     46  C   UNL A   1      41.928  27.498  29.214  1.00  0.00     0.049 A 
ATOM     47  H   UNL A   1      41.936  28.779  30.856  1.00  0.00     0.167 HD
ATOM     48  C   UNL A   1      41.708  31.567  34.307  1.00  0.00     0.037 A 
ATOM     49  C   UNL A   1      43.133  26.894  29.194  1.00  0.00     0.037 A 
ATOM     50  C   UNL A   1      42.989  30.922  34.400  1.00  0.00     0.049 A 
ATOM     51  C   UNL A   1      44.129  27.237  30.272  1.00  0.00     0.074 A 
ATOM     52  C   UNL A   1      43.966  31.082  35.365  1.00  0.00     0.029 A 
ATOM     53  N   UNL A   1      43.475  29.998  33.484  1.00  0.00    -0.354 N 
ATOM     54  N   UNL A   1      43.993  28.058  31.290  1.00  0.00    -0.248 NA
ATOM     55  C   UNL A   1      45.436  26.573  30.207  1.00  0.00     0.031 C 
ATOM     56  C   UNL A   1      45.068  30.302  34.999  1.00  0.00     0.029 A 
ATOM     57  C   UNL A   1      44.750  29.601  33.845  1.00  0.00     0.049 A 
ATOM     58  H   UNL A   1      42.984  29.674  32.695  1.00  0.00     0.167 HD
ATOM     59  C   UNL A   1      45.186  27.984  32.002  1.00  0.00     0.074 A 
ATOM     60  C   UNL A   1      46.024  27.030  31.303  1.00  0.00     0.031 C 
ATOM     61  C   UNL A   1      45.557  28.642  33.130  1.00  0.00     0.037 A 
BRANCH  48  62
ATOM     62  C   UNL A   1      41.325  32.590  35.341  1.00  0.00     0.058 A 
ATOM     63  C   UNL A   1      40.537  32.264  36.457  1.00  0.00     0.135 A 
ATOM     64  C   UNL A   1      41.761  33.919  35.217  1.00  0.00     0.135 A 
ATOM     65  F   UNL A   1      40.069  31.014  36.613  1.00  0.00    -0.206 F 
ATOM     66  C   UNL A   1      40.174  33.222  37.398  1.00  0.00     0.059 A 
ATOM     67  C   UNL A   1      41.438  34.888  36.163  1.00  0.00     0.059 A 
ATOM     68  F   UNL A   1      42.506  34.291  34.165  1.00  0.00    -0.206 F 
ATOM     69  C   UNL A   1      40.632  34.533  37.243  1.00  0.00     0.060 A 
BRANCH  69  70
ATOM     70  S   UNL A   1      40.163  35.761  38.479  1.00  0.00     0.124 S 
ATOM     71  O   UNL A   1      39.761  36.883  37.637  1.00  0.00    -0.237 OA
ATOM     72  O   UNL A   1      39.084  35.086  39.193  1.00  0.00    -0.237 OA
ATOM     73  O   UNL A   1      41.389  35.961  39.245  1.00  0.00    -0.744 OA
ENDBRANCH  69  70
ENDBRANCH  48  62
BRANCH  49  74
ATOM     74  C   UNL A   1      43.464  25.921  28.116  1.00  0.00     0.058 A 
ATOM     75  C   UNL A   1      43.312  24.540  28.308  1.00  0.00     0.135 A 
ATOM     76  C   UNL A   1      43.937  26.357  26.867  1.00  0.00     0.135 A 
ATOM     77  F   UNL A   1      42.872  24.071  29.486  1.00  0.00    -0.206 F 
ATOM     78  C   UNL A   1      43.630  23.625  27.309  1.00  0.00     0.059 A 
ATOM     79  C   UNL A   1      44.234  25.463  25.843  1.00  0.00     0.059 A 
ATOM     80  F   UNL A   1      44.092  27.667  26.626  1.00  0.00    -0.206 F 
ATOM     81  C   UNL A   1      44.086  24.097  26.077  1.00  0.00     0.060 A 
BRANCH  81  82
ATOM     82  S   UNL A   1      44.449  22.903  24.771  1.00  0.00     0.124 S 
ATOM     83  O   UNL A   1      45.481  23.601  24.013  1.00  0.00    -0.237 OA
ATOM     84  O   UNL A   1      44.892  21.742  25.537  1.00  0.00    -0.237 OA
ATOM     85  O   UNL A   1      43.166  22.745  24.094  1.00  0.00    -0.744 OA
ENDBRANCH  81  82
ENDBRANCH  49  74
BRANCH  61  86
ATOM     86  C   UNL A   1      46.911  28.320  33.704  1.00  0.00     0.058 A 
ATOM     87  C   UNL A   1      48.056  29.053  33.358  1.00  0.00     0.135 A 
ATOM     88  C   UNL A   1      47.047  27.301  34.662  1.00  0.00     0.135 A 
ATOM     89  F   UNL A   1      47.981  30.034  32.444  1.00  0.00    -0.206 F 
ATOM     90  C   UNL A   1      49.295  28.769  33.921  1.00  0.00     0.059 A 
ATOM     91  C   UNL A   1      48.269  27.024  35.263  1.00  0.00     0.059 A 
ATOM     92  F   UNL A   1      45.979  26.579  35.038  1.00  0.00    -0.206 F 
ATOM     93  C   UNL A   1      49.390  27.755  34.877  1.00  0.00     0.060 A 
BRANCH  93  94
ATOM     94  S   UNL A   1      50.998  27.422  35.625  1.00  0.00     0.124 S 
ATOM     95  O   UNL A   1      51.144  28.561  36.526  1.00  0.00    -0.237 OA
ATOM     96  O   UNL A   1      50.780  26.130  36.266  1.00  0.00    -0.237 OA
ATOM     97  O   UNL A   1      51.907  27.404  34.483  1.00  0.00    -0.744 OA
ENDBRANCH  93  94
ENDBRANCH  61  86
ENDBRANCH  35  36
ENDBRANCH  28  30
ENDBRANCH  27  28
ENDBRANCH  26  27
ENDBRANCH  25  26
ENDBRANCH  24  25
ENDBRANCH  23  24
ENDBRANCH  22  23
ENDBRANCH   1  22
TORSDOF 26
ENDMDL
