MODEL 1
REMARK VINA RESULT:      -9.4      0.000      0.000
REMARK SMILES CCc1nn(-c2ccncn2)c(Cl)c1C(=O)OCCOCCOCCOCCOC(=O)c1ccc(-c2c3nc(c(-c4c(F)cc(S(=O)(=O)[O-])cc4F)c4ccc([nH]4)c(-c4c(F)cc(S(=O)(=O)[O-])cc4F)c4nc(c(-c5c(F)cc(S(=O)(=O)[O-])cc5F)c5ccc2[nH]5)C=C4)C=C3)cc1
REMARK SMILES IDX 24 1 23 2 22 3 21 4 20 5 19 6 18 7 17 8 15 9 16 10 14 11
REMARK SMILES IDX 3 12 4 13 5 14 12 15 13 16 2 17 1 18 6 19 7 20 11 21 8 22
REMARK SMILES IDX 10 23 9 24 25 25 26 26 27 27 28 28 29 29 30 30 31 31 32 32
REMARK SMILES IDX 33 33 97 34 34 35 96 36 35 37 36 38 37 39 90 40 38 41 95 42
REMARK SMILES IDX 89 43 91 44 39 45 94 46 88 47 87 48 40 50 74 51 53 52 73 53
REMARK SMILES IDX 54 54 57 55 72 56 92 57 55 58 56 59 71 61 93 62 58 63 41 64
REMARK SMILES IDX 42 65 51 66 43 67 44 68 50 69 52 70 45 71 46 72 47 73 48 74
REMARK SMILES IDX 49 75 75 76 76 77 85 78 77 79 78 80 84 81 86 82 79 83 80 84
REMARK SMILES IDX 81 85 82 86 83 87 59 88 60 89 69 90 61 91 62 92 68 93 70 94
REMARK SMILES IDX 63 95 64 96 65 97 66 98 67 99
REMARK H PARENT 91 49 57 60
REMARK Flexibility Score: inf
ROOT
ATOM      1  C   UNL A   1      33.830  35.787  28.630  1.00  0.00     0.188 C 
ENDROOT
BRANCH   1   2
ATOM      2  O   UNL A   1      34.400  34.745  27.836  1.00  0.00    -0.377 OA
BRANCH   2   3
ATOM      3  C   UNL A   1      34.638  33.502  28.467  1.00  0.00     0.188 C 
BRANCH   3   4
ATOM      4  C   UNL A   1      33.751  32.356  27.938  1.00  0.00     0.188 C 
BRANCH   4   5
ATOM      5  O   UNL A   1      34.356  31.219  27.355  1.00  0.00    -0.376 OA
BRANCH   5   6
ATOM      6  C   UNL A   1      33.753  29.939  27.302  1.00  0.00     0.202 C 
BRANCH   6   7
ATOM      7  C   UNL A   1      34.299  28.693  26.578  1.00  0.00     0.261 C 
BRANCH   7   8
ATOM      8  O   UNL A   1      33.719  28.347  25.327  1.00  0.00    -0.460 OA
BRANCH   8   9
ATOM      9  C   UNL A   1      32.607  27.578  25.357  1.00  0.00     0.343 C 
ATOM     10  O   UNL A   1      32.352  26.757  26.233  1.00  0.00    -0.246 OA
BRANCH   9  11
ATOM     11  C   UNL A   1      31.677  27.973  24.322  1.00  0.00     0.120 A 
ATOM     12  C   UNL A   1      31.311  27.318  23.107  1.00  0.00     0.079 A 
ATOM     13  N   UNL A   1      30.430  28.044  22.397  1.00  0.00    -0.169 NA
ATOM     14  N   UNL A   1      30.299  29.206  23.093  1.00  0.00    -0.203 N 
ATOM     15  C   UNL A   1      31.046  29.191  24.242  1.00  0.00     0.149 A 
ATOM     16  Cl  UNL A   1      31.118  30.555  25.272  1.00  0.00    -0.061 Cl
BRANCH  12  17
ATOM     17  C   UNL A   1      31.811  25.985  22.620  1.00  0.00     0.056 C 
ATOM     18  C   UNL A   1      32.990  26.024  21.662  1.00  0.00     0.011 C 
ENDBRANCH  12  17
BRANCH  14  19
ATOM     19  C   UNL A   1      29.449  30.250  22.649  1.00  0.00     0.158 A 
ATOM     20  C   UNL A   1      28.734  30.964  23.594  1.00  0.00     0.069 A 
ATOM     21  N   UNL A   1      29.258  30.368  21.315  1.00  0.00    -0.217 NA
ATOM     22  C   UNL A   1      27.781  31.817  23.088  1.00  0.00     0.117 A 
ATOM     23  C   UNL A   1      28.294  31.219  20.948  1.00  0.00     0.224 A 
ATOM     24  N   UNL A   1      27.530  31.953  21.772  1.00  0.00    -0.245 NA
ENDBRANCH  14  19
ENDBRANCH   9  11
ENDBRANCH   8   9
ENDBRANCH   7   8
ENDBRANCH   6   7
ENDBRANCH   5   6
ENDBRANCH   4   5
ENDBRANCH   3   4
ENDBRANCH   2   3
ENDBRANCH   1   2
BRANCH   1  25
ATOM     25  C   UNL A   1      33.019  35.475  29.918  1.00  0.00     0.188 C 
BRANCH  25  26
ATOM     26  O   UNL A   1      33.728  35.624  31.136  1.00  0.00    -0.376 OA
BRANCH  26  27
ATOM     27  C   UNL A   1      33.997  34.563  32.028  1.00  0.00     0.202 C 
BRANCH  27  28
ATOM     28  C   UNL A   1      35.196  34.646  32.963  1.00  0.00     0.261 C 
BRANCH  28  29
ATOM     29  O   UNL A   1      36.299  33.857  32.575  1.00  0.00    -0.460 OA
BRANCH  29  30
ATOM     30  C   UNL A   1      36.355  32.662  33.194  1.00  0.00     0.338 C 
ATOM     31  O   UNL A   1      35.924  32.391  34.301  1.00  0.00    -0.246 OA
BRANCH  30  32
ATOM     32  C   UNL A   1      37.179  31.773  32.374  1.00  0.00     0.060 A 
ATOM     33  C   UNL A   1      37.208  30.437  32.759  1.00  0.00     0.016 A 
ATOM     34  C   UNL A   1      38.130  32.329  31.500  1.00  0.00     0.016 A 
ATOM     35  C   UNL A   1      38.342  29.720  32.468  1.00  0.00     0.010 A 
ATOM     36  C   UNL A   1      39.264  31.610  31.215  1.00  0.00     0.010 A 
ATOM     37  C   UNL A   1      39.396  30.352  31.787  1.00  0.00    -0.014 A 
BRANCH  37  38
ATOM     38  C   UNL A   1      40.610  29.597  31.587  1.00  0.00     0.031 A 
ATOM     39  C   UNL A   1      41.444  29.595  32.804  1.00  0.00     0.074 A 
ATOM     40  C   UNL A   1      40.920  28.968  30.439  1.00  0.00     0.049 A 
ATOM     41  N   UNL A   1      42.488  30.323  33.012  1.00  0.00    -0.248 NA
ATOM     42  C   UNL A   1      40.927  28.920  34.003  1.00  0.00     0.031 C 
ATOM     43  C   UNL A   1      40.077  28.736  29.262  1.00  0.00     0.029 A 
ATOM     44  N   UNL A   1      42.079  28.337  30.108  1.00  0.00    -0.354 N 
ATOM     45  C   UNL A   1      42.916  29.991  34.287  1.00  0.00     0.074 A 
ATOM     46  C   UNL A   1      41.817  29.309  34.919  1.00  0.00     0.031 C 
ATOM     47  C   UNL A   1      40.677  27.830  28.453  1.00  0.00     0.029 A 
ATOM     48  C   UNL A   1      42.002  27.536  28.974  1.00  0.00     0.049 A 
ATOM     49  H   UNL A   1      42.906  28.440  30.631  1.00  0.00     0.167 HD
ATOM     50  C   UNL A   1      44.237  30.052  34.599  1.00  0.00     0.037 A 
ATOM     51  C   UNL A   1      42.959  26.680  28.529  1.00  0.00     0.037 A 
ATOM     52  C   UNL A   1      44.960  30.832  33.624  1.00  0.00     0.049 A 
ATOM     53  C   UNL A   1      44.248  27.155  29.098  1.00  0.00     0.074 A 
ATOM     54  C   UNL A   1      44.950  32.151  33.217  1.00  0.00     0.029 A 
ATOM     55  N   UNL A   1      45.583  30.122  32.627  1.00  0.00    -0.354 N 
ATOM     56  N   UNL A   1      44.810  28.284  28.764  1.00  0.00    -0.248 NA
ATOM     57  C   UNL A   1      44.690  26.591  30.363  1.00  0.00     0.031 C 
ATOM     58  C   UNL A   1      45.219  32.117  31.816  1.00  0.00     0.029 A 
ATOM     59  C   UNL A   1      45.442  30.790  31.440  1.00  0.00     0.049 A 
ATOM     60  H   UNL A   1      46.056  29.266  32.746  1.00  0.00     0.167 HD
ATOM     61  C   UNL A   1      45.323  28.787  29.951  1.00  0.00     0.074 A 
ATOM     62  C   UNL A   1      45.323  27.652  30.870  1.00  0.00     0.031 C 
ATOM     63  C   UNL A   1      45.423  30.136  30.148  1.00  0.00     0.037 A 
BRANCH  50  64
ATOM     64  C   UNL A   1      44.928  29.054  35.495  1.00  0.00     0.058 A 
ATOM     65  C   UNL A   1      44.878  27.687  35.155  1.00  0.00     0.135 A 
ATOM     66  C   UNL A   1      45.374  29.342  36.804  1.00  0.00     0.135 A 
ATOM     67  F   UNL A   1      44.454  27.299  33.941  1.00  0.00    -0.206 F 
ATOM     68  C   UNL A   1      45.183  26.681  36.071  1.00  0.00     0.059 A 
ATOM     69  C   UNL A   1      45.734  28.358  37.715  1.00  0.00     0.059 A 
ATOM     70  F   UNL A   1      45.388  30.582  37.305  1.00  0.00    -0.206 F 
ATOM     71  C   UNL A   1      45.600  27.029  37.353  1.00  0.00     0.060 A 
BRANCH  71  72
ATOM     72  S   UNL A   1      45.925  25.735  38.560  1.00  0.00     0.124 S 
ATOM     73  O   UNL A   1      46.089  24.569  37.698  1.00  0.00    -0.237 OA
ATOM     74  O   UNL A   1      47.134  26.228  39.209  1.00  0.00    -0.237 OA
ATOM     75  O   UNL A   1      44.725  25.744  39.392  1.00  0.00    -0.744 OA
ENDBRANCH  71  72
ENDBRANCH  50  64
BRANCH  51  76
ATOM     76  C   UNL A   1      42.795  25.304  27.984  1.00  0.00     0.058 A 
ATOM     77  C   UNL A   1      42.717  24.187  28.840  1.00  0.00     0.135 A 
ATOM     78  C   UNL A   1      42.398  25.087  26.650  1.00  0.00     0.135 A 
ATOM     79  F   UNL A   1      43.060  24.303  30.132  1.00  0.00    -0.206 F 
ATOM     80  C   UNL A   1      42.210  22.952  28.417  1.00  0.00     0.059 A 
ATOM     81  C   UNL A   1      41.895  23.863  26.205  1.00  0.00     0.059 A 
ATOM     82  F   UNL A   1      42.393  26.089  25.759  1.00  0.00    -0.206 F 
ATOM     83  C   UNL A   1      41.776  22.806  27.101  1.00  0.00     0.060 A 
BRANCH  83  84
ATOM     84  S   UNL A   1      40.943  21.280  26.598  1.00  0.00     0.124 S 
ATOM     85  O   UNL A   1      41.928  20.680  25.704  1.00  0.00    -0.237 OA
ATOM     86  O   UNL A   1      40.744  20.601  27.874  1.00  0.00    -0.237 OA
ATOM     87  O   UNL A   1      39.723  21.757  25.953  1.00  0.00    -0.744 OA
ENDBRANCH  83  84
ENDBRANCH  51  76
BRANCH  63  88
ATOM     88  C   UNL A   1      45.343  31.027  28.933  1.00  0.00     0.058 A 
ATOM     89  C   UNL A   1      44.154  31.493  28.345  1.00  0.00     0.135 A 
ATOM     90  C   UNL A   1      46.549  31.525  28.417  1.00  0.00     0.135 A 
ATOM     91  F   UNL A   1      42.956  31.141  28.835  1.00  0.00    -0.206 F 
ATOM     92  C   UNL A   1      44.168  32.382  27.265  1.00  0.00     0.059 A 
ATOM     93  C   UNL A   1      46.586  32.434  27.366  1.00  0.00     0.059 A 
ATOM     94  F   UNL A   1      47.717  31.161  28.971  1.00  0.00    -0.206 F 
ATOM     95  C   UNL A   1      45.391  32.848  26.783  1.00  0.00     0.060 A 
BRANCH  95  96
ATOM     96  S   UNL A   1      45.415  34.043  25.428  1.00  0.00     0.124 S 
ATOM     97  O   UNL A   1      44.746  33.309  24.359  1.00  0.00    -0.237 OA
ATOM     98  O   UNL A   1      44.671  35.169  25.986  1.00  0.00    -0.237 OA
ATOM     99  O   UNL A   1      46.838  34.292  25.217  1.00  0.00    -0.744 OA
ENDBRANCH  95  96
ENDBRANCH  63  88
ENDBRANCH  37  38
ENDBRANCH  30  32
ENDBRANCH  29  30
ENDBRANCH  28  29
ENDBRANCH  27  28
ENDBRANCH  26  27
ENDBRANCH  25  26
ENDBRANCH   1  25
TORSDOF 25
ENDMDL
MODEL 2
REMARK VINA RESULT:      -9.3      2.366      7.382
REMARK SMILES CCc1nn(-c2ccncn2)c(Cl)c1C(=O)OCCOCCOCCOCCOC(=O)c1ccc(-c2c3nc(c(-c4c(F)cc(S(=O)(=O)[O-])cc4F)c4ccc([nH]4)c(-c4c(F)cc(S(=O)(=O)[O-])cc4F)c4nc(c(-c5c(F)cc(S(=O)(=O)[O-])cc5F)c5ccc2[nH]5)C=C4)C=C3)cc1
REMARK SMILES IDX 24 1 23 2 22 3 21 4 20 5 19 6 18 7 17 8 15 9 16 10 14 11
REMARK SMILES IDX 3 12 4 13 5 14 12 15 13 16 2 17 1 18 6 19 7 20 11 21 8 22
REMARK SMILES IDX 10 23 9 24 25 25 26 26 27 27 28 28 29 29 30 30 31 31 32 32
REMARK SMILES IDX 33 33 97 34 34 35 96 36 35 37 36 38 37 39 90 40 38 41 95 42
REMARK SMILES IDX 89 43 91 44 39 45 94 46 88 47 87 48 40 50 74 51 53 52 73 53
REMARK SMILES IDX 54 54 57 55 72 56 92 57 55 58 56 59 71 61 93 62 58 63 41 64
REMARK SMILES IDX 42 65 51 66 43 67 44 68 50 69 52 70 45 71 46 72 47 73 48 74
REMARK SMILES IDX 49 75 75 76 76 77 85 78 77 79 78 80 84 81 86 82 79 83 80 84
REMARK SMILES IDX 81 85 82 86 83 87 59 88 60 89 69 90 61 91 62 92 68 93 70 94
REMARK SMILES IDX 63 95 64 96 65 97 66 98 67 99
REMARK H PARENT 91 49 57 60
REMARK Flexibility Score: inf
ROOT
ATOM      1  C   UNL A   1      33.153  35.601  29.435  1.00  0.00     0.188 C 
ENDROOT
BRANCH   1   2
ATOM      2  O   UNL A   1      34.186  34.768  28.909  1.00  0.00    -0.377 OA
BRANCH   2   3
ATOM      3  C   UNL A   1      33.798  33.703  28.064  1.00  0.00     0.188 C 
BRANCH   3   4
ATOM      4  C   UNL A   1      34.785  32.518  28.064  1.00  0.00     0.188 C 
BRANCH   4   5
ATOM      5  O   UNL A   1      34.479  31.356  27.319  1.00  0.00    -0.376 OA
BRANCH   5   6
ATOM      6  C   UNL A   1      33.210  30.727  27.315  1.00  0.00     0.202 C 
BRANCH   6   7
ATOM      7  C   UNL A   1      32.781  29.525  26.452  1.00  0.00     0.261 C 
BRANCH   7   8
ATOM      8  O   UNL A   1      32.226  29.794  25.171  1.00  0.00    -0.460 OA
BRANCH   8   9
ATOM      9  C   UNL A   1      32.637  29.011  24.147  1.00  0.00     0.343 C 
ATOM     10  O   UNL A   1      33.632  29.227  23.461  1.00  0.00    -0.246 OA
BRANCH   9  11
ATOM     11  C   UNL A   1      31.854  27.798  24.079  1.00  0.00     0.120 A 
ATOM     12  C   UNL A   1      30.496  27.592  23.683  1.00  0.00     0.079 A 
ATOM     13  N   UNL A   1      30.135  26.302  23.798  1.00  0.00    -0.169 NA
ATOM     14  N   UNL A   1      31.214  25.689  24.358  1.00  0.00    -0.203 N 
ATOM     15  C   UNL A   1      32.249  26.567  24.546  1.00  0.00     0.149 A 
ATOM     16  Cl  UNL A   1      33.705  26.075  25.297  1.00  0.00    -0.061 Cl
BRANCH  12  17
ATOM     17  C   UNL A   1      29.536  28.641  23.193  1.00  0.00     0.056 C 
ATOM     18  C   UNL A   1      30.042  29.538  22.074  1.00  0.00     0.011 C 
ENDBRANCH  12  17
BRANCH  14  19
ATOM     19  C   UNL A   1      31.215  24.303  24.651  1.00  0.00     0.158 A 
ATOM     20  C   UNL A   1      30.749  23.890  25.886  1.00  0.00     0.069 A 
ATOM     21  N   UNL A   1      31.835  23.485  23.770  1.00  0.00    -0.217 NA
ATOM     22  C   UNL A   1      30.968  22.565  26.184  1.00  0.00     0.117 A 
ATOM     23  C   UNL A   1      32.001  22.223  24.180  1.00  0.00     0.224 A 
ATOM     24  N   UNL A   1      31.603  21.714  25.357  1.00  0.00    -0.245 NA
ENDBRANCH  14  19
ENDBRANCH   9  11
ENDBRANCH   8   9
ENDBRANCH   7   8
ENDBRANCH   6   7
ENDBRANCH   5   6
ENDBRANCH   4   5
ENDBRANCH   3   4
ENDBRANCH   2   3
ENDBRANCH   1   2
BRANCH   1  25
ATOM     25  C   UNL A   1      32.891  35.703  30.963  1.00  0.00     0.188 C 
BRANCH  25  26
ATOM     26  O   UNL A   1      34.038  35.929  31.765  1.00  0.00    -0.376 OA
BRANCH  26  27
ATOM     27  C   UNL A   1      34.618  34.955  32.606  1.00  0.00     0.202 C 
BRANCH  27  28
ATOM     28  C   UNL A   1      34.613  33.492  32.185  1.00  0.00     0.261 C 
BRANCH  28  29
ATOM     29  O   UNL A   1      35.656  33.129  31.308  1.00  0.00    -0.460 OA
BRANCH  29  30
ATOM     30  C   UNL A   1      36.177  31.912  31.560  1.00  0.00     0.338 C 
ATOM     31  O   UNL A   1      35.604  30.959  32.056  1.00  0.00    -0.246 OA
BRANCH  30  32
ATOM     32  C   UNL A   1      37.614  31.978  31.288  1.00  0.00     0.060 A 
ATOM     33  C   UNL A   1      38.048  31.341  30.130  1.00  0.00     0.016 A 
ATOM     34  C   UNL A   1      38.493  32.350  32.321  1.00  0.00     0.016 A 
ATOM     35  C   UNL A   1      39.329  30.848  30.122  1.00  0.00     0.010 A 
ATOM     36  C   UNL A   1      39.771  31.851  32.311  1.00  0.00     0.010 A 
ATOM     37  C   UNL A   1      40.137  31.024  31.257  1.00  0.00    -0.014 A 
BRANCH  37  38
ATOM     38  C   UNL A   1      41.442  30.406  31.250  1.00  0.00     0.031 A 
ATOM     39  C   UNL A   1      42.395  31.181  30.431  1.00  0.00     0.074 A 
ATOM     40  C   UNL A   1      41.741  29.279  31.920  1.00  0.00     0.049 A 
ATOM     41  N   UNL A   1      42.772  30.898  29.231  1.00  0.00    -0.248 NA
ATOM     42  C   UNL A   1      42.763  32.532  30.879  1.00  0.00     0.031 C 
ATOM     43  C   UNL A   1      40.938  28.561  32.914  1.00  0.00     0.029 A 
ATOM     44  N   UNL A   1      42.892  28.555  31.883  1.00  0.00    -0.354 N 
ATOM     45  C   UNL A   1      43.645  31.913  28.873  1.00  0.00     0.074 A 
ATOM     46  C   UNL A   1      43.432  32.981  29.814  1.00  0.00     0.031 C 
ATOM     47  C   UNL A   1      41.715  27.646  33.541  1.00  0.00     0.029 A 
ATOM     48  C   UNL A   1      43.017  27.608  32.895  1.00  0.00     0.049 A 
ATOM     49  H   UNL A   1      43.583  28.692  31.195  1.00  0.00     0.167 HD
ATOM     50  C   UNL A   1      44.666  31.661  28.013  1.00  0.00     0.037 A 
ATOM     51  C   UNL A   1      44.126  26.877  33.179  1.00  0.00     0.037 A 
ATOM     52  C   UNL A   1      44.447  30.424  27.304  1.00  0.00     0.049 A 
ATOM     53  C   UNL A   1      44.939  26.844  31.935  1.00  0.00     0.074 A 
ATOM     54  C   UNL A   1      43.513  29.963  26.398  1.00  0.00     0.029 A 
ATOM     55  N   UNL A   1      45.068  29.314  27.822  1.00  0.00    -0.354 N 
ATOM     56  N   UNL A   1      44.564  26.232  30.845  1.00  0.00    -0.248 NA
ATOM     57  C   UNL A   1      45.964  27.861  31.755  1.00  0.00     0.031 C 
ATOM     58  C   UNL A   1      43.344  28.579  26.701  1.00  0.00     0.029 A 
ATOM     59  C   UNL A   1      44.223  28.241  27.732  1.00  0.00     0.049 A 
ATOM     60  H   UNL A   1      45.978  29.294  28.198  1.00  0.00     0.167 HD
ATOM     61  C   UNL A   1      44.959  27.073  29.815  1.00  0.00     0.074 A 
ATOM     62  C   UNL A   1      45.915  27.992  30.426  1.00  0.00     0.031 C 
ATOM     63  C   UNL A   1      44.255  27.116  28.645  1.00  0.00     0.037 A 
BRANCH  50  64
ATOM     64  C   UNL A   1      46.039  32.271  28.150  1.00  0.00     0.058 A 
ATOM     65  C   UNL A   1      46.618  32.902  27.031  1.00  0.00     0.135 A 
ATOM     66  C   UNL A   1      46.918  32.006  29.225  1.00  0.00     0.135 A 
ATOM     67  F   UNL A   1      45.877  33.186  25.948  1.00  0.00    -0.206 F 
ATOM     68  C   UNL A   1      47.981  33.186  26.959  1.00  0.00     0.059 A 
ATOM     69  C   UNL A   1      48.268  32.330  29.195  1.00  0.00     0.059 A 
ATOM     70  F   UNL A   1      46.541  31.331  30.316  1.00  0.00    -0.206 F 
ATOM     71  C   UNL A   1      48.799  32.886  28.045  1.00  0.00     0.060 A 
BRANCH  71  72
ATOM     72  S   UNL A   1      50.569  33.185  27.929  1.00  0.00     0.124 S 
ATOM     73  O   UNL A   1      50.963  32.210  26.918  1.00  0.00    -0.237 OA
ATOM     74  O   UNL A   1      50.609  34.584  27.520  1.00  0.00    -0.237 OA
ATOM     75  O   UNL A   1      51.044  32.919  29.284  1.00  0.00    -0.744 OA
ENDBRANCH  71  72
ENDBRANCH  50  64
BRANCH  51  76
ATOM     76  C   UNL A   1      44.705  26.544  34.510  1.00  0.00     0.058 A 
ATOM     77  C   UNL A   1      45.103  27.559  35.404  1.00  0.00     0.135 A 
ATOM     78  C   UNL A   1      44.586  25.253  35.058  1.00  0.00     0.135 A 
ATOM     79  F   UNL A   1      45.228  28.824  34.976  1.00  0.00    -0.206 F 
ATOM     80  C   UNL A   1      45.304  27.319  36.769  1.00  0.00     0.059 A 
ATOM     81  C   UNL A   1      44.787  24.989  36.414  1.00  0.00     0.059 A 
ATOM     82  F   UNL A   1      44.173  24.220  34.308  1.00  0.00    -0.206 F 
ATOM     83  C   UNL A   1      45.118  26.032  37.271  1.00  0.00     0.060 A 
BRANCH  83  84
ATOM     84  S   UNL A   1      45.184  25.752  39.059  1.00  0.00     0.124 S 
ATOM     85  O   UNL A   1      45.016  24.305  39.142  1.00  0.00    -0.237 OA
ATOM     86  O   UNL A   1      46.508  26.260  39.403  1.00  0.00    -0.237 OA
ATOM     87  O   UNL A   1      44.066  26.541  39.567  1.00  0.00    -0.744 OA
ENDBRANCH  83  84
ENDBRANCH  51  76
BRANCH  63  88
ATOM     88  C   UNL A   1      43.310  25.976  28.356  1.00  0.00     0.058 A 
ATOM     89  C   UNL A   1      41.951  25.937  28.717  1.00  0.00     0.135 A 
ATOM     90  C   UNL A   1      43.791  24.922  27.564  1.00  0.00     0.135 A 
ATOM     91  F   UNL A   1      41.386  26.948  29.394  1.00  0.00    -0.206 F 
ATOM     92  C   UNL A   1      41.122  24.875  28.342  1.00  0.00     0.059 A 
ATOM     93  C   UNL A   1      42.978  23.873  27.152  1.00  0.00     0.059 A 
ATOM     94  F   UNL A   1      45.066  24.929  27.140  1.00  0.00    -0.206 F 
ATOM     95  C   UNL A   1      41.646  23.846  27.558  1.00  0.00     0.060 A 
BRANCH  95  96
ATOM     96  S   UNL A   1      40.565  22.503  27.019  1.00  0.00     0.124 S 
ATOM     97  O   UNL A   1      39.301  23.195  26.796  1.00  0.00    -0.237 OA
ATOM     98  O   UNL A   1      41.241  22.014  25.820  1.00  0.00    -0.237 OA
ATOM     99  O   UNL A   1      40.579  21.578  28.150  1.00  0.00    -0.744 OA
ENDBRANCH  95  96
ENDBRANCH  63  88
ENDBRANCH  37  38
ENDBRANCH  30  32
ENDBRANCH  29  30
ENDBRANCH  28  29
ENDBRANCH  27  28
ENDBRANCH  26  27
ENDBRANCH  25  26
ENDBRANCH   1  25
TORSDOF 25
ENDMDL
MODEL 3
REMARK VINA RESULT:      -9.0      1.870      2.487
REMARK SMILES CCc1nn(-c2ccncn2)c(Cl)c1C(=O)OCCOCCOCCOCCOC(=O)c1ccc(-c2c3nc(c(-c4c(F)cc(S(=O)(=O)[O-])cc4F)c4ccc([nH]4)c(-c4c(F)cc(S(=O)(=O)[O-])cc4F)c4nc(c(-c5c(F)cc(S(=O)(=O)[O-])cc5F)c5ccc2[nH]5)C=C4)C=C3)cc1
REMARK SMILES IDX 24 1 23 2 22 3 21 4 20 5 19 6 18 7 17 8 15 9 16 10 14 11
REMARK SMILES IDX 3 12 4 13 5 14 12 15 13 16 2 17 1 18 6 19 7 20 11 21 8 22
REMARK SMILES IDX 10 23 9 24 25 25 26 26 27 27 28 28 29 29 30 30 31 31 32 32
REMARK SMILES IDX 33 33 97 34 34 35 96 36 35 37 36 38 37 39 90 40 38 41 95 42
REMARK SMILES IDX 89 43 91 44 39 45 94 46 88 47 87 48 40 50 74 51 53 52 73 53
REMARK SMILES IDX 54 54 57 55 72 56 92 57 55 58 56 59 71 61 93 62 58 63 41 64
REMARK SMILES IDX 42 65 51 66 43 67 44 68 50 69 52 70 45 71 46 72 47 73 48 74
REMARK SMILES IDX 49 75 75 76 76 77 85 78 77 79 78 80 84 81 86 82 79 83 80 84
REMARK SMILES IDX 81 85 82 86 83 87 59 88 60 89 69 90 61 91 62 92 68 93 70 94
REMARK SMILES IDX 63 95 64 96 65 97 66 98 67 99
REMARK H PARENT 91 49 57 60
REMARK Flexibility Score: inf
ROOT
ATOM      1  C   UNL A   1      35.476  33.424  30.906  1.00  0.00     0.188 C 
ENDROOT
BRANCH   1   2
ATOM      2  O   UNL A   1      36.292  33.489  29.736  1.00  0.00    -0.377 OA
BRANCH   2   3
ATOM      3  C   UNL A   1      35.636  33.492  28.484  1.00  0.00     0.188 C 
BRANCH   3   4
ATOM      4  C   UNL A   1      34.891  32.179  28.168  1.00  0.00     0.188 C 
BRANCH   4   5
ATOM      5  O   UNL A   1      35.623  30.977  28.032  1.00  0.00    -0.376 OA
BRANCH   5   6
ATOM      6  C   UNL A   1      35.032  29.708  27.822  1.00  0.00     0.202 C 
BRANCH   6   7
ATOM      7  C   UNL A   1      34.658  29.079  26.466  1.00  0.00     0.261 C 
BRANCH   7   8
ATOM      8  O   UNL A   1      33.284  29.063  26.100  1.00  0.00    -0.460 OA
BRANCH   8   9
ATOM      9  C   UNL A   1      32.793  27.901  25.611  1.00  0.00     0.343 C 
ATOM     10  O   UNL A   1      33.086  26.787  26.036  1.00  0.00    -0.246 OA
BRANCH   9  11
ATOM     11  C   UNL A   1      31.748  28.149  24.643  1.00  0.00     0.120 A 
ATOM     12  C   UNL A   1      31.296  27.356  23.544  1.00  0.00     0.079 A 
ATOM     13  N   UNL A   1      30.315  27.969  22.858  1.00  0.00    -0.169 NA
ATOM     14  N   UNL A   1      30.197  29.193  23.443  1.00  0.00    -0.203 N 
ATOM     15  C   UNL A   1      31.054  29.327  24.504  1.00  0.00     0.149 A 
ATOM     16  Cl  UNL A   1      31.161  30.794  25.378  1.00  0.00    -0.061 Cl
BRANCH  12  17
ATOM     17  C   UNL A   1      31.809  25.999  23.146  1.00  0.00     0.056 C 
ATOM     18  C   UNL A   1      31.960  25.754  21.653  1.00  0.00     0.011 C 
ENDBRANCH  12  17
BRANCH  14  19
ATOM     19  C   UNL A   1      29.259  30.150  22.985  1.00  0.00     0.158 A 
ATOM     20  C   UNL A   1      29.592  30.929  21.891  1.00  0.00     0.069 A 
ATOM     21  N   UNL A   1      28.167  30.364  23.754  1.00  0.00    -0.217 NA
ATOM     22  C   UNL A   1      28.733  31.970  21.628  1.00  0.00     0.117 A 
ATOM     23  C   UNL A   1      27.418  31.416  23.406  1.00  0.00     0.224 A 
ATOM     24  N   UNL A   1      27.648  32.245  22.376  1.00  0.00    -0.245 NA
ENDBRANCH  14  19
ENDBRANCH   9  11
ENDBRANCH   8   9
ENDBRANCH   7   8
ENDBRANCH   6   7
ENDBRANCH   5   6
ENDBRANCH   4   5
ENDBRANCH   3   4
ENDBRANCH   2   3
ENDBRANCH   1   2
BRANCH   1  25
ATOM     25  C   UNL A   1      35.314  34.647  31.850  1.00  0.00     0.188 C 
BRANCH  25  26
ATOM     26  O   UNL A   1      36.372  34.851  32.772  1.00  0.00    -0.376 OA
BRANCH  26  27
ATOM     27  C   UNL A   1      36.504  34.150  33.990  1.00  0.00     0.202 C 
BRANCH  27  28
ATOM     28  C   UNL A   1      36.494  32.627  33.992  1.00  0.00     0.261 C 
BRANCH  28  29
ATOM     29  O   UNL A   1      37.538  32.031  33.254  1.00  0.00    -0.460 OA
BRANCH  29  30
ATOM     30  C   UNL A   1      37.244  30.798  32.797  1.00  0.00     0.338 C 
ATOM     31  O   UNL A   1      36.147  30.384  32.467  1.00  0.00    -0.246 OA
BRANCH  30  32
ATOM     32  C   UNL A   1      38.448  29.977  32.922  1.00  0.00     0.060 A 
ATOM     33  C   UNL A   1      39.650  30.667  33.046  1.00  0.00     0.016 A 
ATOM     34  C   UNL A   1      38.391  28.615  32.576  1.00  0.00     0.016 A 
ATOM     35  C   UNL A   1      40.783  30.054  32.573  1.00  0.00     0.010 A 
ATOM     36  C   UNL A   1      39.526  28.008  32.099  1.00  0.00     0.010 A 
ATOM     37  C   UNL A   1      40.683  28.769  32.013  1.00  0.00    -0.014 A 
BRANCH  37  38
ATOM     38  C   UNL A   1      41.877  28.198  31.436  1.00  0.00     0.031 A 
ATOM     39  C   UNL A   1      42.971  28.137  32.425  1.00  0.00     0.074 A 
ATOM     40  C   UNL A   1      41.963  27.767  30.165  1.00  0.00     0.049 A 
ATOM     41  N   UNL A   1      43.967  28.950  32.510  1.00  0.00    -0.248 NA
ATOM     42  C   UNL A   1      42.810  27.253  33.589  1.00  0.00     0.031 C 
ATOM     43  C   UNL A   1      40.892  27.592  29.180  1.00  0.00     0.029 A 
ATOM     44  N   UNL A   1      43.062  27.329  29.495  1.00  0.00    -0.354 N 
ATOM     45  C   UNL A   1      44.709  28.508  33.593  1.00  0.00     0.074 A 
ATOM     46  C   UNL A   1      43.853  27.622  34.337  1.00  0.00     0.031 C 
ATOM     47  C   UNL A   1      41.362  26.879  28.129  1.00  0.00     0.029 A 
ATOM     48  C   UNL A   1      42.792  26.681  28.294  1.00  0.00     0.049 A 
ATOM     49  H   UNL A   1      43.977  27.461  29.833  1.00  0.00     0.167 HD
ATOM     50  C   UNL A   1      46.056  28.686  33.614  1.00  0.00     0.037 A 
ATOM     51  C   UNL A   1      43.689  26.012  27.522  1.00  0.00     0.037 A 
ATOM     52  C   UNL A   1      46.460  29.668  32.637  1.00  0.00     0.049 A 
ATOM     53  C   UNL A   1      45.028  26.559  27.862  1.00  0.00     0.074 A 
ATOM     54  C   UNL A   1      46.240  31.019  32.452  1.00  0.00     0.029 A 
ATOM     55  N   UNL A   1      46.891  29.176  31.429  1.00  0.00    -0.354 N 
ATOM     56  N   UNL A   1      45.396  27.782  27.593  1.00  0.00    -0.248 NA
ATOM     57  C   UNL A   1      45.802  25.891  28.896  1.00  0.00     0.031 C 
ATOM     58  C   UNL A   1      46.175  31.202  31.039  1.00  0.00     0.029 A 
ATOM     59  C   UNL A   1      46.417  29.972  30.422  1.00  0.00     0.049 A 
ATOM     60  H   UNL A   1      47.451  28.375  31.308  1.00  0.00     0.167 HD
ATOM     61  C   UNL A   1      46.127  28.183  28.702  1.00  0.00     0.074 A 
ATOM     62  C   UNL A   1      46.442  26.945  29.411  1.00  0.00     0.031 C 
ATOM     63  C   UNL A   1      46.153  29.496  29.079  1.00  0.00     0.037 A 
BRANCH  50  64
ATOM     64  C   UNL A   1      47.022  27.669  34.169  1.00  0.00     0.058 A 
ATOM     65  C   UNL A   1      47.025  26.368  33.628  1.00  0.00     0.135 A 
ATOM     66  C   UNL A   1      47.722  27.826  35.387  1.00  0.00     0.135 A 
ATOM     67  F   UNL A   1      46.378  26.103  32.482  1.00  0.00    -0.206 F 
ATOM     68  C   UNL A   1      47.622  25.291  34.283  1.00  0.00     0.059 A 
ATOM     69  C   UNL A   1      48.368  26.779  36.028  1.00  0.00     0.059 A 
ATOM     70  F   UNL A   1      47.731  28.976  36.071  1.00  0.00    -0.206 F 
ATOM     71  C   UNL A   1      48.283  25.508  35.489  1.00  0.00     0.060 A 
BRANCH  71  72
ATOM     72  S   UNL A   1      48.991  24.109  36.372  1.00  0.00     0.124 S 
ATOM     73  O   UNL A   1      47.986  23.079  36.141  1.00  0.00    -0.237 OA
ATOM     74  O   UNL A   1      50.263  23.933  35.681  1.00  0.00    -0.237 OA
ATOM     75  O   UNL A   1      49.094  24.597  37.745  1.00  0.00    -0.744 OA
ENDBRANCH  71  72
ENDBRANCH  50  64
BRANCH  51  76
ATOM     76  C   UNL A   1      43.522  24.709  26.820  1.00  0.00     0.058 A 
ATOM     77  C   UNL A   1      43.720  24.604  25.428  1.00  0.00     0.135 A 
ATOM     78  C   UNL A   1      43.479  23.495  27.530  1.00  0.00     0.135 A 
ATOM     79  F   UNL A   1      43.791  25.709  24.671  1.00  0.00    -0.206 F 
ATOM     80  C   UNL A   1      43.931  23.373  24.792  1.00  0.00     0.059 A 
ATOM     81  C   UNL A   1      43.681  22.257  26.917  1.00  0.00     0.059 A 
ATOM     82  F   UNL A   1      43.337  23.479  28.864  1.00  0.00    -0.206 F 
ATOM     83  C   UNL A   1      43.935  22.205  25.551  1.00  0.00     0.060 A 
BRANCH  83  84
ATOM     84  S   UNL A   1      44.399  20.636  24.774  1.00  0.00     0.124 S 
ATOM     85  O   UNL A   1      45.625  20.297  25.489  1.00  0.00    -0.237 OA
ATOM     86  O   UNL A   1      43.241  19.796  25.060  1.00  0.00    -0.237 OA
ATOM     87  O   UNL A   1      44.574  20.993  23.369  1.00  0.00    -0.744 OA
ENDBRANCH  83  84
ENDBRANCH  51  76
BRANCH  63  88
ATOM     88  C   UNL A   1      45.714  30.523  28.065  1.00  0.00     0.058 A 
ATOM     89  C   UNL A   1      44.386  30.929  27.844  1.00  0.00     0.135 A 
ATOM     90  C   UNL A   1      46.717  31.213  27.367  1.00  0.00     0.135 A 
ATOM     91  F   UNL A   1      43.373  30.387  28.537  1.00  0.00    -0.206 F 
ATOM     92  C   UNL A   1      44.070  31.945  26.938  1.00  0.00     0.059 A 
ATOM     93  C   UNL A   1      46.429  32.248  26.486  1.00  0.00     0.059 A 
ATOM     94  F   UNL A   1      48.009  30.909  27.576  1.00  0.00    -0.206 F 
ATOM     95  C   UNL A   1      45.100  32.601  26.263  1.00  0.00     0.060 A 
BRANCH  95  96
ATOM     96  S   UNL A   1      44.704  33.957  25.137  1.00  0.00     0.124 S 
ATOM     97  O   UNL A   1      43.699  34.699  25.891  1.00  0.00    -0.237 OA
ATOM     98  O   UNL A   1      45.994  34.621  24.973  1.00  0.00    -0.237 OA
ATOM     99  O   UNL A   1      44.210  33.276  23.943  1.00  0.00    -0.744 OA
ENDBRANCH  95  96
ENDBRANCH  63  88
ENDBRANCH  37  38
ENDBRANCH  30  32
ENDBRANCH  29  30
ENDBRANCH  28  29
ENDBRANCH  27  28
ENDBRANCH  26  27
ENDBRANCH  25  26
ENDBRANCH   1  25
TORSDOF 25
ENDMDL
