MODEL 1
REMARK VINA RESULT:      -9.8      0.000      0.000
REMARK SMILES Cc1ccc(C)c(N2C(=O)S[C@H](CC(=O)Nc3ccc(C(=O)OCCOCCOCCOCCOC(=O)c4ccc(-c5c6nc(c(-c7c(F)cc(S(=O)(=O)[O-])cc7F)c7ccc([nH]7)c(-c7c(F)cc(S(=O)(=O)[O-])cc7F)c7nc(c(-c8c(F)cc(S(=O)(=O)[O-])cc8F)c8ccc5[nH]8)C=C7)C=C6)cc4)c(O)c3)C2=O)c1
REMARK SMILES IDX 28 1 27 2 26 3 25 4 24 5 23 6 21 7 22 8 20 9 17 10 18 11
REMARK SMILES IDX 106 12 19 13 104 14 16 15 14 16 15 17 13 19 12 20 8 21 9 22
REMARK SMILES IDX 107 23 10 24 11 25 108 26 7 27 1 28 2 29 3 30 109 31 4 32
REMARK SMILES IDX 5 33 6 34 105 35 29 37 30 38 31 39 32 40 33 41 34 42 35 43
REMARK SMILES IDX 36 44 37 45 38 46 39 47 103 48 40 49 102 50 41 51 42 52
REMARK SMILES IDX 43 53 96 54 44 55 101 56 95 57 97 58 45 59 100 60 94 61
REMARK SMILES IDX 93 62 46 64 80 65 59 66 79 67 60 68 63 69 78 70 98 71 61 72
REMARK SMILES IDX 62 73 77 75 99 76 64 77 47 78 48 79 57 80 49 81 50 82 56 83
REMARK SMILES IDX 58 84 51 85 52 86 53 87 54 88 55 89 81 90 82 91 91 92 83 93
REMARK SMILES IDX 84 94 90 95 92 96 85 97 86 98 87 99 88 100 89 101 65 102
REMARK SMILES IDX 66 103 75 104 67 105 68 106 74 107 76 108 69 109 70 110
REMARK SMILES IDX 71 111 72 112 73 113
REMARK H PARENT 16 18 105 36 97 63 63 74
REMARK Flexibility Score: inf
ROOT
ATOM      1  C   UNL A   1      34.187  31.849  27.624  1.00  0.00     0.188 C 
ENDROOT
BRANCH   1   2
ATOM      2  C   UNL A   1      34.630  30.366  27.632  1.00  0.00     0.188 C 
BRANCH   2   3
ATOM      3  O   UNL A   1      33.655  29.444  27.175  1.00  0.00    -0.376 OA
BRANCH   3   4
ATOM      4  C   UNL A   1      32.591  30.014  26.431  1.00  0.00     0.202 C 
BRANCH   4   5
ATOM      5  C   UNL A   1      32.516  29.511  24.982  1.00  0.00     0.261 C 
BRANCH   5   6
ATOM      6  O   UNL A   1      33.724  28.858  24.519  1.00  0.00    -0.460 OA
BRANCH   6   7
ATOM      7  C   UNL A   1      33.534  28.033  23.463  1.00  0.00     0.341 C 
ATOM      8  O   UNL A   1      33.337  28.407  22.323  1.00  0.00    -0.246 OA
BRANCH   7   9
ATOM      9  C   UNL A   1      33.834  26.620  23.796  1.00  0.00     0.101 A 
ATOM     10  C   UNL A   1      34.911  24.141  24.677  1.00  0.00     0.044 A 
ATOM     11  C   UNL A   1      34.498  25.081  25.578  1.00  0.00     0.027 A 
ATOM     12  C   UNL A   1      34.597  24.376  23.316  1.00  0.00     0.073 A 
ATOM     13  C   UNL A   1      34.060  26.317  25.136  1.00  0.00     0.022 A 
ATOM     14  C   UNL A   1      34.010  25.593  22.885  1.00  0.00     0.132 A 
BRANCH  10  15
ATOM     15  N   UNL A   1      35.756  23.077  25.061  1.00  0.00    -0.326 N 
ATOM     16  C   UNL A   1      35.599  21.709  25.146  1.00  0.00     0.226 C 
ATOM     17  O   UNL A   1      36.368  21.125  25.922  1.00  0.00    -0.275 OA
ATOM     18  H   UNL A   1      36.655  23.378  25.327  1.00  0.00     0.169 HD
BRANCH  16  19
ATOM     19  C   UNL A   1      34.646  20.847  24.278  1.00  0.00     0.125 C 
BRANCH  19  20
ATOM     20  C   UNL A   1      33.180  20.773  24.755  1.00  0.00     0.156 C 
ATOM     21  N   UNL A   1      31.673  22.577  25.439  1.00  0.00    -0.240 N 
ATOM     22  C   UNL A   1      32.492  22.488  26.516  1.00  0.00     0.293 C 
ATOM     23  C   UNL A   1      32.208  21.927  24.335  1.00  0.00     0.248 C 
ATOM     24  O   UNL A   1      32.870  23.400  27.226  1.00  0.00    -0.261 OA
ATOM     25  S   UNL A   1      33.186  20.894  26.532  1.00  0.00    -0.050 SA
ATOM     26  O   UNL A   1      32.015  22.243  23.164  1.00  0.00    -0.273 OA
BRANCH  21  27
ATOM     27  C   UNL A   1      30.653  23.576  25.452  1.00  0.00     0.056 A 
ATOM     28  C   UNL A   1      30.035  27.117  24.074  1.00  0.00     0.044 C 
ATOM     29  C   UNL A   1      29.935  25.859  24.886  1.00  0.00    -0.049 A 
ATOM     30  C   UNL A   1      29.016  25.837  25.937  1.00  0.00     0.004 A 
ATOM     31  C   UNL A   1      30.755  24.732  24.652  1.00  0.00     0.030 A 
ATOM     32  C   UNL A   1      28.909  24.712  26.741  1.00  0.00     0.006 A 
ATOM     33  C   UNL A   1      29.723  23.586  26.518  1.00  0.00    -0.027 A 
ATOM     34  C   UNL A   1      29.571  22.462  27.504  1.00  0.00     0.046 C 
ENDBRANCH  21  27
ENDBRANCH  19  20
ENDBRANCH  16  19
ENDBRANCH  10  15
BRANCH  14  35
ATOM     35  O   UNL A   1      33.656  25.697  21.571  1.00  0.00    -0.507 OA
ATOM     36  H   UNL A   1      32.890  25.258  21.257  1.00  0.00     0.293 HD
ENDBRANCH  14  35
ENDBRANCH   7   9
ENDBRANCH   6   7
ENDBRANCH   5   6
ENDBRANCH   4   5
ENDBRANCH   3   4
ENDBRANCH   2   3
ENDBRANCH   1   2
BRANCH   1  37
ATOM     37  O   UNL A   1      35.132  32.911  27.700  1.00  0.00    -0.377 OA
BRANCH  37  38
ATOM     38  C   UNL A   1      35.114  33.727  28.857  1.00  0.00     0.188 C 
BRANCH  38  39
ATOM     39  C   UNL A   1      33.794  34.451  29.130  1.00  0.00     0.188 C 
BRANCH  39  40
ATOM     40  O   UNL A   1      33.983  35.698  29.782  1.00  0.00    -0.376 OA
BRANCH  40  41
ATOM     41  C   UNL A   1      32.952  36.072  30.684  1.00  0.00     0.202 C 
BRANCH  41  42
ATOM     42  C   UNL A   1      33.535  36.286  32.079  1.00  0.00     0.261 C 
BRANCH  42  43
ATOM     43  O   UNL A   1      34.707  35.475  32.323  1.00  0.00    -0.460 OA
BRANCH  43  44
ATOM     44  C   UNL A   1      34.478  34.178  32.683  1.00  0.00     0.338 C 
ATOM     45  O   UNL A   1      33.405  33.755  33.078  1.00  0.00    -0.246 OA
BRANCH  44  46
ATOM     46  C   UNL A   1      35.741  33.383  32.551  1.00  0.00     0.060 A 
ATOM     47  C   UNL A   1      36.973  34.004  32.350  1.00  0.00     0.016 A 
ATOM     48  C   UNL A   1      35.681  31.988  32.494  1.00  0.00     0.016 A 
ATOM     49  C   UNL A   1      38.098  33.219  32.027  1.00  0.00     0.010 A 
ATOM     50  C   UNL A   1      36.775  31.219  32.101  1.00  0.00     0.010 A 
ATOM     51  C   UNL A   1      37.999  31.825  31.829  1.00  0.00    -0.014 A 
BRANCH  51  52
ATOM     52  C   UNL A   1      39.196  30.949  31.880  1.00  0.00     0.031 A 
ATOM     53  C   UNL A   1      39.783  31.081  33.201  1.00  0.00     0.074 A 
ATOM     54  C   UNL A   1      39.863  30.208  30.956  1.00  0.00     0.049 A 
ATOM     55  N   UNL A   1      40.807  31.849  33.396  1.00  0.00    -0.248 NA
ATOM     56  C   UNL A   1      39.096  30.647  34.422  1.00  0.00     0.031 C 
ATOM     57  C   UNL A   1      39.800  30.481  29.545  1.00  0.00     0.029 A 
ATOM     58  N   UNL A   1      40.785  29.162  30.983  1.00  0.00    -0.354 N 
ATOM     59  C   UNL A   1      41.183  31.527  34.669  1.00  0.00     0.074 A 
ATOM     60  C   UNL A   1      39.985  31.054  35.335  1.00  0.00     0.031 C 
ATOM     61  C   UNL A   1      40.410  29.514  28.834  1.00  0.00     0.029 A 
ATOM     62  C   UNL A   1      40.917  28.490  29.748  1.00  0.00     0.049 A 
ATOM     63  H   UNL A   1      41.297  28.915  31.787  1.00  0.00     0.167 HD
ATOM     64  C   UNL A   1      42.465  31.101  34.789  1.00  0.00     0.037 A 
ATOM     65  C   UNL A   1      41.786  27.556  29.254  1.00  0.00     0.037 A 
ATOM     66  C   UNL A   1      43.350  31.631  33.772  1.00  0.00     0.049 A 
ATOM     67  C   UNL A   1      43.146  27.909  29.659  1.00  0.00     0.074 A 
ATOM     68  C   UNL A   1      43.768  32.895  33.398  1.00  0.00     0.029 A 
ATOM     69  N   UNL A   1      43.631  30.805  32.714  1.00  0.00    -0.354 N 
ATOM     70  N   UNL A   1      43.803  28.913  29.149  1.00  0.00    -0.248 NA
ATOM     71  C   UNL A   1      43.632  27.411  30.939  1.00  0.00     0.031 C 
ATOM     72  C   UNL A   1      44.311  32.796  32.084  1.00  0.00     0.029 A 
ATOM     73  C   UNL A   1      44.243  31.472  31.676  1.00  0.00     0.049 A 
ATOM     74  H   UNL A   1      43.418  29.843  32.699  1.00  0.00     0.167 HD
ATOM     75  C   UNL A   1      44.402  29.473  30.256  1.00  0.00     0.074 A 
ATOM     76  C   UNL A   1      44.414  28.436  31.277  1.00  0.00     0.031 C 
ATOM     77  C   UNL A   1      44.459  30.822  30.400  1.00  0.00     0.037 A 
BRANCH  64  78
ATOM     78  C   UNL A   1      42.714  29.810  35.495  1.00  0.00     0.058 A 
ATOM     79  C   UNL A   1      43.541  29.776  36.616  1.00  0.00     0.135 A 
ATOM     80  C   UNL A   1      42.278  28.561  34.987  1.00  0.00     0.135 A 
ATOM     81  F   UNL A   1      44.085  30.907  37.088  1.00  0.00    -0.206 F 
ATOM     82  C   UNL A   1      43.853  28.575  37.244  1.00  0.00     0.059 A 
ATOM     83  C   UNL A   1      42.497  27.366  35.643  1.00  0.00     0.059 A 
ATOM     84  F   UNL A   1      41.694  28.453  33.786  1.00  0.00    -0.206 F 
ATOM     85  C   UNL A   1      43.302  27.383  36.768  1.00  0.00     0.060 A 
BRANCH  85  86
ATOM     86  S   UNL A   1      43.668  25.835  37.604  1.00  0.00     0.124 S 
ATOM     87  O   UNL A   1      44.941  25.475  36.992  1.00  0.00    -0.237 OA
ATOM     88  O   UNL A   1      43.717  26.252  39.001  1.00  0.00    -0.237 OA
ATOM     89  O   UNL A   1      42.530  24.990  37.250  1.00  0.00    -0.744 OA
ENDBRANCH  85  86
ENDBRANCH  64  78
BRANCH  65  90
ATOM     90  C   UNL A   1      41.432  26.259  28.597  1.00  0.00     0.058 A 
ATOM     91  C   UNL A   1      40.179  25.624  28.664  1.00  0.00     0.135 A 
ATOM     92  C   UNL A   1      42.379  25.631  27.772  1.00  0.00     0.135 A 
ATOM     93  F   UNL A   1      39.177  26.185  29.358  1.00  0.00    -0.206 F 
ATOM     94  C   UNL A   1      39.914  24.397  28.018  1.00  0.00     0.059 A 
ATOM     95  C   UNL A   1      42.155  24.403  27.139  1.00  0.00     0.059 A 
ATOM     96  F   UNL A   1      43.571  26.214  27.581  1.00  0.00    -0.206 F 
ATOM     97  C   UNL A   1      40.916  23.787  27.265  1.00  0.00     0.060 A 
BRANCH  97  98
ATOM     98  S   UNL A   1      40.663  22.181  26.462  1.00  0.00     0.124 S 
ATOM     99  O   UNL A   1      39.402  22.353  25.748  1.00  0.00    -0.237 OA
ATOM    100  O   UNL A   1      41.854  22.072  25.625  1.00  0.00    -0.237 OA
ATOM    101  O   UNL A   1      40.610  21.262  27.598  1.00  0.00    -0.744 OA
ENDBRANCH  97  98
ENDBRANCH  65  90
BRANCH  77 102
ATOM    102  C   UNL A   1      44.677  31.636  29.161  1.00  0.00     0.058 A 
ATOM    103  C   UNL A   1      43.670  32.237  28.397  1.00  0.00     0.135 A 
ATOM    104  C   UNL A   1      46.000  31.848  28.751  1.00  0.00     0.135 A 
ATOM    105  F   UNL A   1      42.383  32.038  28.701  1.00  0.00    -0.206 F 
ATOM    106  C   UNL A   1      43.963  33.062  27.305  1.00  0.00     0.059 A 
ATOM    107  C   UNL A   1      46.321  32.654  27.663  1.00  0.00     0.059 A 
ATOM    108  F   UNL A   1      47.010  31.279  29.432  1.00  0.00    -0.206 F 
ATOM    109  C   UNL A   1      45.295  33.270  26.949  1.00  0.00     0.060 A 
BRANCH 109 110
ATOM    110  S   UNL A   1      45.691  34.398  25.594  1.00  0.00     0.124 S 
ATOM    111  O   UNL A   1      47.126  34.198  25.431  1.00  0.00    -0.237 OA
ATOM    112  O   UNL A   1      44.853  33.901  24.505  1.00  0.00    -0.237 OA
ATOM    113  O   UNL A   1      45.300  35.707  26.115  1.00  0.00    -0.744 OA
ENDBRANCH 109 110
ENDBRANCH  77 102
ENDBRANCH  51  52
ENDBRANCH  44  46
ENDBRANCH  43  44
ENDBRANCH  42  43
ENDBRANCH  41  42
ENDBRANCH  40  41
ENDBRANCH  39  40
ENDBRANCH  38  39
ENDBRANCH  37  38
ENDBRANCH   1  37
TORSDOF 28
ENDMDL
MODEL 2
REMARK VINA RESULT:      -9.0      4.623      7.531
REMARK SMILES Cc1ccc(C)c(N2C(=O)S[C@H](CC(=O)Nc3ccc(C(=O)OCCOCCOCCOCCOC(=O)c4ccc(-c5c6nc(c(-c7c(F)cc(S(=O)(=O)[O-])cc7F)c7ccc([nH]7)c(-c7c(F)cc(S(=O)(=O)[O-])cc7F)c7nc(c(-c8c(F)cc(S(=O)(=O)[O-])cc8F)c8ccc5[nH]8)C=C7)C=C6)cc4)c(O)c3)C2=O)c1
REMARK SMILES IDX 28 1 27 2 26 3 25 4 24 5 23 6 21 7 22 8 20 9 17 10 18 11
REMARK SMILES IDX 106 12 19 13 104 14 16 15 14 16 15 17 13 19 12 20 8 21 9 22
REMARK SMILES IDX 107 23 10 24 11 25 108 26 7 27 1 28 2 29 3 30 109 31 4 32
REMARK SMILES IDX 5 33 6 34 105 35 29 37 30 38 31 39 32 40 33 41 34 42 35 43
REMARK SMILES IDX 36 44 37 45 38 46 39 47 103 48 40 49 102 50 41 51 42 52
REMARK SMILES IDX 43 53 96 54 44 55 101 56 95 57 97 58 45 59 100 60 94 61
REMARK SMILES IDX 93 62 46 64 80 65 59 66 79 67 60 68 63 69 78 70 98 71 61 72
REMARK SMILES IDX 62 73 77 75 99 76 64 77 47 78 48 79 57 80 49 81 50 82 56 83
REMARK SMILES IDX 58 84 51 85 52 86 53 87 54 88 55 89 81 90 82 91 91 92 83 93
REMARK SMILES IDX 84 94 90 95 92 96 85 97 86 98 87 99 88 100 89 101 65 102
REMARK SMILES IDX 66 103 75 104 67 105 68 106 74 107 76 108 69 109 70 110
REMARK SMILES IDX 71 111 72 112 73 113
REMARK H PARENT 16 18 105 36 97 63 63 74
REMARK Flexibility Score: inf
ROOT
ATOM      1  C   UNL A   1      37.407  31.730  32.853  1.00  0.00     0.188 C 
ENDROOT
BRANCH   1   2
ATOM      2  C   UNL A   1      38.929  31.616  33.110  1.00  0.00     0.188 C 
BRANCH   2   3
ATOM      3  O   UNL A   1      39.595  30.622  32.350  1.00  0.00    -0.376 OA
BRANCH   3   4
ATOM      4  C   UNL A   1      40.838  31.022  31.795  1.00  0.00     0.202 C 
BRANCH   4   5
ATOM      5  C   UNL A   1      41.511  29.932  30.949  1.00  0.00     0.261 C 
BRANCH   5   6
ATOM      6  O   UNL A   1      40.924  29.756  29.635  1.00  0.00    -0.460 OA
BRANCH   6   7
ATOM      7  C   UNL A   1      40.206  28.617  29.502  1.00  0.00     0.341 C 
ATOM      8  O   UNL A   1      40.639  27.500  29.715  1.00  0.00    -0.246 OA
BRANCH   7   9
ATOM      9  C   UNL A   1      38.761  28.885  29.304  1.00  0.00     0.101 A 
ATOM     10  C   UNL A   1      36.179  29.957  28.794  1.00  0.00     0.044 A 
ATOM     11  C   UNL A   1      37.091  29.825  27.785  1.00  0.00     0.027 A 
ATOM     12  C   UNL A   1      36.506  29.361  30.036  1.00  0.00     0.073 A 
ATOM     13  C   UNL A   1      38.373  29.386  28.065  1.00  0.00     0.022 A 
ATOM     14  C   UNL A   1      37.778  28.778  30.271  1.00  0.00     0.132 A 
BRANCH  10  15
ATOM     15  N   UNL A   1      35.048  30.790  28.657  1.00  0.00    -0.326 N 
ATOM     16  C   UNL A   1      34.237  31.142  27.597  1.00  0.00     0.226 C 
ATOM     17  O   UNL A   1      33.623  32.211  27.719  1.00  0.00    -0.275 OA
ATOM     18  H   UNL A   1      34.778  31.215  29.503  1.00  0.00     0.169 HD
BRANCH  16  19
ATOM     19  C   UNL A   1      33.941  30.270  26.350  1.00  0.00     0.125 C 
BRANCH  19  20
ATOM     20  C   UNL A   1      32.776  29.266  26.487  1.00  0.00     0.156 C 
ATOM     21  N   UNL A   1      32.271  27.277  25.152  1.00  0.00    -0.240 N 
ATOM     22  C   UNL A   1      31.900  28.270  24.306  1.00  0.00     0.293 C 
ATOM     23  C   UNL A   1      33.064  27.756  26.187  1.00  0.00     0.248 C 
ATOM     24  O   UNL A   1      31.998  28.272  23.094  1.00  0.00    -0.261 OA
ATOM     25  S   UNL A   1      31.559  29.685  25.257  1.00  0.00    -0.050 SA
ATOM     26  O   UNL A   1      33.939  27.117  26.763  1.00  0.00    -0.273 OA
BRANCH  21  27
ATOM     27  C   UNL A   1      32.154  25.929  24.698  1.00  0.00     0.056 A 
ATOM     28  C   UNL A   1      34.069  23.431  22.481  1.00  0.00     0.044 C 
ATOM     29  C   UNL A   1      32.986  24.109  23.268  1.00  0.00    -0.049 A 
ATOM     30  C   UNL A   1      31.711  23.540  23.239  1.00  0.00     0.004 A 
ATOM     31  C   UNL A   1      33.202  25.303  23.992  1.00  0.00     0.030 A 
ATOM     32  C   UNL A   1      30.666  24.147  23.920  1.00  0.00     0.006 A 
ATOM     33  C   UNL A   1      30.869  25.339  24.640  1.00  0.00    -0.027 A 
ATOM     34  C   UNL A   1      29.644  25.942  25.268  1.00  0.00     0.046 C 
ENDBRANCH  21  27
ENDBRANCH  19  20
ENDBRANCH  16  19
ENDBRANCH  10  15
BRANCH  14  35
ATOM     35  O   UNL A   1      37.974  28.145  31.464  1.00  0.00    -0.507 OA
ATOM     36  H   UNL A   1      37.275  28.088  32.085  1.00  0.00     0.293 HD
ENDBRANCH  14  35
ENDBRANCH   7   9
ENDBRANCH   6   7
ENDBRANCH   5   6
ENDBRANCH   4   5
ENDBRANCH   3   4
ENDBRANCH   2   3
ENDBRANCH   1   2
BRANCH   1  37
ATOM     37  O   UNL A   1      36.890  32.428  31.724  1.00  0.00    -0.377 OA
BRANCH  37  38
ATOM     38  C   UNL A   1      37.508  33.651  31.368  1.00  0.00     0.188 C 
BRANCH  38  39
ATOM     39  C   UNL A   1      38.254  33.647  30.033  1.00  0.00     0.188 C 
BRANCH  39  40
ATOM     40  O   UNL A   1      39.080  34.790  29.867  1.00  0.00    -0.376 OA
BRANCH  40  41
ATOM     41  C   UNL A   1      40.472  34.523  29.777  1.00  0.00     0.202 C 
BRANCH  41  42
ATOM     42  C   UNL A   1      41.110  35.439  28.735  1.00  0.00     0.261 C 
BRANCH  42  43
ATOM     43  O   UNL A   1      42.554  35.366  28.740  1.00  0.00    -0.460 OA
BRANCH  43  44
ATOM     44  C   UNL A   1      43.147  35.084  27.543  1.00  0.00     0.338 C 
ATOM     45  O   UNL A   1      43.071  35.795  26.555  1.00  0.00    -0.246 OA
BRANCH  44  46
ATOM     46  C   UNL A   1      43.861  33.770  27.626  1.00  0.00     0.060 A 
ATOM     47  C   UNL A   1      44.991  33.506  26.853  1.00  0.00     0.016 A 
ATOM     48  C   UNL A   1      43.320  32.732  28.391  1.00  0.00     0.016 A 
ATOM     49  C   UNL A   1      45.507  32.196  26.808  1.00  0.00     0.010 A 
ATOM     50  C   UNL A   1      43.784  31.422  28.288  1.00  0.00     0.010 A 
ATOM     51  C   UNL A   1      44.871  31.123  27.469  1.00  0.00    -0.014 A 
BRANCH  51  52
ATOM     52  C   UNL A   1      45.588  29.856  27.758  1.00  0.00     0.031 A 
ATOM     53  C   UNL A   1      46.497  30.107  28.861  1.00  0.00     0.074 A 
ATOM     54  C   UNL A   1      45.641  28.642  27.149  1.00  0.00     0.049 A 
ATOM     55  N   UNL A   1      47.755  30.324  28.644  1.00  0.00    -0.248 NA
ATOM     56  C   UNL A   1      46.035  30.452  30.209  1.00  0.00     0.031 C 
ATOM     57  C   UNL A   1      45.330  28.453  25.757  1.00  0.00     0.029 A 
ATOM     58  N   UNL A   1      46.042  27.355  27.508  1.00  0.00    -0.354 N 
ATOM     59  C   UNL A   1      48.286  30.283  29.902  1.00  0.00     0.074 A 
ATOM     60  C   UNL A   1      47.214  30.660  30.804  1.00  0.00     0.031 C 
ATOM     61  C   UNL A   1      45.299  27.146  25.437  1.00  0.00     0.029 A 
ATOM     62  C   UNL A   1      45.571  26.350  26.635  1.00  0.00     0.049 A 
ATOM     63  H   UNL A   1      46.601  27.165  28.295  1.00  0.00     0.167 HD
ATOM     64  C   UNL A   1      49.275  29.370  30.068  1.00  0.00     0.037 A 
ATOM     65  C   UNL A   1      45.836  25.017  26.478  1.00  0.00     0.037 A 
ATOM     66  C   UNL A   1      50.003  29.076  28.851  1.00  0.00     0.049 A 
ATOM     67  C   UNL A   1      47.279  24.802  26.587  1.00  0.00     0.074 A 
ATOM     68  C   UNL A   1      50.779  29.808  27.971  1.00  0.00     0.029 A 
ATOM     69  N   UNL A   1      49.648  27.929  28.188  1.00  0.00    -0.354 N 
ATOM     70  N   UNL A   1      48.126  25.164  25.666  1.00  0.00    -0.248 NA
ATOM     71  C   UNL A   1      47.837  24.565  27.912  1.00  0.00     0.031 C 
ATOM     72  C   UNL A   1      50.878  29.060  26.762  1.00  0.00     0.029 A 
ATOM     73  C   UNL A   1      50.185  27.869  26.921  1.00  0.00     0.049 A 
ATOM     74  H   UNL A   1      49.073  27.229  28.574  1.00  0.00     0.167 HD
ATOM     75  C   UNL A   1      49.162  25.696  26.403  1.00  0.00     0.074 A 
ATOM     76  C   UNL A   1      49.022  25.154  27.746  1.00  0.00     0.031 C 
ATOM     77  C   UNL A   1      49.787  26.830  25.993  1.00  0.00     0.037 A 
BRANCH  64  78
ATOM     78  C   UNL A   1      49.161  28.408  31.204  1.00  0.00     0.058 A 
ATOM     79  C   UNL A   1      50.113  28.414  32.221  1.00  0.00     0.135 A 
ATOM     80  C   UNL A   1      48.210  27.358  31.228  1.00  0.00     0.135 A 
ATOM     81  F   UNL A   1      51.113  29.308  32.205  1.00  0.00    -0.206 F 
ATOM     82  C   UNL A   1      50.075  27.477  33.248  1.00  0.00     0.059 A 
ATOM     83  C   UNL A   1      48.095  26.474  32.281  1.00  0.00     0.059 A 
ATOM     84  F   UNL A   1      47.412  27.105  30.182  1.00  0.00    -0.206 F 
ATOM     85  C   UNL A   1      49.046  26.533  33.284  1.00  0.00     0.060 A 
BRANCH  85  86
ATOM     86  S   UNL A   1      48.969  25.349  34.633  1.00  0.00     0.124 S 
ATOM     87  O   UNL A   1      50.309  24.779  34.589  1.00  0.00    -0.237 OA
ATOM     88  O   UNL A   1      48.670  26.209  35.773  1.00  0.00    -0.237 OA
ATOM     89  O   UNL A   1      47.885  24.457  34.230  1.00  0.00    -0.744 OA
ENDBRANCH  85  86
ENDBRANCH  64  78
BRANCH  65  90
ATOM     90  C   UNL A   1      44.839  23.904  26.422  1.00  0.00     0.058 A 
ATOM     91  C   UNL A   1      44.530  23.138  25.283  1.00  0.00     0.135 A 
ATOM     92  C   UNL A   1      44.191  23.507  27.603  1.00  0.00     0.135 A 
ATOM     93  F   UNL A   1      45.156  23.380  24.121  1.00  0.00    -0.206 F 
ATOM     94  C   UNL A   1      43.575  22.100  25.301  1.00  0.00     0.059 A 
ATOM     95  C   UNL A   1      43.221  22.500  27.649  1.00  0.00     0.059 A 
ATOM     96  F   UNL A   1      44.492  24.125  28.755  1.00  0.00    -0.206 F 
ATOM     97  C   UNL A   1      42.915  21.795  26.491  1.00  0.00     0.060 A 
BRANCH  97  98
ATOM     98  S   UNL A   1      41.631  20.516  26.571  1.00  0.00     0.124 S 
ATOM     99  O   UNL A   1      40.388  21.280  26.549  1.00  0.00    -0.237 OA
ATOM    100  O   UNL A   1      41.914  19.733  25.373  1.00  0.00    -0.237 OA
ATOM    101  O   UNL A   1      41.925  19.850  27.839  1.00  0.00    -0.744 OA
ENDBRANCH  97  98
ENDBRANCH  65  90
BRANCH  77 102
ATOM    102  C   UNL A   1      49.984  27.012  24.519  1.00  0.00     0.058 A 
ATOM    103  C   UNL A   1      49.015  27.477  23.622  1.00  0.00     0.135 A 
ATOM    104  C   UNL A   1      51.254  26.731  23.997  1.00  0.00     0.135 A 
ATOM    105  F   UNL A   1      47.769  27.719  24.041  1.00  0.00    -0.206 F 
ATOM    106  C   UNL A   1      49.308  27.709  22.274  1.00  0.00     0.059 A 
ATOM    107  C   UNL A   1      51.570  26.942  22.659  1.00  0.00     0.059 A 
ATOM    108  F   UNL A   1      52.219  26.261  24.805  1.00  0.00    -0.206 F 
ATOM    109  C   UNL A   1      50.593  27.444  21.802  1.00  0.00     0.060 A 
BRANCH 109 110
ATOM    110  S   UNL A   1      51.007  27.818  20.083  1.00  0.00     0.124 S 
ATOM    111  O   UNL A   1      51.096  29.274  20.094  1.00  0.00    -0.237 OA
ATOM    112  O   UNL A   1      52.269  27.106  19.892  1.00  0.00    -0.237 OA
ATOM    113  O   UNL A   1      49.878  27.269  19.334  1.00  0.00    -0.744 OA
ENDBRANCH 109 110
ENDBRANCH  77 102
ENDBRANCH  51  52
ENDBRANCH  44  46
ENDBRANCH  43  44
ENDBRANCH  42  43
ENDBRANCH  41  42
ENDBRANCH  40  41
ENDBRANCH  39  40
ENDBRANCH  38  39
ENDBRANCH  37  38
ENDBRANCH   1  37
TORSDOF 28
ENDMDL
MODEL 3
REMARK VINA RESULT:      -9.0      2.669      4.168
REMARK SMILES Cc1ccc(C)c(N2C(=O)S[C@H](CC(=O)Nc3ccc(C(=O)OCCOCCOCCOCCOC(=O)c4ccc(-c5c6nc(c(-c7c(F)cc(S(=O)(=O)[O-])cc7F)c7ccc([nH]7)c(-c7c(F)cc(S(=O)(=O)[O-])cc7F)c7nc(c(-c8c(F)cc(S(=O)(=O)[O-])cc8F)c8ccc5[nH]8)C=C7)C=C6)cc4)c(O)c3)C2=O)c1
REMARK SMILES IDX 28 1 27 2 26 3 25 4 24 5 23 6 21 7 22 8 20 9 17 10 18 11
REMARK SMILES IDX 106 12 19 13 104 14 16 15 14 16 15 17 13 19 12 20 8 21 9 22
REMARK SMILES IDX 107 23 10 24 11 25 108 26 7 27 1 28 2 29 3 30 109 31 4 32
REMARK SMILES IDX 5 33 6 34 105 35 29 37 30 38 31 39 32 40 33 41 34 42 35 43
REMARK SMILES IDX 36 44 37 45 38 46 39 47 103 48 40 49 102 50 41 51 42 52
REMARK SMILES IDX 43 53 96 54 44 55 101 56 95 57 97 58 45 59 100 60 94 61
REMARK SMILES IDX 93 62 46 64 80 65 59 66 79 67 60 68 63 69 78 70 98 71 61 72
REMARK SMILES IDX 62 73 77 75 99 76 64 77 47 78 48 79 57 80 49 81 50 82 56 83
REMARK SMILES IDX 58 84 51 85 52 86 53 87 54 88 55 89 81 90 82 91 91 92 83 93
REMARK SMILES IDX 84 94 90 95 92 96 85 97 86 98 87 99 88 100 89 101 65 102
REMARK SMILES IDX 66 103 75 104 67 105 68 106 74 107 76 108 69 109 70 110
REMARK SMILES IDX 71 111 72 112 73 113
REMARK H PARENT 16 18 105 36 97 63 63 74
REMARK Flexibility Score: inf
ROOT
ATOM      1  C   UNL A   1      34.291  31.906  27.658  1.00  0.00     0.188 C 
ENDROOT
BRANCH   1   2
ATOM      2  C   UNL A   1      34.748  30.428  27.713  1.00  0.00     0.188 C 
BRANCH   2   3
ATOM      3  O   UNL A   1      34.379  29.642  26.592  1.00  0.00    -0.376 OA
BRANCH   3   4
ATOM      4  C   UNL A   1      33.016  29.743  26.210  1.00  0.00     0.202 C 
BRANCH   4   5
ATOM      5  C   UNL A   1      32.771  29.445  24.724  1.00  0.00     0.261 C 
BRANCH   5   6
ATOM      6  O   UNL A   1      33.877  28.779  24.064  1.00  0.00    -0.460 OA
BRANCH   6   7
ATOM      7  C   UNL A   1      33.496  27.865  23.142  1.00  0.00     0.341 C 
ATOM      8  O   UNL A   1      33.126  28.135  22.015  1.00  0.00    -0.246 OA
BRANCH   7   9
ATOM      9  C   UNL A   1      33.809  26.478  23.565  1.00  0.00     0.101 A 
ATOM     10  C   UNL A   1      34.917  24.069  24.586  1.00  0.00     0.044 A 
ATOM     11  C   UNL A   1      34.531  25.071  25.430  1.00  0.00     0.027 A 
ATOM     12  C   UNL A   1      34.561  24.206  23.223  1.00  0.00     0.073 A 
ATOM     13  C   UNL A   1      34.077  26.272  24.915  1.00  0.00     0.022 A 
ATOM     14  C   UNL A   1      33.958  25.390  22.725  1.00  0.00     0.132 A 
BRANCH  10  15
ATOM     15  N   UNL A   1      35.776  23.035  25.018  1.00  0.00    -0.326 N 
ATOM     16  C   UNL A   1      35.628  21.675  25.197  1.00  0.00     0.226 C 
ATOM     17  O   UNL A   1      36.417  21.145  25.990  1.00  0.00    -0.275 OA
ATOM     18  H   UNL A   1      36.680  23.354  25.242  1.00  0.00     0.169 HD
BRANCH  16  19
ATOM     19  C   UNL A   1      34.657  20.755  24.411  1.00  0.00     0.125 C 
BRANCH  19  20
ATOM     20  C   UNL A   1      33.202  20.712  24.925  1.00  0.00     0.156 C 
ATOM     21  N   UNL A   1      31.709  22.558  25.524  1.00  0.00    -0.240 N 
ATOM     22  C   UNL A   1      32.552  22.538  26.586  1.00  0.00     0.293 C 
ATOM     23  C   UNL A   1      32.219  21.837  24.453  1.00  0.00     0.248 C 
ATOM     24  O   UNL A   1      32.945  23.495  27.226  1.00  0.00    -0.261 OA
ATOM     25  S   UNL A   1      33.248  20.949  26.689  1.00  0.00    -0.050 SA
ATOM     26  O   UNL A   1      32.000  22.076  23.269  1.00  0.00    -0.273 OA
BRANCH  21  27
ATOM     27  C   UNL A   1      30.689  23.556  25.495  1.00  0.00     0.056 A 
ATOM     28  C   UNL A   1      30.097  27.066  24.030  1.00  0.00     0.044 C 
ATOM     29  C   UNL A   1      29.981  25.826  24.867  1.00  0.00    -0.049 A 
ATOM     30  C   UNL A   1      29.041  25.825  25.898  1.00  0.00     0.004 A 
ATOM     31  C   UNL A   1      30.806  24.695  24.672  1.00  0.00     0.030 A 
ATOM     32  C   UNL A   1      28.918  24.718  26.724  1.00  0.00     0.006 A 
ATOM     33  C   UNL A   1      29.737  23.587  26.542  1.00  0.00    -0.027 A 
ATOM     34  C   UNL A   1      29.565  22.485  27.548  1.00  0.00     0.046 C 
ENDBRANCH  21  27
ENDBRANCH  19  20
ENDBRANCH  16  19
ENDBRANCH  10  15
BRANCH  14  35
ATOM     35  O   UNL A   1      33.563  25.399  21.418  1.00  0.00    -0.507 OA
ATOM     36  H   UNL A   1      34.057  24.928  20.776  1.00  0.00     0.293 HD
ENDBRANCH  14  35
ENDBRANCH   7   9
ENDBRANCH   6   7
ENDBRANCH   5   6
ENDBRANCH   4   5
ENDBRANCH   3   4
ENDBRANCH   2   3
ENDBRANCH   1   2
BRANCH   1  37
ATOM     37  O   UNL A   1      35.229  32.977  27.640  1.00  0.00    -0.377 OA
BRANCH  37  38
ATOM     38  C   UNL A   1      35.175  33.917  28.698  1.00  0.00     0.188 C 
BRANCH  38  39
ATOM     39  C   UNL A   1      33.797  34.522  28.971  1.00  0.00     0.188 C 
BRANCH  39  40
ATOM     40  O   UNL A   1      33.854  35.626  29.862  1.00  0.00    -0.376 OA
BRANCH  40  41
ATOM     41  C   UNL A   1      32.596  36.106  30.314  1.00  0.00     0.202 C 
BRANCH  41  42
ATOM     42  C   UNL A   1      32.507  35.979  31.833  1.00  0.00     0.261 C 
BRANCH  42  43
ATOM     43  O   UNL A   1      33.783  35.677  32.442  1.00  0.00    -0.460 OA
BRANCH  43  44
ATOM     44  C   UNL A   1      33.943  34.401  32.900  1.00  0.00     0.338 C 
ATOM     45  O   UNL A   1      33.026  33.626  33.110  1.00  0.00    -0.246 OA
BRANCH  44  46
ATOM     46  C   UNL A   1      35.398  34.124  33.131  1.00  0.00     0.060 A 
ATOM     47  C   UNL A   1      36.390  34.881  32.510  1.00  0.00     0.016 A 
ATOM     48  C   UNL A   1      35.782  33.004  33.874  1.00  0.00     0.016 A 
ATOM     49  C   UNL A   1      37.732  34.461  32.590  1.00  0.00     0.010 A 
ATOM     50  C   UNL A   1      37.098  32.546  33.890  1.00  0.00     0.010 A 
ATOM     51  C   UNL A   1      38.096  33.252  33.220  1.00  0.00    -0.014 A 
BRANCH  51  52
ATOM     52  C   UNL A   1      39.492  32.994  33.653  1.00  0.00     0.031 A 
ATOM     53  C   UNL A   1      39.880  34.065  34.552  1.00  0.00     0.074 A 
ATOM     54  C   UNL A   1      40.438  32.087  33.293  1.00  0.00     0.049 A 
ATOM     55  N   UNL A   1      40.599  35.055  34.129  1.00  0.00    -0.248 NA
ATOM     56  C   UNL A   1      39.244  34.277  35.856  1.00  0.00     0.031 C 
ATOM     57  C   UNL A   1      40.432  31.417  32.020  1.00  0.00     0.029 A 
ATOM     58  N   UNL A   1      41.629  31.606  33.839  1.00  0.00    -0.354 N 
ATOM     59  C   UNL A   1      40.930  35.699  35.287  1.00  0.00     0.074 A 
ATOM     60  C   UNL A   1      39.875  35.395  36.233  1.00  0.00     0.031 C 
ATOM     61  C   UNL A   1      41.373  30.455  31.970  1.00  0.00     0.029 A 
ATOM     62  C   UNL A   1      42.077  30.402  33.252  1.00  0.00     0.049 A 
ATOM     63  H   UNL A   1      42.111  32.062  34.566  1.00  0.00     0.167 HD
ATOM     64  C   UNL A   1      42.263  35.840  35.493  1.00  0.00     0.037 A 
ATOM     65  C   UNL A   1      43.232  29.674  33.325  1.00  0.00     0.037 A 
ATOM     66  C   UNL A   1      43.038  35.882  34.270  1.00  0.00     0.049 A 
ATOM     67  C   UNL A   1      44.375  30.586  33.279  1.00  0.00     0.074 A 
ATOM     68  C   UNL A   1      43.086  36.714  33.167  1.00  0.00     0.029 A 
ATOM     69  N   UNL A   1      43.658  34.716  33.899  1.00  0.00    -0.354 N 
ATOM     70  N   UNL A   1      44.741  31.215  32.198  1.00  0.00    -0.248 NA
ATOM     71  C   UNL A   1      44.863  31.136  34.536  1.00  0.00     0.031 C 
ATOM     72  C   UNL A   1      43.757  36.009  32.126  1.00  0.00     0.029 A 
ATOM     73  C   UNL A   1      44.135  34.764  32.608  1.00  0.00     0.049 A 
ATOM     74  H   UNL A   1      43.750  33.933  34.489  1.00  0.00     0.167 HD
ATOM     75  C   UNL A   1      45.031  32.477  32.670  1.00  0.00     0.074 A 
ATOM     76  C   UNL A   1      45.260  32.332  34.099  1.00  0.00     0.031 C 
ATOM     77  C   UNL A   1      44.661  33.577  31.965  1.00  0.00     0.037 A 
BRANCH  64  78
ATOM     78  C   UNL A   1      42.824  35.387  36.800  1.00  0.00     0.058 A 
ATOM     79  C   UNL A   1      43.456  36.301  37.642  1.00  0.00     0.135 A 
ATOM     80  C   UNL A   1      42.895  34.023  37.174  1.00  0.00     0.135 A 
ATOM     81  F   UNL A   1      43.529  37.596  37.300  1.00  0.00    -0.206 F 
ATOM     82  C   UNL A   1      44.057  35.891  38.827  1.00  0.00     0.059 A 
ATOM     83  C   UNL A   1      43.404  33.601  38.385  1.00  0.00     0.059 A 
ATOM     84  F   UNL A   1      42.548  33.041  36.330  1.00  0.00    -0.206 F 
ATOM     85  C   UNL A   1      43.998  34.546  39.202  1.00  0.00     0.060 A 
BRANCH  85  86
ATOM     86  S   UNL A   1      44.734  34.021  40.755  1.00  0.00     0.124 S 
ATOM     87  O   UNL A   1      45.420  35.239  41.170  1.00  0.00    -0.237 OA
ATOM     88  O   UNL A   1      43.560  33.642  41.533  1.00  0.00    -0.237 OA
ATOM     89  O   UNL A   1      45.596  32.912  40.354  1.00  0.00    -0.744 OA
ENDBRANCH  85  86
ENDBRANCH  64  78
BRANCH  65  90
ATOM     90  C   UNL A   1      43.355  28.213  33.625  1.00  0.00     0.058 A 
ATOM     91  C   UNL A   1      43.862  27.238  32.746  1.00  0.00     0.135 A 
ATOM     92  C   UNL A   1      43.019  27.747  34.906  1.00  0.00     0.135 A 
ATOM     93  F   UNL A   1      44.291  27.592  31.525  1.00  0.00    -0.206 F 
ATOM     94  C   UNL A   1      43.950  25.874  33.095  1.00  0.00     0.059 A 
ATOM     95  C   UNL A   1      43.071  26.399  35.274  1.00  0.00     0.059 A 
ATOM     96  F   UNL A   1      42.610  28.624  35.835  1.00  0.00    -0.206 F 
ATOM     97  C   UNL A   1      43.538  25.461  34.362  1.00  0.00     0.060 A 
BRANCH  97  98
ATOM     98  S   UNL A   1      43.565  23.715  34.852  1.00  0.00     0.124 S 
ATOM     99  O   UNL A   1      44.576  23.672  35.904  1.00  0.00    -0.237 OA
ATOM    100  O   UNL A   1      42.188  23.505  35.288  1.00  0.00    -0.237 OA
ATOM    101  O   UNL A   1      43.938  23.041  33.609  1.00  0.00    -0.744 OA
ENDBRANCH  97  98
ENDBRANCH  65  90
BRANCH  77 102
ATOM    102  C   UNL A   1      44.739  33.495  30.471  1.00  0.00     0.058 A 
ATOM    103  C   UNL A   1      43.645  33.374  29.606  1.00  0.00     0.135 A 
ATOM    104  C   UNL A   1      46.008  33.584  29.884  1.00  0.00     0.135 A 
ATOM    105  F   UNL A   1      42.409  33.236  30.097  1.00  0.00    -0.206 F 
ATOM    106  C   UNL A   1      43.796  33.399  28.215  1.00  0.00     0.059 A 
ATOM    107  C   UNL A   1      46.189  33.600  28.505  1.00  0.00     0.059 A 
ATOM    108  F   UNL A   1      47.099  33.680  30.663  1.00  0.00    -0.206 F 
ATOM    109  C   UNL A   1      45.075  33.519  27.673  1.00  0.00     0.060 A 
BRANCH 109 110
ATOM    110  S   UNL A   1      45.276  33.636  25.881  1.00  0.00     0.124 S 
ATOM    111  O   UNL A   1      44.203  34.549  25.505  1.00  0.00    -0.237 OA
ATOM    112  O   UNL A   1      46.633  34.160  25.742  1.00  0.00    -0.237 OA
ATOM    113  O   UNL A   1      45.106  32.257  25.428  1.00  0.00    -0.744 OA
ENDBRANCH 109 110
ENDBRANCH  77 102
ENDBRANCH  51  52
ENDBRANCH  44  46
ENDBRANCH  43  44
ENDBRANCH  42  43
ENDBRANCH  41  42
ENDBRANCH  40  41
ENDBRANCH  39  40
ENDBRANCH  38  39
ENDBRANCH  37  38
ENDBRANCH   1  37
TORSDOF 28
ENDMDL
