MODEL 1
REMARK VINA RESULT:      -9.0      0.000      0.000
REMARK SMILES CN(C)S(=O)(=O)c1c[nH]c(C(=O)OCCOCCOCCOCCOC(=O)c2ccc(-c3c4nc(c(-c5c(F)cc(S(=O)(=O)[O-])cc5F)c5ccc([nH]5)c(-c5c(F)cc(S(=O)(=O)[O-])cc5F)c5nc(c(-c6c(F)cc(S(=O)(=O)[O-])cc6F)c6ccc3[nH]6)C=C5)C=C4)cc2)c1
REMARK SMILES IDX 20 1 19 2 18 3 17 4 16 5 15 6 14 7 13 8 11 9 12 10 10 11
REMARK SMILES IDX 7 12 8 13 94 14 9 15 4 17 5 18 6 19 2 20 1 21 3 22 21 23
REMARK SMILES IDX 22 24 23 25 24 26 25 27 26 28 27 29 28 30 29 31 93 32 30 33
REMARK SMILES IDX 92 34 31 35 32 36 33 37 86 38 34 39 91 40 85 41 87 42 35 43
REMARK SMILES IDX 90 44 84 45 83 46 36 48 70 49 49 50 69 51 50 52 53 53 68 54
REMARK SMILES IDX 88 55 51 56 52 57 67 59 89 60 54 61 37 62 38 63 47 64 39 65
REMARK SMILES IDX 40 66 46 67 48 68 41 69 42 70 43 71 44 72 45 73 71 74 72 75
REMARK SMILES IDX 81 76 73 77 74 78 80 79 82 80 75 81 76 82 77 83 78 84 79 85
REMARK SMILES IDX 55 86 56 87 65 88 57 89 58 90 64 91 66 92 59 93 60 94 61 95
REMARK SMILES IDX 62 96 63 97
REMARK H PARENT 9 16 87 47 53 58
REMARK Flexibility Score: inf
ROOT
ATOM      1  C   UNL A   1      38.528  21.626  25.556  1.00  0.00     0.188 C 
ENDROOT
BRANCH   1   2
ATOM      2  O   UNL A   1      37.546  21.109  24.659  1.00  0.00    -0.377 OA
BRANCH   2   3
ATOM      3  C   UNL A   1      36.277  21.737  24.695  1.00  0.00     0.188 C 
BRANCH   3   4
ATOM      4  C   UNL A   1      36.322  23.277  24.810  1.00  0.00     0.188 C 
BRANCH   4   5
ATOM      5  O   UNL A   1      35.147  24.077  24.879  1.00  0.00    -0.376 OA
BRANCH   5   6
ATOM      6  C   UNL A   1      34.180  24.104  23.843  1.00  0.00     0.202 C 
BRANCH   6   7
ATOM      7  C   UNL A   1      33.737  25.411  23.164  1.00  0.00     0.261 C 
BRANCH   7   8
ATOM      8  O   UNL A   1      33.954  26.628  23.878  1.00  0.00    -0.459 OA
BRANCH   8   9
ATOM      9  C   UNL A   1      33.082  26.871  24.881  1.00  0.00     0.354 C 
ATOM     10  O   UNL A   1      33.159  26.409  26.024  1.00  0.00    -0.244 OA
BRANCH   9  11
ATOM     11  C   UNL A   1      32.149  27.898  24.495  1.00  0.00     0.126 A 
ATOM     12  C   UNL A   1      30.564  29.218  23.555  1.00  0.00     0.100 A 
ATOM     13  C   UNL A   1      31.014  29.836  24.706  1.00  0.00     0.105 A 
ATOM     14  C   UNL A   1      31.350  28.046  23.370  1.00  0.00     0.057 A 
ATOM     15  N   UNL A   1      31.937  29.009  25.283  1.00  0.00    -0.354 N 
ATOM     16  H   UNL A   1      32.386  29.183  26.142  1.00  0.00     0.166 HD
BRANCH  12  17
ATOM     17  S   UNL A   1      29.202  29.702  22.599  1.00  0.00     0.244 S 
ATOM     18  O   UNL A   1      28.155  28.781  22.997  1.00  0.00    -0.207 OA
ATOM     19  O   UNL A   1      29.710  29.714  21.245  1.00  0.00    -0.207 OA
BRANCH  17  20
ATOM     20  N   UNL A   1      28.688  31.277  22.999  1.00  0.00    -0.204 NA
ATOM     21  C   UNL A   1      28.605  32.147  21.798  1.00  0.00     0.124 C 
ATOM     22  C   UNL A   1      27.449  31.354  23.800  1.00  0.00     0.124 C 
ENDBRANCH  17  20
ENDBRANCH  12  17
ENDBRANCH   9  11
ENDBRANCH   8   9
ENDBRANCH   7   8
ENDBRANCH   6   7
ENDBRANCH   5   6
ENDBRANCH   4   5
ENDBRANCH   3   4
ENDBRANCH   2   3
ENDBRANCH   1   2
BRANCH   1  23
ATOM     23  C   UNL A   1      39.613  20.655  26.076  1.00  0.00     0.188 C 
BRANCH  23  24
ATOM     24  O   UNL A   1      40.642  21.273  26.839  1.00  0.00    -0.376 OA
BRANCH  24  25
ATOM     25  C   UNL A   1      41.844  20.593  27.151  1.00  0.00     0.202 C 
BRANCH  25  26
ATOM     26  C   UNL A   1      42.200  19.383  26.282  1.00  0.00     0.261 C 
BRANCH  26  27
ATOM     27  O   UNL A   1      42.723  19.701  25.000  1.00  0.00    -0.460 OA
BRANCH  27  28
ATOM     28  C   UNL A   1      44.058  19.569  24.938  1.00  0.00     0.338 C 
ATOM     29  O   UNL A   1      44.723  18.546  24.957  1.00  0.00    -0.246 OA
BRANCH  28  30
ATOM     30  C   UNL A   1      44.692  20.864  24.995  1.00  0.00     0.060 A 
ATOM     31  C   UNL A   1      45.218  21.214  26.242  1.00  0.00     0.016 A 
ATOM     32  C   UNL A   1      44.280  21.787  24.030  1.00  0.00     0.016 A 
ATOM     33  C   UNL A   1      45.153  22.531  26.610  1.00  0.00     0.010 A 
ATOM     34  C   UNL A   1      44.181  23.100  24.413  1.00  0.00     0.010 A 
ATOM     35  C   UNL A   1      44.589  23.447  25.710  1.00  0.00    -0.014 A 
BRANCH  35  36
ATOM     36  C   UNL A   1      44.703  24.859  26.054  1.00  0.00     0.031 A 
ATOM     37  C   UNL A   1      43.264  25.429  26.233  1.00  0.00     0.074 A 
ATOM     38  C   UNL A   1      45.990  25.331  26.125  1.00  0.00     0.049 A 
ATOM     39  N   UNL A   1      42.849  26.650  26.340  1.00  0.00    -0.248 NA
ATOM     40  C   UNL A   1      42.090  24.490  26.288  1.00  0.00     0.031 C 
ATOM     41  C   UNL A   1      47.233  24.523  25.966  1.00  0.00     0.029 A 
ATOM     42  N   UNL A   1      46.531  26.575  26.352  1.00  0.00    -0.354 N 
ATOM     43  C   UNL A   1      41.503  26.603  26.782  1.00  0.00     0.074 A 
ATOM     44  C   UNL A   1      41.056  25.263  26.612  1.00  0.00     0.031 C 
ATOM     45  C   UNL A   1      48.341  25.305  26.005  1.00  0.00     0.029 A 
ATOM     46  C   UNL A   1      47.954  26.682  26.237  1.00  0.00     0.049 A 
ATOM     47  H   UNL A   1      45.969  27.350  26.580  1.00  0.00     0.167 HD
ATOM     48  C   UNL A   1      40.903  27.651  27.415  1.00  0.00     0.037 A 
ATOM     49  C   UNL A   1      48.725  27.819  26.308  1.00  0.00     0.037 A 
ATOM     50  C   UNL A   1      41.763  28.780  27.360  1.00  0.00     0.049 A 
ATOM     51  C   UNL A   1      47.781  28.810  26.830  1.00  0.00     0.074 A 
ATOM     52  C   UNL A   1      42.129  29.578  26.308  1.00  0.00     0.029 A 
ATOM     53  N   UNL A   1      42.669  28.920  28.383  1.00  0.00    -0.354 N 
ATOM     54  N   UNL A   1      47.369  28.836  28.061  1.00  0.00    -0.248 NA
ATOM     55  C   UNL A   1      47.166  29.762  25.900  1.00  0.00     0.031 C 
ATOM     56  C   UNL A   1      43.503  29.778  26.532  1.00  0.00     0.029 A 
ATOM     57  C   UNL A   1      43.845  29.348  27.821  1.00  0.00     0.049 A 
ATOM     58  H   UNL A   1      42.505  28.746  29.338  1.00  0.00     0.167 HD
ATOM     59  C   UNL A   1      46.210  29.559  27.959  1.00  0.00     0.074 A 
ATOM     60  C   UNL A   1      46.325  30.348  26.748  1.00  0.00     0.031 C 
ATOM     61  C   UNL A   1      45.072  29.097  28.538  1.00  0.00     0.037 A 
BRANCH  48  62
ATOM     62  C   UNL A   1      39.698  27.745  28.308  1.00  0.00     0.058 A 
ATOM     63  C   UNL A   1      38.901  28.912  28.197  1.00  0.00     0.135 A 
ATOM     64  C   UNL A   1      39.528  26.987  29.476  1.00  0.00     0.135 A 
ATOM     65  F   UNL A   1      38.922  29.656  27.078  1.00  0.00    -0.206 F 
ATOM     66  C   UNL A   1      38.142  29.400  29.249  1.00  0.00     0.059 A 
ATOM     67  C   UNL A   1      38.723  27.435  30.530  1.00  0.00     0.059 A 
ATOM     68  F   UNL A   1      40.196  25.842  29.665  1.00  0.00    -0.206 F 
ATOM     69  C   UNL A   1      38.093  28.674  30.431  1.00  0.00     0.060 A 
BRANCH  69  70
ATOM     70  S   UNL A   1      37.227  29.405  31.835  1.00  0.00     0.124 S 
ATOM     71  O   UNL A   1      38.005  30.617  32.064  1.00  0.00    -0.237 OA
ATOM     72  O   UNL A   1      35.885  29.608  31.296  1.00  0.00    -0.237 OA
ATOM     73  O   UNL A   1      37.331  28.376  32.864  1.00  0.00    -0.744 OA
ENDBRANCH  69  70
ENDBRANCH  48  62
BRANCH  49  74
ATOM     74  C   UNL A   1      50.120  28.365  26.022  1.00  0.00     0.058 A 
ATOM     75  C   UNL A   1      50.851  28.250  24.834  1.00  0.00     0.135 A 
ATOM     76  C   UNL A   1      50.735  29.227  26.986  1.00  0.00     0.135 A 
ATOM     77  F   UNL A   1      50.476  27.379  23.887  1.00  0.00    -0.206 F 
ATOM     78  C   UNL A   1      51.995  29.046  24.569  1.00  0.00     0.059 A 
ATOM     79  C   UNL A   1      51.818  30.062  26.730  1.00  0.00     0.059 A 
ATOM     80  F   UNL A   1      50.278  29.332  28.242  1.00  0.00    -0.206 F 
ATOM     81  C   UNL A   1      52.427  29.997  25.499  1.00  0.00     0.060 A 
BRANCH  81  82
ATOM     82  S   UNL A   1      53.668  31.249  25.080  1.00  0.00     0.124 S 
ATOM     83  O   UNL A   1      52.928  32.132  24.186  1.00  0.00    -0.237 OA
ATOM     84  O   UNL A   1      54.009  31.802  26.386  1.00  0.00    -0.237 OA
ATOM     85  O   UNL A   1      54.733  30.470  24.450  1.00  0.00    -0.744 OA
ENDBRANCH  81  82
ENDBRANCH  49  74
BRANCH  61  86
ATOM     86  C   UNL A   1      45.278  28.091  29.667  1.00  0.00     0.058 A 
ATOM     87  C   UNL A   1      45.964  28.475  30.831  1.00  0.00     0.135 A 
ATOM     88  C   UNL A   1      44.897  26.736  29.612  1.00  0.00     0.135 A 
ATOM     89  F   UNL A   1      46.351  29.752  30.984  1.00  0.00    -0.206 F 
ATOM     90  C   UNL A   1      46.259  27.577  31.864  1.00  0.00     0.059 A 
ATOM     91  C   UNL A   1      45.180  25.814  30.627  1.00  0.00     0.059 A 
ATOM     92  F   UNL A   1      44.222  26.263  28.566  1.00  0.00    -0.206 F 
ATOM     93  C   UNL A   1      45.865  26.244  31.755  1.00  0.00     0.060 A 
BRANCH  93  94
ATOM     94  S   UNL A   1      46.232  25.102  33.109  1.00  0.00     0.124 S 
ATOM     95  O   UNL A   1      45.749  25.830  34.278  1.00  0.00    -0.237 OA
ATOM     96  O   UNL A   1      45.456  23.925  32.734  1.00  0.00    -0.237 OA
ATOM     97  O   UNL A   1      47.684  24.939  33.041  1.00  0.00    -0.744 OA
ENDBRANCH  93  94
ENDBRANCH  61  86
ENDBRANCH  35  36
ENDBRANCH  28  30
ENDBRANCH  27  28
ENDBRANCH  26  27
ENDBRANCH  25  26
ENDBRANCH  24  25
ENDBRANCH  23  24
ENDBRANCH   1  23
TORSDOF 25
ENDMDL
MODEL 2
REMARK VINA RESULT:      -8.6      2.339      3.048
REMARK SMILES CN(C)S(=O)(=O)c1c[nH]c(C(=O)OCCOCCOCCOCCOC(=O)c2ccc(-c3c4nc(c(-c5c(F)cc(S(=O)(=O)[O-])cc5F)c5ccc([nH]5)c(-c5c(F)cc(S(=O)(=O)[O-])cc5F)c5nc(c(-c6c(F)cc(S(=O)(=O)[O-])cc6F)c6ccc3[nH]6)C=C5)C=C4)cc2)c1
REMARK SMILES IDX 20 1 19 2 18 3 17 4 16 5 15 6 14 7 13 8 11 9 12 10 10 11
REMARK SMILES IDX 7 12 8 13 94 14 9 15 4 17 5 18 6 19 2 20 1 21 3 22 21 23
REMARK SMILES IDX 22 24 23 25 24 26 25 27 26 28 27 29 28 30 29 31 93 32 30 33
REMARK SMILES IDX 92 34 31 35 32 36 33 37 86 38 34 39 91 40 85 41 87 42 35 43
REMARK SMILES IDX 90 44 84 45 83 46 36 48 70 49 49 50 69 51 50 52 53 53 68 54
REMARK SMILES IDX 88 55 51 56 52 57 67 59 89 60 54 61 37 62 38 63 47 64 39 65
REMARK SMILES IDX 40 66 46 67 48 68 41 69 42 70 43 71 44 72 45 73 71 74 72 75
REMARK SMILES IDX 81 76 73 77 74 78 80 79 82 80 75 81 76 82 77 83 78 84 79 85
REMARK SMILES IDX 55 86 56 87 65 88 57 89 58 90 64 91 66 92 59 93 60 94 61 95
REMARK SMILES IDX 62 96 63 97
REMARK H PARENT 9 16 87 47 53 58
REMARK Flexibility Score: inf
ROOT
ATOM      1  C   UNL A   1      37.279  22.396  24.743  1.00  0.00     0.188 C 
ENDROOT
BRANCH   1   2
ATOM      2  O   UNL A   1      36.744  22.680  23.451  1.00  0.00    -0.377 OA
BRANCH   2   3
ATOM      3  C   UNL A   1      35.347  22.906  23.392  1.00  0.00     0.188 C 
BRANCH   3   4
ATOM      4  C   UNL A   1      34.534  22.221  24.514  1.00  0.00     0.188 C 
BRANCH   4   5
ATOM      5  O   UNL A   1      33.309  22.751  25.008  1.00  0.00    -0.376 OA
BRANCH   5   6
ATOM      6  C   UNL A   1      33.083  22.994  26.385  1.00  0.00     0.202 C 
BRANCH   6   7
ATOM      7  C   UNL A   1      31.682  22.910  27.018  1.00  0.00     0.261 C 
BRANCH   7   8
ATOM      8  O   UNL A   1      30.563  23.150  26.165  1.00  0.00    -0.459 OA
BRANCH   8   9
ATOM      9  C   UNL A   1      29.859  24.271  26.438  1.00  0.00     0.354 C 
ATOM     10  O   UNL A   1      28.930  24.352  27.247  1.00  0.00    -0.244 OA
BRANCH   9  11
ATOM     11  C   UNL A   1      30.465  25.410  25.797  1.00  0.00     0.126 A 
ATOM     12  C   UNL A   1      31.293  26.989  24.398  1.00  0.00     0.100 A 
ATOM     13  C   UNL A   1      31.420  27.450  25.694  1.00  0.00     0.105 A 
ATOM     14  C   UNL A   1      30.782  25.663  24.470  1.00  0.00     0.057 A 
ATOM     15  N   UNL A   1      30.878  26.507  26.522  1.00  0.00    -0.354 N 
ATOM     16  H   UNL A   1      30.795  26.599  27.498  1.00  0.00     0.166 HD
BRANCH  12  17
ATOM     17  S   UNL A   1      31.565  27.907  22.953  1.00  0.00     0.244 S 
ATOM     18  O   UNL A   1      31.572  29.283  23.413  1.00  0.00    -0.207 OA
ATOM     19  O   UNL A   1      30.551  27.432  22.038  1.00  0.00    -0.207 OA
BRANCH  17  20
ATOM     20  N   UNL A   1      33.096  27.575  22.284  1.00  0.00    -0.204 NA
ATOM     21  C   UNL A   1      34.098  28.599  22.676  1.00  0.00     0.124 C 
ATOM     22  C   UNL A   1      33.610  26.210  22.523  1.00  0.00     0.124 C 
ENDBRANCH  17  20
ENDBRANCH  12  17
ENDBRANCH   9  11
ENDBRANCH   8   9
ENDBRANCH   7   8
ENDBRANCH   6   7
ENDBRANCH   5   6
ENDBRANCH   4   5
ENDBRANCH   3   4
ENDBRANCH   2   3
ENDBRANCH   1   2
BRANCH   1  23
ATOM     23  C   UNL A   1      37.823  20.972  25.002  1.00  0.00     0.188 C 
BRANCH  23  24
ATOM     24  O   UNL A   1      39.080  20.931  25.664  1.00  0.00    -0.376 OA
BRANCH  24  25
ATOM     25  C   UNL A   1      39.820  19.729  25.777  1.00  0.00     0.202 C 
BRANCH  25  26
ATOM     26  C   UNL A   1      40.760  19.607  26.981  1.00  0.00     0.261 C 
BRANCH  26  27
ATOM     27  O   UNL A   1      42.074  19.166  26.671  1.00  0.00    -0.460 OA
BRANCH  27  28
ATOM     28  C   UNL A   1      42.708  19.985  25.816  1.00  0.00     0.338 C 
ATOM     29  O   UNL A   1      43.449  19.694  24.890  1.00  0.00    -0.246 OA
BRANCH  28  30
ATOM     30  C   UNL A   1      42.529  21.360  26.215  1.00  0.00     0.060 A 
ATOM     31  C   UNL A   1      42.751  22.304  25.208  1.00  0.00     0.016 A 
ATOM     32  C   UNL A   1      42.670  21.622  27.580  1.00  0.00     0.016 A 
ATOM     33  C   UNL A   1      43.315  23.498  25.571  1.00  0.00     0.010 A 
ATOM     34  C   UNL A   1      43.268  22.803  27.940  1.00  0.00     0.010 A 
ATOM     35  C   UNL A   1      43.612  23.709  26.925  1.00  0.00    -0.014 A 
BRANCH  35  36
ATOM     36  C   UNL A   1      44.038  25.052  27.302  1.00  0.00     0.031 A 
ATOM     37  C   UNL A   1      42.769  25.955  27.381  1.00  0.00     0.074 A 
ATOM     38  C   UNL A   1      45.391  25.198  27.479  1.00  0.00     0.049 A 
ATOM     39  N   UNL A   1      42.655  27.239  27.478  1.00  0.00    -0.248 NA
ATOM     40  C   UNL A   1      41.403  25.328  27.330  1.00  0.00     0.031 C 
ATOM     41  C   UNL A   1      46.410  24.112  27.401  1.00  0.00     0.029 A 
ATOM     42  N   UNL A   1      46.196  26.273  27.769  1.00  0.00    -0.354 N 
ATOM     43  C   UNL A   1      41.307  27.521  27.816  1.00  0.00     0.074 A 
ATOM     44  C   UNL A   1      40.564  26.329  27.588  1.00  0.00     0.031 C 
ATOM     45  C   UNL A   1      47.668  24.602  27.538  1.00  0.00     0.029 A 
ATOM     46  C   UNL A   1      47.608  26.032  27.765  1.00  0.00     0.049 A 
ATOM     47  H   UNL A   1      45.823  27.162  27.968  1.00  0.00     0.167 HD
ATOM     48  C   UNL A   1      40.931  28.684  28.420  1.00  0.00     0.037 A 
ATOM     49  C   UNL A   1      48.623  26.947  27.915  1.00  0.00     0.037 A 
ATOM     50  C   UNL A   1      42.041  29.571  28.451  1.00  0.00     0.049 A 
ATOM     51  C   UNL A   1      47.909  28.139  28.381  1.00  0.00     0.074 A 
ATOM     52  C   UNL A   1      42.669  30.254  27.444  1.00  0.00     0.029 A 
ATOM     53  N   UNL A   1      42.870  29.487  29.543  1.00  0.00    -0.354 N 
ATOM     54  N   UNL A   1      47.420  28.266  29.577  1.00  0.00    -0.248 NA
ATOM     55  C   UNL A   1      47.618  29.210  27.424  1.00  0.00     0.031 C 
ATOM     56  C   UNL A   1      44.029  30.115  27.776  1.00  0.00     0.029 A 
ATOM     57  C   UNL A   1      44.155  29.616  29.079  1.00  0.00     0.049 A 
ATOM     58  H   UNL A   1      42.595  29.359  30.479  1.00  0.00     0.167 HD
ATOM     59  C   UNL A   1      46.483  29.248  29.401  1.00  0.00     0.074 A 
ATOM     60  C   UNL A   1      46.880  29.984  28.216  1.00  0.00     0.031 C 
ATOM     61  C   UNL A   1      45.225  29.076  29.882  1.00  0.00     0.037 A 
BRANCH  48  62
ATOM     62  C   UNL A   1      39.718  29.068  29.220  1.00  0.00     0.058 A 
ATOM     63  C   UNL A   1      38.719  29.824  28.557  1.00  0.00     0.135 A 
ATOM     64  C   UNL A   1      39.678  29.084  30.622  1.00  0.00     0.135 A 
ATOM     65  F   UNL A   1      38.616  29.802  27.217  1.00  0.00    -0.206 F 
ATOM     66  C   UNL A   1      37.870  30.690  29.228  1.00  0.00     0.059 A 
ATOM     67  C   UNL A   1      38.791  29.910  31.321  1.00  0.00     0.059 A 
ATOM     68  F   UNL A   1      40.546  28.368  31.350  1.00  0.00    -0.206 F 
ATOM     69  C   UNL A   1      37.942  30.758  30.612  1.00  0.00     0.060 A 
BRANCH  69  70
ATOM     70  S   UNL A   1      36.938  32.001  31.449  1.00  0.00     0.124 S 
ATOM     71  O   UNL A   1      35.604  31.689  30.949  1.00  0.00    -0.237 OA
ATOM     72  O   UNL A   1      37.174  31.689  32.855  1.00  0.00    -0.237 OA
ATOM     73  O   UNL A   1      37.513  33.260  30.990  1.00  0.00    -0.744 OA
ENDBRANCH  69  70
ENDBRANCH  48  62
BRANCH  49  74
ATOM     74  C   UNL A   1      50.126  27.139  27.746  1.00  0.00     0.058 A 
ATOM     75  C   UNL A   1      51.068  27.397  28.749  1.00  0.00     0.135 A 
ATOM     76  C   UNL A   1      50.715  26.888  26.464  1.00  0.00     0.135 A 
ATOM     77  F   UNL A   1      50.674  27.779  29.971  1.00  0.00    -0.206 F 
ATOM     78  C   UNL A   1      52.464  27.254  28.531  1.00  0.00     0.059 A 
ATOM     79  C   UNL A   1      52.073  26.683  26.239  1.00  0.00     0.059 A 
ATOM     80  F   UNL A   1      49.977  26.788  25.349  1.00  0.00    -0.206 F 
ATOM     81  C   UNL A   1      52.948  26.830  27.290  1.00  0.00     0.060 A 
BRANCH  81  82
ATOM     82  S   UNL A   1      54.671  26.324  27.058  1.00  0.00     0.124 S 
ATOM     83  O   UNL A   1      54.538  24.907  26.735  1.00  0.00    -0.237 OA
ATOM     84  O   UNL A   1      55.109  27.189  25.968  1.00  0.00    -0.237 OA
ATOM     85  O   UNL A   1      55.285  26.615  28.352  1.00  0.00    -0.744 OA
ENDBRANCH  81  82
ENDBRANCH  49  74
BRANCH  61  86
ATOM     86  C   UNL A   1      45.092  28.051  31.006  1.00  0.00     0.058 A 
ATOM     87  C   UNL A   1      45.736  28.272  32.234  1.00  0.00     0.135 A 
ATOM     88  C   UNL A   1      44.422  26.818  30.890  1.00  0.00     0.135 A 
ATOM     89  F   UNL A   1      46.386  29.427  32.447  1.00  0.00    -0.206 F 
ATOM     90  C   UNL A   1      45.724  27.332  33.272  1.00  0.00     0.059 A 
ATOM     91  C   UNL A   1      44.394  25.857  31.908  1.00  0.00     0.059 A 
ATOM     92  F   UNL A   1      43.757  26.509  29.778  1.00  0.00    -0.206 F 
ATOM     93  C   UNL A   1      45.050  26.123  33.102  1.00  0.00     0.060 A 
BRANCH  93  94
ATOM     94  S   UNL A   1      45.023  24.929  34.461  1.00  0.00     0.124 S 
ATOM     95  O   UNL A   1      46.158  24.068  34.149  1.00  0.00    -0.237 OA
ATOM     96  O   UNL A   1      45.186  25.791  35.628  1.00  0.00    -0.237 OA
ATOM     97  O   UNL A   1      43.712  24.292  34.337  1.00  0.00    -0.744 OA
ENDBRANCH  93  94
ENDBRANCH  61  86
ENDBRANCH  35  36
ENDBRANCH  28  30
ENDBRANCH  27  28
ENDBRANCH  26  27
ENDBRANCH  25  26
ENDBRANCH  24  25
ENDBRANCH  23  24
ENDBRANCH   1  23
TORSDOF 25
ENDMDL
MODEL 3
REMARK VINA RESULT:      -8.0      2.288      3.163
REMARK SMILES CN(C)S(=O)(=O)c1c[nH]c(C(=O)OCCOCCOCCOCCOC(=O)c2ccc(-c3c4nc(c(-c5c(F)cc(S(=O)(=O)[O-])cc5F)c5ccc([nH]5)c(-c5c(F)cc(S(=O)(=O)[O-])cc5F)c5nc(c(-c6c(F)cc(S(=O)(=O)[O-])cc6F)c6ccc3[nH]6)C=C5)C=C4)cc2)c1
REMARK SMILES IDX 20 1 19 2 18 3 17 4 16 5 15 6 14 7 13 8 11 9 12 10 10 11
REMARK SMILES IDX 7 12 8 13 94 14 9 15 4 17 5 18 6 19 2 20 1 21 3 22 21 23
REMARK SMILES IDX 22 24 23 25 24 26 25 27 26 28 27 29 28 30 29 31 93 32 30 33
REMARK SMILES IDX 92 34 31 35 32 36 33 37 86 38 34 39 91 40 85 41 87 42 35 43
REMARK SMILES IDX 90 44 84 45 83 46 36 48 70 49 49 50 69 51 50 52 53 53 68 54
REMARK SMILES IDX 88 55 51 56 52 57 67 59 89 60 54 61 37 62 38 63 47 64 39 65
REMARK SMILES IDX 40 66 46 67 48 68 41 69 42 70 43 71 44 72 45 73 71 74 72 75
REMARK SMILES IDX 81 76 73 77 74 78 80 79 82 80 75 81 76 82 77 83 78 84 79 85
REMARK SMILES IDX 55 86 56 87 65 88 57 89 58 90 64 91 66 92 59 93 60 94 61 95
REMARK SMILES IDX 62 96 63 97
REMARK H PARENT 9 16 87 47 53 58
REMARK Flexibility Score: inf
ROOT
ATOM      1  C   UNL A   1      37.439  22.621  25.109  1.00  0.00     0.188 C 
ENDROOT
BRANCH   1   2
ATOM      2  O   UNL A   1      36.661  22.845  23.934  1.00  0.00    -0.377 OA
BRANCH   2   3
ATOM      3  C   UNL A   1      35.555  23.717  24.076  1.00  0.00     0.188 C 
BRANCH   3   4
ATOM      4  C   UNL A   1      34.420  23.493  23.051  1.00  0.00     0.188 C 
BRANCH   4   5
ATOM      5  O   UNL A   1      33.922  24.532  22.217  1.00  0.00    -0.376 OA
BRANCH   5   6
ATOM      6  C   UNL A   1      32.547  24.661  21.898  1.00  0.00     0.202 C 
BRANCH   6   7
ATOM      7  C   UNL A   1      32.000  25.839  21.073  1.00  0.00     0.261 C 
BRANCH   7   8
ATOM      8  O   UNL A   1      32.267  27.156  21.554  1.00  0.00    -0.459 OA
BRANCH   8   9
ATOM      9  C   UNL A   1      31.262  27.730  22.253  1.00  0.00     0.354 C 
ATOM     10  O   UNL A   1      30.136  27.978  21.813  1.00  0.00    -0.244 OA
BRANCH   9  11
ATOM     11  C   UNL A   1      31.621  27.840  23.644  1.00  0.00     0.126 A 
ATOM     12  C   UNL A   1      32.252  28.458  25.731  1.00  0.00     0.100 A 
ATOM     13  C   UNL A   1      31.850  27.138  25.775  1.00  0.00     0.105 A 
ATOM     14  C   UNL A   1      32.202  28.870  24.370  1.00  0.00     0.057 A 
ATOM     15  N   UNL A   1      31.432  26.792  24.520  1.00  0.00    -0.354 N 
ATOM     16  H   UNL A   1      31.050  25.919  24.277  1.00  0.00     0.166 HD
BRANCH  12  17
ATOM     17  S   UNL A   1      32.610  29.465  27.096  1.00  0.00     0.244 S 
ATOM     18  O   UNL A   1      32.618  28.543  28.215  1.00  0.00    -0.207 OA
ATOM     19  O   UNL A   1      31.633  30.529  27.013  1.00  0.00    -0.207 OA
BRANCH  17  20
ATOM     20  N   UNL A   1      34.166  30.148  26.974  1.00  0.00    -0.204 NA
ATOM     21  C   UNL A   1      34.263  31.426  27.724  1.00  0.00     0.124 C 
ATOM     22  C   UNL A   1      35.283  29.244  27.317  1.00  0.00     0.124 C 
ENDBRANCH  17  20
ENDBRANCH  12  17
ENDBRANCH   9  11
ENDBRANCH   8   9
ENDBRANCH   7   8
ENDBRANCH   6   7
ENDBRANCH   5   6
ENDBRANCH   4   5
ENDBRANCH   3   4
ENDBRANCH   2   3
ENDBRANCH   1   2
BRANCH   1  23
ATOM     23  C   UNL A   1      37.971  21.191  25.362  1.00  0.00     0.188 C 
BRANCH  23  24
ATOM     24  O   UNL A   1      39.271  21.136  25.934  1.00  0.00    -0.376 OA
BRANCH  24  25
ATOM     25  C   UNL A   1      39.997  19.924  26.013  1.00  0.00     0.202 C 
BRANCH  25  26
ATOM     26  C   UNL A   1      41.022  19.804  27.146  1.00  0.00     0.261 C 
BRANCH  26  27
ATOM     27  O   UNL A   1      42.303  19.342  26.746  1.00  0.00    -0.460 OA
BRANCH  27  28
ATOM     28  C   UNL A   1      42.891  20.152  25.851  1.00  0.00     0.338 C 
ATOM     29  O   UNL A   1      43.568  19.851  24.881  1.00  0.00    -0.246 OA
BRANCH  28  30
ATOM     30  C   UNL A   1      42.752  21.530  26.257  1.00  0.00     0.060 A 
ATOM     31  C   UNL A   1      42.900  22.469  25.231  1.00  0.00     0.016 A 
ATOM     32  C   UNL A   1      43.002  21.796  27.605  1.00  0.00     0.016 A 
ATOM     33  C   UNL A   1      43.499  23.660  25.544  1.00  0.00     0.010 A 
ATOM     34  C   UNL A   1      43.634  22.974  27.912  1.00  0.00     0.010 A 
ATOM     35  C   UNL A   1      43.903  23.874  26.869  1.00  0.00    -0.014 A 
BRANCH  35  36
ATOM     36  C   UNL A   1      44.365  25.216  27.205  1.00  0.00     0.031 A 
ATOM     37  C   UNL A   1      43.116  26.142  27.318  1.00  0.00     0.074 A 
ATOM     38  C   UNL A   1      45.727  25.341  27.328  1.00  0.00     0.049 A 
ATOM     39  N   UNL A   1      43.028  27.430  27.396  1.00  0.00    -0.248 NA
ATOM     40  C   UNL A   1      41.739  25.538  27.330  1.00  0.00     0.031 C 
ATOM     41  C   UNL A   1      46.723  24.237  27.229  1.00  0.00     0.029 A 
ATOM     42  N   UNL A   1      46.561  26.407  27.567  1.00  0.00    -0.354 N 
ATOM     43  C   UNL A   1      41.699  27.741  27.781  1.00  0.00     0.074 A 
ATOM     44  C   UNL A   1      40.927  26.558  27.603  1.00  0.00     0.031 C 
ATOM     45  C   UNL A   1      47.994  24.706  27.309  1.00  0.00     0.029 A 
ATOM     46  C   UNL A   1      47.967  26.141  27.513  1.00  0.00     0.049 A 
ATOM     47  H   UNL A   1      46.210  27.305  27.765  1.00  0.00     0.167 HD
ATOM     48  C   UNL A   1      41.366  28.920  28.379  1.00  0.00     0.037 A 
ATOM     49  C   UNL A   1      49.003  27.041  27.607  1.00  0.00     0.037 A 
ATOM     50  C   UNL A   1      42.491  29.787  28.350  1.00  0.00     0.049 A 
ATOM     51  C   UNL A   1      48.327  28.252  28.080  1.00  0.00     0.074 A 
ATOM     52  C   UNL A   1      43.091  30.443  27.308  1.00  0.00     0.029 A 
ATOM     53  N   UNL A   1      43.361  29.708  29.411  1.00  0.00    -0.354 N 
ATOM     54  N   UNL A   1      47.888  28.408  29.291  1.00  0.00    -0.248 NA
ATOM     55  C   UNL A   1      48.017  29.312  27.116  1.00  0.00     0.031 C 
ATOM     56  C   UNL A   1      44.461  30.286  27.590  1.00  0.00     0.029 A 
ATOM     57  C   UNL A   1      44.628  29.807  28.896  1.00  0.00     0.049 A 
ATOM     58  H   UNL A   1      43.120  29.601  30.359  1.00  0.00     0.167 HD
ATOM     59  C   UNL A   1      46.960  29.403  29.134  1.00  0.00     0.074 A 
ATOM     60  C   UNL A   1      47.323  30.112  27.922  1.00  0.00     0.031 C 
ATOM     61  C   UNL A   1      45.720  29.262  29.667  1.00  0.00     0.037 A 
BRANCH  48  62
ATOM     62  C   UNL A   1      40.192  29.339  29.218  1.00  0.00     0.058 A 
ATOM     63  C   UNL A   1      39.078  29.895  28.539  1.00  0.00     0.135 A 
ATOM     64  C   UNL A   1      40.263  29.585  30.597  1.00  0.00     0.135 A 
ATOM     65  F   UNL A   1      38.869  29.641  27.236  1.00  0.00    -0.206 F 
ATOM     66  C   UNL A   1      38.211  30.794  29.141  1.00  0.00     0.059 A 
ATOM     67  C   UNL A   1      39.365  30.447  31.236  1.00  0.00     0.059 A 
ATOM     68  F   UNL A   1      41.248  29.069  31.344  1.00  0.00    -0.206 F 
ATOM     69  C   UNL A   1      38.388  31.097  30.483  1.00  0.00     0.060 A 
BRANCH  69  70
ATOM     70  S   UNL A   1      37.346  32.382  31.203  1.00  0.00     0.124 S 
ATOM     71  O   UNL A   1      37.527  32.144  32.630  1.00  0.00    -0.237 OA
ATOM     72  O   UNL A   1      37.959  33.600  30.683  1.00  0.00    -0.237 OA
ATOM     73  O   UNL A   1      36.023  32.079  30.668  1.00  0.00    -0.744 OA
ENDBRANCH  69  70
ENDBRANCH  48  62
BRANCH  49  74
ATOM     74  C   UNL A   1      50.501  27.203  27.377  1.00  0.00     0.058 A 
ATOM     75  C   UNL A   1      51.469  27.582  28.315  1.00  0.00     0.135 A 
ATOM     76  C   UNL A   1      51.056  26.790  26.123  1.00  0.00     0.135 A 
ATOM     77  F   UNL A   1      51.106  28.117  29.489  1.00  0.00    -0.206 F 
ATOM     78  C   UNL A   1      52.858  27.406  28.082  1.00  0.00     0.059 A 
ATOM     79  C   UNL A   1      52.407  26.552  25.891  1.00  0.00     0.059 A 
ATOM     80  F   UNL A   1      50.290  26.553  25.049  1.00  0.00    -0.206 F 
ATOM     81  C   UNL A   1      53.309  26.827  26.892  1.00  0.00     0.060 A 
BRANCH  81  82
ATOM     82  S   UNL A   1      55.026  26.288  26.681  1.00  0.00     0.124 S 
ATOM     83  O   UNL A   1      54.908  24.837  26.764  1.00  0.00    -0.237 OA
ATOM     84  O   UNL A   1      55.366  26.829  25.369  1.00  0.00    -0.237 OA
ATOM     85  O   UNL A   1      55.718  26.924  27.801  1.00  0.00    -0.744 OA
ENDBRANCH  81  82
ENDBRANCH  49  74
BRANCH  61  86
ATOM     86  C   UNL A   1      45.614  28.258  30.813  1.00  0.00     0.058 A 
ATOM     87  C   UNL A   1      46.309  28.489  32.011  1.00  0.00     0.135 A 
ATOM     88  C   UNL A   1      44.918  27.036  30.744  1.00  0.00     0.135 A 
ATOM     89  F   UNL A   1      46.986  29.635  32.177  1.00  0.00    -0.206 F 
ATOM     90  C   UNL A   1      46.322  27.566  33.064  1.00  0.00     0.059 A 
ATOM     91  C   UNL A   1      44.913  26.093  31.780  1.00  0.00     0.059 A 
ATOM     92  F   UNL A   1      44.205  26.720  29.664  1.00  0.00    -0.206 F 
ATOM     93  C   UNL A   1      45.621  26.367  32.942  1.00  0.00     0.060 A 
BRANCH  93  94
ATOM     94  S   UNL A   1      45.626  25.198  34.322  1.00  0.00     0.124 S 
ATOM     95  O   UNL A   1      44.442  24.388  34.056  1.00  0.00    -0.237 OA
ATOM     96  O   UNL A   1      46.906  24.521  34.145  1.00  0.00    -0.237 OA
ATOM     97  O   UNL A   1      45.534  26.054  35.504  1.00  0.00    -0.744 OA
ENDBRANCH  93  94
ENDBRANCH  61  86
ENDBRANCH  35  36
ENDBRANCH  28  30
ENDBRANCH  27  28
ENDBRANCH  26  27
ENDBRANCH  25  26
ENDBRANCH  24  25
ENDBRANCH  23  24
ENDBRANCH   1  23
TORSDOF 25
ENDMDL
