MODEL 1
REMARK VINA RESULT:      -9.9      0.000      0.000
REMARK SMILES C[C@H](C(=O)OCCOCCOCCOCCOC(=O)c1ccc(-c2c3nc(c(-c4c(F)cc(S(=O)(=O)[O-])cc4F)c4ccc([nH]4)c(-c4c(F)cc(S(=O)(=O)[O-])cc4F)c4nc(c(-c5c(F)cc(S(=O)(=O)[O-])cc5F)c5ccc2[nH]5)C=C4)C=C3)cc1)c1cccc(C(=O)c2ccccc2)c1
REMARK SMILES IDX 11 1 10 2 9 3 8 4 7 5 6 6 5 7 3 8 4 9 2 10 1 11 86 12 87 13
REMARK SMILES IDX 99 14 88 15 90 16 89 17 91 18 92 19 93 20 94 21 98 22 95 23
REMARK SMILES IDX 97 24 96 25 12 26 13 27 14 28 15 29 16 30 17 31 18 32 19 33
REMARK SMILES IDX 20 34 21 35 85 36 22 37 84 38 23 39 24 40 25 41 78 42 26 43
REMARK SMILES IDX 83 44 77 45 79 46 27 47 82 48 76 49 75 50 28 52 62 53 41 54
REMARK SMILES IDX 61 55 42 56 45 57 60 58 80 59 43 60 44 61 59 63 81 64 46 65
REMARK SMILES IDX 29 66 30 67 39 68 31 69 32 70 38 71 40 72 33 73 34 74 35 75
REMARK SMILES IDX 36 76 37 77 63 78 64 79 73 80 65 81 66 82 72 83 74 84 67 85
REMARK SMILES IDX 68 86 69 87 70 88 71 89 47 90 48 91 57 92 49 93 50 94 56 95
REMARK SMILES IDX 58 96 51 97 52 98 53 99 54 100 55 101
REMARK H PARENT 79 51 45 62
REMARK Flexibility Score: inf
ROOT
ATOM      1  O   UNL A   1      40.421  20.234  27.406  1.00  0.00    -0.377 OA
ENDROOT
BRANCH   1   2
ATOM      2  C   UNL A   1      40.903  21.489  27.814  1.00  0.00     0.188 C 
BRANCH   2   3
ATOM      3  C   UNL A   1      40.245  22.795  27.345  1.00  0.00     0.188 C 
BRANCH   3   4
ATOM      4  O   UNL A   1      39.090  22.747  26.532  1.00  0.00    -0.376 OA
BRANCH   4   5
ATOM      5  C   UNL A   1      38.136  23.786  26.395  1.00  0.00     0.202 C 
BRANCH   5   6
ATOM      6  C   UNL A   1      36.849  23.735  25.553  1.00  0.00     0.261 C 
BRANCH   6   7
ATOM      7  O   UNL A   1      35.967  22.645  25.829  1.00  0.00    -0.463 OA
BRANCH   7   8
ATOM      8  C   UNL A   1      35.892  21.640  24.923  1.00  0.00     0.313 C 
ATOM      9  O   UNL A   1      36.873  21.002  24.545  1.00  0.00    -0.252 OA
BRANCH   8  10
ATOM     10  C   UNL A   1      34.465  21.246  24.493  1.00  0.00     0.126 C 
ATOM     11  C   UNL A   1      33.886  20.426  25.665  1.00  0.00     0.025 C 
BRANCH  10  12
ATOM     12  C   UNL A   1      33.480  22.303  23.959  1.00  0.00    -0.033 A 
ATOM     13  C   UNL A   1      32.090  22.072  23.924  1.00  0.00     0.004 A 
ATOM     14  C   UNL A   1      33.923  23.547  23.480  1.00  0.00     0.016 A 
ATOM     15  C   UNL A   1      31.185  23.067  23.531  1.00  0.00     0.001 A 
ATOM     16  C   UNL A   1      33.023  24.560  23.087  1.00  0.00     0.023 A 
ATOM     17  C   UNL A   1      31.650  24.315  23.127  1.00  0.00     0.012 A 
BRANCH  16  18
ATOM     18  C   UNL A   1      33.483  25.929  22.702  1.00  0.00     0.193 C 
ATOM     19  O   UNL A   1      33.767  26.200  21.540  1.00  0.00    -0.289 OA
BRANCH  18  20
ATOM     20  C   UNL A   1      33.513  26.997  23.721  1.00  0.00     0.022 A 
ATOM     21  C   UNL A   1      33.649  28.316  23.292  1.00  0.00     0.012 A 
ATOM     22  C   UNL A   1      33.280  26.700  25.068  1.00  0.00     0.012 A 
ATOM     23  C   UNL A   1      33.482  29.348  24.213  1.00  0.00     0.001 A 
ATOM     24  C   UNL A   1      33.129  27.741  25.983  1.00  0.00     0.001 A 
ATOM     25  C   UNL A   1      33.225  29.063  25.554  1.00  0.00     0.000 A 
ENDBRANCH  18  20
ENDBRANCH  16  18
ENDBRANCH  10  12
ENDBRANCH   8  10
ENDBRANCH   7   8
ENDBRANCH   6   7
ENDBRANCH   5   6
ENDBRANCH   4   5
ENDBRANCH   3   4
ENDBRANCH   2   3
ENDBRANCH   1   2
BRANCH   1  26
ATOM     26  C   UNL A   1      40.894  19.785  26.156  1.00  0.00     0.188 C 
BRANCH  26  27
ATOM     27  C   UNL A   1      42.421  19.810  26.130  1.00  0.00     0.188 C 
BRANCH  27  28
ATOM     28  O   UNL A   1      43.066  20.705  25.239  1.00  0.00    -0.376 OA
BRANCH  28  29
ATOM     29  C   UNL A   1      43.607  21.951  25.659  1.00  0.00     0.202 C 
BRANCH  29  30
ATOM     30  C   UNL A   1      43.259  23.356  25.105  1.00  0.00     0.261 C 
BRANCH  30  31
ATOM     31  O   UNL A   1      42.813  24.385  25.989  1.00  0.00    -0.460 OA
BRANCH  31  32
ATOM     32  C   UNL A   1      43.675  25.386  26.247  1.00  0.00     0.338 C 
ATOM     33  O   UNL A   1      44.726  25.614  25.672  1.00  0.00    -0.246 OA
BRANCH  32  34
ATOM     34  C   UNL A   1      43.038  26.285  27.237  1.00  0.00     0.060 A 
ATOM     35  C   UNL A   1      43.368  27.646  27.216  1.00  0.00     0.016 A 
ATOM     36  C   UNL A   1      42.127  25.798  28.178  1.00  0.00     0.016 A 
ATOM     37  C   UNL A   1      42.827  28.516  28.162  1.00  0.00     0.010 A 
ATOM     38  C   UNL A   1      41.606  26.666  29.144  1.00  0.00     0.010 A 
ATOM     39  C   UNL A   1      41.986  28.021  29.165  1.00  0.00    -0.014 A 
BRANCH  39  40
ATOM     40  C   UNL A   1      41.669  28.870  30.343  1.00  0.00     0.031 A 
ATOM     41  C   UNL A   1      42.488  28.693  31.587  1.00  0.00     0.074 A 
ATOM     42  C   UNL A   1      40.702  29.803  30.308  1.00  0.00     0.049 A 
ATOM     43  N   UNL A   1      42.371  29.293  32.742  1.00  0.00    -0.248 NA
ATOM     44  C   UNL A   1      43.595  27.727  31.514  1.00  0.00     0.031 C 
ATOM     45  C   UNL A   1      39.909  30.125  29.132  1.00  0.00     0.029 A 
ATOM     46  N   UNL A   1      40.208  30.636  31.281  1.00  0.00    -0.354 N 
ATOM     47  C   UNL A   1      43.393  28.786  33.530  1.00  0.00     0.074 A 
ATOM     48  C   UNL A   1      44.095  27.799  32.738  1.00  0.00     0.031 C 
ATOM     49  C   UNL A   1      38.980  31.039  29.458  1.00  0.00     0.029 A 
ATOM     50  C   UNL A   1      39.112  31.363  30.875  1.00  0.00     0.049 A 
ATOM     51  H   UNL A   1      40.599  30.707  32.181  1.00  0.00     0.167 HD
ATOM     52  C   UNL A   1      43.725  29.129  34.796  1.00  0.00     0.037 A 
ATOM     53  C   UNL A   1      38.295  32.180  31.568  1.00  0.00     0.037 A 
ATOM     54  C   UNL A   1      43.009  30.100  35.579  1.00  0.00     0.049 A 
ATOM     55  C   UNL A   1      38.608  32.456  33.014  1.00  0.00     0.074 A 
ATOM     56  C   UNL A   1      43.272  30.525  36.870  1.00  0.00     0.029 A 
ATOM     57  N   UNL A   1      41.878  30.785  35.156  1.00  0.00    -0.354 N 
ATOM     58  N   UNL A   1      39.598  31.994  33.741  1.00  0.00    -0.248 NA
ATOM     59  C   UNL A   1      37.715  33.377  33.729  1.00  0.00     0.031 C 
ATOM     60  C   UNL A   1      42.266  31.419  37.248  1.00  0.00     0.029 A 
ATOM     61  C   UNL A   1      41.413  31.605  36.171  1.00  0.00     0.049 A 
ATOM     62  H   UNL A   1      41.467  30.700  34.266  1.00  0.00     0.167 HD
ATOM     63  C   UNL A   1      39.473  32.602  34.984  1.00  0.00     0.074 A 
ATOM     64  C   UNL A   1      38.313  33.467  34.909  1.00  0.00     0.031 C 
ATOM     65  C   UNL A   1      40.257  32.466  36.083  1.00  0.00     0.037 A 
BRANCH  52  66
ATOM     66  C   UNL A   1      44.897  28.423  35.416  1.00  0.00     0.058 A 
ATOM     67  C   UNL A   1      46.201  28.937  35.332  1.00  0.00     0.135 A 
ATOM     68  C   UNL A   1      44.709  27.225  36.123  1.00  0.00     0.135 A 
ATOM     69  F   UNL A   1      46.440  30.067  34.646  1.00  0.00    -0.206 F 
ATOM     70  C   UNL A   1      47.280  28.277  35.907  1.00  0.00     0.059 A 
ATOM     71  C   UNL A   1      45.770  26.563  36.733  1.00  0.00     0.059 A 
ATOM     72  F   UNL A   1      43.485  26.685  36.226  1.00  0.00    -0.206 F 
ATOM     73  C   UNL A   1      47.054  27.092  36.609  1.00  0.00     0.060 A 
BRANCH  73  74
ATOM     74  S   UNL A   1      48.464  26.257  37.366  1.00  0.00     0.124 S 
ATOM     75  O   UNL A   1      49.315  26.012  36.207  1.00  0.00    -0.237 OA
ATOM     76  O   UNL A   1      48.949  27.261  38.308  1.00  0.00    -0.237 OA
ATOM     77  O   UNL A   1      47.871  25.069  37.972  1.00  0.00    -0.744 OA
ENDBRANCH  73  74
ENDBRANCH  52  66
BRANCH  53  78
ATOM     78  C   UNL A   1      37.108  32.794  30.910  1.00  0.00     0.058 A 
ATOM     79  C   UNL A   1      37.244  33.836  29.982  1.00  0.00     0.135 A 
ATOM     80  C   UNL A   1      35.807  32.352  31.205  1.00  0.00     0.135 A 
ATOM     81  F   UNL A   1      38.463  34.301  29.671  1.00  0.00    -0.206 F 
ATOM     82  C   UNL A   1      36.137  34.430  29.382  1.00  0.00     0.059 A 
ATOM     83  C   UNL A   1      34.686  32.911  30.598  1.00  0.00     0.059 A 
ATOM     84  F   UNL A   1      35.617  31.351  32.080  1.00  0.00    -0.206 F 
ATOM     85  C   UNL A   1      34.861  33.958  29.695  1.00  0.00     0.060 A 
BRANCH  85  86
ATOM     86  S   UNL A   1      33.437  34.705  28.873  1.00  0.00     0.124 S 
ATOM     87  O   UNL A   1      33.073  33.672  27.912  1.00  0.00    -0.237 OA
ATOM     88  O   UNL A   1      32.512  34.898  29.986  1.00  0.00    -0.237 OA
ATOM     89  O   UNL A   1      33.981  35.935  28.305  1.00  0.00    -0.744 OA
ENDBRANCH  85  86
ENDBRANCH  53  78
BRANCH  65  90
ATOM     90  C   UNL A   1      39.919  33.306  37.284  1.00  0.00     0.058 A 
ATOM     91  C   UNL A   1      40.584  34.509  37.561  1.00  0.00     0.135 A 
ATOM     92  C   UNL A   1      38.875  32.921  38.142  1.00  0.00     0.135 A 
ATOM     93  F   UNL A   1      41.595  34.919  36.778  1.00  0.00    -0.206 F 
ATOM     94  C   UNL A   1      40.243  35.290  38.661  1.00  0.00     0.059 A 
ATOM     95  C   UNL A   1      38.496  33.702  39.228  1.00  0.00     0.059 A 
ATOM     96  F   UNL A   1      38.199  31.782  37.919  1.00  0.00    -0.206 F 
ATOM     97  C   UNL A   1      39.195  34.880  39.486  1.00  0.00     0.060 A 
BRANCH  97  98
ATOM     98  S   UNL A   1      38.741  35.922  40.888  1.00  0.00     0.124 S 
ATOM     99  O   UNL A   1      38.506  37.206  40.236  1.00  0.00    -0.237 OA
ATOM    100  O   UNL A   1      37.554  35.247  41.406  1.00  0.00    -0.237 OA
ATOM    101  O   UNL A   1      39.916  35.862  41.752  1.00  0.00    -0.744 OA
ENDBRANCH  97  98
ENDBRANCH  65  90
ENDBRANCH  39  40
ENDBRANCH  32  34
ENDBRANCH  31  32
ENDBRANCH  30  31
ENDBRANCH  29  30
ENDBRANCH  28  29
ENDBRANCH  27  28
ENDBRANCH  26  27
ENDBRANCH   1  26
TORSDOF 26
ENDMDL
MODEL 2
REMARK VINA RESULT:      -9.5      1.150      2.276
REMARK SMILES C[C@H](C(=O)OCCOCCOCCOCCOC(=O)c1ccc(-c2c3nc(c(-c4c(F)cc(S(=O)(=O)[O-])cc4F)c4ccc([nH]4)c(-c4c(F)cc(S(=O)(=O)[O-])cc4F)c4nc(c(-c5c(F)cc(S(=O)(=O)[O-])cc5F)c5ccc2[nH]5)C=C4)C=C3)cc1)c1cccc(C(=O)c2ccccc2)c1
REMARK SMILES IDX 11 1 10 2 9 3 8 4 7 5 6 6 5 7 3 8 4 9 2 10 1 11 86 12 87 13
REMARK SMILES IDX 99 14 88 15 90 16 89 17 91 18 92 19 93 20 94 21 98 22 95 23
REMARK SMILES IDX 97 24 96 25 12 26 13 27 14 28 15 29 16 30 17 31 18 32 19 33
REMARK SMILES IDX 20 34 21 35 85 36 22 37 84 38 23 39 24 40 25 41 78 42 26 43
REMARK SMILES IDX 83 44 77 45 79 46 27 47 82 48 76 49 75 50 28 52 62 53 41 54
REMARK SMILES IDX 61 55 42 56 45 57 60 58 80 59 43 60 44 61 59 63 81 64 46 65
REMARK SMILES IDX 29 66 30 67 39 68 31 69 32 70 38 71 40 72 33 73 34 74 35 75
REMARK SMILES IDX 36 76 37 77 63 78 64 79 73 80 65 81 66 82 72 83 74 84 67 85
REMARK SMILES IDX 68 86 69 87 70 88 71 89 47 90 48 91 57 92 49 93 50 94 56 95
REMARK SMILES IDX 58 96 51 97 52 98 53 99 54 100 55 101
REMARK H PARENT 79 51 45 62
REMARK Flexibility Score: inf
ROOT
ATOM      1  O   UNL A   1      40.017  23.279  27.309  1.00  0.00    -0.377 OA
ENDROOT
BRANCH   1   2
ATOM      2  C   UNL A   1      39.050  22.754  26.435  1.00  0.00     0.188 C 
BRANCH   2   3
ATOM      3  C   UNL A   1      37.911  23.621  25.880  1.00  0.00     0.188 C 
BRANCH   3   4
ATOM      4  O   UNL A   1      36.568  23.243  26.103  1.00  0.00    -0.376 OA
BRANCH   4   5
ATOM      5  C   UNL A   1      35.774  22.467  25.222  1.00  0.00     0.202 C 
BRANCH   5   6
ATOM      6  C   UNL A   1      35.389  22.839  23.780  1.00  0.00     0.261 C 
BRANCH   6   7
ATOM      7  O   UNL A   1      34.126  22.347  23.326  1.00  0.00    -0.463 OA
BRANCH   7   8
ATOM      8  C   UNL A   1      33.338  23.182  22.605  1.00  0.00     0.313 C 
ATOM      9  O   UNL A   1      33.679  23.660  21.525  1.00  0.00    -0.252 OA
BRANCH   8  10
ATOM     10  C   UNL A   1      31.914  23.388  23.159  1.00  0.00     0.126 C 
ATOM     11  C   UNL A   1      31.843  22.546  24.452  1.00  0.00     0.025 C 
BRANCH  10  12
ATOM     12  C   UNL A   1      31.331  24.802  23.335  1.00  0.00    -0.033 A 
ATOM     13  C   UNL A   1      29.951  25.018  23.522  1.00  0.00     0.004 A 
ATOM     14  C   UNL A   1      32.150  25.944  23.316  1.00  0.00     0.016 A 
ATOM     15  C   UNL A   1      29.431  26.294  23.779  1.00  0.00     0.001 A 
ATOM     16  C   UNL A   1      31.640  27.234  23.580  1.00  0.00     0.023 A 
ATOM     17  C   UNL A   1      30.276  27.398  23.823  1.00  0.00     0.012 A 
BRANCH  16  18
ATOM     18  C   UNL A   1      32.526  28.432  23.691  1.00  0.00     0.193 C 
ATOM     19  O   UNL A   1      32.906  29.035  22.693  1.00  0.00    -0.289 OA
BRANCH  18  20
ATOM     20  C   UNL A   1      32.877  28.953  25.027  1.00  0.00     0.022 A 
ATOM     21  C   UNL A   1      34.042  28.486  25.633  1.00  0.00     0.012 A 
ATOM     22  C   UNL A   1      32.128  29.982  25.608  1.00  0.00     0.012 A 
ATOM     23  C   UNL A   1      34.494  29.105  26.797  1.00  0.00     0.001 A 
ATOM     24  C   UNL A   1      32.583  30.584  26.780  1.00  0.00     0.001 A 
ATOM     25  C   UNL A   1      33.768  30.149  27.370  1.00  0.00     0.000 A 
ENDBRANCH  18  20
ENDBRANCH  16  18
ENDBRANCH  10  12
ENDBRANCH   8  10
ENDBRANCH   7   8
ENDBRANCH   6   7
ENDBRANCH   5   6
ENDBRANCH   4   5
ENDBRANCH   3   4
ENDBRANCH   2   3
ENDBRANCH   1   2
BRANCH   1  26
ATOM     26  C   UNL A   1      41.118  22.435  27.565  1.00  0.00     0.188 C 
BRANCH  26  27
ATOM     27  C   UNL A   1      41.386  21.538  26.358  1.00  0.00     0.188 C 
BRANCH  27  28
ATOM     28  O   UNL A   1      41.759  22.148  25.134  1.00  0.00    -0.376 OA
BRANCH  28  29
ATOM     29  C   UNL A   1      43.090  22.561  24.854  1.00  0.00     0.202 C 
BRANCH  29  30
ATOM     30  C   UNL A   1      43.745  23.918  25.220  1.00  0.00     0.261 C 
BRANCH  30  31
ATOM     31  O   UNL A   1      43.331  24.622  26.390  1.00  0.00    -0.460 OA
BRANCH  31  32
ATOM     32  C   UNL A   1      42.469  25.642  26.217  1.00  0.00     0.338 C 
ATOM     33  O   UNL A   1      41.759  25.845  25.247  1.00  0.00    -0.246 OA
BRANCH  32  34
ATOM     34  C   UNL A   1      42.392  26.388  27.494  1.00  0.00     0.060 A 
ATOM     35  C   UNL A   1      41.303  26.153  28.344  1.00  0.00     0.016 A 
ATOM     36  C   UNL A   1      43.378  27.310  27.856  1.00  0.00     0.016 A 
ATOM     37  C   UNL A   1      41.170  26.869  29.532  1.00  0.00     0.010 A 
ATOM     38  C   UNL A   1      43.228  28.050  29.035  1.00  0.00     0.010 A 
ATOM     39  C   UNL A   1      42.102  27.861  29.858  1.00  0.00    -0.014 A 
BRANCH  39  40
ATOM     40  C   UNL A   1      41.795  28.830  30.942  1.00  0.00     0.031 A 
ATOM     41  C   UNL A   1      42.599  28.760  32.206  1.00  0.00     0.074 A 
ATOM     42  C   UNL A   1      40.849  29.775  30.804  1.00  0.00     0.049 A 
ATOM     43  N   UNL A   1      42.486  29.475  33.294  1.00  0.00    -0.248 NA
ATOM     44  C   UNL A   1      43.685  27.768  32.241  1.00  0.00     0.031 C 
ATOM     45  C   UNL A   1      40.073  29.995  29.594  1.00  0.00     0.029 A 
ATOM     46  N   UNL A   1      40.366  30.711  31.683  1.00  0.00    -0.354 N 
ATOM     47  C   UNL A   1      43.490  29.028  34.139  1.00  0.00     0.074 A 
ATOM     48  C   UNL A   1      44.176  27.952  33.457  1.00  0.00     0.031 C 
ATOM     49  C   UNL A   1      39.163  30.957  29.817  1.00  0.00     0.029 A 
ATOM     50  C   UNL A   1      39.290  31.418  31.196  1.00  0.00     0.049 A 
ATOM     51  H   UNL A   1      40.752  30.863  32.576  1.00  0.00     0.167 HD
ATOM     52  C   UNL A   1      43.819  29.488  35.368  1.00  0.00     0.037 A 
ATOM     53  C   UNL A   1      38.486  32.317  31.796  1.00  0.00     0.037 A 
ATOM     54  C   UNL A   1      43.118  30.548  36.043  1.00  0.00     0.049 A 
ATOM     55  C   UNL A   1      38.793  32.729  33.210  1.00  0.00     0.074 A 
ATOM     56  C   UNL A   1      43.380  31.094  37.287  1.00  0.00     0.029 A 
ATOM     57  N   UNL A   1      42.006  31.211  35.542  1.00  0.00    -0.354 N 
ATOM     58  N   UNL A   1      39.766  32.321  33.989  1.00  0.00    -0.248 NA
ATOM     59  C   UNL A   1      37.915  33.736  33.820  1.00  0.00     0.031 C 
ATOM     60  C   UNL A   1      42.392  32.043  37.564  1.00  0.00     0.029 A 
ATOM     61  C   UNL A   1      41.552  32.138  36.465  1.00  0.00     0.049 A 
ATOM     62  H   UNL A   1      41.601  31.047  34.660  1.00  0.00     0.167 HD
ATOM     63  C   UNL A   1      39.645  33.053  35.165  1.00  0.00     0.074 A 
ATOM     64  C   UNL A   1      38.505  33.931  34.992  1.00  0.00     0.031 C 
ATOM     65  C   UNL A   1      40.417  33.011  36.279  1.00  0.00     0.037 A 
BRANCH  52  66
ATOM     66  C   UNL A   1      44.969  28.823  36.068  1.00  0.00     0.058 A 
ATOM     67  C   UNL A   1      44.788  27.693  36.883  1.00  0.00     0.135 A 
ATOM     68  C   UNL A   1      46.276  29.311  35.906  1.00  0.00     0.135 A 
ATOM     69  F   UNL A   1      43.556  27.200  37.092  1.00  0.00    -0.206 F 
ATOM     70  C   UNL A   1      45.858  27.084  37.528  1.00  0.00     0.059 A 
ATOM     71  C   UNL A   1      47.365  28.698  36.518  1.00  0.00     0.059 A 
ATOM     72  F   UNL A   1      46.503  30.393  35.146  1.00  0.00    -0.206 F 
ATOM     73  C   UNL A   1      47.144  27.593  37.336  1.00  0.00     0.060 A 
BRANCH  73  74
ATOM     74  S   UNL A   1      48.524  26.779  38.167  1.00  0.00     0.124 S 
ATOM     75  O   UNL A   1      49.635  27.108  37.280  1.00  0.00    -0.237 OA
ATOM     76  O   UNL A   1      48.535  27.439  39.468  1.00  0.00    -0.237 OA
ATOM     77  O   UNL A   1      48.130  25.374  38.184  1.00  0.00    -0.744 OA
ENDBRANCH  73  74
ENDBRANCH  52  66
BRANCH  53  78
ATOM     78  C   UNL A   1      37.318  32.888  31.067  1.00  0.00     0.058 A 
ATOM     79  C   UNL A   1      36.025  32.376  31.243  1.00  0.00     0.135 A 
ATOM     80  C   UNL A   1      37.477  33.958  30.171  1.00  0.00     0.135 A 
ATOM     81  F   UNL A   1      35.819  31.349  32.082  1.00  0.00    -0.206 F 
ATOM     82  C   UNL A   1      34.934  32.889  30.548  1.00  0.00     0.059 A 
ATOM     83  C   UNL A   1      36.398  34.507  29.483  1.00  0.00     0.059 A 
ATOM     84  F   UNL A   1      38.692  34.493  29.969  1.00  0.00    -0.206 F 
ATOM     85  C   UNL A   1      35.131  33.958  29.671  1.00  0.00     0.060 A 
BRANCH  85  86
ATOM     86  S   UNL A   1      33.699  34.645  28.810  1.00  0.00     0.124 S 
ATOM     87  O   UNL A   1      32.770  34.868  29.911  1.00  0.00    -0.237 OA
ATOM     88  O   UNL A   1      34.263  35.844  28.197  1.00  0.00    -0.237 OA
ATOM     89  O   UNL A   1      33.329  33.590  27.873  1.00  0.00    -0.744 OA
ENDBRANCH  85  86
ENDBRANCH  53  78
BRANCH  65  90
ATOM     90  C   UNL A   1      40.087  33.974  37.387  1.00  0.00     0.058 A 
ATOM     91  C   UNL A   1      40.624  35.269  37.431  1.00  0.00     0.135 A 
ATOM     92  C   UNL A   1      39.177  33.606  38.394  1.00  0.00     0.135 A 
ATOM     93  F   UNL A   1      41.505  35.667  36.500  1.00  0.00    -0.206 F 
ATOM     94  C   UNL A   1      40.291  36.159  38.447  1.00  0.00     0.059 A 
ATOM     95  C   UNL A   1      38.804  34.491  39.399  1.00  0.00     0.059 A 
ATOM     96  F   UNL A   1      38.627  32.382  38.395  1.00  0.00    -0.206 F 
ATOM     97  C   UNL A   1      39.376  35.762  39.424  1.00  0.00     0.060 A 
BRANCH  97  98
ATOM     98  S   UNL A   1      38.926  36.939  40.716  1.00  0.00     0.124 S 
ATOM     99  O   UNL A   1      38.113  36.109  41.600  1.00  0.00    -0.237 OA
ATOM    100  O   UNL A   1      40.228  37.338  41.241  1.00  0.00    -0.237 OA
ATOM    101  O   UNL A   1      38.202  37.979  39.991  1.00  0.00    -0.744 OA
ENDBRANCH  97  98
ENDBRANCH  65  90
ENDBRANCH  39  40
ENDBRANCH  32  34
ENDBRANCH  31  32
ENDBRANCH  30  31
ENDBRANCH  29  30
ENDBRANCH  28  29
ENDBRANCH  27  28
ENDBRANCH  26  27
ENDBRANCH   1  26
TORSDOF 26
ENDMDL
MODEL 3
REMARK VINA RESULT:      -8.8      1.856      2.651
REMARK SMILES C[C@H](C(=O)OCCOCCOCCOCCOC(=O)c1ccc(-c2c3nc(c(-c4c(F)cc(S(=O)(=O)[O-])cc4F)c4ccc([nH]4)c(-c4c(F)cc(S(=O)(=O)[O-])cc4F)c4nc(c(-c5c(F)cc(S(=O)(=O)[O-])cc5F)c5ccc2[nH]5)C=C4)C=C3)cc1)c1cccc(C(=O)c2ccccc2)c1
REMARK SMILES IDX 11 1 10 2 9 3 8 4 7 5 6 6 5 7 3 8 4 9 2 10 1 11 86 12 87 13
REMARK SMILES IDX 99 14 88 15 90 16 89 17 91 18 92 19 93 20 94 21 98 22 95 23
REMARK SMILES IDX 97 24 96 25 12 26 13 27 14 28 15 29 16 30 17 31 18 32 19 33
REMARK SMILES IDX 20 34 21 35 85 36 22 37 84 38 23 39 24 40 25 41 78 42 26 43
REMARK SMILES IDX 83 44 77 45 79 46 27 47 82 48 76 49 75 50 28 52 62 53 41 54
REMARK SMILES IDX 61 55 42 56 45 57 60 58 80 59 43 60 44 61 59 63 81 64 46 65
REMARK SMILES IDX 29 66 30 67 39 68 31 69 32 70 38 71 40 72 33 73 34 74 35 75
REMARK SMILES IDX 36 76 37 77 63 78 64 79 73 80 65 81 66 82 72 83 74 84 67 85
REMARK SMILES IDX 68 86 69 87 70 88 71 89 47 90 48 91 57 92 49 93 50 94 56 95
REMARK SMILES IDX 58 96 51 97 52 98 53 99 54 100 55 101
REMARK H PARENT 79 51 45 62
REMARK Flexibility Score: inf
ROOT
ATOM      1  O   UNL A   1      41.529  25.052  27.099  1.00  0.00    -0.377 OA
ENDROOT
BRANCH   1   2
ATOM      2  C   UNL A   1      40.368  24.450  26.585  1.00  0.00     0.188 C 
BRANCH   2   3
ATOM      3  C   UNL A   1      40.176  22.927  26.601  1.00  0.00     0.188 C 
BRANCH   3   4
ATOM      4  O   UNL A   1      38.872  22.383  26.584  1.00  0.00    -0.376 OA
BRANCH   4   5
ATOM      5  C   UNL A   1      38.337  21.561  25.561  1.00  0.00     0.202 C 
BRANCH   5   6
ATOM      6  C   UNL A   1      36.879  21.556  25.067  1.00  0.00     0.261 C 
BRANCH   6   7
ATOM      7  O   UNL A   1      35.877  21.616  26.084  1.00  0.00    -0.463 OA
BRANCH   7   8
ATOM      8  C   UNL A   1      35.068  22.702  26.119  1.00  0.00     0.313 C 
ATOM      9  O   UNL A   1      35.485  23.854  26.012  1.00  0.00    -0.252 OA
BRANCH   8  10
ATOM     10  C   UNL A   1      33.557  22.398  26.165  1.00  0.00     0.126 C 
ATOM     11  C   UNL A   1      33.130  22.613  27.633  1.00  0.00     0.025 C 
BRANCH  10  12
ATOM     12  C   UNL A   1      32.589  23.049  25.159  1.00  0.00    -0.033 A 
ATOM     13  C   UNL A   1      32.265  22.432  23.933  1.00  0.00     0.004 A 
ATOM     14  C   UNL A   1      31.983  24.290  25.418  1.00  0.00     0.016 A 
ATOM     15  C   UNL A   1      31.311  22.976  23.062  1.00  0.00     0.001 A 
ATOM     16  C   UNL A   1      31.016  24.845  24.552  1.00  0.00     0.023 A 
ATOM     17  C   UNL A   1      30.677  24.172  23.379  1.00  0.00     0.012 A 
BRANCH  16  18
ATOM     18  C   UNL A   1      30.274  26.098  24.887  1.00  0.00     0.193 C 
ATOM     19  O   UNL A   1      29.063  26.184  24.710  1.00  0.00    -0.289 OA
BRANCH  18  20
ATOM     20  C   UNL A   1      30.993  27.219  25.524  1.00  0.00     0.022 A 
ATOM     21  C   UNL A   1      31.296  28.336  24.748  1.00  0.00     0.012 A 
ATOM     22  C   UNL A   1      31.245  27.211  26.900  1.00  0.00     0.012 A 
ATOM     23  C   UNL A   1      31.795  29.478  25.371  1.00  0.00     0.001 A 
ATOM     24  C   UNL A   1      31.757  28.355  27.511  1.00  0.00     0.001 A 
ATOM     25  C   UNL A   1      32.026  29.489  26.747  1.00  0.00     0.000 A 
ENDBRANCH  18  20
ENDBRANCH  16  18
ENDBRANCH  10  12
ENDBRANCH   8  10
ENDBRANCH   7   8
ENDBRANCH   6   7
ENDBRANCH   5   6
ENDBRANCH   4   5
ENDBRANCH   3   4
ENDBRANCH   2   3
ENDBRANCH   1   2
BRANCH   1  26
ATOM     26  C   UNL A   1      42.206  25.910  26.208  1.00  0.00     0.188 C 
BRANCH  26  27
ATOM     27  C   UNL A   1      42.641  25.141  24.962  1.00  0.00     0.188 C 
BRANCH  27  28
ATOM     28  O   UNL A   1      43.848  24.399  25.015  1.00  0.00    -0.376 OA
BRANCH  28  29
ATOM     29  C   UNL A   1      44.001  23.234  25.815  1.00  0.00     0.202 C 
BRANCH  29  30
ATOM     30  C   UNL A   1      44.959  23.046  27.020  1.00  0.00     0.261 C 
BRANCH  30  31
ATOM     31  O   UNL A   1      44.892  23.935  28.134  1.00  0.00    -0.460 OA
BRANCH  31  32
ATOM     32  C   UNL A   1      45.537  25.111  28.018  1.00  0.00     0.338 C 
ATOM     33  O   UNL A   1      46.492  25.355  27.300  1.00  0.00    -0.246 OA
BRANCH  32  34
ATOM     34  C   UNL A   1      44.773  26.123  28.784  1.00  0.00     0.060 A 
ATOM     35  C   UNL A   1      44.998  27.479  28.515  1.00  0.00     0.016 A 
ATOM     36  C   UNL A   1      43.844  25.745  29.757  1.00  0.00     0.016 A 
ATOM     37  C   UNL A   1      44.334  28.462  29.247  1.00  0.00     0.010 A 
ATOM     38  C   UNL A   1      43.198  26.732  30.511  1.00  0.00     0.010 A 
ATOM     39  C   UNL A   1      43.471  28.094  30.287  1.00  0.00    -0.014 A 
BRANCH  39  40
ATOM     40  C   UNL A   1      43.017  29.120  31.261  1.00  0.00     0.031 A 
ATOM     41  C   UNL A   1      43.797  29.289  32.531  1.00  0.00     0.074 A 
ATOM     42  C   UNL A   1      41.958  29.912  31.018  1.00  0.00     0.049 A 
ATOM     43  N   UNL A   1      43.569  30.091  33.537  1.00  0.00    -0.248 NA
ATOM     44  C   UNL A   1      45.003  28.460  32.677  1.00  0.00     0.031 C 
ATOM     45  C   UNL A   1      41.185  29.900  29.786  1.00  0.00     0.029 A 
ATOM     46  N   UNL A   1      41.338  30.861  31.791  1.00  0.00    -0.354 N 
ATOM     47  C   UNL A   1      44.606  29.871  34.431  1.00  0.00     0.074 A 
ATOM     48  C   UNL A   1      45.441  28.831  33.870  1.00  0.00     0.031 C 
ATOM     49  C   UNL A   1      40.151  30.751  29.902  1.00  0.00     0.029 A 
ATOM     50  C   UNL A   1      40.188  31.364  31.225  1.00  0.00     0.049 A 
ATOM     51  H   UNL A   1      41.682  31.155  32.666  1.00  0.00     0.167 HD
ATOM     52  C   UNL A   1      44.846  30.495  35.607  1.00  0.00     0.037 A 
ATOM     53  C   UNL A   1      39.260  32.205  31.722  1.00  0.00     0.037 A 
ATOM     54  C   UNL A   1      43.998  31.517  36.162  1.00  0.00     0.049 A 
ATOM     55  C   UNL A   1      39.482  32.799  33.088  1.00  0.00     0.074 A 
ATOM     56  C   UNL A   1      44.160  32.218  37.344  1.00  0.00     0.029 A 
ATOM     57  N   UNL A   1      42.819  31.971  35.587  1.00  0.00    -0.354 N 
ATOM     58  N   UNL A   1      40.484  32.606  33.912  1.00  0.00    -0.248 NA
ATOM     59  C   UNL A   1      38.467  33.737  33.582  1.00  0.00     0.031 C 
ATOM     60  C   UNL A   1      43.050  33.050  37.513  1.00  0.00     0.029 A 
ATOM     61  C   UNL A   1      42.227  32.919  36.405  1.00  0.00     0.049 A 
ATOM     62  H   UNL A   1      42.457  31.664  34.724  1.00  0.00     0.167 HD
ATOM     63  C   UNL A   1      40.244  33.433  35.003  1.00  0.00     0.074 A 
ATOM     64  C   UNL A   1      39.002  34.129  34.731  1.00  0.00     0.031 C 
ATOM     65  C   UNL A   1      40.991  33.609  36.121  1.00  0.00     0.037 A 
BRANCH  52  66
ATOM     66  C   UNL A   1      46.059  30.065  36.380  1.00  0.00     0.058 A 
ATOM     67  C   UNL A   1      47.306  30.691  36.212  1.00  0.00     0.135 A 
ATOM     68  C   UNL A   1      45.970  29.024  37.317  1.00  0.00     0.135 A 
ATOM     69  F   UNL A   1      47.452  31.676  35.310  1.00  0.00    -0.206 F 
ATOM     70  C   UNL A   1      48.424  30.286  36.931  1.00  0.00     0.059 A 
ATOM     71  C   UNL A   1      47.070  28.622  38.069  1.00  0.00     0.059 A 
ATOM     72  F   UNL A   1      44.805  28.386  37.510  1.00  0.00    -0.206 F 
ATOM     73  C   UNL A   1      48.295  29.252  37.860  1.00  0.00     0.060 A 
BRANCH  73  74
ATOM     74  S   UNL A   1      49.753  28.750  38.798  1.00  0.00     0.124 S 
ATOM     75  O   UNL A   1      49.399  27.388  39.182  1.00  0.00    -0.237 OA
ATOM     76  O   UNL A   1      50.816  28.873  37.806  1.00  0.00    -0.237 OA
ATOM     77  O   UNL A   1      49.805  29.717  39.890  1.00  0.00    -0.744 OA
ENDBRANCH  73  74
ENDBRANCH  52  66
BRANCH  53  78
ATOM     78  C   UNL A   1      38.043  32.537  30.930  1.00  0.00     0.058 A 
ATOM     79  C   UNL A   1      36.832  31.862  31.134  1.00  0.00     0.135 A 
ATOM     80  C   UNL A   1      38.071  33.538  29.945  1.00  0.00     0.135 A 
ATOM     81  F   UNL A   1      36.752  30.892  32.057  1.00  0.00    -0.206 F 
ATOM     82  C   UNL A   1      35.698  32.151  30.380  1.00  0.00     0.059 A 
ATOM     83  C   UNL A   1      36.944  33.865  29.196  1.00  0.00     0.059 A 
ATOM     84  F   UNL A   1      39.202  34.224  29.712  1.00  0.00    -0.206 F 
ATOM     85  C   UNL A   1      35.763  33.157  29.415  1.00  0.00     0.060 A 
BRANCH  85  86
ATOM     86  S   UNL A   1      34.271  33.555  28.478  1.00  0.00     0.124 S 
ATOM     87  O   UNL A   1      33.850  32.238  28.016  1.00  0.00    -0.237 OA
ATOM     88  O   UNL A   1      33.429  34.174  29.497  1.00  0.00    -0.237 OA
ATOM     89  O   UNL A   1      34.754  34.464  27.443  1.00  0.00    -0.744 OA
ENDBRANCH  85  86
ENDBRANCH  53  78
BRANCH  65  90
ATOM     90  C   UNL A   1      40.515  34.628  37.119  1.00  0.00     0.058 A 
ATOM     91  C   UNL A   1      39.626  34.297  38.153  1.00  0.00     0.135 A 
ATOM     92  C   UNL A   1      40.998  35.947  37.067  1.00  0.00     0.135 A 
ATOM     93  F   UNL A   1      39.126  33.054  38.243  1.00  0.00    -0.206 F 
ATOM     94  C   UNL A   1      39.213  35.243  39.086  1.00  0.00     0.059 A 
ATOM     95  C   UNL A   1      40.626  36.899  38.009  1.00  0.00     0.059 A 
ATOM     96  F   UNL A   1      41.858  36.316  36.104  1.00  0.00    -0.206 F 
ATOM     97  C   UNL A   1      39.722  36.541  39.008  1.00  0.00     0.060 A 
BRANCH  97  98
ATOM     98  S   UNL A   1      39.205  37.747  40.247  1.00  0.00     0.124 S 
ATOM     99  O   UNL A   1      38.792  36.880  41.346  1.00  0.00    -0.237 OA
ATOM    100  O   UNL A   1      40.430  38.511  40.467  1.00  0.00    -0.237 OA
ATOM    101  O   UNL A   1      38.128  38.476  39.584  1.00  0.00    -0.744 OA
ENDBRANCH  97  98
ENDBRANCH  65  90
ENDBRANCH  39  40
ENDBRANCH  32  34
ENDBRANCH  31  32
ENDBRANCH  30  31
ENDBRANCH  29  30
ENDBRANCH  28  29
ENDBRANCH  27  28
ENDBRANCH  26  27
ENDBRANCH   1  26
TORSDOF 26
ENDMDL
