MODEL 1
REMARK VINA RESULT:     -10.4      0.000      0.000
REMARK SMILES CC1(C)CC2=NC(=O)[C@H](C(=O)OCCOCCOCCOCCOC(=O)c3ccc(-c4c5nc(c(-c6c(F)cc(S(=O)(=O)[O-])cc6F)c6ccc([nH]6)c(-c6c(F)cc(S(=O)(=O)[O-])cc6F)c6nc(c(-c7c(F)cc(S(=O)(=O)[O-])cc7F)c7ccc4[nH]7)C=C6)C=C5)cc3)C=C2CS1
REMARK SMILES IDX 19 1 18 2 17 3 16 4 15 5 14 6 13 7 12 8 10 9 11 10 9 11 1 12
REMARK SMILES IDX 2 13 3 14 4 15 96 16 5 17 95 18 6 19 94 20 7 21 93 22 8 23
REMARK SMILES IDX 20 24 21 25 22 26 23 27 24 28 25 29 26 30 27 31 28 32 92 33
REMARK SMILES IDX 29 34 91 35 30 36 31 37 32 38 85 39 33 40 90 41 84 42 86 43
REMARK SMILES IDX 34 44 89 45 83 46 82 47 35 49 69 50 48 51 68 52 49 53 52 54
REMARK SMILES IDX 67 55 87 56 50 57 51 58 66 60 88 61 53 62 36 63 37 64 46 65
REMARK SMILES IDX 38 66 39 67 45 68 47 69 40 70 41 71 42 72 43 73 44 74 70 75
REMARK SMILES IDX 71 76 80 77 72 78 73 79 79 80 81 81 74 82 75 83 76 84 77 85
REMARK SMILES IDX 78 86 54 87 55 88 64 89 56 90 57 91 63 92 65 93 58 94 59 95
REMARK SMILES IDX 60 96 61 97 62 98
REMARK H PARENT 86 48 52 59
REMARK Flexibility Score: inf
ROOT
ATOM      1  C   UNL A   1      33.616  35.566  30.032  1.00  0.00     0.188 C 
ENDROOT
BRANCH   1   2
ATOM      2  O   UNL A   1      32.670  35.202  29.033  1.00  0.00    -0.377 OA
BRANCH   2   3
ATOM      3  C   UNL A   1      33.014  34.064  28.260  1.00  0.00     0.188 C 
BRANCH   3   4
ATOM      4  C   UNL A   1      34.501  33.991  27.833  1.00  0.00     0.188 C 
BRANCH   4   5
ATOM      5  O   UNL A   1      35.142  32.743  27.600  1.00  0.00    -0.376 OA
BRANCH   5   6
ATOM      6  C   UNL A   1      34.741  31.588  28.316  1.00  0.00     0.202 C 
BRANCH   6   7
ATOM      7  C   UNL A   1      34.144  30.379  27.576  1.00  0.00     0.261 C 
BRANCH   7   8
ATOM      8  O   UNL A   1      33.208  30.657  26.521  1.00  0.00    -0.462 OA
BRANCH   8   9
ATOM      9  C   UNL A   1      32.683  29.590  25.854  1.00  0.00     0.322 C 
ATOM     10  O   UNL A   1      32.006  29.677  24.836  1.00  0.00    -0.251 OA
BRANCH   9  11
ATOM     11  C   UNL A   1      33.006  28.264  26.538  1.00  0.00     0.213 C 
ATOM     12  C   UNL A   1      31.853  21.801  25.140  1.00  0.00     0.023 C 
ATOM     13  C   UNL A   1      32.157  23.284  24.857  1.00  0.00     0.016 C 
ATOM     14  C   UNL A   1      31.537  23.651  23.499  1.00  0.00     0.023 C 
ATOM     15  C   UNL A   1      31.605  24.160  25.984  1.00  0.00     0.074 C 
ATOM     16  S   UNL A   1      33.978  23.446  24.840  1.00  0.00    -0.150 SA
ATOM     17  C   UNL A   1      32.116  25.602  26.115  1.00  0.00     0.049 C 
ATOM     18  C   UNL A   1      34.080  25.190  24.421  1.00  0.00     0.107 C 
ATOM     19  N   UNL A   1      31.449  26.334  26.954  1.00  0.00    -0.217 NA
ATOM     20  C   UNL A   1      33.322  26.059  25.370  1.00  0.00    -0.019 C 
ATOM     21  C   UNL A   1      31.799  27.641  27.224  1.00  0.00     0.264 C 
ATOM     22  C   UNL A   1      33.712  27.320  25.610  1.00  0.00     0.004 C 
ATOM     23  O   UNL A   1      31.141  28.294  28.031  1.00  0.00    -0.271 OA
ENDBRANCH   9  11
ENDBRANCH   8   9
ENDBRANCH   7   8
ENDBRANCH   6   7
ENDBRANCH   5   6
ENDBRANCH   4   5
ENDBRANCH   3   4
ENDBRANCH   2   3
ENDBRANCH   1   2
BRANCH   1  24
ATOM     24  C   UNL A   1      33.192  35.338  31.496  1.00  0.00     0.188 C 
BRANCH  24  25
ATOM     25  O   UNL A   1      33.737  34.146  32.051  1.00  0.00    -0.376 OA
BRANCH  25  26
ATOM     26  C   UNL A   1      34.927  33.605  31.504  1.00  0.00     0.202 C 
BRANCH  26  27
ATOM     27  C   UNL A   1      35.429  32.274  32.084  1.00  0.00     0.261 C 
BRANCH  27  28
ATOM     28  O   UNL A   1      36.727  31.841  31.656  1.00  0.00    -0.460 OA
BRANCH  28  29
ATOM     29  C   UNL A   1      36.850  30.565  31.235  1.00  0.00     0.338 C 
ATOM     30  O   UNL A   1      35.958  29.736  31.147  1.00  0.00    -0.246 OA
BRANCH  29  31
ATOM     31  C   UNL A   1      38.216  30.399  30.693  1.00  0.00     0.060 A 
ATOM     32  C   UNL A   1      38.377  30.238  29.311  1.00  0.00     0.016 A 
ATOM     33  C   UNL A   1      39.329  30.428  31.537  1.00  0.00     0.016 A 
ATOM     34  C   UNL A   1      39.652  30.064  28.771  1.00  0.00     0.010 A 
ATOM     35  C   UNL A   1      40.604  30.228  30.998  1.00  0.00     0.010 A 
ATOM     36  C   UNL A   1      40.766  30.006  29.620  1.00  0.00    -0.014 A 
BRANCH  36  37
ATOM     37  C   UNL A   1      42.053  29.487  29.097  1.00  0.00     0.031 A 
ATOM     38  C   UNL A   1      43.213  30.444  29.006  1.00  0.00     0.074 A 
ATOM     39  C   UNL A   1      42.205  28.199  28.743  1.00  0.00     0.049 A 
ATOM     40  N   UNL A   1      44.423  30.244  28.555  1.00  0.00    -0.248 NA
ATOM     41  C   UNL A   1      42.967  31.814  29.488  1.00  0.00     0.031 C 
ATOM     42  C   UNL A   1      41.173  27.168  28.837  1.00  0.00     0.029 A 
ATOM     43  N   UNL A   1      43.293  27.542  28.228  1.00  0.00    -0.354 N 
ATOM     44  C   UNL A   1      45.080  31.462  28.691  1.00  0.00     0.074 A 
ATOM     45  C   UNL A   1      44.124  32.402  29.233  1.00  0.00     0.031 C 
ATOM     46  C   UNL A   1      41.678  26.005  28.386  1.00  0.00     0.029 A 
ATOM     47  C   UNL A   1      43.055  26.218  27.941  1.00  0.00     0.049 A 
ATOM     48  H   UNL A   1      44.163  27.976  28.077  1.00  0.00     0.167 HD
ATOM     49  C   UNL A   1      46.366  31.767  28.401  1.00  0.00     0.037 A 
ATOM     50  C   UNL A   1      43.854  25.295  27.369  1.00  0.00     0.037 A 
ATOM     51  C   UNL A   1      47.309  30.826  27.856  1.00  0.00     0.049 A 
ATOM     52  C   UNL A   1      45.258  25.679  26.972  1.00  0.00     0.074 A 
ATOM     53  C   UNL A   1      48.640  31.028  27.535  1.00  0.00     0.029 A 
ATOM     54  N   UNL A   1      47.017  29.507  27.538  1.00  0.00    -0.354 N 
ATOM     55  N   UNL A   1      45.875  26.828  27.124  1.00  0.00    -0.248 NA
ATOM     56  C   UNL A   1      46.074  24.642  26.325  1.00  0.00     0.031 C 
ATOM     57  C   UNL A   1      49.135  29.851  26.966  1.00  0.00     0.029 A 
ATOM     58  C   UNL A   1      48.134  28.892  26.997  1.00  0.00     0.049 A 
ATOM     59  H   UNL A   1      46.145  29.073  27.678  1.00  0.00     0.167 HD
ATOM     60  C   UNL A   1      47.163  26.638  26.630  1.00  0.00     0.074 A 
ATOM     61  C   UNL A   1      47.236  25.264  26.180  1.00  0.00     0.031 C 
ATOM     62  C   UNL A   1      48.194  27.518  26.561  1.00  0.00     0.037 A 
BRANCH  49  63
ATOM     63  C   UNL A   1      46.812  33.186  28.629  1.00  0.00     0.058 A 
ATOM     64  C   UNL A   1      47.422  33.592  29.828  1.00  0.00     0.135 A 
ATOM     65  C   UNL A   1      46.633  34.156  27.628  1.00  0.00     0.135 A 
ATOM     66  F   UNL A   1      47.600  32.714  30.828  1.00  0.00    -0.206 F 
ATOM     67  C   UNL A   1      47.804  34.912  30.040  1.00  0.00     0.059 A 
ATOM     68  C   UNL A   1      47.038  35.475  27.805  1.00  0.00     0.059 A 
ATOM     69  F   UNL A   1      46.051  33.825  26.464  1.00  0.00    -0.206 F 
ATOM     70  C   UNL A   1      47.607  35.847  29.022  1.00  0.00     0.060 A 
BRANCH  70  71
ATOM     71  S   UNL A   1      48.099  37.559  29.315  1.00  0.00     0.124 S 
ATOM     72  O   UNL A   1      48.740  37.457  30.623  1.00  0.00    -0.237 OA
ATOM     73  O   UNL A   1      48.991  37.823  28.190  1.00  0.00    -0.237 OA
ATOM     74  O   UNL A   1      46.834  38.285  29.293  1.00  0.00    -0.744 OA
ENDBRANCH  70  71
ENDBRANCH  49  63
BRANCH  50  75
ATOM     75  C   UNL A   1      43.351  23.913  27.134  1.00  0.00     0.058 A 
ATOM     76  C   UNL A   1      42.767  23.554  25.910  1.00  0.00     0.135 A 
ATOM     77  C   UNL A   1      43.436  22.926  28.129  1.00  0.00     0.135 A 
ATOM     78  F   UNL A   1      42.648  24.464  24.931  1.00  0.00    -0.206 F 
ATOM     79  C   UNL A   1      42.273  22.272  25.685  1.00  0.00     0.059 A 
ATOM     80  C   UNL A   1      42.977  21.630  27.918  1.00  0.00     0.059 A 
ATOM     81  F   UNL A   1      43.992  23.214  29.316  1.00  0.00    -0.206 F 
ATOM     82  C   UNL A   1      42.388  21.316  26.694  1.00  0.00     0.060 A 
BRANCH  82  83
ATOM     83  S   UNL A   1      41.795  19.641  26.370  1.00  0.00     0.124 S 
ATOM     84  O   UNL A   1      42.188  18.947  27.591  1.00  0.00    -0.237 OA
ATOM     85  O   UNL A   1      40.362  19.857  26.189  1.00  0.00    -0.237 OA
ATOM     86  O   UNL A   1      42.520  19.256  25.163  1.00  0.00    -0.744 OA
ENDBRANCH  82  83
ENDBRANCH  50  75
BRANCH  62  87
ATOM     87  C   UNL A   1      49.509  27.014  26.024  1.00  0.00     0.058 A 
ATOM     88  C   UNL A   1      49.848  27.116  24.666  1.00  0.00     0.135 A 
ATOM     89  C   UNL A   1      50.467  26.472  26.898  1.00  0.00     0.135 A 
ATOM     90  F   UNL A   1      48.970  27.622  23.786  1.00  0.00    -0.206 F 
ATOM     91  C   UNL A   1      51.077  26.670  24.189  1.00  0.00     0.059 A 
ATOM     92  C   UNL A   1      51.714  26.052  26.448  1.00  0.00     0.059 A 
ATOM     93  F   UNL A   1      50.202  26.363  28.210  1.00  0.00    -0.206 F 
ATOM     94  C   UNL A   1      52.005  26.143  25.088  1.00  0.00     0.060 A 
BRANCH  94  95
ATOM     95  S   UNL A   1      53.607  25.597  24.459  1.00  0.00     0.124 S 
ATOM     96  O   UNL A   1      53.549  24.161  24.715  1.00  0.00    -0.237 OA
ATOM     97  O   UNL A   1      53.542  25.993  23.056  1.00  0.00    -0.237 OA
ATOM     98  O   UNL A   1      54.565  26.340  25.273  1.00  0.00    -0.744 OA
ENDBRANCH  94  95
ENDBRANCH  62  87
ENDBRANCH  36  37
ENDBRANCH  29  31
ENDBRANCH  28  29
ENDBRANCH  27  28
ENDBRANCH  26  27
ENDBRANCH  25  26
ENDBRANCH  24  25
ENDBRANCH   1  24
TORSDOF 23
ENDMDL
MODEL 2
REMARK VINA RESULT:     -10.0      0.506      8.007
REMARK SMILES CC1(C)CC2=NC(=O)[C@H](C(=O)OCCOCCOCCOCCOC(=O)c3ccc(-c4c5nc(c(-c6c(F)cc(S(=O)(=O)[O-])cc6F)c6ccc([nH]6)c(-c6c(F)cc(S(=O)(=O)[O-])cc6F)c6nc(c(-c7c(F)cc(S(=O)(=O)[O-])cc7F)c7ccc4[nH]7)C=C6)C=C5)cc3)C=C2CS1
REMARK SMILES IDX 19 1 18 2 17 3 16 4 15 5 14 6 13 7 12 8 10 9 11 10 9 11 1 12
REMARK SMILES IDX 2 13 3 14 4 15 96 16 5 17 95 18 6 19 94 20 7 21 93 22 8 23
REMARK SMILES IDX 20 24 21 25 22 26 23 27 24 28 25 29 26 30 27 31 28 32 92 33
REMARK SMILES IDX 29 34 91 35 30 36 31 37 32 38 85 39 33 40 90 41 84 42 86 43
REMARK SMILES IDX 34 44 89 45 83 46 82 47 35 49 69 50 48 51 68 52 49 53 52 54
REMARK SMILES IDX 67 55 87 56 50 57 51 58 66 60 88 61 53 62 36 63 37 64 46 65
REMARK SMILES IDX 38 66 39 67 45 68 47 69 40 70 41 71 42 72 43 73 44 74 70 75
REMARK SMILES IDX 71 76 80 77 72 78 73 79 79 80 81 81 74 82 75 83 76 84 77 85
REMARK SMILES IDX 78 86 54 87 55 88 64 89 56 90 57 91 63 92 65 93 58 94 59 95
REMARK SMILES IDX 60 96 61 97 62 98
REMARK H PARENT 86 48 52 59
REMARK Flexibility Score: inf
ROOT
ATOM      1  C   UNL A   1      33.876  35.179  30.414  1.00  0.00     0.188 C 
ENDROOT
BRANCH   1   2
ATOM      2  O   UNL A   1      32.809  35.099  29.477  1.00  0.00    -0.377 OA
BRANCH   2   3
ATOM      3  C   UNL A   1      33.071  34.312  28.326  1.00  0.00     0.188 C 
BRANCH   3   4
ATOM      4  C   UNL A   1      34.563  33.968  28.098  1.00  0.00     0.188 C 
BRANCH   4   5
ATOM      5  O   UNL A   1      34.993  32.623  27.924  1.00  0.00    -0.376 OA
BRANCH   5   6
ATOM      6  C   UNL A   1      34.128  31.548  28.246  1.00  0.00     0.202 C 
BRANCH   6   7
ATOM      7  C   UNL A   1      33.934  30.381  27.264  1.00  0.00     0.261 C 
BRANCH   7   8
ATOM      8  O   UNL A   1      33.007  30.584  26.185  1.00  0.00    -0.462 OA
BRANCH   8   9
ATOM      9  C   UNL A   1      32.309  29.497  25.747  1.00  0.00     0.322 C 
ATOM     10  O   UNL A   1      31.380  29.548  24.949  1.00  0.00    -0.251 OA
BRANCH   9  11
ATOM     11  C   UNL A   1      32.792  28.201  26.393  1.00  0.00     0.213 C 
ATOM     12  C   UNL A   1      32.147  21.670  24.982  1.00  0.00     0.023 C 
ATOM     13  C   UNL A   1      32.298  23.177  24.700  1.00  0.00     0.016 C 
ATOM     14  C   UNL A   1      31.563  23.496  23.388  1.00  0.00     0.023 C 
ATOM     15  C   UNL A   1      31.739  23.990  25.871  1.00  0.00     0.074 C 
ATOM     16  S   UNL A   1      34.091  23.505  24.574  1.00  0.00    -0.150 SA
ATOM     17  C   UNL A   1      32.124  25.472  25.990  1.00  0.00     0.049 C 
ATOM     18  C   UNL A   1      34.008  25.255  24.173  1.00  0.00     0.107 C 
ATOM     19  N   UNL A   1      31.447  26.134  26.877  1.00  0.00    -0.217 NA
ATOM     20  C   UNL A   1      33.235  26.044  25.178  1.00  0.00    -0.019 C 
ATOM     21  C   UNL A   1      31.693  27.465  27.143  1.00  0.00     0.264 C 
ATOM     22  C   UNL A   1      33.523  27.333  25.411  1.00  0.00     0.004 C 
ATOM     23  O   UNL A   1      31.030  28.049  27.998  1.00  0.00    -0.271 OA
ENDBRANCH   9  11
ENDBRANCH   8   9
ENDBRANCH   7   8
ENDBRANCH   6   7
ENDBRANCH   5   6
ENDBRANCH   4   5
ENDBRANCH   3   4
ENDBRANCH   2   3
ENDBRANCH   1   2
BRANCH   1  24
ATOM     24  C   UNL A   1      33.529  34.855  31.880  1.00  0.00     0.188 C 
BRANCH  24  25
ATOM     25  O   UNL A   1      34.020  33.586  32.297  1.00  0.00    -0.376 OA
BRANCH  25  26
ATOM     26  C   UNL A   1      35.162  33.039  31.663  1.00  0.00     0.202 C 
BRANCH  26  27
ATOM     27  C   UNL A   1      35.523  31.582  31.992  1.00  0.00     0.261 C 
BRANCH  27  28
ATOM     28  O   UNL A   1      36.859  31.169  31.675  1.00  0.00    -0.460 OA
BRANCH  28  29
ATOM     29  C   UNL A   1      37.004  30.077  30.896  1.00  0.00     0.338 C 
ATOM     30  O   UNL A   1      36.120  29.326  30.519  1.00  0.00    -0.246 OA
BRANCH  29  31
ATOM     31  C   UNL A   1      38.397  30.062  30.397  1.00  0.00     0.060 A 
ATOM     32  C   UNL A   1      38.617  30.107  29.014  1.00  0.00     0.016 A 
ATOM     33  C   UNL A   1      39.475  30.031  31.284  1.00  0.00     0.016 A 
ATOM     34  C   UNL A   1      39.918  30.080  28.512  1.00  0.00     0.010 A 
ATOM     35  C   UNL A   1      40.778  29.977  30.780  1.00  0.00     0.010 A 
ATOM     36  C   UNL A   1      41.002  29.962  29.392  1.00  0.00    -0.014 A 
BRANCH  36  37
ATOM     37  C   UNL A   1      42.336  29.591  28.860  1.00  0.00     0.031 A 
ATOM     38  C   UNL A   1      42.540  28.172  28.399  1.00  0.00     0.074 A 
ATOM     39  C   UNL A   1      43.331  30.489  28.757  1.00  0.00     0.049 A 
ATOM     40  N   UNL A   1      43.615  27.595  27.930  1.00  0.00    -0.248 NA
ATOM     41  C   UNL A   1      41.367  27.284  28.483  1.00  0.00     0.031 C 
ATOM     42  C   UNL A   1      43.237  31.902  29.120  1.00  0.00     0.029 A 
ATOM     43  N   UNL A   1      44.621  30.338  28.316  1.00  0.00    -0.354 N 
ATOM     44  C   UNL A   1      43.252  26.278  27.671  1.00  0.00     0.074 A 
ATOM     45  C   UNL A   1      41.869  26.132  28.069  1.00  0.00     0.031 C 
ATOM     46  C   UNL A   1      44.426  32.489  28.892  1.00  0.00     0.029 A 
ATOM     47  C   UNL A   1      45.372  31.488  28.400  1.00  0.00     0.049 A 
ATOM     48  H   UNL A   1      44.977  29.488  27.971  1.00  0.00     0.167 HD
ATOM     49  C   UNL A   1      44.000  25.283  27.141  1.00  0.00     0.037 A 
ATOM     50  C   UNL A   1      46.676  31.696  28.128  1.00  0.00     0.037 A 
ATOM     51  C   UNL A   1      45.378  25.435  26.754  1.00  0.00     0.049 A 
ATOM     52  C   UNL A   1      47.516  30.549  27.620  1.00  0.00     0.074 A 
ATOM     53  C   UNL A   1      46.225  24.494  26.197  1.00  0.00     0.029 A 
ATOM     54  N   UNL A   1      46.116  26.602  26.896  1.00  0.00    -0.354 N 
ATOM     55  N   UNL A   1      47.157  29.314  27.360  1.00  0.00    -0.248 NA
ATOM     56  C   UNL A   1      48.937  30.827  27.368  1.00  0.00     0.031 C 
ATOM     57  C   UNL A   1      47.490  25.073  26.060  1.00  0.00     0.029 A 
ATOM     58  C   UNL A   1      47.416  26.396  26.466  1.00  0.00     0.049 A 
ATOM     59  H   UNL A   1      45.766  27.451  27.250  1.00  0.00     0.167 HD
ATOM     60  C   UNL A   1      48.298  28.679  26.875  1.00  0.00     0.074 A 
ATOM     61  C   UNL A   1      49.355  29.669  26.875  1.00  0.00     0.031 C 
ATOM     62  C   UNL A   1      48.456  27.396  26.463  1.00  0.00     0.037 A 
BRANCH  49  63
ATOM     63  C   UNL A   1      43.352  23.933  26.989  1.00  0.00     0.058 A 
ATOM     64  C   UNL A   1      43.257  23.027  28.058  1.00  0.00     0.135 A 
ATOM     65  C   UNL A   1      42.810  23.542  25.753  1.00  0.00     0.135 A 
ATOM     66  F   UNL A   1      43.775  23.338  29.257  1.00  0.00    -0.206 F 
ATOM     67  C   UNL A   1      42.681  21.772  27.900  1.00  0.00     0.059 A 
ATOM     68  C   UNL A   1      42.199  22.303  25.580  1.00  0.00     0.059 A 
ATOM     69  F   UNL A   1      42.878  24.365  24.695  1.00  0.00    -0.206 F 
ATOM     70  C   UNL A   1      42.155  21.419  26.656  1.00  0.00     0.060 A 
BRANCH  70  71
ATOM     71  S   UNL A   1      41.421  19.781  26.462  1.00  0.00     0.124 S 
ATOM     72  O   UNL A   1      40.040  20.119  26.131  1.00  0.00    -0.237 OA
ATOM     73  O   UNL A   1      42.212  19.212  25.376  1.00  0.00    -0.237 OA
ATOM     74  O   UNL A   1      41.618  19.162  27.769  1.00  0.00    -0.744 OA
ENDBRANCH  70  71
ENDBRANCH  49  63
BRANCH  50  75
ATOM     75  C   UNL A   1      47.276  33.044  28.329  1.00  0.00     0.058 A 
ATOM     76  C   UNL A   1      47.306  33.985  27.289  1.00  0.00     0.135 A 
ATOM     77  C   UNL A   1      47.839  33.416  29.560  1.00  0.00     0.135 A 
ATOM     78  F   UNL A   1      46.795  33.674  26.088  1.00  0.00    -0.206 F 
ATOM     79  C   UNL A   1      47.883  35.240  27.457  1.00  0.00     0.059 A 
ATOM     80  C   UNL A   1      48.395  34.675  29.762  1.00  0.00     0.059 A 
ATOM     81  F   UNL A   1      47.831  32.556  30.591  1.00  0.00    -0.206 F 
ATOM     82  C   UNL A   1      48.420  35.578  28.700  1.00  0.00     0.060 A 
BRANCH  82  83
ATOM     83  S   UNL A   1      49.115  37.230  28.922  1.00  0.00     0.124 S 
ATOM     84  O   UNL A   1      48.388  37.701  30.095  1.00  0.00    -0.237 OA
ATOM     85  O   UNL A   1      50.532  36.937  29.123  1.00  0.00    -0.237 OA
ATOM     86  O   UNL A   1      48.794  37.900  27.667  1.00  0.00    -0.744 OA
ENDBRANCH  82  83
ENDBRANCH  50  75
BRANCH  62  87
ATOM     87  C   UNL A   1      49.806  26.994  25.927  1.00  0.00     0.058 A 
ATOM     88  C   UNL A   1      50.151  27.158  24.577  1.00  0.00     0.135 A 
ATOM     89  C   UNL A   1      50.789  26.490  26.796  1.00  0.00     0.135 A 
ATOM     90  F   UNL A   1      49.250  27.632  23.702  1.00  0.00    -0.206 F 
ATOM     91  C   UNL A   1      51.411  26.807  24.101  1.00  0.00     0.059 A 
ATOM     92  C   UNL A   1      52.066  26.165  26.348  1.00  0.00     0.059 A 
ATOM     93  F   UNL A   1      50.520  26.325  28.101  1.00  0.00    -0.206 F 
ATOM     94  C   UNL A   1      52.362  26.315  24.995  1.00  0.00     0.060 A 
BRANCH  94  95
ATOM     95  S   UNL A   1      54.003  25.893  24.368  1.00  0.00     0.124 S 
ATOM     96  O   UNL A   1      54.125  24.498  24.780  1.00  0.00    -0.237 OA
ATOM     97  O   UNL A   1      53.856  26.120  22.934  1.00  0.00    -0.237 OA
ATOM     98  O   UNL A   1      54.884  26.830  25.059  1.00  0.00    -0.744 OA
ENDBRANCH  94  95
ENDBRANCH  62  87
ENDBRANCH  36  37
ENDBRANCH  29  31
ENDBRANCH  28  29
ENDBRANCH  27  28
ENDBRANCH  26  27
ENDBRANCH  25  26
ENDBRANCH  24  25
ENDBRANCH   1  24
TORSDOF 23
ENDMDL
MODEL 3
REMARK VINA RESULT:      -9.9      6.108     12.239
REMARK SMILES CC1(C)CC2=NC(=O)[C@H](C(=O)OCCOCCOCCOCCOC(=O)c3ccc(-c4c5nc(c(-c6c(F)cc(S(=O)(=O)[O-])cc6F)c6ccc([nH]6)c(-c6c(F)cc(S(=O)(=O)[O-])cc6F)c6nc(c(-c7c(F)cc(S(=O)(=O)[O-])cc7F)c7ccc4[nH]7)C=C6)C=C5)cc3)C=C2CS1
REMARK SMILES IDX 19 1 18 2 17 3 16 4 15 5 14 6 13 7 12 8 10 9 11 10 9 11 1 12
REMARK SMILES IDX 2 13 3 14 4 15 96 16 5 17 95 18 6 19 94 20 7 21 93 22 8 23
REMARK SMILES IDX 20 24 21 25 22 26 23 27 24 28 25 29 26 30 27 31 28 32 92 33
REMARK SMILES IDX 29 34 91 35 30 36 31 37 32 38 85 39 33 40 90 41 84 42 86 43
REMARK SMILES IDX 34 44 89 45 83 46 82 47 35 49 69 50 48 51 68 52 49 53 52 54
REMARK SMILES IDX 67 55 87 56 50 57 51 58 66 60 88 61 53 62 36 63 37 64 46 65
REMARK SMILES IDX 38 66 39 67 45 68 47 69 40 70 41 71 42 72 43 73 44 74 70 75
REMARK SMILES IDX 71 76 80 77 72 78 73 79 79 80 81 81 74 82 75 83 76 84 77 85
REMARK SMILES IDX 78 86 54 87 55 88 64 89 56 90 57 91 63 92 65 93 58 94 59 95
REMARK SMILES IDX 60 96 61 97 62 98
REMARK H PARENT 86 48 52 59
REMARK Flexibility Score: inf
ROOT
ATOM      1  C   UNL A   1      40.918  20.535  26.674  1.00  0.00     0.188 C 
ENDROOT
BRANCH   1   2
ATOM      2  O   UNL A   1      40.327  21.454  25.763  1.00  0.00    -0.377 OA
BRANCH   2   3
ATOM      3  C   UNL A   1      39.180  22.133  26.246  1.00  0.00     0.188 C 
BRANCH   3   4
ATOM      4  C   UNL A   1      37.855  21.761  25.538  1.00  0.00     0.188 C 
BRANCH   4   5
ATOM      5  O   UNL A   1      36.598  22.192  26.047  1.00  0.00    -0.376 OA
BRANCH   5   6
ATOM      6  C   UNL A   1      35.658  22.822  25.194  1.00  0.00     0.202 C 
BRANCH   6   7
ATOM      7  C   UNL A   1      34.170  22.877  25.578  1.00  0.00     0.261 C 
BRANCH   7   8
ATOM      8  O   UNL A   1      33.226  22.409  24.601  1.00  0.00    -0.462 OA
BRANCH   8   9
ATOM      9  C   UNL A   1      32.027  21.949  25.059  1.00  0.00     0.322 C 
ATOM     10  O   UNL A   1      31.800  20.779  25.342  1.00  0.00    -0.251 OA
BRANCH   9  11
ATOM     11  C   UNL A   1      30.979  23.055  25.150  1.00  0.00     0.213 C 
ATOM     12  C   UNL A   1      31.102  29.754  24.742  1.00  0.00     0.023 C 
ATOM     13  C   UNL A   1      31.511  28.303  24.426  1.00  0.00     0.016 C 
ATOM     14  C   UNL A   1      33.009  28.290  24.082  1.00  0.00     0.023 C 
ATOM     15  C   UNL A   1      31.200  27.396  25.619  1.00  0.00     0.074 C 
ATOM     16  S   UNL A   1      30.483  27.770  23.012  1.00  0.00    -0.150 SA
ATOM     17  C   UNL A   1      31.159  25.877  25.400  1.00  0.00     0.049 C 
ATOM     18  C   UNL A   1      31.182  26.130  22.786  1.00  0.00     0.107 C 
ATOM     19  N   UNL A   1      31.100  25.177  26.491  1.00  0.00    -0.217 NA
ATOM     20  C   UNL A   1      31.127  25.300  24.026  1.00  0.00    -0.019 C 
ATOM     21  C   UNL A   1      31.015  23.801  26.475  1.00  0.00     0.264 C 
ATOM     22  C   UNL A   1      31.029  23.964  23.957  1.00  0.00     0.004 C 
ATOM     23  O   UNL A   1      30.954  23.181  27.535  1.00  0.00    -0.271 OA
ENDBRANCH   9  11
ENDBRANCH   8   9
ENDBRANCH   7   8
ENDBRANCH   6   7
ENDBRANCH   5   6
ENDBRANCH   4   5
ENDBRANCH   3   4
ENDBRANCH   2   3
ENDBRANCH   1   2
BRANCH   1  24
ATOM     24  C   UNL A   1      42.442  20.341  26.564  1.00  0.00     0.188 C 
BRANCH  24  25
ATOM     25  O   UNL A   1      42.996  20.959  25.408  1.00  0.00    -0.376 OA
BRANCH  25  26
ATOM     26  C   UNL A   1      43.770  22.137  25.553  1.00  0.00     0.202 C 
BRANCH  26  27
ATOM     27  C   UNL A   1      43.575  22.956  26.839  1.00  0.00     0.261 C 
BRANCH  27  28
ATOM     28  O   UNL A   1      42.472  23.871  26.851  1.00  0.00    -0.460 OA
BRANCH  28  29
ATOM     29  C   UNL A   1      42.692  25.118  26.386  1.00  0.00     0.338 C 
ATOM     30  O   UNL A   1      43.042  25.426  25.258  1.00  0.00    -0.246 OA
BRANCH  29  31
ATOM     31  C   UNL A   1      42.230  26.071  27.419  1.00  0.00     0.060 A 
ATOM     32  C   UNL A   1      42.917  27.282  27.573  1.00  0.00     0.016 A 
ATOM     33  C   UNL A   1      41.114  25.785  28.209  1.00  0.00     0.016 A 
ATOM     34  C   UNL A   1      42.514  28.195  28.548  1.00  0.00     0.010 A 
ATOM     35  C   UNL A   1      40.726  26.689  29.203  1.00  0.00     0.010 A 
ATOM     36  C   UNL A   1      41.449  27.878  29.402  1.00  0.00    -0.014 A 
BRANCH  36  37
ATOM     37  C   UNL A   1      41.243  28.674  30.636  1.00  0.00     0.031 A 
ATOM     38  C   UNL A   1      40.127  29.685  30.643  1.00  0.00     0.074 A 
ATOM     39  C   UNL A   1      41.999  28.488  31.732  1.00  0.00     0.049 A 
ATOM     40  N   UNL A   1      39.767  30.522  31.581  1.00  0.00    -0.248 NA
ATOM     41  C   UNL A   1      39.308  29.761  29.421  1.00  0.00     0.031 C 
ATOM     42  C   UNL A   1      43.072  27.504  31.863  1.00  0.00     0.029 A 
ATOM     43  N   UNL A   1      41.977  29.127  32.946  1.00  0.00    -0.354 N 
ATOM     44  C   UNL A   1      38.689  31.228  31.061  1.00  0.00     0.074 A 
ATOM     45  C   UNL A   1      38.476  30.747  29.714  1.00  0.00     0.031 C 
ATOM     46  C   UNL A   1      43.611  27.610  33.091  1.00  0.00     0.029 A 
ATOM     47  C   UNL A   1      42.946  28.691  33.818  1.00  0.00     0.049 A 
ATOM     48  H   UNL A   1      41.329  29.833  33.171  1.00  0.00     0.167 HD
ATOM     49  C   UNL A   1      37.938  32.184  31.656  1.00  0.00     0.037 A 
ATOM     50  C   UNL A   1      43.266  29.129  35.053  1.00  0.00     0.037 A 
ATOM     51  C   UNL A   1      38.161  32.661  32.995  1.00  0.00     0.049 A 
ATOM     52  C   UNL A   1      42.470  30.257  35.664  1.00  0.00     0.074 A 
ATOM     53  C   UNL A   1      37.451  33.619  33.697  1.00  0.00     0.029 A 
ATOM     54  N   UNL A   1      39.180  32.226  33.831  1.00  0.00    -0.354 N 
ATOM     55  N   UNL A   1      41.440  30.903  35.171  1.00  0.00    -0.248 NA
ATOM     56  C   UNL A   1      42.882  30.713  36.999  1.00  0.00     0.031 C 
ATOM     57  C   UNL A   1      38.079  33.807  34.933  1.00  0.00     0.029 A 
ATOM     58  C   UNL A   1      39.137  32.917  35.030  1.00  0.00     0.049 A 
ATOM     59  H   UNL A   1      39.836  31.528  33.604  1.00  0.00     0.167 HD
ATOM     60  C   UNL A   1      41.055  31.813  36.152  1.00  0.00     0.074 A 
ATOM     61  C   UNL A   1      41.962  31.630  37.267  1.00  0.00     0.031 C 
ATOM     62  C   UNL A   1      40.042  32.716  36.135  1.00  0.00     0.037 A 
BRANCH  49  63
ATOM     63  C   UNL A   1      36.832  32.803  30.844  1.00  0.00     0.058 A 
ATOM     64  C   UNL A   1      35.496  32.385  30.962  1.00  0.00     0.135 A 
ATOM     65  C   UNL A   1      37.112  33.838  29.936  1.00  0.00     0.135 A 
ATOM     66  F   UNL A   1      35.171  31.386  31.798  1.00  0.00    -0.206 F 
ATOM     67  C   UNL A   1      34.486  32.944  30.187  1.00  0.00     0.059 A 
ATOM     68  C   UNL A   1      36.113  34.435  29.174  1.00  0.00     0.059 A 
ATOM     69  F   UNL A   1      38.372  34.274  29.778  1.00  0.00    -0.206 F 
ATOM     70  C   UNL A   1      34.806  33.969  29.294  1.00  0.00     0.060 A 
BRANCH  70  71
ATOM     71  S   UNL A   1      33.486  34.677  28.286  1.00  0.00     0.124 S 
ATOM     72  O   UNL A   1      32.631  35.277  29.307  1.00  0.00    -0.237 OA
ATOM     73  O   UNL A   1      34.214  35.616  27.438  1.00  0.00    -0.237 OA
ATOM     74  O   UNL A   1      32.924  33.520  27.598  1.00  0.00    -0.744 OA
ENDBRANCH  70  71
ENDBRANCH  49  63
BRANCH  50  75
ATOM     75  C   UNL A   1      44.392  28.504  35.800  1.00  0.00     0.058 A 
ATOM     76  C   UNL A   1      44.168  27.459  36.707  1.00  0.00     0.135 A 
ATOM     77  C   UNL A   1      45.715  28.945  35.629  1.00  0.00     0.135 A 
ATOM     78  F   UNL A   1      42.921  27.010  36.918  1.00  0.00    -0.206 F 
ATOM     79  C   UNL A   1      45.209  26.881  37.428  1.00  0.00     0.059 A 
ATOM     80  C   UNL A   1      46.776  28.364  36.316  1.00  0.00     0.059 A 
ATOM     81  F   UNL A   1      45.987  29.938  34.768  1.00  0.00    -0.206 F 
ATOM     82  C   UNL A   1      46.511  27.337  37.220  1.00  0.00     0.060 A 
BRANCH  82  83
ATOM     83  S   UNL A   1      47.860  26.542  38.119  1.00  0.00     0.124 S 
ATOM     84  O   UNL A   1      47.390  26.630  39.497  1.00  0.00    -0.237 OA
ATOM     85  O   UNL A   1      47.870  25.206  37.530  1.00  0.00    -0.237 OA
ATOM     86  O   UNL A   1      49.015  27.372  37.792  1.00  0.00    -0.744 OA
ENDBRANCH  82  83
ENDBRANCH  50  75
BRANCH  62  87
ATOM     87  C   UNL A   1      39.820  33.542  37.376  1.00  0.00     0.058 A 
ATOM     88  C   UNL A   1      40.503  34.748  37.601  1.00  0.00     0.135 A 
ATOM     89  C   UNL A   1      38.866  33.144  38.328  1.00  0.00     0.135 A 
ATOM     90  F   UNL A   1      41.428  35.173  36.727  1.00  0.00    -0.206 F 
ATOM     91  C   UNL A   1      40.269  35.513  38.739  1.00  0.00     0.059 A 
ATOM     92  C   UNL A   1      38.591  33.912  39.455  1.00  0.00     0.059 A 
ATOM     93  F   UNL A   1      38.172  32.007  38.158  1.00  0.00    -0.206 F 
ATOM     94  C   UNL A   1      39.309  35.089  39.658  1.00  0.00     0.060 A 
BRANCH  94  95
ATOM     95  S   UNL A   1      38.995  36.110  41.115  1.00  0.00     0.124 S 
ATOM     96  O   UNL A   1      40.265  36.005  41.826  1.00  0.00    -0.237 OA
ATOM     97  O   UNL A   1      38.704  37.412  40.525  1.00  0.00    -0.237 OA
ATOM     98  O   UNL A   1      37.861  35.450  41.756  1.00  0.00    -0.744 OA
ENDBRANCH  94  95
ENDBRANCH  62  87
ENDBRANCH  36  37
ENDBRANCH  29  31
ENDBRANCH  28  29
ENDBRANCH  27  28
ENDBRANCH  26  27
ENDBRANCH  25  26
ENDBRANCH  24  25
ENDBRANCH   1  24
TORSDOF 23
ENDMDL
