MODEL 1
REMARK VINA RESULT:      -9.8      0.000      0.000
REMARK SMILES C[C@@H]1CC[C@@](C(=O)OCCOCCOCCOCCOC(=O)c2ccc(-c3c4nc(c(-c5c(F)cc(S(=O)(=O)[O-])cc5F)c5ccc([nH]5)c(-c5c(F)cc(S(=O)(=O)[O-])cc5F)c5nc(c(-c6c(F)cc(S(=O)(=O)[O-])cc6F)c6ccc3[nH]6)C=C5)C=C4)cc2)([C@@H]2CCC[C@H](S(C)(=O)=O)C2)C1
REMARK SMILES IDX 15 1 14 2 13 3 12 4 11 5 10 6 9 7 8 8 6 9 7 10 5 11 1 12
REMARK SMILES IDX 2 13 3 14 99 15 4 16 89 17 90 18 98 19 91 20 93 21 92 22
REMARK SMILES IDX 94 23 95 24 96 25 97 26 16 27 17 28 18 29 19 30 20 31 21 32
REMARK SMILES IDX 22 33 23 34 24 35 88 36 25 37 87 38 26 39 27 40 28 41 81 42
REMARK SMILES IDX 29 43 86 44 80 45 82 46 30 47 85 48 79 49 78 50 31 52 65 53
REMARK SMILES IDX 44 54 64 55 45 56 48 57 63 58 83 59 46 60 47 61 62 63 84 64
REMARK SMILES IDX 49 65 32 66 33 67 42 68 34 69 35 70 41 71 43 72 36 73 37 74
REMARK SMILES IDX 38 75 39 76 40 77 66 78 67 79 76 80 68 81 69 82 75 83 77 84
REMARK SMILES IDX 70 85 71 86 72 87 73 88 74 89 50 90 51 91 60 92 52 93 53 94
REMARK SMILES IDX 59 95 61 96 54 97 55 98 56 99 57 100 58 101
REMARK H PARENT 82 51 48 62
REMARK Flexibility Score: inf
ROOT
ATOM      1  C   UNL A   1      36.276  23.345  26.293  1.00  0.00     0.188 C 
ENDROOT
BRANCH   1   2
ATOM      2  O   UNL A   1      35.486  24.150  25.448  1.00  0.00    -0.377 OA
BRANCH   2   3
ATOM      3  C   UNL A   1      34.509  23.457  24.709  1.00  0.00     0.188 C 
BRANCH   3   4
ATOM      4  C   UNL A   1      34.842  23.027  23.277  1.00  0.00     0.188 C 
BRANCH   4   5
ATOM      5  O   UNL A   1      33.756  22.947  22.361  1.00  0.00    -0.376 OA
BRANCH   5   6
ATOM      6  C   UNL A   1      32.860  24.048  22.228  1.00  0.00     0.202 C 
BRANCH   6   7
ATOM      7  C   UNL A   1      33.381  25.473  21.960  1.00  0.00     0.261 C 
BRANCH   7   8
ATOM      8  O   UNL A   1      32.507  26.538  22.401  1.00  0.00    -0.463 OA
BRANCH   8   9
ATOM      9  C   UNL A   1      32.664  26.964  23.677  1.00  0.00     0.312 C 
ATOM     10  O   UNL A   1      33.760  27.026  24.227  1.00  0.00    -0.252 OA
BRANCH   9  11
ATOM     11  C   UNL A   1      31.341  27.293  24.429  1.00  0.00     0.071 C 
ATOM     12  C   UNL A   1      31.143  24.153  25.333  1.00  0.00     0.007 C 
ATOM     13  C   UNL A   1      30.614  25.455  25.945  1.00  0.00    -0.013 C 
ATOM     14  C   UNL A   1      29.399  25.954  25.189  1.00  0.00     0.004 C 
ATOM     15  C   UNL A   1      31.565  26.664  25.837  1.00  0.00     0.022 C 
ATOM     16  C   UNL A   1      30.010  26.630  23.964  1.00  0.00     0.019 C 
BRANCH  11  17
ATOM     17  C   UNL A   1      31.222  28.885  24.377  1.00  0.00     0.008 C 
ATOM     18  C   UNL A   1      31.337  29.618  25.721  1.00  0.00     0.005 C 
ATOM     19  C   UNL A   1      29.909  29.329  23.674  1.00  0.00     0.024 C 
ATOM     20  C   UNL A   1      31.229  31.134  25.525  1.00  0.00     0.002 C 
ATOM     21  C   UNL A   1      29.692  30.840  23.548  1.00  0.00     0.108 C 
ATOM     22  C   UNL A   1      29.902  31.537  24.888  1.00  0.00     0.020 C 
BRANCH  21  23
ATOM     23  S   UNL A   1      28.020  31.127  22.891  1.00  0.00     0.150 S 
ATOM     24  C   UNL A   1      28.089  30.591  21.199  1.00  0.00     0.158 C 
ATOM     25  O   UNL A   1      27.113  30.225  23.579  1.00  0.00    -0.229 OA
ATOM     26  O   UNL A   1      27.763  32.553  22.883  1.00  0.00    -0.229 OA
ENDBRANCH  21  23
ENDBRANCH  11  17
ENDBRANCH   9  11
ENDBRANCH   8   9
ENDBRANCH   7   8
ENDBRANCH   6   7
ENDBRANCH   5   6
ENDBRANCH   4   5
ENDBRANCH   3   4
ENDBRANCH   2   3
ENDBRANCH   1   2
BRANCH   1  27
ATOM     27  C   UNL A   1      37.775  23.564  26.074  1.00  0.00     0.188 C 
BRANCH  27  28
ATOM     28  O   UNL A   1      38.643  22.499  25.679  1.00  0.00    -0.376 OA
BRANCH  28  29
ATOM     29  C   UNL A   1      38.116  21.220  25.354  1.00  0.00     0.202 C 
BRANCH  29  30
ATOM     30  C   UNL A   1      39.145  20.079  25.460  1.00  0.00     0.261 C 
BRANCH  30  31
ATOM     31  O   UNL A   1      40.105  20.214  26.521  1.00  0.00    -0.460 OA
BRANCH  31  32
ATOM     32  C   UNL A   1      41.389  19.919  26.197  1.00  0.00     0.338 C 
ATOM     33  O   UNL A   1      41.812  18.885  25.704  1.00  0.00    -0.246 OA
BRANCH  32  34
ATOM     34  C   UNL A   1      42.228  21.122  26.402  1.00  0.00     0.060 A 
ATOM     35  C   UNL A   1      42.519  21.519  27.716  1.00  0.00     0.016 A 
ATOM     36  C   UNL A   1      42.741  21.842  25.320  1.00  0.00     0.016 A 
ATOM     37  C   UNL A   1      43.309  22.643  27.951  1.00  0.00     0.010 A 
ATOM     38  C   UNL A   1      43.497  22.995  25.557  1.00  0.00     0.010 A 
ATOM     39  C   UNL A   1      43.760  23.414  26.873  1.00  0.00    -0.014 A 
BRANCH  39  40
ATOM     40  C   UNL A   1      44.288  24.775  27.131  1.00  0.00     0.031 A 
ATOM     41  C   UNL A   1      43.316  25.824  27.600  1.00  0.00     0.074 A 
ATOM     42  C   UNL A   1      45.592  25.072  26.973  1.00  0.00     0.049 A 
ATOM     43  N   UNL A   1      43.519  27.088  27.858  1.00  0.00    -0.248 NA
ATOM     44  C   UNL A   1      41.924  25.383  27.806  1.00  0.00     0.031 C 
ATOM     45  C   UNL A   1      46.631  24.132  26.555  1.00  0.00     0.029 A 
ATOM     46  N   UNL A   1      46.259  26.261  27.133  1.00  0.00    -0.354 N 
ATOM     47  C   UNL A   1      42.284  27.595  28.244  1.00  0.00     0.074 A 
ATOM     48  C   UNL A   1      41.333  26.509  28.177  1.00  0.00     0.031 C 
ATOM     49  C   UNL A   1      47.801  24.791  26.462  1.00  0.00     0.029 A 
ATOM     50  C   UNL A   1      47.589  26.200  26.790  1.00  0.00     0.049 A 
ATOM     51  H   UNL A   1      45.826  27.082  27.464  1.00  0.00     0.167 HD
ATOM     52  C   UNL A   1      41.972  28.856  28.619  1.00  0.00     0.037 A 
ATOM     53  C   UNL A   1      48.516  27.178  26.721  1.00  0.00     0.037 A 
ATOM     54  C   UNL A   1      42.922  29.932  28.692  1.00  0.00     0.049 A 
ATOM     55  C   UNL A   1      48.130  28.588  27.102  1.00  0.00     0.074 A 
ATOM     56  C   UNL A   1      42.712  31.236  29.102  1.00  0.00     0.029 A 
ATOM     57  N   UNL A   1      44.257  29.832  28.333  1.00  0.00    -0.354 N 
ATOM     58  N   UNL A   1      46.970  29.042  27.517  1.00  0.00    -0.248 NA
ATOM     59  C   UNL A   1      49.176  29.617  27.010  1.00  0.00     0.031 C 
ATOM     60  C   UNL A   1      43.910  31.939  28.941  1.00  0.00     0.029 A 
ATOM     61  C   UNL A   1      44.877  31.060  28.482  1.00  0.00     0.049 A 
ATOM     62  H   UNL A   1      44.699  29.010  28.018  1.00  0.00     0.167 HD
ATOM     63  C   UNL A   1      47.157  30.401  27.760  1.00  0.00     0.074 A 
ATOM     64  C   UNL A   1      48.542  30.691  27.459  1.00  0.00     0.031 C 
ATOM     65  C   UNL A   1      46.264  31.325  28.192  1.00  0.00     0.037 A 
BRANCH  52  66
ATOM     66  C   UNL A   1      40.540  29.156  28.954  1.00  0.00     0.058 A 
ATOM     67  C   UNL A   1      40.092  29.246  30.281  1.00  0.00     0.135 A 
ATOM     68  C   UNL A   1      39.619  29.425  27.928  1.00  0.00     0.135 A 
ATOM     69  F   UNL A   1      40.925  28.973  31.296  1.00  0.00    -0.206 F 
ATOM     70  C   UNL A   1      38.779  29.595  30.579  1.00  0.00     0.059 A 
ATOM     71  C   UNL A   1      38.308  29.796  28.205  1.00  0.00     0.059 A 
ATOM     72  F   UNL A   1      39.996  29.339  26.643  1.00  0.00    -0.206 F 
ATOM     73  C   UNL A   1      37.896  29.877  29.535  1.00  0.00     0.060 A 
BRANCH  73  74
ATOM     74  S   UNL A   1      36.212  30.384  29.939  1.00  0.00     0.124 S 
ATOM     75  O   UNL A   1      36.002  29.711  31.217  1.00  0.00    -0.237 OA
ATOM     76  O   UNL A   1      36.333  31.838  30.002  1.00  0.00    -0.237 OA
ATOM     77  O   UNL A   1      35.424  29.871  28.822  1.00  0.00    -0.744 OA
ENDBRANCH  73  74
ENDBRANCH  52  66
BRANCH  53  78
ATOM     78  C   UNL A   1      49.891  26.881  26.231  1.00  0.00     0.058 A 
ATOM     79  C   UNL A   1      50.251  27.074  24.889  1.00  0.00     0.135 A 
ATOM     80  C   UNL A   1      50.862  26.349  27.094  1.00  0.00     0.135 A 
ATOM     81  F   UNL A   1      49.357  27.568  24.020  1.00  0.00    -0.206 F 
ATOM     82  C   UNL A   1      51.511  26.725  24.413  1.00  0.00     0.059 A 
ATOM     83  C   UNL A   1      52.138  26.017  26.649  1.00  0.00     0.059 A 
ATOM     84  F   UNL A   1      50.575  26.152  28.391  1.00  0.00    -0.206 F 
ATOM     85  C   UNL A   1      52.448  26.192  25.302  1.00  0.00     0.060 A 
BRANCH  85  86
ATOM     86  S   UNL A   1      54.088  25.755  24.682  1.00  0.00     0.124 S 
ATOM     87  O   UNL A   1      54.184  24.354  25.071  1.00  0.00    -0.237 OA
ATOM     88  O   UNL A   1      53.954  26.015  23.251  1.00  0.00    -0.237 OA
ATOM     89  O   UNL A   1      54.970  26.673  25.396  1.00  0.00    -0.744 OA
ENDBRANCH  85  86
ENDBRANCH  53  78
BRANCH  65  90
ATOM     90  C   UNL A   1      46.758  32.730  28.404  1.00  0.00     0.058 A 
ATOM     91  C   UNL A   1      46.625  33.717  27.417  1.00  0.00     0.135 A 
ATOM     92  C   UNL A   1      47.307  33.107  29.641  1.00  0.00     0.135 A 
ATOM     93  F   UNL A   1      46.110  33.407  26.217  1.00  0.00    -0.206 F 
ATOM     94  C   UNL A   1      47.039  35.027  27.640  1.00  0.00     0.059 A 
ATOM     95  C   UNL A   1      47.702  34.416  29.896  1.00  0.00     0.059 A 
ATOM     96  F   UNL A   1      47.443  32.204  30.625  1.00  0.00    -0.206 F 
ATOM     97  C   UNL A   1      47.574  35.367  28.884  1.00  0.00     0.060 A 
BRANCH  97  98
ATOM     98  S   UNL A   1      48.074  37.077  29.174  1.00  0.00     0.124 S 
ATOM     99  O   UNL A   1      47.240  37.794  28.215  1.00  0.00    -0.237 OA
ATOM    100  O   UNL A   1      47.732  37.270  30.580  1.00  0.00    -0.237 OA
ATOM    101  O   UNL A   1      49.504  37.068  28.879  1.00  0.00    -0.744 OA
ENDBRANCH  97  98
ENDBRANCH  65  90
ENDBRANCH  39  40
ENDBRANCH  32  34
ENDBRANCH  31  32
ENDBRANCH  30  31
ENDBRANCH  29  30
ENDBRANCH  28  29
ENDBRANCH  27  28
ENDBRANCH   1  27
TORSDOF 25
ENDMDL
MODEL 2
REMARK VINA RESULT:      -9.7      2.502      8.852
REMARK SMILES C[C@@H]1CC[C@@](C(=O)OCCOCCOCCOCCOC(=O)c2ccc(-c3c4nc(c(-c5c(F)cc(S(=O)(=O)[O-])cc5F)c5ccc([nH]5)c(-c5c(F)cc(S(=O)(=O)[O-])cc5F)c5nc(c(-c6c(F)cc(S(=O)(=O)[O-])cc6F)c6ccc3[nH]6)C=C5)C=C4)cc2)([C@@H]2CCC[C@H](S(C)(=O)=O)C2)C1
REMARK SMILES IDX 15 1 14 2 13 3 12 4 11 5 10 6 9 7 8 8 6 9 7 10 5 11 1 12
REMARK SMILES IDX 2 13 3 14 99 15 4 16 89 17 90 18 98 19 91 20 93 21 92 22
REMARK SMILES IDX 94 23 95 24 96 25 97 26 16 27 17 28 18 29 19 30 20 31 21 32
REMARK SMILES IDX 22 33 23 34 24 35 88 36 25 37 87 38 26 39 27 40 28 41 81 42
REMARK SMILES IDX 29 43 86 44 80 45 82 46 30 47 85 48 79 49 78 50 31 52 65 53
REMARK SMILES IDX 44 54 64 55 45 56 48 57 63 58 83 59 46 60 47 61 62 63 84 64
REMARK SMILES IDX 49 65 32 66 33 67 42 68 34 69 35 70 41 71 43 72 36 73 37 74
REMARK SMILES IDX 38 75 39 76 40 77 66 78 67 79 76 80 68 81 69 82 75 83 77 84
REMARK SMILES IDX 70 85 71 86 72 87 73 88 74 89 50 90 51 91 60 92 52 93 53 94
REMARK SMILES IDX 59 95 61 96 54 97 55 98 56 99 57 100 58 101
REMARK H PARENT 82 51 48 62
REMARK Flexibility Score: inf
ROOT
ATOM      1  C   UNL A   1      33.508  31.771  27.740  1.00  0.00     0.188 C 
ENDROOT
BRANCH   1   2
ATOM      2  O   UNL A   1      32.895  30.835  26.884  1.00  0.00    -0.377 OA
BRANCH   2   3
ATOM      3  C   UNL A   1      33.646  29.669  26.643  1.00  0.00     0.188 C 
BRANCH   3   4
ATOM      4  C   UNL A   1      33.230  28.757  25.484  1.00  0.00     0.188 C 
BRANCH   4   5
ATOM      5  O   UNL A   1      34.084  28.736  24.346  1.00  0.00    -0.376 OA
BRANCH   5   6
ATOM      6  C   UNL A   1      33.523  28.598  23.043  1.00  0.00     0.202 C 
BRANCH   6   7
ATOM      7  C   UNL A   1      33.639  27.276  22.260  1.00  0.00     0.261 C 
BRANCH   7   8
ATOM      8  O   UNL A   1      33.660  26.081  23.073  1.00  0.00    -0.463 OA
BRANCH   8   9
ATOM      9  C   UNL A   1      32.816  25.084  22.712  1.00  0.00     0.312 C 
ATOM     10  O   UNL A   1      32.693  24.706  21.550  1.00  0.00    -0.252 OA
BRANCH   9  11
ATOM     11  C   UNL A   1      31.947  24.505  23.867  1.00  0.00     0.071 C 
ATOM     12  C   UNL A   1      30.213  27.282  23.874  1.00  0.00     0.007 C 
ATOM     13  C   UNL A   1      29.885  25.840  24.281  1.00  0.00    -0.013 C 
ATOM     14  C   UNL A   1      30.507  25.502  25.621  1.00  0.00     0.004 C 
ATOM     15  C   UNL A   1      30.489  24.750  23.373  1.00  0.00     0.022 C 
ATOM     16  C   UNL A   1      31.960  25.203  25.260  1.00  0.00     0.019 C 
BRANCH  11  17
ATOM     17  C   UNL A   1      32.401  22.980  24.000  1.00  0.00     0.008 C 
ATOM     18  C   UNL A   1      31.625  22.127  25.013  1.00  0.00     0.005 C 
ATOM     19  C   UNL A   1      33.921  22.871  24.310  1.00  0.00     0.024 C 
ATOM     20  C   UNL A   1      32.147  20.687  25.024  1.00  0.00     0.002 C 
ATOM     21  C   UNL A   1      34.478  21.451  24.443  1.00  0.00     0.108 C 
ATOM     22  C   UNL A   1      33.627  20.614  25.391  1.00  0.00     0.020 C 
BRANCH  21  23
ATOM     23  S   UNL A   1      36.205  21.563  25.005  1.00  0.00     0.150 S 
ATOM     24  C   UNL A   1      37.035  22.526  23.766  1.00  0.00     0.158 C 
ATOM     25  O   UNL A   1      36.223  22.347  26.227  1.00  0.00    -0.229 OA
ATOM     26  O   UNL A   1      36.787  20.235  24.983  1.00  0.00    -0.229 OA
ENDBRANCH  21  23
ENDBRANCH  11  17
ENDBRANCH   9  11
ENDBRANCH   8   9
ENDBRANCH   7   8
ENDBRANCH   6   7
ENDBRANCH   5   6
ENDBRANCH   4   5
ENDBRANCH   3   4
ENDBRANCH   2   3
ENDBRANCH   1   2
BRANCH   1  27
ATOM     27  C   UNL A   1      35.035  31.659  27.732  1.00  0.00     0.188 C 
BRANCH  27  28
ATOM     28  O   UNL A   1      35.869  32.669  28.304  1.00  0.00    -0.376 OA
BRANCH  28  29
ATOM     29  C   UNL A   1      35.370  33.527  29.321  1.00  0.00     0.202 C 
BRANCH  29  30
ATOM     30  C   UNL A   1      35.732  33.074  30.748  1.00  0.00     0.261 C 
BRANCH  30  31
ATOM     31  O   UNL A   1      37.057  32.539  30.906  1.00  0.00    -0.460 OA
BRANCH  31  32
ATOM     32  C   UNL A   1      37.127  31.235  31.269  1.00  0.00     0.338 C 
ATOM     33  O   UNL A   1      36.311  30.599  31.919  1.00  0.00    -0.246 OA
BRANCH  32  34
ATOM     34  C   UNL A   1      38.312  30.617  30.631  1.00  0.00     0.060 A 
ATOM     35  C   UNL A   1      39.358  30.171  31.452  1.00  0.00     0.016 A 
ATOM     36  C   UNL A   1      38.391  30.461  29.245  1.00  0.00     0.016 A 
ATOM     37  C   UNL A   1      40.489  29.581  30.891  1.00  0.00     0.010 A 
ATOM     38  C   UNL A   1      39.545  29.909  28.679  1.00  0.00     0.010 A 
ATOM     39  C   UNL A   1      40.610  29.493  29.498  1.00  0.00    -0.014 A 
BRANCH  39  40
ATOM     40  C   UNL A   1      41.936  29.196  28.906  1.00  0.00     0.031 A 
ATOM     41  C   UNL A   1      42.189  27.791  28.431  1.00  0.00     0.074 A 
ATOM     42  C   UNL A   1      42.882  30.144  28.775  1.00  0.00     0.049 A 
ATOM     43  N   UNL A   1      43.271  27.272  27.914  1.00  0.00    -0.248 NA
ATOM     44  C   UNL A   1      41.067  26.842  28.558  1.00  0.00     0.031 C 
ATOM     45  C   UNL A   1      42.739  31.545  29.168  1.00  0.00     0.029 A 
ATOM     46  N   UNL A   1      44.162  30.063  28.284  1.00  0.00    -0.354 N 
ATOM     47  C   UNL A   1      42.965  25.939  27.665  1.00  0.00     0.074 A 
ATOM     48  C   UNL A   1      41.603  25.723  28.096  1.00  0.00     0.031 C 
ATOM     49  C   UNL A   1      43.900  32.185  28.932  1.00  0.00     0.029 A 
ATOM     50  C   UNL A   1      44.872  31.234  28.393  1.00  0.00     0.049 A 
ATOM     51  H   UNL A   1      44.536  29.240  27.890  1.00  0.00     0.167 HD
ATOM     52  C   UNL A   1      43.752  24.982  27.126  1.00  0.00     0.037 A 
ATOM     53  C   UNL A   1      46.168  31.496  28.117  1.00  0.00     0.037 A 
ATOM     54  C   UNL A   1      45.104  25.203  26.691  1.00  0.00     0.049 A 
ATOM     55  C   UNL A   1      47.038  30.396  27.558  1.00  0.00     0.074 A 
ATOM     56  C   UNL A   1      45.970  24.307  26.091  1.00  0.00     0.029 A 
ATOM     57  N   UNL A   1      45.790  26.401  26.821  1.00  0.00    -0.354 N 
ATOM     58  N   UNL A   1      46.720  29.153  27.277  1.00  0.00    -0.248 NA
ATOM     59  C   UNL A   1      48.441  30.732  27.273  1.00  0.00     0.031 C 
ATOM     60  C   UNL A   1      47.199  24.948  25.908  1.00  0.00     0.029 A 
ATOM     61  C   UNL A   1      47.081  26.258  26.343  1.00  0.00     0.049 A 
ATOM     62  H   UNL A   1      45.415  27.230  27.199  1.00  0.00     0.167 HD
ATOM     63  C   UNL A   1      47.875  28.571  26.761  1.00  0.00     0.074 A 
ATOM     64  C   UNL A   1      48.893  29.598  26.754  1.00  0.00     0.031 C 
ATOM     65  C   UNL A   1      48.075  27.301  26.330  1.00  0.00     0.037 A 
BRANCH  52  66
ATOM     66  C   UNL A   1      43.189  23.597  26.999  1.00  0.00     0.058 A 
ATOM     67  C   UNL A   1      43.074  22.738  28.103  1.00  0.00     0.135 A 
ATOM     68  C   UNL A   1      42.692  23.150  25.763  1.00  0.00     0.135 A 
ATOM     69  F   UNL A   1      43.557  23.107  29.300  1.00  0.00    -0.206 F 
ATOM     70  C   UNL A   1      42.485  21.484  27.987  1.00  0.00     0.059 A 
ATOM     71  C   UNL A   1      42.079  21.909  25.630  1.00  0.00     0.059 A 
ATOM     72  F   UNL A   1      42.790  23.929  24.675  1.00  0.00    -0.206 F 
ATOM     73  C   UNL A   1      41.982  21.082  26.748  1.00  0.00     0.060 A 
BRANCH  73  74
ATOM     74  S   UNL A   1      41.167  19.475  26.626  1.00  0.00     0.124 S 
ATOM     75  O   UNL A   1      40.050  19.780  25.737  1.00  0.00    -0.237 OA
ATOM     76  O   UNL A   1      42.218  18.637  26.058  1.00  0.00    -0.237 OA
ATOM     77  O   UNL A   1      40.805  19.171  28.007  1.00  0.00    -0.744 OA
ENDBRANCH  73  74
ENDBRANCH  52  66
BRANCH  53  78
ATOM     78  C   UNL A   1      46.743  32.839  28.403  1.00  0.00     0.058 A 
ATOM     79  C   UNL A   1      47.132  33.211  29.698  1.00  0.00     0.135 A 
ATOM     80  C   UNL A   1      46.870  33.798  27.386  1.00  0.00     0.135 A 
ATOM     81  F   UNL A   1      47.020  32.337  30.709  1.00  0.00    -0.206 F 
ATOM     82  C   UNL A   1      47.598  34.492  29.982  1.00  0.00     0.059 A 
ATOM     83  C   UNL A   1      47.358  35.076  27.638  1.00  0.00     0.059 A 
ATOM     84  F   UNL A   1      46.521  33.493  26.125  1.00  0.00    -0.206 F 
ATOM     85  C   UNL A   1      47.703  35.420  28.944  1.00  0.00     0.060 A 
BRANCH  85  86
ATOM     86  S   UNL A   1      48.324  37.076  29.314  1.00  0.00     0.124 S 
ATOM     87  O   UNL A   1      48.439  37.029  30.766  1.00  0.00    -0.237 OA
ATOM     88  O   UNL A   1      49.582  37.105  28.572  1.00  0.00    -0.237 OA
ATOM     89  O   UNL A   1      47.278  37.950  28.790  1.00  0.00    -0.744 OA
ENDBRANCH  85  86
ENDBRANCH  53  78
BRANCH  65  90
ATOM     90  C   UNL A   1      49.432  26.954  25.780  1.00  0.00     0.058 A 
ATOM     91  C   UNL A   1      49.761  27.172  24.434  1.00  0.00     0.135 A 
ATOM     92  C   UNL A   1      50.436  26.463  26.631  1.00  0.00     0.135 A 
ATOM     93  F   UNL A   1      48.836  27.636  23.579  1.00  0.00    -0.206 F 
ATOM     94  C   UNL A   1      51.033  26.895  23.944  1.00  0.00     0.059 A 
ATOM     95  C   UNL A   1      51.723  26.206  26.169  1.00  0.00     0.059 A 
ATOM     96  F   UNL A   1      50.177  26.250  27.931  1.00  0.00    -0.206 F 
ATOM     97  C   UNL A   1      52.008  26.415  24.820  1.00  0.00     0.060 A 
BRANCH  97  98
ATOM     98  S   UNL A   1      53.666  26.095  24.181  1.00  0.00     0.124 S 
ATOM     99  O   UNL A   1      53.407  25.947  22.753  1.00  0.00    -0.237 OA
ATOM    100  O   UNL A   1      54.391  27.300  24.572  1.00  0.00    -0.237 OA
ATOM    101  O   UNL A   1      54.069  24.876  24.875  1.00  0.00    -0.744 OA
ENDBRANCH  97  98
ENDBRANCH  65  90
ENDBRANCH  39  40
ENDBRANCH  32  34
ENDBRANCH  31  32
ENDBRANCH  30  31
ENDBRANCH  29  30
ENDBRANCH  28  29
ENDBRANCH  27  28
ENDBRANCH   1  27
TORSDOF 25
ENDMDL
MODEL 3
REMARK VINA RESULT:      -9.5      0.925      8.063
REMARK SMILES C[C@@H]1CC[C@@](C(=O)OCCOCCOCCOCCOC(=O)c2ccc(-c3c4nc(c(-c5c(F)cc(S(=O)(=O)[O-])cc5F)c5ccc([nH]5)c(-c5c(F)cc(S(=O)(=O)[O-])cc5F)c5nc(c(-c6c(F)cc(S(=O)(=O)[O-])cc6F)c6ccc3[nH]6)C=C5)C=C4)cc2)([C@@H]2CCC[C@H](S(C)(=O)=O)C2)C1
REMARK SMILES IDX 15 1 14 2 13 3 12 4 11 5 10 6 9 7 8 8 6 9 7 10 5 11 1 12
REMARK SMILES IDX 2 13 3 14 99 15 4 16 89 17 90 18 98 19 91 20 93 21 92 22
REMARK SMILES IDX 94 23 95 24 96 25 97 26 16 27 17 28 18 29 19 30 20 31 21 32
REMARK SMILES IDX 22 33 23 34 24 35 88 36 25 37 87 38 26 39 27 40 28 41 81 42
REMARK SMILES IDX 29 43 86 44 80 45 82 46 30 47 85 48 79 49 78 50 31 52 65 53
REMARK SMILES IDX 44 54 64 55 45 56 48 57 63 58 83 59 46 60 47 61 62 63 84 64
REMARK SMILES IDX 49 65 32 66 33 67 42 68 34 69 35 70 41 71 43 72 36 73 37 74
REMARK SMILES IDX 38 75 39 76 40 77 66 78 67 79 76 80 68 81 69 82 75 83 77 84
REMARK SMILES IDX 70 85 71 86 72 87 73 88 74 89 50 90 51 91 60 92 52 93 53 94
REMARK SMILES IDX 59 95 61 96 54 97 55 98 56 99 57 100 58 101
REMARK H PARENT 82 51 48 62
REMARK Flexibility Score: inf
ROOT
ATOM      1  C   UNL A   1      36.284  23.220  26.439  1.00  0.00     0.188 C 
ENDROOT
BRANCH   1   2
ATOM      2  O   UNL A   1      35.572  23.596  25.284  1.00  0.00    -0.377 OA
BRANCH   2   3
ATOM      3  C   UNL A   1      34.370  22.894  25.070  1.00  0.00     0.188 C 
BRANCH   3   4
ATOM      4  C   UNL A   1      34.444  21.465  24.524  1.00  0.00     0.188 C 
BRANCH   4   5
ATOM      5  O   UNL A   1      33.274  20.959  23.891  1.00  0.00    -0.376 OA
BRANCH   5   6
ATOM      6  C   UNL A   1      32.139  21.803  23.724  1.00  0.00     0.202 C 
BRANCH   6   7
ATOM      7  C   UNL A   1      32.130  22.930  22.674  1.00  0.00     0.261 C 
BRANCH   7   8
ATOM      8  O   UNL A   1      31.290  24.063  22.996  1.00  0.00    -0.463 OA
BRANCH   8   9
ATOM      9  C   UNL A   1      31.902  25.137  23.549  1.00  0.00     0.312 C 
ATOM     10  O   UNL A   1      33.057  25.456  23.277  1.00  0.00    -0.252 OA
BRANCH   9  11
ATOM     11  C   UNL A   1      31.065  25.896  24.620  1.00  0.00     0.071 C 
ATOM     12  C   UNL A   1      30.854  23.116  26.336  1.00  0.00     0.007 C 
ATOM     13  C   UNL A   1      30.800  24.597  26.729  1.00  0.00    -0.013 C 
ATOM     14  C   UNL A   1      29.457  25.202  26.373  1.00  0.00     0.004 C 
ATOM     15  C   UNL A   1      31.769  25.515  25.957  1.00  0.00     0.022 C 
ATOM     16  C   UNL A   1      29.588  25.473  24.877  1.00  0.00     0.019 C 
BRANCH  11  17
ATOM     17  C   UNL A   1      31.143  27.432  24.192  1.00  0.00     0.008 C 
ATOM     18  C   UNL A   1      31.514  28.426  25.301  1.00  0.00     0.005 C 
ATOM     19  C   UNL A   1      29.820  27.897  23.522  1.00  0.00     0.024 C 
ATOM     20  C   UNL A   1      31.574  29.856  24.751  1.00  0.00     0.002 C 
ATOM     21  C   UNL A   1      29.782  29.354  23.051  1.00  0.00     0.108 C 
ATOM     22  C   UNL A   1      30.241  30.299  24.156  1.00  0.00     0.020 C 
BRANCH  21  23
ATOM     23  S   UNL A   1      28.091  29.734  22.496  1.00  0.00     0.150 S 
ATOM     24  C   UNL A   1      27.674  31.265  23.292  1.00  0.00     0.158 C 
ATOM     25  O   UNL A   1      28.144  30.004  21.070  1.00  0.00    -0.229 OA
ATOM     26  O   UNL A   1      27.194  28.719  23.012  1.00  0.00    -0.229 OA
ENDBRANCH  21  23
ENDBRANCH  11  17
ENDBRANCH   9  11
ENDBRANCH   8   9
ENDBRANCH   7   8
ENDBRANCH   6   7
ENDBRANCH   5   6
ENDBRANCH   4   5
ENDBRANCH   3   4
ENDBRANCH   2   3
ENDBRANCH   1   2
BRANCH   1  27
ATOM     27  C   UNL A   1      37.790  23.465  26.303  1.00  0.00     0.188 C 
BRANCH  27  28
ATOM     28  O   UNL A   1      38.695  22.421  25.936  1.00  0.00    -0.376 OA
BRANCH  28  29
ATOM     29  C   UNL A   1      38.207  21.138  25.569  1.00  0.00     0.202 C 
BRANCH  29  30
ATOM     30  C   UNL A   1      39.314  20.087  25.369  1.00  0.00     0.261 C 
BRANCH  30  31
ATOM     31  O   UNL A   1      40.175  19.877  26.501  1.00  0.00    -0.460 OA
BRANCH  31  32
ATOM     32  C   UNL A   1      41.487  19.681  26.217  1.00  0.00     0.338 C 
ATOM     33  O   UNL A   1      42.007  18.673  25.766  1.00  0.00    -0.246 OA
BRANCH  32  34
ATOM     34  C   UNL A   1      42.218  20.954  26.407  1.00  0.00     0.060 A 
ATOM     35  C   UNL A   1      42.341  21.467  27.707  1.00  0.00     0.016 A 
ATOM     36  C   UNL A   1      42.793  21.629  25.327  1.00  0.00     0.016 A 
ATOM     37  C   UNL A   1      43.026  22.661  27.929  1.00  0.00     0.010 A 
ATOM     38  C   UNL A   1      43.442  22.850  25.544  1.00  0.00     0.010 A 
ATOM     39  C   UNL A   1      43.536  23.383  26.842  1.00  0.00    -0.014 A 
BRANCH  39  40
ATOM     40  C   UNL A   1      43.943  24.795  27.041  1.00  0.00     0.031 A 
ATOM     41  C   UNL A   1      45.388  25.144  26.806  1.00  0.00     0.074 A 
ATOM     42  C   UNL A   1      43.059  25.744  27.401  1.00  0.00     0.049 A 
ATOM     43  N   UNL A   1      45.997  26.291  26.946  1.00  0.00    -0.248 NA
ATOM     44  C   UNL A   1      46.262  24.049  26.350  1.00  0.00     0.031 C 
ATOM     45  C   UNL A   1      41.630  25.530  27.625  1.00  0.00     0.029 A 
ATOM     46  N   UNL A   1      43.242  27.080  27.656  1.00  0.00    -0.354 N 
ATOM     47  C   UNL A   1      47.325  26.053  26.608  1.00  0.00     0.074 A 
ATOM     48  C   UNL A   1      47.437  24.654  26.267  1.00  0.00     0.031 C 
ATOM     49  C   UNL A   1      41.072  26.692  28.016  1.00  0.00     0.029 A 
ATOM     50  C   UNL A   1      42.107  27.722  28.091  1.00  0.00     0.049 A 
ATOM     51  H   UNL A   1      44.107  27.537  27.538  1.00  0.00     0.167 HD
ATOM     52  C   UNL A   1      48.357  26.926  26.587  1.00  0.00     0.037 A 
ATOM     53  C   UNL A   1      41.936  28.987  28.529  1.00  0.00     0.037 A 
ATOM     54  C   UNL A   1      48.238  28.320  26.919  1.00  0.00     0.049 A 
ATOM     55  C   UNL A   1      43.116  29.930  28.537  1.00  0.00     0.074 A 
ATOM     56  C   UNL A   1      49.218  29.296  26.886  1.00  0.00     0.029 A 
ATOM     57  N   UNL A   1      47.074  28.931  27.359  1.00  0.00    -0.354 N 
ATOM     58  N   UNL A   1      44.354  29.706  28.164  1.00  0.00    -0.248 NA
ATOM     59  C   UNL A   1      42.876  31.297  29.022  1.00  0.00     0.031 C 
ATOM     60  C   UNL A   1      48.658  30.487  27.358  1.00  0.00     0.029 A 
ATOM     61  C   UNL A   1      47.318  30.265  27.632  1.00  0.00     0.049 A 
ATOM     62  H   UNL A   1      46.204  28.482  27.462  1.00  0.00     0.167 HD
ATOM     63  C   UNL A   1      45.032  30.909  28.344  1.00  0.00     0.074 A 
ATOM     64  C   UNL A   1      44.064  31.861  28.846  1.00  0.00     0.031 C 
ATOM     65  C   UNL A   1      46.336  31.201  28.116  1.00  0.00     0.037 A 
BRANCH  52  66
ATOM     66  C   UNL A   1      49.714  26.402  26.219  1.00  0.00     0.058 A 
ATOM     67  C   UNL A   1      50.243  26.553  24.928  1.00  0.00     0.135 A 
ATOM     68  C   UNL A   1      50.523  25.798  27.195  1.00  0.00     0.135 A 
ATOM     69  F   UNL A   1      49.501  27.100  23.953  1.00  0.00    -0.206 F 
ATOM     70  C   UNL A   1      51.530  26.127  24.618  1.00  0.00     0.059 A 
ATOM     71  C   UNL A   1      51.820  25.384  26.913  1.00  0.00     0.059 A 
ATOM     72  F   UNL A   1      50.057  25.618  28.441  1.00  0.00    -0.206 F 
ATOM     73  C   UNL A   1      52.314  25.551  25.620  1.00  0.00     0.060 A 
BRANCH  73  74
ATOM     74  S   UNL A   1      54.003  25.055  25.218  1.00  0.00     0.124 S 
ATOM     75  O   UNL A   1      54.271  25.865  24.033  1.00  0.00    -0.237 OA
ATOM     76  O   UNL A   1      54.733  25.434  26.424  1.00  0.00    -0.237 OA
ATOM     77  O   UNL A   1      53.889  23.619  24.983  1.00  0.00    -0.744 OA
ENDBRANCH  73  74
ENDBRANCH  52  66
BRANCH  53  78
ATOM     78  C   UNL A   1      40.611  29.436  29.039  1.00  0.00     0.058 A 
ATOM     79  C   UNL A   1      40.368  29.596  30.411  1.00  0.00     0.135 A 
ATOM     80  C   UNL A   1      39.542  29.668  28.159  1.00  0.00     0.135 A 
ATOM     81  F   UNL A   1      41.351  29.375  31.297  1.00  0.00    -0.206 F 
ATOM     82  C   UNL A   1      39.108  29.940  30.896  1.00  0.00     0.059 A 
ATOM     83  C   UNL A   1      38.281  30.039  28.615  1.00  0.00     0.059 A 
ATOM     84  F   UNL A   1      39.720  29.538  26.834  1.00  0.00    -0.206 F 
ATOM     85  C   UNL A   1      38.069  30.155  29.988  1.00  0.00     0.060 A 
BRANCH  85  86
ATOM     86  S   UNL A   1      36.441  30.618  30.620  1.00  0.00     0.124 S 
ATOM     87  O   UNL A   1      36.733  31.880  31.286  1.00  0.00    -0.237 OA
ATOM     88  O   UNL A   1      35.651  30.708  29.395  1.00  0.00    -0.237 OA
ATOM     89  O   UNL A   1      36.094  29.504  31.498  1.00  0.00    -0.744 OA
ENDBRANCH  85  86
ENDBRANCH  53  78
BRANCH  65  90
ATOM     90  C   UNL A   1      46.791  32.612  28.367  1.00  0.00     0.058 A 
ATOM     91  C   UNL A   1      47.270  33.022  29.620  1.00  0.00     0.135 A 
ATOM     92  C   UNL A   1      46.813  33.546  27.318  1.00  0.00     0.135 A 
ATOM     93  F   UNL A   1      47.267  32.170  30.657  1.00  0.00    -0.206 F 
ATOM     94  C   UNL A   1      47.736  34.316  29.831  1.00  0.00     0.059 A 
ATOM     95  C   UNL A   1      47.301  34.837  27.499  1.00  0.00     0.059 A 
ATOM     96  F   UNL A   1      46.379  33.201  26.095  1.00  0.00    -0.206 F 
ATOM     97  C   UNL A   1      47.750  35.215  28.763  1.00  0.00     0.060 A 
BRANCH  97  98
ATOM     98  S   UNL A   1      48.391  36.880  29.040  1.00  0.00     0.124 S 
ATOM     99  O   UNL A   1      47.257  37.703  28.636  1.00  0.00    -0.237 OA
ATOM    100  O   UNL A   1      48.688  36.868  30.469  1.00  0.00    -0.237 OA
ATOM    101  O   UNL A   1      49.558  36.945  28.165  1.00  0.00    -0.744 OA
ENDBRANCH  97  98
ENDBRANCH  65  90
ENDBRANCH  39  40
ENDBRANCH  32  34
ENDBRANCH  31  32
ENDBRANCH  30  31
ENDBRANCH  29  30
ENDBRANCH  28  29
ENDBRANCH  27  28
ENDBRANCH   1  27
TORSDOF 25
ENDMDL
