MODEL 1
REMARK VINA RESULT:      -7.4      0.000      0.000
REMARK SMILES CCOc1cc(/C=C2/SC(=S)N([C@H](CC)C(=O)OCCOCCOCCOCCOC(=O)c3ccc(-c4c5nc(c(-c6c(F)cc(S(=O)(=O)[O-])cc6F)c6ccc([nH]6)c(-c6c(F)cc(S(=O)(=O)[O-])cc6F)c6nc(c(-c7c(F)cc(S(=O)(=O)[O-])cc7F)c7ccc4[nH]7)C=C6)C=C5)cc3)C2=O)ccc1O
REMARK SMILES IDX 23 1 22 2 21 3 20 4 19 5 18 6 16 7 17 8 13 9 12 10 7 11 8 12
REMARK SMILES IDX 9 13 99 14 10 15 100 16 11 17 6 18 4 19 5 20 103 21 102 22
REMARK SMILES IDX 101 23 3 24 2 25 1 26 104 27 14 29 15 30 24 31 25 32 26 33
REMARK SMILES IDX 27 34 28 35 29 36 30 37 31 38 32 39 33 40 34 41 98 42 35 43
REMARK SMILES IDX 97 44 36 45 37 46 38 47 91 48 39 49 96 50 90 51 92 52 40 53
REMARK SMILES IDX 95 54 89 55 88 56 41 58 75 59 54 60 74 61 55 62 58 63 73 64
REMARK SMILES IDX 93 65 56 66 57 67 72 69 94 70 59 71 42 72 43 73 52 74 44 75
REMARK SMILES IDX 45 76 51 77 53 78 46 79 47 80 48 81 49 82 50 83 76 84 77 85
REMARK SMILES IDX 86 86 78 87 79 88 85 89 87 90 80 91 81 92 82 93 83 94 84 95
REMARK SMILES IDX 60 96 61 97 70 98 62 99 63 100 69 101 71 102 64 103 65 104
REMARK SMILES IDX 66 105 67 106 68 107
REMARK H PARENT 104 28 92 57 58 68
REMARK Flexibility Score: inf
ROOT
ATOM      1  C   UNL A   1      38.846  27.860  28.834  1.00  0.00     0.188 C 
ENDROOT
BRANCH   1   2
ATOM      2  C   UNL A   1      38.439  29.103  28.027  1.00  0.00     0.188 C 
BRANCH   2   3
ATOM      3  O   UNL A   1      37.377  29.962  28.405  1.00  0.00    -0.376 OA
BRANCH   3   4
ATOM      4  C   UNL A   1      36.375  30.450  27.537  1.00  0.00     0.202 C 
BRANCH   4   5
ATOM      5  C   UNL A   1      35.017  29.771  27.314  1.00  0.00     0.261 C 
BRANCH   5   6
ATOM      6  O   UNL A   1      35.039  28.540  26.590  1.00  0.00    -0.462 OA
BRANCH   6   7
ATOM      7  C   UNL A   1      33.922  28.166  25.914  1.00  0.00     0.329 C 
ATOM      8  O   UNL A   1      33.659  28.500  24.766  1.00  0.00    -0.250 OA
BRANCH   7   9
ATOM      9  C   UNL A   1      33.014  27.256  26.778  1.00  0.00     0.201 C 
BRANCH   9  10
ATOM     10  N   UNL A   1      32.585  26.018  26.119  1.00  0.00    -0.278 N 
ATOM     11  C   UNL A   1      30.141  25.174  23.735  1.00  0.00     0.029 C 
ATOM     12  C   UNL A   1      30.998  24.985  24.750  1.00  0.00     0.081 C 
ATOM     13  S   UNL A   1      32.344  23.914  24.648  1.00  0.00    -0.054 SA
ATOM     14  C   UNL A   1      31.221  25.892  25.899  1.00  0.00     0.266 C 
ATOM     15  C   UNL A   1      33.380  25.094  25.471  1.00  0.00     0.149 C 
ATOM     16  O   UNL A   1      30.333  26.473  26.505  1.00  0.00    -0.268 OA
ATOM     17  S   UNL A   1      35.039  25.003  25.386  1.00  0.00    -0.052 S 
BRANCH  11  18
ATOM     18  C   UNL A   1      29.350  26.395  23.527  1.00  0.00    -0.020 A 
ATOM     19  C   UNL A   1      29.033  28.651  22.633  1.00  0.00     0.161 A 
ATOM     20  C   UNL A   1      29.832  27.509  22.832  1.00  0.00     0.058 A 
ATOM     21  C   UNL A   1      27.727  28.645  23.135  1.00  0.00     0.157 A 
ATOM     22  C   UNL A   1      27.226  27.533  23.809  1.00  0.00     0.051 A 
ATOM     23  C   UNL A   1      28.042  26.424  24.027  1.00  0.00     0.012 A 
BRANCH  19  24
ATOM     24  O   UNL A   1      29.676  29.628  21.928  1.00  0.00    -0.490 OA
BRANCH  24  25
ATOM     25  C   UNL A   1      29.256  30.985  21.991  1.00  0.00     0.226 C 
ATOM     26  C   UNL A   1      28.410  31.387  20.795  1.00  0.00     0.049 C 
ENDBRANCH  24  25
ENDBRANCH  19  24
BRANCH  21  27
ATOM     27  O   UNL A   1      26.861  29.693  23.021  1.00  0.00    -0.504 OA
ATOM     28  H   UNL A   1      26.995  30.468  23.529  1.00  0.00     0.293 HD
ENDBRANCH  21  27
ENDBRANCH  11  18
ENDBRANCH   9  10
BRANCH   9  29
ATOM     29  C   UNL A   1      31.863  27.968  27.528  1.00  0.00     0.034 C 
ATOM     30  C   UNL A   1      31.632  29.449  27.326  1.00  0.00     0.007 C 
ENDBRANCH   9  29
ENDBRANCH   7   9
ENDBRANCH   6   7
ENDBRANCH   5   6
ENDBRANCH   4   5
ENDBRANCH   3   4
ENDBRANCH   2   3
ENDBRANCH   1   2
BRANCH   1  31
ATOM     31  O   UNL A   1      38.433  27.588  30.148  1.00  0.00    -0.377 OA
BRANCH  31  32
ATOM     32  C   UNL A   1      39.065  28.364  31.139  1.00  0.00     0.188 C 
BRANCH  32  33
ATOM     33  C   UNL A   1      38.003  29.023  32.015  1.00  0.00     0.188 C 
BRANCH  33  34
ATOM     34  O   UNL A   1      37.360  30.102  31.342  1.00  0.00    -0.376 OA
BRANCH  34  35
ATOM     35  C   UNL A   1      36.985  31.246  32.107  1.00  0.00     0.202 C 
BRANCH  35  36
ATOM     36  C   UNL A   1      36.804  31.211  33.645  1.00  0.00     0.261 C 
BRANCH  36  37
ATOM     37  O   UNL A   1      36.649  32.453  34.354  1.00  0.00    -0.460 OA
BRANCH  37  38
ATOM     38  C   UNL A   1      37.579  32.829  35.254  1.00  0.00     0.338 C 
ATOM     39  O   UNL A   1      37.476  32.810  36.468  1.00  0.00    -0.246 OA
BRANCH  38  40
ATOM     40  C   UNL A   1      38.837  33.060  34.499  1.00  0.00     0.060 A 
ATOM     41  C   UNL A   1      40.006  32.403  34.911  1.00  0.00     0.016 A 
ATOM     42  C   UNL A   1      38.844  33.838  33.338  1.00  0.00     0.016 A 
ATOM     43  C   UNL A   1      41.179  32.513  34.157  1.00  0.00     0.010 A 
ATOM     44  C   UNL A   1      40.030  33.982  32.609  1.00  0.00     0.010 A 
ATOM     45  C   UNL A   1      41.206  33.329  33.019  1.00  0.00    -0.014 A 
BRANCH  45  46
ATOM     46  C   UNL A   1      42.497  33.650  32.359  1.00  0.00     0.031 A 
ATOM     47  C   UNL A   1      43.104  35.002  32.616  1.00  0.00     0.074 A 
ATOM     48  C   UNL A   1      43.112  32.777  31.540  1.00  0.00     0.049 A 
ATOM     49  N   UNL A   1      44.155  35.557  32.074  1.00  0.00    -0.248 NA
ATOM     50  C   UNL A   1      42.427  35.840  33.620  1.00  0.00     0.031 C 
ATOM     51  C   UNL A   1      42.652  31.420  31.249  1.00  0.00     0.029 A 
ATOM     52  N   UNL A   1      44.249  32.915  30.781  1.00  0.00    -0.354 N 
ATOM     53  C   UNL A   1      44.259  36.814  32.658  1.00  0.00     0.074 A 
ATOM     54  C   UNL A   1      43.158  36.945  33.587  1.00  0.00     0.031 C 
ATOM     55  C   UNL A   1      43.481  30.863  30.348  1.00  0.00     0.029 A 
ATOM     56  C   UNL A   1      44.506  31.835  29.968  1.00  0.00     0.049 A 
ATOM     57  H   UNL A   1      44.827  33.712  30.816  1.00  0.00     0.167 HD
ATOM     58  C   UNL A   1      45.187  37.773  32.435  1.00  0.00     0.037 A 
ATOM     59  C   UNL A   1      45.432  31.670  29.001  1.00  0.00     0.037 A 
ATOM     60  C   UNL A   1      46.277  37.638  31.504  1.00  0.00     0.049 A 
ATOM     61  C   UNL A   1      46.406  32.787  28.711  1.00  0.00     0.074 A 
ATOM     62  C   UNL A   1      47.287  38.543  31.231  1.00  0.00     0.029 A 
ATOM     63  N   UNL A   1      46.488  36.541  30.683  1.00  0.00    -0.354 N 
ATOM     64  N   UNL A   1      46.519  33.957  29.294  1.00  0.00    -0.248 NA
ATOM     65  C   UNL A   1      47.375  32.566  27.626  1.00  0.00     0.031 C 
ATOM     66  C   UNL A   1      48.071  38.021  30.199  1.00  0.00     0.029 A 
ATOM     67  C   UNL A   1      47.589  36.763  29.873  1.00  0.00     0.049 A 
ATOM     68  H   UNL A   1      45.936  35.725  30.677  1.00  0.00     0.167 HD
ATOM     69  C   UNL A   1      47.581  34.600  28.662  1.00  0.00     0.074 A 
ATOM     70  C   UNL A   1      48.089  33.682  27.666  1.00  0.00     0.031 C 
ATOM     71  C   UNL A   1      48.087  35.838  28.885  1.00  0.00     0.037 A 
BRANCH  58  72
ATOM     72  C   UNL A   1      45.045  39.072  33.178  1.00  0.00     0.058 A 
ATOM     73  C   UNL A   1      44.176  40.085  32.743  1.00  0.00     0.135 A 
ATOM     74  C   UNL A   1      45.753  39.281  34.372  1.00  0.00     0.135 A 
ATOM     75  F   UNL A   1      43.493  39.946  31.596  1.00  0.00    -0.206 F 
ATOM     76  C   UNL A   1      44.025  41.267  33.461  1.00  0.00     0.059 A 
ATOM     77  C   UNL A   1      45.596  40.443  35.121  1.00  0.00     0.059 A 
ATOM     78  F   UNL A   1      46.603  38.348  34.827  1.00  0.00    -0.206 F 
ATOM     79  C   UNL A   1      44.735  41.434  34.653  1.00  0.00     0.060 A 
BRANCH  79  80
ATOM     80  S   UNL A   1      44.503  42.961  35.586  1.00  0.00     0.124 S 
ATOM     81  O   UNL A   1      43.128  43.308  35.242  1.00  0.00    -0.237 OA
ATOM     82  O   UNL A   1      44.720  42.521  36.961  1.00  0.00    -0.237 OA
ATOM     83  O   UNL A   1      45.528  43.850  35.046  1.00  0.00    -0.744 OA
ENDBRANCH  79  80
ENDBRANCH  58  72
BRANCH  59  84
ATOM     84  C   UNL A   1      45.457  30.418  28.191  1.00  0.00     0.058 A 
ATOM     85  C   UNL A   1      44.531  30.196  27.161  1.00  0.00     0.135 A 
ATOM     86  C   UNL A   1      46.395  29.406  28.452  1.00  0.00     0.135 A 
ATOM     87  F   UNL A   1      43.604  31.124  26.882  1.00  0.00    -0.206 F 
ATOM     88  C   UNL A   1      44.523  29.011  26.429  1.00  0.00     0.059 A 
ATOM     89  C   UNL A   1      46.425  28.225  27.715  1.00  0.00     0.059 A 
ATOM     90  F   UNL A   1      47.306  29.565  29.426  1.00  0.00    -0.206 F 
ATOM     91  C   UNL A   1      45.477  28.032  26.714  1.00  0.00     0.060 A 
BRANCH  91  92
ATOM     92  S   UNL A   1      45.483  26.515  25.733  1.00  0.00     0.124 S 
ATOM     93  O   UNL A   1      45.915  25.530  26.717  1.00  0.00    -0.237 OA
ATOM     94  O   UNL A   1      44.089  26.424  25.307  1.00  0.00    -0.237 OA
ATOM     95  O   UNL A   1      46.438  26.808  24.669  1.00  0.00    -0.744 OA
ENDBRANCH  91  92
ENDBRANCH  59  84
BRANCH  71  96
ATOM     96  C   UNL A   1      49.266  36.276  28.056  1.00  0.00     0.058 A 
ATOM     97  C   UNL A   1      50.585  35.989  28.441  1.00  0.00     0.135 A 
ATOM     98  C   UNL A   1      49.071  36.920  26.824  1.00  0.00     0.135 A 
ATOM     99  F   UNL A   1      50.829  35.381  29.613  1.00  0.00    -0.206 F 
ATOM    100  C   UNL A   1      51.668  36.341  27.643  1.00  0.00     0.059 A 
ATOM    101  C   UNL A   1      50.138  37.254  25.995  1.00  0.00     0.059 A 
ATOM    102  F   UNL A   1      47.830  37.208  26.399  1.00  0.00    -0.206 F 
ATOM    103  C   UNL A   1      51.434  36.967  26.417  1.00  0.00     0.060 A 
BRANCH 103 104
ATOM    104  S   UNL A   1      52.848  37.373  25.370  1.00  0.00     0.124 S 
ATOM    105  O   UNL A   1      52.363  36.980  24.052  1.00  0.00    -0.237 OA
ATOM    106  O   UNL A   1      52.995  38.809  25.589  1.00  0.00    -0.237 OA
ATOM    107  O   UNL A   1      53.923  36.548  25.915  1.00  0.00    -0.744 OA
ENDBRANCH 103 104
ENDBRANCH  71  96
ENDBRANCH  45  46
ENDBRANCH  38  40
ENDBRANCH  37  38
ENDBRANCH  36  37
ENDBRANCH  35  36
ENDBRANCH  34  35
ENDBRANCH  33  34
ENDBRANCH  32  33
ENDBRANCH  31  32
ENDBRANCH   1  31
TORSDOF 29
ENDMDL
MODEL 2
REMARK VINA RESULT:      -7.3      8.876     13.954
REMARK SMILES CCOc1cc(/C=C2/SC(=S)N([C@H](CC)C(=O)OCCOCCOCCOCCOC(=O)c3ccc(-c4c5nc(c(-c6c(F)cc(S(=O)(=O)[O-])cc6F)c6ccc([nH]6)c(-c6c(F)cc(S(=O)(=O)[O-])cc6F)c6nc(c(-c7c(F)cc(S(=O)(=O)[O-])cc7F)c7ccc4[nH]7)C=C6)C=C5)cc3)C2=O)ccc1O
REMARK SMILES IDX 23 1 22 2 21 3 20 4 19 5 18 6 16 7 17 8 13 9 12 10 7 11 8 12
REMARK SMILES IDX 9 13 99 14 10 15 100 16 11 17 6 18 4 19 5 20 103 21 102 22
REMARK SMILES IDX 101 23 3 24 2 25 1 26 104 27 14 29 15 30 24 31 25 32 26 33
REMARK SMILES IDX 27 34 28 35 29 36 30 37 31 38 32 39 33 40 34 41 98 42 35 43
REMARK SMILES IDX 97 44 36 45 37 46 38 47 91 48 39 49 96 50 90 51 92 52 40 53
REMARK SMILES IDX 95 54 89 55 88 56 41 58 75 59 54 60 74 61 55 62 58 63 73 64
REMARK SMILES IDX 93 65 56 66 57 67 72 69 94 70 59 71 42 72 43 73 52 74 44 75
REMARK SMILES IDX 45 76 51 77 53 78 46 79 47 80 48 81 49 82 50 83 76 84 77 85
REMARK SMILES IDX 86 86 78 87 79 88 85 89 87 90 80 91 81 92 82 93 83 94 84 95
REMARK SMILES IDX 60 96 61 97 70 98 62 99 63 100 69 101 71 102 64 103 65 104
REMARK SMILES IDX 66 105 67 106 68 107
REMARK H PARENT 104 28 92 57 58 68
REMARK Flexibility Score: inf
ROOT
ATOM      1  C   UNL A   1      52.245  27.891  29.563  1.00  0.00     0.188 C 
ENDROOT
BRANCH   1   2
ATOM      2  C   UNL A   1      52.192  26.492  28.929  1.00  0.00     0.188 C 
BRANCH   2   3
ATOM      3  O   UNL A   1      51.004  25.918  28.410  1.00  0.00    -0.376 OA
BRANCH   3   4
ATOM      4  C   UNL A   1      49.990  25.307  29.180  1.00  0.00     0.202 C 
BRANCH   4   5
ATOM      5  C   UNL A   1      48.500  25.315  28.812  1.00  0.00     0.261 C 
BRANCH   5   6
ATOM      6  O   UNL A   1      47.582  25.424  29.900  1.00  0.00    -0.462 OA
BRANCH   6   7
ATOM      7  C   UNL A   1      46.289  25.742  29.627  1.00  0.00     0.329 C 
ATOM      8  O   UNL A   1      45.735  26.772  29.990  1.00  0.00    -0.250 OA
BRANCH   7   9
ATOM      9  C   UNL A   1      45.597  24.635  28.795  1.00  0.00     0.201 C 
BRANCH   9  10
ATOM     10  N   UNL A   1      45.280  25.017  27.415  1.00  0.00    -0.278 N 
ATOM     11  C   UNL A   1      44.669  23.279  24.419  1.00  0.00     0.029 C 
ATOM     12  C   UNL A   1      45.027  24.308  25.203  1.00  0.00     0.081 C 
ATOM     13  S   UNL A   1      44.176  25.806  25.221  1.00  0.00    -0.054 SA
ATOM     14  C   UNL A   1      45.862  24.240  26.424  1.00  0.00     0.266 C 
ATOM     15  C   UNL A   1      44.288  25.878  26.989  1.00  0.00     0.149 C 
ATOM     16  O   UNL A   1      46.868  23.555  26.538  1.00  0.00    -0.268 OA
ATOM     17  S   UNL A   1      43.285  26.859  27.884  1.00  0.00    -0.052 S 
BRANCH  11  18
ATOM     18  C   UNL A   1      44.954  21.867  24.713  1.00  0.00    -0.020 A 
ATOM     19  C   UNL A   1      44.301  19.632  25.466  1.00  0.00     0.161 A 
ATOM     20  C   UNL A   1      43.995  20.985  25.221  1.00  0.00     0.058 A 
ATOM     21  C   UNL A   1      45.591  19.179  25.174  1.00  0.00     0.157 A 
ATOM     22  C   UNL A   1      46.550  20.042  24.645  1.00  0.00     0.051 A 
ATOM     23  C   UNL A   1      46.240  21.385  24.441  1.00  0.00     0.012 A 
BRANCH  19  24
ATOM     24  O   UNL A   1      43.235  18.931  25.954  1.00  0.00    -0.490 OA
BRANCH  24  25
ATOM     25  C   UNL A   1      41.987  19.563  26.207  1.00  0.00     0.226 C 
ATOM     26  C   UNL A   1      41.709  19.726  27.691  1.00  0.00     0.049 C 
ENDBRANCH  24  25
ENDBRANCH  19  24
BRANCH  21  27
ATOM     27  O   UNL A   1      46.015  17.899  25.381  1.00  0.00    -0.504 OA
ATOM     28  H   UNL A   1      45.449  17.279  25.796  1.00  0.00     0.293 HD
ENDBRANCH  21  27
ENDBRANCH  11  18
ENDBRANCH   9  10
BRANCH   9  29
ATOM     29  C   UNL A   1      44.436  23.890  29.495  1.00  0.00     0.034 C 
ATOM     30  C   UNL A   1      43.738  22.747  28.790  1.00  0.00     0.007 C 
ENDBRANCH   9  29
ENDBRANCH   7   9
ENDBRANCH   6   7
ENDBRANCH   5   6
ENDBRANCH   4   5
ENDBRANCH   3   4
ENDBRANCH   2   3
ENDBRANCH   1   2
BRANCH   1  31
ATOM     31  O   UNL A   1      51.210  28.837  29.503  1.00  0.00    -0.377 OA
BRANCH  31  32
ATOM     32  C   UNL A   1      50.371  28.868  30.634  1.00  0.00     0.188 C 
BRANCH  32  33
ATOM     33  C   UNL A   1      48.953  29.225  30.198  1.00  0.00     0.188 C 
BRANCH  33  34
ATOM     34  O   UNL A   1      48.275  29.990  31.189  1.00  0.00    -0.376 OA
BRANCH  34  35
ATOM     35  C   UNL A   1      49.053  30.821  32.050  1.00  0.00     0.202 C 
BRANCH  35  36
ATOM     36  C   UNL A   1      48.432  31.696  33.167  1.00  0.00     0.261 C 
BRANCH  36  37
ATOM     37  O   UNL A   1      48.739  33.102  33.199  1.00  0.00    -0.460 OA
BRANCH  37  38
ATOM     38  C   UNL A   1      49.362  33.626  34.272  1.00  0.00     0.338 C 
ATOM     39  O   UNL A   1      50.546  33.539  34.548  1.00  0.00    -0.246 OA
BRANCH  38  40
ATOM     40  C   UNL A   1      48.383  34.519  34.942  1.00  0.00     0.060 A 
ATOM     41  C   UNL A   1      48.401  34.618  36.342  1.00  0.00     0.016 A 
ATOM     42  C   UNL A   1      47.521  35.327  34.196  1.00  0.00     0.016 A 
ATOM     43  C   UNL A   1      47.568  35.532  36.995  1.00  0.00     0.010 A 
ATOM     44  C   UNL A   1      46.658  36.211  34.854  1.00  0.00     0.010 A 
ATOM     45  C   UNL A   1      46.669  36.311  36.256  1.00  0.00    -0.014 A 
BRANCH  45  46
ATOM     46  C   UNL A   1      45.615  37.095  36.948  1.00  0.00     0.031 A 
ATOM     47  C   UNL A   1      45.954  38.489  37.399  1.00  0.00     0.074 A 
ATOM     48  C   UNL A   1      44.392  36.585  37.188  1.00  0.00     0.049 A 
ATOM     49  N   UNL A   1      45.250  39.324  38.115  1.00  0.00    -0.248 NA
ATOM     50  C   UNL A   1      47.268  39.007  36.984  1.00  0.00     0.031 C 
ATOM     51  C   UNL A   1      43.926  35.267  36.760  1.00  0.00     0.029 A 
ATOM     52  N   UNL A   1      43.326  37.111  37.876  1.00  0.00    -0.354 N 
ATOM     53  C   UNL A   1      46.039  40.460  38.252  1.00  0.00     0.074 A 
ATOM     54  C   UNL A   1      47.280  40.203  37.555  1.00  0.00     0.031 C 
ATOM     55  C   UNL A   1      42.677  35.075  37.225  1.00  0.00     0.029 A 
ATOM     56  C   UNL A   1      42.272  36.237  38.016  1.00  0.00     0.049 A 
ATOM     57  H   UNL A   1      43.315  38.028  38.235  1.00  0.00     0.167 HD
ATOM     58  C   UNL A   1      45.756  41.610  38.905  1.00  0.00     0.037 A 
ATOM     59  C   UNL A   1      41.135  36.346  38.734  1.00  0.00     0.037 A 
ATOM     60  C   UNL A   1      44.522  41.858  39.603  1.00  0.00     0.049 A 
ATOM     61  C   UNL A   1      40.877  37.607  39.524  1.00  0.00     0.074 A 
ATOM     62  C   UNL A   1      44.128  43.005  40.268  1.00  0.00     0.029 A 
ATOM     63  N   UNL A   1      43.492  40.940  39.742  1.00  0.00    -0.354 N 
ATOM     64  N   UNL A   1      41.614  38.689  39.616  1.00  0.00    -0.248 NA
ATOM     65  C   UNL A   1      39.637  37.661  40.314  1.00  0.00     0.031 C 
ATOM     66  C   UNL A   1      42.889  42.759  40.865  1.00  0.00     0.029 A 
ATOM     67  C   UNL A   1      42.480  41.480  40.518  1.00  0.00     0.049 A 
ATOM     68  H   UNL A   1      43.482  40.037  39.348  1.00  0.00     0.167 HD
ATOM     69  C   UNL A   1      40.918  39.556  40.455  1.00  0.00     0.074 A 
ATOM     70  C   UNL A   1      39.693  38.882  40.828  1.00  0.00     0.031 C 
ATOM     71  C   UNL A   1      41.263  40.797  40.880  1.00  0.00     0.037 A 
BRANCH  58  72
ATOM     72  C   UNL A   1      46.813  42.679  38.933  1.00  0.00     0.058 A 
ATOM     73  C   UNL A   1      46.873  43.690  37.960  1.00  0.00     0.135 A 
ATOM     74  C   UNL A   1      47.747  42.719  39.980  1.00  0.00     0.135 A 
ATOM     75  F   UNL A   1      46.019  43.686  36.925  1.00  0.00    -0.206 F 
ATOM     76  C   UNL A   1      47.832  44.696  38.019  1.00  0.00     0.059 A 
ATOM     77  C   UNL A   1      48.697  43.732  40.074  1.00  0.00     0.059 A 
ATOM     78  F   UNL A   1      47.739  41.772  40.930  1.00  0.00    -0.206 F 
ATOM     79  C   UNL A   1      48.736  44.712  39.083  1.00  0.00     0.060 A 
BRANCH  79  80
ATOM     80  S   UNL A   1      49.954  46.042  39.159  1.00  0.00     0.124 S 
ATOM     81  O   UNL A   1      49.247  47.040  39.956  1.00  0.00    -0.237 OA
ATOM     82  O   UNL A   1      51.084  45.391  39.816  1.00  0.00    -0.237 OA
ATOM     83  O   UNL A   1      50.163  46.392  37.758  1.00  0.00    -0.744 OA
ENDBRANCH  79  80
ENDBRANCH  58  72
BRANCH  59  84
ATOM     84  C   UNL A   1      40.171  35.210  38.791  1.00  0.00     0.058 A 
ATOM     85  C   UNL A   1      39.231  34.998  37.771  1.00  0.00     0.135 A 
ATOM     86  C   UNL A   1      40.155  34.329  39.884  1.00  0.00     0.135 A 
ATOM     87  F   UNL A   1      39.192  35.822  36.713  1.00  0.00    -0.206 F 
ATOM     88  C   UNL A   1      38.300  33.965  37.839  1.00  0.00     0.059 A 
ATOM     89  C   UNL A   1      39.253  33.271  39.961  1.00  0.00     0.059 A 
ATOM     90  F   UNL A   1      41.033  34.483  40.888  1.00  0.00    -0.206 F 
ATOM     91  C   UNL A   1      38.321  33.104  38.939  1.00  0.00     0.060 A 
BRANCH  91  92
ATOM     92  S   UNL A   1      37.135  31.743  38.999  1.00  0.00     0.124 S 
ATOM     93  O   UNL A   1      37.556  31.039  40.204  1.00  0.00    -0.237 OA
ATOM     94  O   UNL A   1      35.862  32.453  39.086  1.00  0.00    -0.237 OA
ATOM     95  O   UNL A   1      37.369  31.041  37.741  1.00  0.00    -0.744 OA
ENDBRANCH  91  92
ENDBRANCH  59  84
BRANCH  71  96
ATOM     96  C   UNL A   1      40.299  41.526  41.779  1.00  0.00     0.058 A 
ATOM     97  C   UNL A   1      40.238  41.267  43.158  1.00  0.00     0.135 A 
ATOM     98  C   UNL A   1      39.484  42.549  41.271  1.00  0.00     0.135 A 
ATOM     99  F   UNL A   1      40.991  40.295  43.696  1.00  0.00    -0.206 F 
ATOM    100  C   UNL A   1      39.389  41.984  43.995  1.00  0.00     0.059 A 
ATOM    101  C   UNL A   1      38.651  43.300  42.094  1.00  0.00     0.059 A 
ATOM    102  F   UNL A   1      39.510  42.848  39.962  1.00  0.00    -0.206 F 
ATOM    103  C   UNL A   1      38.605  43.005  43.455  1.00  0.00     0.060 A 
BRANCH 103 104
ATOM    104  S   UNL A   1      37.546  43.959  44.564  1.00  0.00     0.124 S 
ATOM    105  O   UNL A   1      36.733  42.912  45.171  1.00  0.00    -0.237 OA
ATOM    106  O   UNL A   1      38.517  44.600  45.446  1.00  0.00    -0.237 OA
ATOM    107  O   UNL A   1      36.835  44.862  43.662  1.00  0.00    -0.744 OA
ENDBRANCH 103 104
ENDBRANCH  71  96
ENDBRANCH  45  46
ENDBRANCH  38  40
ENDBRANCH  37  38
ENDBRANCH  36  37
ENDBRANCH  35  36
ENDBRANCH  34  35
ENDBRANCH  33  34
ENDBRANCH  32  33
ENDBRANCH  31  32
ENDBRANCH   1  31
TORSDOF 29
ENDMDL
MODEL 3
REMARK VINA RESULT:      -7.3      6.634     14.825
REMARK SMILES CCOc1cc(/C=C2/SC(=S)N([C@H](CC)C(=O)OCCOCCOCCOCCOC(=O)c3ccc(-c4c5nc(c(-c6c(F)cc(S(=O)(=O)[O-])cc6F)c6ccc([nH]6)c(-c6c(F)cc(S(=O)(=O)[O-])cc6F)c6nc(c(-c7c(F)cc(S(=O)(=O)[O-])cc7F)c7ccc4[nH]7)C=C6)C=C5)cc3)C2=O)ccc1O
REMARK SMILES IDX 23 1 22 2 21 3 20 4 19 5 18 6 16 7 17 8 13 9 12 10 7 11 8 12
REMARK SMILES IDX 9 13 99 14 10 15 100 16 11 17 6 18 4 19 5 20 103 21 102 22
REMARK SMILES IDX 101 23 3 24 2 25 1 26 104 27 14 29 15 30 24 31 25 32 26 33
REMARK SMILES IDX 27 34 28 35 29 36 30 37 31 38 32 39 33 40 34 41 98 42 35 43
REMARK SMILES IDX 97 44 36 45 37 46 38 47 91 48 39 49 96 50 90 51 92 52 40 53
REMARK SMILES IDX 95 54 89 55 88 56 41 58 75 59 54 60 74 61 55 62 58 63 73 64
REMARK SMILES IDX 93 65 56 66 57 67 72 69 94 70 59 71 42 72 43 73 52 74 44 75
REMARK SMILES IDX 45 76 51 77 53 78 46 79 47 80 48 81 49 82 50 83 76 84 77 85
REMARK SMILES IDX 86 86 78 87 79 88 85 89 87 90 80 91 81 92 82 93 83 94 84 95
REMARK SMILES IDX 60 96 61 97 70 98 62 99 63 100 69 101 71 102 64 103 65 104
REMARK SMILES IDX 66 105 67 106 68 107
REMARK H PARENT 104 28 92 57 58 68
REMARK Flexibility Score: inf
ROOT
ATOM      1  C   UNL A   1      53.189  22.875  32.852  1.00  0.00     0.188 C 
ENDROOT
BRANCH   1   2
ATOM      2  C   UNL A   1      52.241  22.056  33.742  1.00  0.00     0.188 C 
BRANCH   2   3
ATOM      3  O   UNL A   1      51.303  21.126  33.229  1.00  0.00    -0.376 OA
BRANCH   3   4
ATOM      4  C   UNL A   1      49.941  21.055  33.596  1.00  0.00     0.202 C 
BRANCH   4   5
ATOM      5  C   UNL A   1      49.375  20.083  34.642  1.00  0.00     0.261 C 
BRANCH   5   6
ATOM      6  O   UNL A   1      48.902  20.669  35.855  1.00  0.00    -0.462 OA
BRANCH   6   7
ATOM      7  C   UNL A   1      48.721  22.015  35.897  1.00  0.00     0.329 C 
ATOM      8  O   UNL A   1      49.505  22.806  36.406  1.00  0.00    -0.250 OA
BRANCH   7   9
ATOM      9  C   UNL A   1      47.393  22.430  35.217  1.00  0.00     0.201 C 
BRANCH   9  10
ATOM     10  N   UNL A   1      47.011  23.830  35.427  1.00  0.00    -0.278 N 
ATOM     11  C   UNL A   1      45.502  26.329  33.465  1.00  0.00     0.029 C 
ATOM     12  C   UNL A   1      46.252  25.813  34.451  1.00  0.00     0.081 C 
ATOM     13  S   UNL A   1      45.891  26.047  36.120  1.00  0.00    -0.054 SA
ATOM     14  C   UNL A   1      47.194  24.675  34.342  1.00  0.00     0.266 C 
ATOM     15  C   UNL A   1      46.266  24.350  36.467  1.00  0.00     0.149 C 
ATOM     16  O   UNL A   1      47.960  24.497  33.406  1.00  0.00    -0.268 OA
ATOM     17  S   UNL A   1      45.733  23.608  37.857  1.00  0.00    -0.052 S 
BRANCH  11  18
ATOM     18  C   UNL A   1      45.397  25.764  32.113  1.00  0.00    -0.020 A 
ATOM     19  C   UNL A   1      46.028  25.652  29.752  1.00  0.00     0.161 A 
ATOM     20  C   UNL A   1      46.139  26.238  31.027  1.00  0.00     0.058 A 
ATOM     21  C   UNL A   1      45.165  24.563  29.592  1.00  0.00     0.157 A 
ATOM     22  C   UNL A   1      44.437  24.065  30.671  1.00  0.00     0.051 A 
ATOM     23  C   UNL A   1      44.533  24.679  31.919  1.00  0.00     0.012 A 
BRANCH  19  24
ATOM     24  O   UNL A   1      46.835  26.249  28.825  1.00  0.00    -0.490 OA
BRANCH  24  25
ATOM     25  C   UNL A   1      46.293  26.922  27.696  1.00  0.00     0.226 C 
ATOM     26  C   UNL A   1      46.819  26.368  26.383  1.00  0.00     0.049 C 
ENDBRANCH  24  25
ENDBRANCH  19  24
BRANCH  21  27
ATOM     27  O   UNL A   1      44.959  23.920  28.407  1.00  0.00    -0.504 OA
ATOM     28  H   UNL A   1      44.305  24.231  27.813  1.00  0.00     0.293 HD
ENDBRANCH  21  27
ENDBRANCH  11  18
ENDBRANCH   9  10
BRANCH   9  29
ATOM     29  C   UNL A   1      46.209  21.450  35.393  1.00  0.00     0.034 C 
ATOM     30  C   UNL A   1      44.968  21.604  34.541  1.00  0.00     0.007 C 
ENDBRANCH   9  29
ENDBRANCH   7   9
ENDBRANCH   6   7
ENDBRANCH   5   6
ENDBRANCH   4   5
ENDBRANCH   3   4
ENDBRANCH   2   3
ENDBRANCH   1   2
BRANCH   1  31
ATOM     31  O   UNL A   1      52.990  24.217  32.491  1.00  0.00    -0.377 OA
BRANCH  31  32
ATOM     32  C   UNL A   1      51.647  24.577  32.269  1.00  0.00     0.188 C 
BRANCH  32  33
ATOM     33  C   UNL A   1      51.579  26.049  31.872  1.00  0.00     0.188 C 
BRANCH  33  34
ATOM     34  O   UNL A   1      52.096  26.264  30.562  1.00  0.00    -0.376 OA
BRANCH  34  35
ATOM     35  C   UNL A   1      53.032  27.324  30.372  1.00  0.00     0.202 C 
BRANCH  35  36
ATOM     36  C   UNL A   1      52.614  28.813  30.276  1.00  0.00     0.261 C 
BRANCH  36  37
ATOM     37  O   UNL A   1      52.471  29.573  31.489  1.00  0.00    -0.460 OA
BRANCH  37  38
ATOM     38  C   UNL A   1      52.337  30.912  31.427  1.00  0.00     0.338 C 
ATOM     39  O   UNL A   1      53.180  31.719  31.075  1.00  0.00    -0.246 OA
BRANCH  38  40
ATOM     40  C   UNL A   1      50.899  31.209  31.650  1.00  0.00     0.060 A 
ATOM     41  C   UNL A   1      50.362  31.036  32.935  1.00  0.00     0.016 A 
ATOM     42  C   UNL A   1      50.110  31.746  30.630  1.00  0.00     0.016 A 
ATOM     43  C   UNL A   1      49.041  31.411  33.204  1.00  0.00     0.010 A 
ATOM     44  C   UNL A   1      48.776  32.081  30.890  1.00  0.00     0.010 A 
ATOM     45  C   UNL A   1      48.231  31.906  32.174  1.00  0.00    -0.014 A 
BRANCH  45  46
ATOM     46  C   UNL A   1      46.771  32.071  32.385  1.00  0.00     0.031 A 
ATOM     47  C   UNL A   1      45.840  31.207  31.580  1.00  0.00     0.074 A 
ATOM     48  C   UNL A   1      46.276  32.973  33.253  1.00  0.00     0.049 A 
ATOM     49  N   UNL A   1      44.536  31.239  31.501  1.00  0.00    -0.248 NA
ATOM     50  C   UNL A   1      46.470  30.166  30.750  1.00  0.00     0.031 C 
ATOM     51  C   UNL A   1      47.072  33.834  34.125  1.00  0.00     0.029 A 
ATOM     52  N   UNL A   1      44.977  33.330  33.525  1.00  0.00    -0.354 N 
ATOM     53  C   UNL A   1      44.188  30.237  30.603  1.00  0.00     0.074 A 
ATOM     54  C   UNL A   1      45.419  29.622  30.155  1.00  0.00     0.031 C 
ATOM     55  C   UNL A   1      46.245  34.644  34.811  1.00  0.00     0.029 A 
ATOM     56  C   UNL A   1      44.865  34.387  34.398  1.00  0.00     0.049 A 
ATOM     57  H   UNL A   1      44.199  32.871  33.132  1.00  0.00     0.167 HD
ATOM     58  C   UNL A   1      42.956  29.868  30.187  1.00  0.00     0.037 A 
ATOM     59  C   UNL A   1      43.781  35.092  34.783  1.00  0.00     0.037 A 
ATOM     60  C   UNL A   1      41.736  30.489  30.632  1.00  0.00     0.049 A 
ATOM     61  C   UNL A   1      42.423  34.715  34.241  1.00  0.00     0.074 A 
ATOM     62  C   UNL A   1      40.435  30.164  30.292  1.00  0.00     0.029 A 
ATOM     63  N   UNL A   1      41.666  31.571  31.496  1.00  0.00    -0.354 N 
ATOM     64  N   UNL A   1      42.102  33.742  33.421  1.00  0.00    -0.248 NA
ATOM     65  C   UNL A   1      41.279  35.536  34.670  1.00  0.00     0.031 C 
ATOM     66  C   UNL A   1      39.582  31.090  30.898  1.00  0.00     0.029 A 
ATOM     67  C   UNL A   1      40.347  31.953  31.669  1.00  0.00     0.049 A 
ATOM     68  H   UNL A   1      42.441  32.003  31.924  1.00  0.00     0.167 HD
ATOM     69  C   UNL A   1      40.721  33.822  33.253  1.00  0.00     0.074 A 
ATOM     70  C   UNL A   1      40.266  34.925  34.071  1.00  0.00     0.031 C 
ATOM     71  C   UNL A   1      39.906  33.053  32.489  1.00  0.00     0.037 A 
BRANCH  58  72
ATOM     72  C   UNL A   1      42.860  28.766  29.169  1.00  0.00     0.058 A 
ATOM     73  C   UNL A   1      42.643  27.429  29.539  1.00  0.00     0.135 A 
ATOM     74  C   UNL A   1      42.936  29.064  27.799  1.00  0.00     0.135 A 
ATOM     75  F   UNL A   1      42.586  27.086  30.835  1.00  0.00    -0.206 F 
ATOM     76  C   UNL A   1      42.518  26.425  28.585  1.00  0.00     0.059 A 
ATOM     77  C   UNL A   1      42.785  28.080  26.827  1.00  0.00     0.059 A 
ATOM     78  F   UNL A   1      43.151  30.325  27.392  1.00  0.00    -0.206 F 
ATOM     79  C   UNL A   1      42.584  26.761  27.231  1.00  0.00     0.060 A 
BRANCH  79  80
ATOM     80  S   UNL A   1      42.389  25.449  26.007  1.00  0.00     0.124 S 
ATOM     81  O   UNL A   1      43.766  24.995  25.842  1.00  0.00    -0.237 OA
ATOM     82  O   UNL A   1      41.493  24.520  26.689  1.00  0.00    -0.237 OA
ATOM     83  O   UNL A   1      41.814  26.139  24.856  1.00  0.00    -0.744 OA
ENDBRANCH  79  80
ENDBRANCH  58  72
BRANCH  59  84
ATOM     84  C   UNL A   1      43.931  36.265  35.691  1.00  0.00     0.058 A 
ATOM     85  C   UNL A   1      44.236  37.540  35.193  1.00  0.00     0.135 A 
ATOM     86  C   UNL A   1      43.799  36.124  37.082  1.00  0.00     0.135 A 
ATOM     87  F   UNL A   1      44.391  37.725  33.874  1.00  0.00    -0.206 F 
ATOM     88  C   UNL A   1      44.420  38.631  36.040  1.00  0.00     0.059 A 
ATOM     89  C   UNL A   1      43.949  37.205  37.947  1.00  0.00     0.059 A 
ATOM     90  F   UNL A   1      43.506  34.927  37.614  1.00  0.00    -0.206 F 
ATOM     91  C   UNL A   1      44.271  38.452  37.417  1.00  0.00     0.060 A 
BRANCH  91  92
ATOM     92  S   UNL A   1      44.473  39.881  38.504  1.00  0.00     0.124 S 
ATOM     93  O   UNL A   1      43.562  39.552  39.594  1.00  0.00    -0.237 OA
ATOM     94  O   UNL A   1      45.897  39.823  38.821  1.00  0.00    -0.237 OA
ATOM     95  O   UNL A   1      44.071  41.002  37.660  1.00  0.00    -0.744 OA
ENDBRANCH  91  92
ENDBRANCH  59  84
BRANCH  71  96
ATOM     96  C   UNL A   1      38.431  33.356  32.512  1.00  0.00     0.058 A 
ATOM     97  C   UNL A   1      37.613  32.958  33.581  1.00  0.00     0.135 A 
ATOM     98  C   UNL A   1      37.844  34.120  31.490  1.00  0.00     0.135 A 
ATOM     99  F   UNL A   1      38.120  32.220  34.581  1.00  0.00    -0.206 F 
ATOM    100  C   UNL A   1      36.263  33.292  33.627  1.00  0.00     0.059 A 
ATOM    101  C   UNL A   1      36.503  34.492  31.531  1.00  0.00     0.059 A 
ATOM    102  F   UNL A   1      38.581  34.538  30.449  1.00  0.00    -0.206 F 
ATOM    103  C   UNL A   1      35.718  34.066  32.601  1.00  0.00     0.060 A 
BRANCH 103 104
ATOM    104  S   UNL A   1      33.977  34.533  32.701  1.00  0.00     0.124 S 
ATOM    105  O   UNL A   1      33.658  34.789  31.300  1.00  0.00    -0.237 OA
ATOM    106  O   UNL A   1      33.368  33.340  33.281  1.00  0.00    -0.237 OA
ATOM    107  O   UNL A   1      33.988  35.709  33.567  1.00  0.00    -0.744 OA
ENDBRANCH 103 104
ENDBRANCH  71  96
ENDBRANCH  45  46
ENDBRANCH  38  40
ENDBRANCH  37  38
ENDBRANCH  36  37
ENDBRANCH  35  36
ENDBRANCH  34  35
ENDBRANCH  33  34
ENDBRANCH  32  33
ENDBRANCH  31  32
ENDBRANCH   1  31
TORSDOF 29
ENDMDL
