MODEL 1
REMARK VINA RESULT:      -9.7      0.000      0.000
REMARK SMILES CC1=Nc2c(c(C)nn2-c2ccc(F)cc2)[C@H](c2ccc(C(=O)OCCOCCOCCOCCOC(=O)c3ccc(-c4c5nc(c(-c6c(F)cc(S(=O)(=O)[O-])cc6F)c6ccc([nH]6)c(-c6c(F)cc(S(=O)(=O)[O-])cc6F)c6nc(c(-c7c(F)cc(S(=O)(=O)[O-])cc7F)c7ccc4[nH]7)C=C6)C=C5)cc3)cc2)S1
REMARK SMILES IDX 31 1 30 2 29 3 28 4 27 5 26 6 25 7 24 8 22 9 23 10 21 11
REMARK SMILES IDX 18 12 19 13 106 14 20 15 105 16 17 17 1 18 2 19 3 20 107 21
REMARK SMILES IDX 4 22 5 23 9 24 6 25 8 26 7 27 10 28 11 29 16 30 12 31 15 32
REMARK SMILES IDX 13 33 14 34 32 35 33 36 34 37 35 38 36 39 37 40 38 41 39 42
REMARK SMILES IDX 40 43 104 44 41 45 103 46 42 47 43 48 44 49 97 50 45 51
REMARK SMILES IDX 102 52 96 53 98 54 46 55 101 56 95 57 94 58 47 60 81 61
REMARK SMILES IDX 60 62 80 63 61 64 64 65 79 66 99 67 62 68 63 69 78 71 100 72
REMARK SMILES IDX 65 73 48 74 49 75 58 76 50 77 51 78 57 79 59 80 52 81 53 82
REMARK SMILES IDX 54 83 55 84 56 85 82 86 83 87 92 88 84 89 85 90 91 91 93 92
REMARK SMILES IDX 86 93 87 94 88 95 89 96 90 97 66 98 67 99 76 100 68 101
REMARK SMILES IDX 69 102 75 103 77 104 70 105 71 106 72 107 73 108 74 109
REMARK H PARENT 98 59 64 70
REMARK Flexibility Score: inf
ROOT
ATOM      1  C   UNL A   1      40.999  25.113  26.977  1.00  0.00     0.188 C 
ENDROOT
BRANCH   1   2
ATOM      2  O   UNL A   1      40.493  26.395  27.339  1.00  0.00    -0.377 OA
BRANCH   2   3
ATOM      3  C   UNL A   1      39.527  26.379  28.377  1.00  0.00     0.188 C 
BRANCH   3   4
ATOM      4  C   UNL A   1      39.488  27.684  29.193  1.00  0.00     0.188 C 
BRANCH   4   5
ATOM      5  O   UNL A   1      38.341  28.520  29.178  1.00  0.00    -0.376 OA
BRANCH   5   6
ATOM      6  C   UNL A   1      38.106  29.494  28.173  1.00  0.00     0.202 C 
BRANCH   6   7
ATOM      7  C   UNL A   1      36.733  30.115  27.850  1.00  0.00     0.261 C 
BRANCH   7   8
ATOM      8  O   UNL A   1      35.590  29.266  27.926  1.00  0.00    -0.460 OA
BRANCH   8   9
ATOM      9  C   UNL A   1      34.435  29.791  27.469  1.00  0.00     0.338 C 
ATOM     10  O   UNL A   1      34.160  30.972  27.364  1.00  0.00    -0.246 OA
BRANCH   9  11
ATOM     11  C   UNL A   1      33.595  28.690  26.929  1.00  0.00     0.060 A 
ATOM     12  C   UNL A   1      32.093  26.600  25.759  1.00  0.00    -0.030 A 
ATOM     13  C   UNL A   1      33.445  26.805  25.425  1.00  0.00     0.006 A 
ATOM     14  C   UNL A   1      31.540  27.408  26.771  1.00  0.00     0.006 A 
ATOM     15  C   UNL A   1      34.187  27.835  26.000  1.00  0.00     0.016 A 
ATOM     16  C   UNL A   1      32.281  28.455  27.345  1.00  0.00     0.016 A 
BRANCH  12  17
ATOM     17  C   UNL A   1      31.286  25.610  24.927  1.00  0.00     0.119 C 
ATOM     18  C   UNL A   1      29.564  22.840  27.488  1.00  0.00     0.075 C 
ATOM     19  C   UNL A   1      30.340  23.413  26.333  1.00  0.00     0.074 C 
ATOM     20  N   UNL A   1      31.289  22.691  25.828  1.00  0.00    -0.227 NA
ATOM     21  S   UNL A   1      29.792  24.983  25.764  1.00  0.00    -0.098 SA
ATOM     22  C   UNL A   1      32.043  23.217  24.836  1.00  0.00     0.161 A 
ATOM     23  C   UNL A   1      32.164  24.528  24.429  1.00  0.00     0.038 A 
ATOM     24  N   UNL A   1      32.910  22.475  24.047  1.00  0.00    -0.215 N 
ATOM     25  C   UNL A   1      33.164  24.499  23.422  1.00  0.00     0.067 A 
ATOM     26  N   UNL A   1      33.692  23.276  23.277  1.00  0.00    -0.171 NA
ATOM     27  C   UNL A   1      33.650  25.603  22.556  1.00  0.00     0.069 C 
BRANCH  24  28
ATOM     28  C   UNL A   1      32.977  21.063  23.928  1.00  0.00     0.067 A 
ATOM     29  C   UNL A   1      33.817  20.326  24.779  1.00  0.00     0.031 A 
ATOM     30  C   UNL A   1      32.194  20.409  22.968  1.00  0.00     0.031 A 
ATOM     31  C   UNL A   1      33.886  18.939  24.655  1.00  0.00     0.041 A 
ATOM     32  C   UNL A   1      32.310  19.025  22.817  1.00  0.00     0.041 A 
ATOM     33  C   UNL A   1      33.147  18.303  23.663  1.00  0.00     0.123 A 
ATOM     34  F   UNL A   1      33.242  16.975  23.527  1.00  0.00    -0.207 F 
ENDBRANCH  24  28
ENDBRANCH  12  17
ENDBRANCH   9  11
ENDBRANCH   8   9
ENDBRANCH   7   8
ENDBRANCH   6   7
ENDBRANCH   5   6
ENDBRANCH   4   5
ENDBRANCH   3   4
ENDBRANCH   2   3
ENDBRANCH   1   2
BRANCH   1  35
ATOM     35  C   UNL A   1      42.000  24.447  27.950  1.00  0.00     0.188 C 
BRANCH  35  36
ATOM     36  O   UNL A   1      43.052  25.308  28.389  1.00  0.00    -0.376 OA
BRANCH  36  37
ATOM     37  C   UNL A   1      44.180  25.504  27.548  1.00  0.00     0.202 C 
BRANCH  37  38
ATOM     38  C   UNL A   1      45.052  26.679  27.981  1.00  0.00     0.261 C 
BRANCH  38  39
ATOM     39  O   UNL A   1      45.665  27.337  26.885  1.00  0.00    -0.460 OA
BRANCH  39  40
ATOM     40  C   UNL A   1      44.819  27.848  25.967  1.00  0.00     0.338 C 
ATOM     41  O   UNL A   1      44.622  27.448  24.837  1.00  0.00    -0.246 OA
BRANCH  40  42
ATOM     42  C   UNL A   1      44.211  29.056  26.531  1.00  0.00     0.060 A 
ATOM     43  C   UNL A   1      45.101  29.966  27.102  1.00  0.00     0.016 A 
ATOM     44  C   UNL A   1      42.838  29.048  26.818  1.00  0.00     0.016 A 
ATOM     45  C   UNL A   1      44.676  30.650  28.210  1.00  0.00     0.010 A 
ATOM     46  C   UNL A   1      42.424  29.704  27.941  1.00  0.00     0.010 A 
ATOM     47  C   UNL A   1      43.383  30.394  28.676  1.00  0.00    -0.014 A 
BRANCH  47  48
ATOM     48  C   UNL A   1      43.083  30.778  30.031  1.00  0.00     0.031 A 
ATOM     49  C   UNL A   1      43.068  29.656  30.982  1.00  0.00     0.074 A 
ATOM     50  C   UNL A   1      42.959  32.077  30.353  1.00  0.00     0.049 A 
ATOM     51  N   UNL A   1      42.072  29.188  31.653  1.00  0.00    -0.248 NA
ATOM     52  C   UNL A   1      44.299  28.853  31.072  1.00  0.00     0.031 C 
ATOM     53  C   UNL A   1      43.304  33.251  29.540  1.00  0.00     0.029 A 
ATOM     54  N   UNL A   1      42.606  32.620  31.543  1.00  0.00    -0.354 N 
ATOM     55  C   UNL A   1      42.604  28.151  32.409  1.00  0.00     0.074 A 
ATOM     56  C   UNL A   1      43.904  27.862  31.865  1.00  0.00     0.031 C 
ATOM     57  C   UNL A   1      43.357  34.340  30.342  1.00  0.00     0.029 A 
ATOM     58  C   UNL A   1      42.936  33.958  31.680  1.00  0.00     0.049 A 
ATOM     59  H   UNL A   1      42.153  32.107  32.251  1.00  0.00     0.167 HD
ATOM     60  C   UNL A   1      42.054  27.765  33.588  1.00  0.00     0.037 A 
ATOM     61  C   UNL A   1      42.966  34.645  32.847  1.00  0.00     0.037 A 
ATOM     62  C   UNL A   1      40.704  28.236  33.732  1.00  0.00     0.049 A 
ATOM     63  C   UNL A   1      42.177  33.861  33.840  1.00  0.00     0.074 A 
ATOM     64  C   UNL A   1      39.533  28.021  33.033  1.00  0.00     0.029 A 
ATOM     65  N   UNL A   1      40.496  29.362  34.493  1.00  0.00    -0.354 N 
ATOM     66  N   UNL A   1      40.888  33.661  33.768  1.00  0.00    -0.248 NA
ATOM     67  C   UNL A   1      42.899  32.926  34.692  1.00  0.00     0.031 C 
ATOM     68  C   UNL A   1      38.836  29.262  33.078  1.00  0.00     0.029 A 
ATOM     69  C   UNL A   1      39.605  30.160  33.821  1.00  0.00     0.049 A 
ATOM     70  H   UNL A   1      40.911  29.558  35.363  1.00  0.00     0.167 HD
ATOM     71  C   UNL A   1      40.690  32.368  34.241  1.00  0.00     0.074 A 
ATOM     72  C   UNL A   1      41.948  32.007  34.886  1.00  0.00     0.031 C 
ATOM     73  C   UNL A   1      39.630  31.612  33.829  1.00  0.00     0.037 A 
BRANCH  60  74
ATOM     74  C   UNL A   1      42.873  27.232  34.730  1.00  0.00     0.058 A 
ATOM     75  C   UNL A   1      43.985  27.918  35.272  1.00  0.00     0.135 A 
ATOM     76  C   UNL A   1      42.414  26.130  35.470  1.00  0.00     0.135 A 
ATOM     77  F   UNL A   1      44.439  29.067  34.752  1.00  0.00    -0.206 F 
ATOM     78  C   UNL A   1      44.628  27.515  36.431  1.00  0.00     0.059 A 
ATOM     79  C   UNL A   1      43.002  25.749  36.678  1.00  0.00     0.059 A 
ATOM     80  F   UNL A   1      41.339  25.437  35.063  1.00  0.00    -0.206 F 
ATOM     81  C   UNL A   1      44.111  26.447  37.146  1.00  0.00     0.060 A 
BRANCH  81  82
ATOM     82  S   UNL A   1      44.840  26.095  38.753  1.00  0.00     0.124 S 
ATOM     83  O   UNL A   1      43.818  26.614  39.655  1.00  0.00    -0.237 OA
ATOM     84  O   UNL A   1      44.977  24.642  38.712  1.00  0.00    -0.237 OA
ATOM     85  O   UNL A   1      46.094  26.840  38.721  1.00  0.00    -0.744 OA
ENDBRANCH  81  82
ENDBRANCH  60  74
BRANCH  61  86
ATOM     86  C   UNL A   1      43.934  35.705  33.234  1.00  0.00     0.058 A 
ATOM     87  C   UNL A   1      45.328  35.503  33.144  1.00  0.00     0.135 A 
ATOM     88  C   UNL A   1      43.518  36.850  33.934  1.00  0.00     0.135 A 
ATOM     89  F   UNL A   1      45.838  34.405  32.566  1.00  0.00    -0.206 F 
ATOM     90  C   UNL A   1      46.251  36.370  33.723  1.00  0.00     0.059 A 
ATOM     91  C   UNL A   1      44.427  37.729  34.536  1.00  0.00     0.059 A 
ATOM     92  F   UNL A   1      42.210  37.100  34.095  1.00  0.00    -0.206 F 
ATOM     93  C   UNL A   1      45.791  37.468  34.439  1.00  0.00     0.060 A 
BRANCH  93  94
ATOM     94  S   UNL A   1      47.014  38.481  35.301  1.00  0.00     0.124 S 
ATOM     95  O   UNL A   1      46.776  39.797  34.718  1.00  0.00    -0.237 OA
ATOM     96  O   UNL A   1      46.608  38.323  36.694  1.00  0.00    -0.237 OA
ATOM     97  O   UNL A   1      48.284  37.857  34.945  1.00  0.00    -0.744 OA
ENDBRANCH  93  94
ENDBRANCH  61  86
BRANCH  73  98
ATOM     98  C   UNL A   1      38.512  32.293  33.081  1.00  0.00     0.058 A 
ATOM     99  C   UNL A   1      37.303  32.527  33.756  1.00  0.00     0.135 A 
ATOM    100  C   UNL A   1      38.525  32.515  31.693  1.00  0.00     0.135 A 
ATOM    101  F   UNL A   1      37.209  32.282  35.074  1.00  0.00    -0.206 F 
ATOM    102  C   UNL A   1      36.154  32.936  33.085  1.00  0.00     0.059 A 
ATOM    103  C   UNL A   1      37.393  32.957  31.004  1.00  0.00     0.059 A 
ATOM    104  F   UNL A   1      39.611  32.227  30.962  1.00  0.00    -0.206 F 
ATOM    105  C   UNL A   1      36.203  33.138  31.706  1.00  0.00     0.060 A 
BRANCH 105 106
ATOM    106  S   UNL A   1      34.679  33.582  30.849  1.00  0.00     0.124 S 
ATOM    107  O   UNL A   1      35.148  34.594  29.906  1.00  0.00    -0.237 OA
ATOM    108  O   UNL A   1      34.271  32.312  30.254  1.00  0.00    -0.237 OA
ATOM    109  O   UNL A   1      33.811  34.078  31.913  1.00  0.00    -0.744 OA
ENDBRANCH 105 106
ENDBRANCH  73  98
ENDBRANCH  47  48
ENDBRANCH  40  42
ENDBRANCH  39  40
ENDBRANCH  38  39
ENDBRANCH  37  38
ENDBRANCH  36  37
ENDBRANCH  35  36
ENDBRANCH   1  35
TORSDOF 25
ENDMDL
MODEL 2
REMARK VINA RESULT:      -9.1      6.334     13.995
REMARK SMILES CC1=Nc2c(c(C)nn2-c2ccc(F)cc2)[C@H](c2ccc(C(=O)OCCOCCOCCOCCOC(=O)c3ccc(-c4c5nc(c(-c6c(F)cc(S(=O)(=O)[O-])cc6F)c6ccc([nH]6)c(-c6c(F)cc(S(=O)(=O)[O-])cc6F)c6nc(c(-c7c(F)cc(S(=O)(=O)[O-])cc7F)c7ccc4[nH]7)C=C6)C=C5)cc3)cc2)S1
REMARK SMILES IDX 31 1 30 2 29 3 28 4 27 5 26 6 25 7 24 8 22 9 23 10 21 11
REMARK SMILES IDX 18 12 19 13 106 14 20 15 105 16 17 17 1 18 2 19 3 20 107 21
REMARK SMILES IDX 4 22 5 23 9 24 6 25 8 26 7 27 10 28 11 29 16 30 12 31 15 32
REMARK SMILES IDX 13 33 14 34 32 35 33 36 34 37 35 38 36 39 37 40 38 41 39 42
REMARK SMILES IDX 40 43 104 44 41 45 103 46 42 47 43 48 44 49 97 50 45 51
REMARK SMILES IDX 102 52 96 53 98 54 46 55 101 56 95 57 94 58 47 60 81 61
REMARK SMILES IDX 60 62 80 63 61 64 64 65 79 66 99 67 62 68 63 69 78 71 100 72
REMARK SMILES IDX 65 73 48 74 49 75 58 76 50 77 51 78 57 79 59 80 52 81 53 82
REMARK SMILES IDX 54 83 55 84 56 85 82 86 83 87 92 88 84 89 85 90 91 91 93 92
REMARK SMILES IDX 86 93 87 94 88 95 89 96 90 97 66 98 67 99 76 100 68 101
REMARK SMILES IDX 69 102 75 103 77 104 70 105 71 106 72 107 73 108 74 109
REMARK H PARENT 98 59 64 70
REMARK Flexibility Score: inf
ROOT
ATOM      1  C   UNL A   1      45.557  30.947  34.591  1.00  0.00     0.188 C 
ENDROOT
BRANCH   1   2
ATOM      2  O   UNL A   1      44.157  30.692  34.655  1.00  0.00    -0.377 OA
BRANCH   2   3
ATOM      3  C   UNL A   1      43.810  29.321  34.772  1.00  0.00     0.188 C 
BRANCH   3   4
ATOM      4  C   UNL A   1      42.292  29.084  34.874  1.00  0.00     0.188 C 
BRANCH   4   5
ATOM      5  O   UNL A   1      41.705  27.893  34.372  1.00  0.00    -0.376 OA
BRANCH   5   6
ATOM      6  C   UNL A   1      41.687  26.673  35.097  1.00  0.00     0.202 C 
BRANCH   6   7
ATOM      7  C   UNL A   1      41.372  26.544  36.600  1.00  0.00     0.261 C 
BRANCH   7   8
ATOM      8  O   UNL A   1      42.153  25.626  37.361  1.00  0.00    -0.460 OA
BRANCH   8   9
ATOM      9  C   UNL A   1      43.400  26.031  37.673  1.00  0.00     0.338 C 
ATOM     10  O   UNL A   1      43.738  27.143  38.036  1.00  0.00    -0.246 OA
BRANCH   9  11
ATOM     11  C   UNL A   1      44.295  24.844  37.684  1.00  0.00     0.060 A 
ATOM     12  C   UNL A   1      46.094  22.667  37.823  1.00  0.00    -0.030 A 
ATOM     13  C   UNL A   1      45.879  23.511  38.930  1.00  0.00     0.006 A 
ATOM     14  C   UNL A   1      45.307  22.882  36.676  1.00  0.00     0.006 A 
ATOM     15  C   UNL A   1      44.993  24.585  38.863  1.00  0.00     0.016 A 
ATOM     16  C   UNL A   1      44.422  23.971  36.600  1.00  0.00     0.016 A 
BRANCH  12  17
ATOM     17  C   UNL A   1      47.238  21.662  37.894  1.00  0.00     0.119 C 
ATOM     18  C   UNL A   1      50.748  23.727  38.677  1.00  0.00     0.075 C 
ATOM     19  C   UNL A   1      49.768  22.794  38.018  1.00  0.00     0.074 C 
ATOM     20  N   UNL A   1      49.939  22.533  36.762  1.00  0.00    -0.227 NA
ATOM     21  S   UNL A   1      48.546  22.113  39.082  1.00  0.00    -0.098 SA
ATOM     22  C   UNL A   1      49.028  21.753  36.135  1.00  0.00     0.161 A 
ATOM     23  C   UNL A   1      47.762  21.389  36.537  1.00  0.00     0.038 A 
ATOM     24  N   UNL A   1      49.221  21.195  34.879  1.00  0.00    -0.215 N 
ATOM     25  C   UNL A   1      47.236  20.654  35.442  1.00  0.00     0.067 A 
ATOM     26  N   UNL A   1      48.077  20.638  34.401  1.00  0.00    -0.171 NA
ATOM     27  C   UNL A   1      45.942  19.933  35.337  1.00  0.00     0.069 C 
BRANCH  24  28
ATOM     28  C   UNL A   1      50.437  21.093  34.156  1.00  0.00     0.067 A 
ATOM     29  C   UNL A   1      51.272  19.980  34.342  1.00  0.00     0.031 A 
ATOM     30  C   UNL A   1      50.793  22.101  33.251  1.00  0.00     0.031 A 
ATOM     31  C   UNL A   1      52.471  19.886  33.634  1.00  0.00     0.041 A 
ATOM     32  C   UNL A   1      52.020  22.023  32.587  1.00  0.00     0.041 A 
ATOM     33  C   UNL A   1      52.842  20.917  32.779  1.00  0.00     0.123 A 
ATOM     34  F   UNL A   1      54.009  20.836  32.128  1.00  0.00    -0.207 F 
ENDBRANCH  24  28
ENDBRANCH  12  17
ENDBRANCH   9  11
ENDBRANCH   8   9
ENDBRANCH   7   8
ENDBRANCH   6   7
ENDBRANCH   5   6
ENDBRANCH   4   5
ENDBRANCH   3   4
ENDBRANCH   2   3
ENDBRANCH   1   2
BRANCH   1  35
ATOM     35  C   UNL A   1      46.488  29.989  35.370  1.00  0.00     0.188 C 
BRANCH  35  36
ATOM     36  O   UNL A   1      47.702  29.670  34.687  1.00  0.00    -0.376 OA
BRANCH  36  37
ATOM     37  C   UNL A   1      48.892  29.488  35.443  1.00  0.00     0.202 C 
BRANCH  37  38
ATOM     38  C   UNL A   1      48.932  28.155  36.184  1.00  0.00     0.261 C 
BRANCH  38  39
ATOM     39  O   UNL A   1      48.666  27.050  35.337  1.00  0.00    -0.460 OA
BRANCH  39  40
ATOM     40  C   UNL A   1      47.920  26.067  35.882  1.00  0.00     0.338 C 
ATOM     41  O   UNL A   1      48.017  25.596  36.998  1.00  0.00    -0.246 OA
BRANCH  40  42
ATOM     42  C   UNL A   1      46.995  25.575  34.858  1.00  0.00     0.060 A 
ATOM     43  C   UNL A   1      47.530  24.649  33.961  1.00  0.00     0.016 A 
ATOM     44  C   UNL A   1      45.831  26.310  34.594  1.00  0.00     0.016 A 
ATOM     45  C   UNL A   1      47.087  24.703  32.666  1.00  0.00     0.010 A 
ATOM     46  C   UNL A   1      45.413  26.386  33.297  1.00  0.00     0.010 A 
ATOM     47  C   UNL A   1      46.130  25.669  32.345  1.00  0.00    -0.014 A 
BRANCH  47  48
ATOM     48  C   UNL A   1      45.971  26.001  30.953  1.00  0.00     0.031 A 
ATOM     49  C   UNL A   1      46.837  27.098  30.495  1.00  0.00     0.074 A 
ATOM     50  C   UNL A   1      45.173  25.256  30.167  1.00  0.00     0.049 A 
ATOM     51  N   UNL A   1      46.496  28.268  30.074  1.00  0.00    -0.248 NA
ATOM     52  C   UNL A   1      48.286  26.914  30.685  1.00  0.00     0.031 C 
ATOM     53  C   UNL A   1      44.561  23.955  30.469  1.00  0.00     0.029 A 
ATOM     54  N   UNL A   1      44.842  25.459  28.869  1.00  0.00    -0.354 N 
ATOM     55  C   UNL A   1      47.691  28.897  29.753  1.00  0.00     0.074 A 
ATOM     56  C   UNL A   1      48.747  28.112  30.333  1.00  0.00     0.031 C 
ATOM     57  C   UNL A   1      44.132  23.394  29.315  1.00  0.00     0.029 A 
ATOM     58  C   UNL A   1      44.332  24.341  28.230  1.00  0.00     0.049 A 
ATOM     59  H   UNL A   1      44.954  26.327  28.419  1.00  0.00     0.167 HD
ATOM     60  C   UNL A   1      47.758  29.881  28.820  1.00  0.00     0.037 A 
ATOM     61  C   UNL A   1      44.205  24.191  26.890  1.00  0.00     0.037 A 
ATOM     62  C   UNL A   1      46.467  30.447  28.541  1.00  0.00     0.049 A 
ATOM     63  C   UNL A   1      44.282  25.552  26.285  1.00  0.00     0.074 A 
ATOM     64  C   UNL A   1      45.535  31.129  29.298  1.00  0.00     0.029 A 
ATOM     65  N   UNL A   1      45.805  30.013  27.418  1.00  0.00    -0.354 N 
ATOM     66  N   UNL A   1      43.390  26.490  26.459  1.00  0.00    -0.248 NA
ATOM     67  C   UNL A   1      45.585  26.019  25.831  1.00  0.00     0.031 C 
ATOM     68  C   UNL A   1      44.268  30.704  28.806  1.00  0.00     0.029 A 
ATOM     69  C   UNL A   1      44.492  29.806  27.761  1.00  0.00     0.049 A 
ATOM     70  H   UNL A   1      46.202  29.876  26.528  1.00  0.00     0.167 HD
ATOM     71  C   UNL A   1      44.111  27.678  26.513  1.00  0.00     0.074 A 
ATOM     72  C   UNL A   1      45.440  27.334  26.021  1.00  0.00     0.031 C 
ATOM     73  C   UNL A   1      43.651  28.762  27.205  1.00  0.00     0.037 A 
BRANCH  60  74
ATOM     74  C   UNL A   1      48.961  30.088  27.943  1.00  0.00     0.058 A 
ATOM     75  C   UNL A   1      49.407  29.132  27.001  1.00  0.00     0.135 A 
ATOM     76  C   UNL A   1      49.557  31.358  27.857  1.00  0.00     0.135 A 
ATOM     77  F   UNL A   1      48.829  27.930  26.874  1.00  0.00    -0.206 F 
ATOM     78  C   UNL A   1      50.404  29.394  26.075  1.00  0.00     0.059 A 
ATOM     79  C   UNL A   1      50.511  31.665  26.885  1.00  0.00     0.059 A 
ATOM     80  F   UNL A   1      49.173  32.347  28.678  1.00  0.00    -0.206 F 
ATOM     81  C   UNL A   1      50.929  30.674  26.003  1.00  0.00     0.060 A 
BRANCH  81  82
ATOM     82  S   UNL A   1      52.059  31.030  24.647  1.00  0.00     0.124 S 
ATOM     83  O   UNL A   1      51.664  32.389  24.291  1.00  0.00    -0.237 OA
ATOM     84  O   UNL A   1      53.361  30.893  25.293  1.00  0.00    -0.237 OA
ATOM     85  O   UNL A   1      51.737  29.999  23.666  1.00  0.00    -0.744 OA
ENDBRANCH  81  82
ENDBRANCH  60  74
BRANCH  61  86
ATOM     86  C   UNL A   1      44.408  22.943  26.109  1.00  0.00     0.058 A 
ATOM     87  C   UNL A   1      43.382  21.986  25.960  1.00  0.00     0.135 A 
ATOM     88  C   UNL A   1      45.691  22.544  25.696  1.00  0.00     0.135 A 
ATOM     89  F   UNL A   1      42.135  22.230  26.391  1.00  0.00    -0.206 F 
ATOM     90  C   UNL A   1      43.612  20.711  25.452  1.00  0.00     0.059 A 
ATOM     91  C   UNL A   1      45.950  21.263  25.195  1.00  0.00     0.059 A 
ATOM     92  F   UNL A   1      46.731  23.380  25.833  1.00  0.00    -0.206 F 
ATOM     93  C   UNL A   1      44.905  20.348  25.094  1.00  0.00     0.060 A 
BRANCH  93  94
ATOM     94  S   UNL A   1      45.186  18.637  24.584  1.00  0.00     0.124 S 
ATOM     95  O   UNL A   1      43.841  18.077  24.663  1.00  0.00    -0.237 OA
ATOM     96  O   UNL A   1      45.722  18.809  23.238  1.00  0.00    -0.237 OA
ATOM     97  O   UNL A   1      46.133  18.138  25.575  1.00  0.00    -0.744 OA
ENDBRANCH  93  94
ENDBRANCH  61  86
BRANCH  73  98
ATOM     98  C   UNL A   1      42.215  28.759  27.668  1.00  0.00     0.058 A 
ATOM     99  C   UNL A   1      41.214  29.089  26.741  1.00  0.00     0.135 A 
ATOM    100  C   UNL A   1      41.831  28.658  29.017  1.00  0.00     0.135 A 
ATOM    101  F   UNL A   1      41.526  29.254  25.444  1.00  0.00    -0.206 F 
ATOM    102  C   UNL A   1      39.901  29.334  27.132  1.00  0.00     0.059 A 
ATOM    103  C   UNL A   1      40.513  28.867  29.429  1.00  0.00     0.059 A 
ATOM    104  F   UNL A   1      42.743  28.439  29.975  1.00  0.00    -0.206 F 
ATOM    105  C   UNL A   1      39.560  29.232  28.481  1.00  0.00     0.060 A 
BRANCH 105 106
ATOM    106  S   UNL A   1      37.872  29.640  28.972  1.00  0.00     0.124 S 
ATOM    107  O   UNL A   1      37.683  28.782  30.138  1.00  0.00    -0.237 OA
ATOM    108  O   UNL A   1      37.964  31.070  29.254  1.00  0.00    -0.237 OA
ATOM    109  O   UNL A   1      37.073  29.287  27.803  1.00  0.00    -0.744 OA
ENDBRANCH 105 106
ENDBRANCH  73  98
ENDBRANCH  47  48
ENDBRANCH  40  42
ENDBRANCH  39  40
ENDBRANCH  38  39
ENDBRANCH  37  38
ENDBRANCH  36  37
ENDBRANCH  35  36
ENDBRANCH   1  35
TORSDOF 25
ENDMDL
MODEL 3
REMARK VINA RESULT:      -8.9      5.473     12.331
REMARK SMILES CC1=Nc2c(c(C)nn2-c2ccc(F)cc2)[C@H](c2ccc(C(=O)OCCOCCOCCOCCOC(=O)c3ccc(-c4c5nc(c(-c6c(F)cc(S(=O)(=O)[O-])cc6F)c6ccc([nH]6)c(-c6c(F)cc(S(=O)(=O)[O-])cc6F)c6nc(c(-c7c(F)cc(S(=O)(=O)[O-])cc7F)c7ccc4[nH]7)C=C6)C=C5)cc3)cc2)S1
REMARK SMILES IDX 31 1 30 2 29 3 28 4 27 5 26 6 25 7 24 8 22 9 23 10 21 11
REMARK SMILES IDX 18 12 19 13 106 14 20 15 105 16 17 17 1 18 2 19 3 20 107 21
REMARK SMILES IDX 4 22 5 23 9 24 6 25 8 26 7 27 10 28 11 29 16 30 12 31 15 32
REMARK SMILES IDX 13 33 14 34 32 35 33 36 34 37 35 38 36 39 37 40 38 41 39 42
REMARK SMILES IDX 40 43 104 44 41 45 103 46 42 47 43 48 44 49 97 50 45 51
REMARK SMILES IDX 102 52 96 53 98 54 46 55 101 56 95 57 94 58 47 60 81 61
REMARK SMILES IDX 60 62 80 63 61 64 64 65 79 66 99 67 62 68 63 69 78 71 100 72
REMARK SMILES IDX 65 73 48 74 49 75 58 76 50 77 51 78 57 79 59 80 52 81 53 82
REMARK SMILES IDX 54 83 55 84 56 85 82 86 83 87 92 88 84 89 85 90 91 91 93 92
REMARK SMILES IDX 86 93 87 94 88 95 89 96 90 97 66 98 67 99 76 100 68 101
REMARK SMILES IDX 69 102 75 103 77 104 70 105 71 106 72 107 73 108 74 109
REMARK H PARENT 98 59 64 70
REMARK Flexibility Score: inf
ROOT
ATOM      1  C   UNL A   1      45.449  28.693  41.257  1.00  0.00     0.188 C 
ENDROOT
BRANCH   1   2
ATOM      2  O   UNL A   1      44.744  29.660  40.484  1.00  0.00    -0.377 OA
BRANCH   2   3
ATOM      3  C   UNL A   1      45.571  30.538  39.736  1.00  0.00     0.188 C 
BRANCH   3   4
ATOM      4  C   UNL A   1      46.877  29.880  39.252  1.00  0.00     0.188 C 
BRANCH   4   5
ATOM      5  O   UNL A   1      46.901  29.090  38.073  1.00  0.00    -0.376 OA
BRANCH   5   6
ATOM      6  C   UNL A   1      47.174  29.625  36.788  1.00  0.00     0.202 C 
BRANCH   6   7
ATOM      7  C   UNL A   1      46.609  30.953  36.246  1.00  0.00     0.261 C 
BRANCH   7   8
ATOM      8  O   UNL A   1      45.438  30.889  35.436  1.00  0.00    -0.460 OA
BRANCH   8   9
ATOM      9  C   UNL A   1      45.102  32.027  34.796  1.00  0.00     0.338 C 
ATOM     10  O   UNL A   1      45.775  32.634  33.983  1.00  0.00    -0.246 OA
BRANCH   9  11
ATOM     11  C   UNL A   1      43.681  32.341  35.100  1.00  0.00     0.060 A 
ATOM     12  C   UNL A   1      41.004  33.094  35.610  1.00  0.00    -0.030 A 
ATOM     13  C   UNL A   1      41.728  33.646  34.535  1.00  0.00     0.006 A 
ATOM     14  C   UNL A   1      41.625  32.079  36.363  1.00  0.00     0.006 A 
ATOM     15  C   UNL A   1      43.048  33.276  34.283  1.00  0.00     0.016 A 
ATOM     16  C   UNL A   1      42.959  31.712  36.119  1.00  0.00     0.016 A 
BRANCH  12  17
ATOM     17  C   UNL A   1      39.655  33.710  35.964  1.00  0.00     0.119 C 
ATOM     18  C   UNL A   1      40.138  36.078  39.334  1.00  0.00     0.075 C 
ATOM     19  C   UNL A   1      39.588  35.032  38.402  1.00  0.00     0.074 C 
ATOM     20  N   UNL A   1      38.986  34.014  38.929  1.00  0.00    -0.227 NA
ATOM     21  S   UNL A   1      39.772  35.379  36.689  1.00  0.00    -0.098 SA
ATOM     22  C   UNL A   1      38.547  33.029  38.112  1.00  0.00     0.161 A 
ATOM     23  C   UNL A   1      38.869  32.774  36.797  1.00  0.00     0.038 A 
ATOM     24  N   UNL A   1      37.679  32.023  38.510  1.00  0.00    -0.215 N 
ATOM     25  C   UNL A   1      38.192  31.564  36.491  1.00  0.00     0.067 A 
ATOM     26  N   UNL A   1      37.569  31.056  37.562  1.00  0.00    -0.171 NA
ATOM     27  C   UNL A   1      38.092  30.852  35.192  1.00  0.00     0.069 C 
BRANCH  24  28
ATOM     28  C   UNL A   1      36.896  31.974  39.692  1.00  0.00     0.067 A 
ATOM     29  C   UNL A   1      37.405  31.353  40.845  1.00  0.00     0.031 A 
ATOM     30  C   UNL A   1      35.623  32.556  39.706  1.00  0.00     0.031 A 
ATOM     31  C   UNL A   1      36.630  31.301  42.004  1.00  0.00     0.041 A 
ATOM     32  C   UNL A   1      34.834  32.452  40.855  1.00  0.00     0.041 A 
ATOM     33  C   UNL A   1      35.346  31.833  41.992  1.00  0.00     0.123 A 
ATOM     34  F   UNL A   1      34.595  31.751  43.098  1.00  0.00    -0.207 F 
ENDBRANCH  24  28
ENDBRANCH  12  17
ENDBRANCH   9  11
ENDBRANCH   8   9
ENDBRANCH   7   8
ENDBRANCH   6   7
ENDBRANCH   5   6
ENDBRANCH   4   5
ENDBRANCH   3   4
ENDBRANCH   2   3
ENDBRANCH   1   2
BRANCH   1  35
ATOM     35  C   UNL A   1      44.608  27.613  41.977  1.00  0.00     0.188 C 
BRANCH  35  36
ATOM     36  O   UNL A   1      44.481  26.389  41.251  1.00  0.00    -0.376 OA
BRANCH  36  37
ATOM     37  C   UNL A   1      45.377  26.127  40.179  1.00  0.00     0.202 C 
BRANCH  37  38
ATOM     38  C   UNL A   1      44.675  25.622  38.922  1.00  0.00     0.261 C 
BRANCH  38  39
ATOM     39  O   UNL A   1      43.558  26.418  38.563  1.00  0.00    -0.460 OA
BRANCH  39  40
ATOM     40  C   UNL A   1      42.895  26.022  37.456  1.00  0.00     0.338 C 
ATOM     41  O   UNL A   1      41.843  25.417  37.400  1.00  0.00    -0.246 OA
BRANCH  40  42
ATOM     42  C   UNL A   1      43.708  26.370  36.289  1.00  0.00     0.060 A 
ATOM     43  C   UNL A   1      44.053  27.718  36.178  1.00  0.00     0.016 A 
ATOM     44  C   UNL A   1      43.748  25.480  35.206  1.00  0.00     0.016 A 
ATOM     45  C   UNL A   1      44.117  28.248  34.916  1.00  0.00     0.010 A 
ATOM     46  C   UNL A   1      43.778  26.015  33.950  1.00  0.00     0.010 A 
ATOM     47  C   UNL A   1      43.843  27.400  33.840  1.00  0.00    -0.014 A 
BRANCH  47  48
ATOM     48  C   UNL A   1      43.508  28.019  32.584  1.00  0.00     0.031 A 
ATOM     49  C   UNL A   1      42.104  28.444  32.481  1.00  0.00     0.074 A 
ATOM     50  C   UNL A   1      44.468  28.265  31.674  1.00  0.00     0.049 A 
ATOM     51  N   UNL A   1      41.188  28.001  31.689  1.00  0.00    -0.248 NA
ATOM     52  C   UNL A   1      41.623  29.379  33.512  1.00  0.00     0.031 C 
ATOM     53  C   UNL A   1      45.924  28.190  31.849  1.00  0.00     0.029 A 
ATOM     54  N   UNL A   1      44.333  28.762  30.421  1.00  0.00    -0.354 N 
ATOM     55  C   UNL A   1      40.060  28.754  31.989  1.00  0.00     0.074 A 
ATOM     56  C   UNL A   1      40.323  29.424  33.234  1.00  0.00     0.031 C 
ATOM     57  C   UNL A   1      46.523  28.840  30.824  1.00  0.00     0.029 A 
ATOM     58  C   UNL A   1      45.504  29.263  29.878  1.00  0.00     0.049 A 
ATOM     59  H   UNL A   1      43.476  28.766  29.937  1.00  0.00     0.167 HD
ATOM     60  C   UNL A   1      39.081  28.979  31.076  1.00  0.00     0.037 A 
ATOM     61  C   UNL A   1      45.585  30.065  28.789  1.00  0.00     0.037 A 
ATOM     62  C   UNL A   1      39.144  28.050  29.981  1.00  0.00     0.049 A 
ATOM     63  C   UNL A   1      44.295  29.942  28.054  1.00  0.00     0.074 A 
ATOM     64  C   UNL A   1      39.025  26.679  29.877  1.00  0.00     0.029 A 
ATOM     65  N   UNL A   1      39.738  28.472  28.816  1.00  0.00    -0.354 N 
ATOM     66  N   UNL A   1      43.883  28.854  27.460  1.00  0.00    -0.248 NA
ATOM     67  C   UNL A   1      43.250  30.914  28.350  1.00  0.00     0.031 C 
ATOM     68  C   UNL A   1      39.937  26.298  28.853  1.00  0.00     0.029 A 
ATOM     69  C   UNL A   1      40.547  27.458  28.368  1.00  0.00     0.049 A 
ATOM     70  H   UNL A   1      39.607  29.345  28.381  1.00  0.00     0.167 HD
ATOM     71  C   UNL A   1      42.506  28.829  27.652  1.00  0.00     0.074 A 
ATOM     72  C   UNL A   1      42.166  30.169  28.117  1.00  0.00     0.031 C 
ATOM     73  C   UNL A   1      41.811  27.654  27.681  1.00  0.00     0.037 A 
BRANCH  60  74
ATOM     74  C   UNL A   1      38.278  30.248  31.042  1.00  0.00     0.058 A 
ATOM     75  C   UNL A   1      38.607  31.350  30.219  1.00  0.00     0.135 A 
ATOM     76  C   UNL A   1      37.017  30.300  31.659  1.00  0.00     0.135 A 
ATOM     77  F   UNL A   1      39.710  31.371  29.458  1.00  0.00    -0.206 F 
ATOM     78  C   UNL A   1      37.774  32.445  30.056  1.00  0.00     0.059 A 
ATOM     79  C   UNL A   1      36.132  31.359  31.453  1.00  0.00     0.059 A 
ATOM     80  F   UNL A   1      36.593  29.283  32.426  1.00  0.00    -0.206 F 
ATOM     81  C   UNL A   1      36.523  32.428  30.652  1.00  0.00     0.060 A 
BRANCH  81  82
ATOM     82  S   UNL A   1      35.390  33.764  30.239  1.00  0.00     0.124 S 
ATOM     83  O   UNL A   1      34.146  33.033  30.024  1.00  0.00    -0.237 OA
ATOM     84  O   UNL A   1      35.444  34.590  31.442  1.00  0.00    -0.237 OA
ATOM     85  O   UNL A   1      35.991  34.355  29.049  1.00  0.00    -0.744 OA
ENDBRANCH  81  82
ENDBRANCH  60  74
BRANCH  61  86
ATOM     86  C   UNL A   1      46.536  31.188  28.579  1.00  0.00     0.058 A 
ATOM     87  C   UNL A   1      46.507  32.346  29.386  1.00  0.00     0.135 A 
ATOM     88  C   UNL A   1      47.333  31.260  27.424  1.00  0.00     0.135 A 
ATOM     89  F   UNL A   1      45.720  32.419  30.471  1.00  0.00    -0.206 F 
ATOM     90  C   UNL A   1      47.208  33.504  29.063  1.00  0.00     0.059 A 
ATOM     91  C   UNL A   1      48.037  32.418  27.071  1.00  0.00     0.059 A 
ATOM     92  F   UNL A   1      47.392  30.216  26.582  1.00  0.00    -0.206 F 
ATOM     93  C   UNL A   1      47.951  33.541  27.891  1.00  0.00     0.060 A 
BRANCH  93  94
ATOM     94  S   UNL A   1      48.721  35.110  27.433  1.00  0.00     0.124 S 
ATOM     95  O   UNL A   1      49.492  34.732  26.253  1.00  0.00    -0.237 OA
ATOM     96  O   UNL A   1      47.557  35.955  27.183  1.00  0.00    -0.237 OA
ATOM     97  O   UNL A   1      49.507  35.461  28.610  1.00  0.00    -0.744 OA
ENDBRANCH  93  94
ENDBRANCH  61  86
BRANCH  73  98
ATOM     98  C   UNL A   1      42.504  26.399  27.210  1.00  0.00     0.058 A 
ATOM     99  C   UNL A   1      42.323  25.996  25.878  1.00  0.00     0.135 A 
ATOM    100  C   UNL A   1      43.145  25.493  28.073  1.00  0.00     0.135 A 
ATOM    101  F   UNL A   1      41.669  26.794  25.017  1.00  0.00    -0.206 F 
ATOM    102  C   UNL A   1      42.731  24.745  25.426  1.00  0.00     0.059 A 
ATOM    103  C   UNL A   1      43.593  24.245  27.635  1.00  0.00     0.059 A 
ATOM    104  F   UNL A   1      43.273  25.763  29.380  1.00  0.00    -0.206 F 
ATOM    105  C   UNL A   1      43.356  23.869  26.314  1.00  0.00     0.060 A 
BRANCH 105 106
ATOM    106  S   UNL A   1      43.796  22.221  25.725  1.00  0.00     0.124 S 
ATOM    107  O   UNL A   1      43.443  22.302  24.311  1.00  0.00    -0.237 OA
ATOM    108  O   UNL A   1      45.226  22.155  26.013  1.00  0.00    -0.237 OA
ATOM    109  O   UNL A   1      42.960  21.330  26.524  1.00  0.00    -0.744 OA
ENDBRANCH 105 106
ENDBRANCH  73  98
ENDBRANCH  47  48
ENDBRANCH  40  42
ENDBRANCH  39  40
ENDBRANCH  38  39
ENDBRANCH  37  38
ENDBRANCH  36  37
ENDBRANCH  35  36
ENDBRANCH   1  35
TORSDOF 25
ENDMDL
