MODEL 1
REMARK VINA RESULT:      -9.9      0.000      0.000
REMARK SMILES O=C(OCCOCCOCCOCCOC(=O)[C@H]1[C@@H](C(=O)Nc2ccccc2-c2ccccc2)[C@@H]2C=C[C@H]1O2)c1ccc(-c2c3nc(c(-c4c(F)cc(S(=O)(=O)[O-])cc4F)c4ccc([nH]4)c(-c4c(F)cc(S(=O)(=O)[O-])cc4F)c4nc(c(-c5c(F)cc(S(=O)(=O)[O-])cc5F)c5ccc2[nH]5)C=C4)C=C3)cc1
REMARK SMILES IDX 9 1 8 2 7 3 6 4 5 5 4 6 3 7 2 8 1 9 40 10 41 11 105 12 42 13
REMARK SMILES IDX 104 14 43 15 44 16 45 17 98 18 46 19 103 20 97 21 99 22
REMARK SMILES IDX 47 23 102 24 96 25 95 26 48 28 82 29 61 30 81 31 62 32 65 33
REMARK SMILES IDX 80 34 100 35 63 36 64 37 79 39 101 40 66 41 49 42 50 43
REMARK SMILES IDX 59 44 51 45 52 46 58 47 60 48 53 49 54 50 55 51 56 52 57 53
REMARK SMILES IDX 83 54 84 55 93 56 85 57 86 58 92 59 94 60 87 61 88 62 89 63
REMARK SMILES IDX 90 64 91 65 67 66 68 67 77 68 69 69 70 70 76 71 78 72 71 73
REMARK SMILES IDX 72 74 73 75 74 76 75 77 10 78 11 79 12 80 13 81 14 82 15 83
REMARK SMILES IDX 16 84 17 85 18 86 19 87 38 88 35 89 37 90 39 91 36 92 20 93
REMARK SMILES IDX 21 94 22 95 23 97 24 98 28 99 25 100 27 101 26 102 29 103
REMARK SMILES IDX 30 104 34 105 31 106 33 107 32 108
REMARK H PARENT 99 27 65 38 22 96
REMARK Flexibility Score: inf
ROOT
ATOM      1  O   UNL A   1      34.077  33.251  28.556  1.00  0.00    -0.377 OA
ENDROOT
BRANCH   1   2
ATOM      2  C   UNL A   1      35.031  34.220  28.975  1.00  0.00     0.188 C 
BRANCH   2   3
ATOM      3  C   UNL A   1      36.079  33.742  29.972  1.00  0.00     0.188 C 
BRANCH   3   4
ATOM      4  O   UNL A   1      35.596  34.046  31.265  1.00  0.00    -0.376 OA
BRANCH   4   5
ATOM      5  C   UNL A   1      35.278  32.998  32.162  1.00  0.00     0.202 C 
BRANCH   5   6
ATOM      6  C   UNL A   1      35.862  31.646  31.796  1.00  0.00     0.261 C 
BRANCH   6   7
ATOM      7  O   UNL A   1      36.869  31.160  32.699  1.00  0.00    -0.460 OA
BRANCH   7   8
ATOM      8  C   UNL A   1      37.516  29.974  32.746  1.00  0.00     0.338 C 
ATOM      9  O   UNL A   1      37.061  29.095  33.479  1.00  0.00    -0.246 OA
BRANCH   8  10
ATOM     10  C   UNL A   1      38.729  29.633  31.950  1.00  0.00     0.060 A 
ATOM     11  C   UNL A   1      39.831  28.929  32.424  1.00  0.00     0.016 A 
ATOM     12  C   UNL A   1      38.688  29.923  30.578  1.00  0.00     0.016 A 
ATOM     13  C   UNL A   1      40.905  28.606  31.620  1.00  0.00     0.010 A 
ATOM     14  C   UNL A   1      39.745  29.559  29.738  1.00  0.00     0.010 A 
ATOM     15  C   UNL A   1      40.875  28.931  30.276  1.00  0.00    -0.014 A 
BRANCH  15  16
ATOM     16  C   UNL A   1      42.134  28.788  29.536  1.00  0.00     0.031 A 
ATOM     17  C   UNL A   1      42.373  27.475  28.860  1.00  0.00     0.074 A 
ATOM     18  C   UNL A   1      42.920  29.859  29.329  1.00  0.00     0.049 A 
ATOM     19  N   UNL A   1      43.430  27.050  28.229  1.00  0.00    -0.248 NA
ATOM     20  C   UNL A   1      41.258  26.508  28.890  1.00  0.00     0.031 C 
ATOM     21  C   UNL A   1      42.640  31.221  29.804  1.00  0.00     0.029 A 
ATOM     22  N   UNL A   1      44.092  29.986  28.637  1.00  0.00    -0.354 N 
ATOM     23  C   UNL A   1      43.125  25.755  27.830  1.00  0.00     0.074 A 
ATOM     24  C   UNL A   1      41.791  25.456  28.292  1.00  0.00     0.031 C 
ATOM     25  C   UNL A   1      43.612  32.043  29.377  1.00  0.00     0.029 A 
ATOM     26  C   UNL A   1      44.621  31.254  28.682  1.00  0.00     0.049 A 
ATOM     27  H   UNL A   1      44.516  29.240  28.153  1.00  0.00     0.167 HD
ATOM     28  C   UNL A   1      43.909  24.899  27.141  1.00  0.00     0.037 A 
ATOM     29  C   UNL A   1      45.817  31.696  28.255  1.00  0.00     0.037 A 
ATOM     30  C   UNL A   1      45.227  25.255  26.695  1.00  0.00     0.049 A 
ATOM     31  C   UNL A   1      46.728  30.688  27.605  1.00  0.00     0.074 A 
ATOM     32  C   UNL A   1      46.172  24.470  26.066  1.00  0.00     0.029 A 
ATOM     33  N   UNL A   1      45.778  26.524  26.833  1.00  0.00    -0.354 N 
ATOM     34  N   UNL A   1      46.492  29.424  27.331  1.00  0.00    -0.248 NA
ATOM     35  C   UNL A   1      48.068  31.148  27.228  1.00  0.00     0.031 C 
ATOM     36  C   UNL A   1      47.314  25.255  25.868  1.00  0.00     0.029 A 
ATOM     37  C   UNL A   1      47.057  26.544  26.317  1.00  0.00     0.049 A 
ATOM     38  H   UNL A   1      45.322  27.297  27.240  1.00  0.00     0.167 HD
ATOM     39  C   UNL A   1      47.645  28.942  26.725  1.00  0.00     0.074 A 
ATOM     40  C   UNL A   1      48.570  30.059  26.661  1.00  0.00     0.031 C 
ATOM     41  C   UNL A   1      47.926  27.696  26.267  1.00  0.00     0.037 A 
BRANCH  28  42
ATOM     42  C   UNL A   1      43.384  23.509  26.923  1.00  0.00     0.058 A 
ATOM     43  C   UNL A   1      43.502  22.501  27.895  1.00  0.00     0.135 A 
ATOM     44  C   UNL A   1      42.793  23.166  25.697  1.00  0.00     0.135 A 
ATOM     45  F   UNL A   1      44.099  22.761  29.070  1.00  0.00    -0.206 F 
ATOM     46  C   UNL A   1      43.077  21.199  27.649  1.00  0.00     0.059 A 
ATOM     47  C   UNL A   1      42.336  21.877  25.438  1.00  0.00     0.059 A 
ATOM     48  F   UNL A   1      42.678  24.083  24.723  1.00  0.00    -0.206 F 
ATOM     49  C   UNL A   1      42.495  20.897  26.416  1.00  0.00     0.060 A 
BRANCH  49  50
ATOM     50  S   UNL A   1      41.954  19.203  26.113  1.00  0.00     0.124 S 
ATOM     51  O   UNL A   1      42.822  18.810  25.010  1.00  0.00    -0.237 OA
ATOM     52  O   UNL A   1      42.217  18.558  27.392  1.00  0.00    -0.237 OA
ATOM     53  O   UNL A   1      40.537  19.355  25.770  1.00  0.00    -0.744 OA
ENDBRANCH  49  50
ENDBRANCH  28  42
BRANCH  29  54
ATOM     54  C   UNL A   1      46.243  33.103  28.497  1.00  0.00     0.058 A 
ATOM     55  C   UNL A   1      45.850  34.148  27.647  1.00  0.00     0.135 A 
ATOM     56  C   UNL A   1      47.073  33.433  29.583  1.00  0.00     0.135 A 
ATOM     57  F   UNL A   1      45.060  33.892  26.592  1.00  0.00    -0.206 F 
ATOM     58  C   UNL A   1      46.283  35.456  27.846  1.00  0.00     0.059 A 
ATOM     59  C   UNL A   1      47.493  34.738  29.822  1.00  0.00     0.059 A 
ATOM     60  F   UNL A   1      47.475  32.480  30.440  1.00  0.00    -0.206 F 
ATOM     61  C   UNL A   1      47.107  35.741  28.938  1.00  0.00     0.060 A 
BRANCH  61  62
ATOM     62  S   UNL A   1      47.658  37.442  29.193  1.00  0.00     0.124 S 
ATOM     63  O   UNL A   1      49.107  37.296  29.108  1.00  0.00    -0.237 OA
ATOM     64  O   UNL A   1      47.019  38.141  28.083  1.00  0.00    -0.237 OA
ATOM     65  O   UNL A   1      47.134  37.769  30.516  1.00  0.00    -0.744 OA
ENDBRANCH  61  62
ENDBRANCH  29  54
BRANCH  41  66
ATOM     66  C   UNL A   1      49.262  27.503  25.614  1.00  0.00     0.058 A 
ATOM     67  C   UNL A   1      49.414  27.540  24.222  1.00  0.00     0.135 A 
ATOM     68  C   UNL A   1      50.412  27.348  26.406  1.00  0.00     0.135 A 
ATOM     69  F   UNL A   1      48.342  27.679  23.426  1.00  0.00    -0.206 F 
ATOM     70  C   UNL A   1      50.664  27.404  23.630  1.00  0.00     0.059 A 
ATOM     71  C   UNL A   1      51.673  27.246  25.838  1.00  0.00     0.059 A 
ATOM     72  F   UNL A   1      50.314  27.321  27.745  1.00  0.00    -0.206 F 
ATOM     73  C   UNL A   1      51.787  27.264  24.449  1.00  0.00     0.060 A 
BRANCH  73  74
ATOM     74  S   UNL A   1      53.408  27.137  23.669  1.00  0.00     0.124 S 
ATOM     75  O   UNL A   1      54.282  27.003  24.830  1.00  0.00    -0.237 OA
ATOM     76  O   UNL A   1      53.263  25.943  22.842  1.00  0.00    -0.237 OA
ATOM     77  O   UNL A   1      53.530  28.391  22.932  1.00  0.00    -0.744 OA
ENDBRANCH  73  74
ENDBRANCH  41  66
ENDBRANCH  15  16
ENDBRANCH   8  10
ENDBRANCH   7   8
ENDBRANCH   6   7
ENDBRANCH   5   6
ENDBRANCH   4   5
ENDBRANCH   3   4
ENDBRANCH   2   3
ENDBRANCH   1   2
BRANCH   1  78
ATOM     78  C   UNL A   1      34.381  31.871  28.705  1.00  0.00     0.188 C 
BRANCH  78  79
ATOM     79  C   UNL A   1      34.697  30.977  27.480  1.00  0.00     0.188 C 
BRANCH  79  80
ATOM     80  O   UNL A   1      33.723  30.073  27.010  1.00  0.00    -0.376 OA
BRANCH  80  81
ATOM     81  C   UNL A   1      32.396  30.506  26.738  1.00  0.00     0.202 C 
BRANCH  81  82
ATOM     82  C   UNL A   1      31.593  30.086  25.491  1.00  0.00     0.261 C 
BRANCH  82  83
ATOM     83  O   UNL A   1      31.365  28.675  25.373  1.00  0.00    -0.463 OA
BRANCH  83  84
ATOM     84  C   UNL A   1      30.790  28.239  24.224  1.00  0.00     0.312 C 
ATOM     85  O   UNL A   1      29.688  28.606  23.835  1.00  0.00    -0.252 OA
BRANCH  84  86
ATOM     86  C   UNL A   1      31.788  27.533  23.333  1.00  0.00     0.147 C 
ATOM     87  C   UNL A   1      32.970  26.644  23.809  1.00  0.00     0.129 C 
ATOM     88  C   UNL A   1      31.044  26.573  22.386  1.00  0.00     0.157 C 
ATOM     89  C   UNL A   1      32.692  25.332  23.079  1.00  0.00     0.155 C 
ATOM     90  C   UNL A   1      31.876  26.268  21.171  1.00  0.00     0.004 C 
ATOM     91  O   UNL A   1      31.247  25.332  23.079  1.00  0.00    -0.365 OA
ATOM     92  C   UNL A   1      32.891  25.502  21.596  1.00  0.00     0.004 C 
BRANCH  87  93
ATOM     93  C   UNL A   1      33.579  26.436  25.197  1.00  0.00     0.231 C 
ATOM     94  O   UNL A   1      34.433  27.266  25.565  1.00  0.00    -0.274 OA
ATOM     95  N   UNL A   1      33.267  25.497  26.121  1.00  0.00    -0.325 N 
ATOM     96  H   UNL A   1      33.543  25.736  27.036  1.00  0.00     0.169 HD
BRANCH  95  97
ATOM     97  C   UNL A   1      32.631  24.257  26.033  1.00  0.00     0.049 A 
ATOM     98  C   UNL A   1      31.405  24.164  26.705  1.00  0.00     0.027 A 
ATOM     99  C   UNL A   1      33.161  23.145  25.347  1.00  0.00     0.005 A 
ATOM    100  C   UNL A   1      30.554  23.095  26.454  1.00  0.00     0.002 A 
ATOM    101  C   UNL A   1      32.247  22.122  25.034  1.00  0.00     0.011 A 
ATOM    102  C   UNL A   1      30.944  22.121  25.547  1.00  0.00     0.001 A 
BRANCH  99 103
ATOM    103  C   UNL A   1      34.623  22.981  25.092  1.00  0.00    -0.016 A 
ATOM    104  C   UNL A   1      35.154  22.864  23.797  1.00  0.00     0.009 A 
ATOM    105  C   UNL A   1      35.552  22.973  26.154  1.00  0.00     0.009 A 
ATOM    106  C   UNL A   1      36.534  22.927  23.566  1.00  0.00     0.001 A 
ATOM    107  C   UNL A   1      36.932  23.023  25.931  1.00  0.00     0.001 A 
ATOM    108  C   UNL A   1      37.421  23.036  24.631  1.00  0.00     0.000 A 
ENDBRANCH  99 103
ENDBRANCH  95  97
ENDBRANCH  87  93
ENDBRANCH  84  86
ENDBRANCH  83  84
ENDBRANCH  82  83
ENDBRANCH  81  82
ENDBRANCH  80  81
ENDBRANCH  79  80
ENDBRANCH  78  79
ENDBRANCH   1  78
TORSDOF 26
ENDMDL
MODEL 2
REMARK VINA RESULT:      -9.8      1.604      8.100
REMARK SMILES O=C(OCCOCCOCCOCCOC(=O)[C@H]1[C@@H](C(=O)Nc2ccccc2-c2ccccc2)[C@@H]2C=C[C@H]1O2)c1ccc(-c2c3nc(c(-c4c(F)cc(S(=O)(=O)[O-])cc4F)c4ccc([nH]4)c(-c4c(F)cc(S(=O)(=O)[O-])cc4F)c4nc(c(-c5c(F)cc(S(=O)(=O)[O-])cc5F)c5ccc2[nH]5)C=C4)C=C3)cc1
REMARK SMILES IDX 9 1 8 2 7 3 6 4 5 5 4 6 3 7 2 8 1 9 40 10 41 11 105 12 42 13
REMARK SMILES IDX 104 14 43 15 44 16 45 17 98 18 46 19 103 20 97 21 99 22
REMARK SMILES IDX 47 23 102 24 96 25 95 26 48 28 82 29 61 30 81 31 62 32 65 33
REMARK SMILES IDX 80 34 100 35 63 36 64 37 79 39 101 40 66 41 49 42 50 43
REMARK SMILES IDX 59 44 51 45 52 46 58 47 60 48 53 49 54 50 55 51 56 52 57 53
REMARK SMILES IDX 83 54 84 55 93 56 85 57 86 58 92 59 94 60 87 61 88 62 89 63
REMARK SMILES IDX 90 64 91 65 67 66 68 67 77 68 69 69 70 70 76 71 78 72 71 73
REMARK SMILES IDX 72 74 73 75 74 76 75 77 10 78 11 79 12 80 13 81 14 82 15 83
REMARK SMILES IDX 16 84 17 85 18 86 19 87 38 88 35 89 37 90 39 91 36 92 20 93
REMARK SMILES IDX 21 94 22 95 23 97 24 98 28 99 25 100 27 101 26 102 29 103
REMARK SMILES IDX 30 104 34 105 31 106 33 107 32 108
REMARK H PARENT 99 27 65 38 22 96
REMARK Flexibility Score: inf
ROOT
ATOM      1  O   UNL A   1      34.548  32.181  28.214  1.00  0.00    -0.377 OA
ENDROOT
BRANCH   1   2
ATOM      2  C   UNL A   1      33.847  33.403  28.007  1.00  0.00     0.188 C 
BRANCH   2   3
ATOM      3  C   UNL A   1      34.381  34.617  28.757  1.00  0.00     0.188 C 
BRANCH   3   4
ATOM      4  O   UNL A   1      33.637  34.733  29.952  1.00  0.00    -0.376 OA
BRANCH   4   5
ATOM      5  C   UNL A   1      34.176  34.247  31.167  1.00  0.00     0.202 C 
BRANCH   5   6
ATOM      6  C   UNL A   1      35.631  33.826  31.096  1.00  0.00     0.261 C 
BRANCH   6   7
ATOM      7  O   UNL A   1      35.896  32.489  31.553  1.00  0.00    -0.460 OA
BRANCH   7   8
ATOM      8  C   UNL A   1      36.954  31.976  32.220  1.00  0.00     0.338 C 
ATOM      9  O   UNL A   1      36.927  31.996  33.452  1.00  0.00    -0.246 OA
BRANCH   8  10
ATOM     10  C   UNL A   1      38.147  31.356  31.579  1.00  0.00     0.060 A 
ATOM     11  C   UNL A   1      39.019  30.462  32.192  1.00  0.00     0.016 A 
ATOM     12  C   UNL A   1      38.317  31.585  30.204  1.00  0.00     0.016 A 
ATOM     13  C   UNL A   1      40.082  29.888  31.526  1.00  0.00     0.010 A 
ATOM     14  C   UNL A   1      39.359  30.973  29.500  1.00  0.00     0.010 A 
ATOM     15  C   UNL A   1      40.266  30.150  30.180  1.00  0.00    -0.014 A 
BRANCH  15  16
ATOM     16  C   UNL A   1      41.540  29.716  29.594  1.00  0.00     0.031 A 
ATOM     17  C   UNL A   1      42.658  30.710  29.604  1.00  0.00     0.074 A 
ATOM     18  C   UNL A   1      41.723  28.428  29.256  1.00  0.00     0.049 A 
ATOM     19  N   UNL A   1      43.844  30.625  29.072  1.00  0.00    -0.248 NA
ATOM     20  C   UNL A   1      42.408  31.974  30.323  1.00  0.00     0.031 C 
ATOM     21  C   UNL A   1      40.725  27.361  29.406  1.00  0.00     0.029 A 
ATOM     22  N   UNL A   1      42.820  27.784  28.754  1.00  0.00    -0.354 N 
ATOM     23  C   UNL A   1      44.461  31.838  29.352  1.00  0.00     0.074 A 
ATOM     24  C   UNL A   1      43.522  32.647  30.093  1.00  0.00     0.031 C 
ATOM     25  C   UNL A   1      41.263  26.196  29.011  1.00  0.00     0.029 A 
ATOM     26  C   UNL A   1      42.604  26.450  28.500  1.00  0.00     0.049 A 
ATOM     27  H   UNL A   1      43.680  28.233  28.589  1.00  0.00     0.167 HD
ATOM     28  C   UNL A   1      45.706  32.229  29.007  1.00  0.00     0.037 A 
ATOM     29  C   UNL A   1      43.393  25.562  27.870  1.00  0.00     0.037 A 
ATOM     30  C   UNL A   1      46.603  31.376  28.278  1.00  0.00     0.049 A 
ATOM     31  C   UNL A   1      44.727  26.060  27.376  1.00  0.00     0.074 A 
ATOM     32  C   UNL A   1      47.857  31.661  27.779  1.00  0.00     0.029 A 
ATOM     33  N   UNL A   1      46.325  30.053  27.952  1.00  0.00    -0.354 N 
ATOM     34  N   UNL A   1      45.270  27.247  27.534  1.00  0.00    -0.248 NA
ATOM     35  C   UNL A   1      45.545  25.118  26.606  1.00  0.00     0.031 C 
ATOM     36  C   UNL A   1      48.318  30.522  27.109  1.00  0.00     0.029 A 
ATOM     37  C   UNL A   1      47.377  29.509  27.245  1.00  0.00     0.049 A 
ATOM     38  H   UNL A   1      45.498  29.574  28.192  1.00  0.00     0.167 HD
ATOM     39  C   UNL A   1      46.506  27.188  26.902  1.00  0.00     0.074 A 
ATOM     40  C   UNL A   1      46.632  25.841  26.376  1.00  0.00     0.031 C 
ATOM     41  C   UNL A   1      47.451  28.151  26.760  1.00  0.00     0.037 A 
BRANCH  28  42
ATOM     42  C   UNL A   1      46.101  33.639  29.340  1.00  0.00     0.058 A 
ATOM     43  C   UNL A   1      46.743  33.974  30.543  1.00  0.00     0.135 A 
ATOM     44  C   UNL A   1      45.786  34.683  28.456  1.00  0.00     0.135 A 
ATOM     45  F   UNL A   1      47.028  33.021  31.446  1.00  0.00    -0.206 F 
ATOM     46  C   UNL A   1      47.035  35.295  30.869  1.00  0.00     0.059 A 
ATOM     47  C   UNL A   1      46.093  36.009  28.748  1.00  0.00     0.059 A 
ATOM     48  F   UNL A   1      45.150  34.423  27.303  1.00  0.00    -0.206 F 
ATOM     49  C   UNL A   1      46.706  36.306  29.964  1.00  0.00     0.060 A 
BRANCH  49  50
ATOM     50  S   UNL A   1      47.089  38.013  30.405  1.00  0.00     0.124 S 
ATOM     51  O   UNL A   1      46.921  38.692  29.126  1.00  0.00    -0.237 OA
ATOM     52  O   UNL A   1      46.085  38.306  31.418  1.00  0.00    -0.237 OA
ATOM     53  O   UNL A   1      48.467  37.936  30.895  1.00  0.00    -0.744 OA
ENDBRANCH  49  50
ENDBRANCH  28  42
BRANCH  29  54
ATOM     54  C   UNL A   1      42.921  24.174  27.604  1.00  0.00     0.058 A 
ATOM     55  C   UNL A   1      43.135  23.136  28.522  1.00  0.00     0.135 A 
ATOM     56  C   UNL A   1      42.258  23.851  26.406  1.00  0.00     0.135 A 
ATOM     57  F   UNL A   1      43.765  23.384  29.680  1.00  0.00    -0.206 F 
ATOM     58  C   UNL A   1      42.734  21.829  28.255  1.00  0.00     0.059 A 
ATOM     59  C   UNL A   1      41.818  22.560  26.131  1.00  0.00     0.059 A 
ATOM     60  F   UNL A   1      42.014  24.803  25.491  1.00  0.00    -0.206 F 
ATOM     61  C   UNL A   1      42.077  21.551  27.055  1.00  0.00     0.060 A 
BRANCH  61  62
ATOM     62  S   UNL A   1      41.553  19.854  26.720  1.00  0.00     0.124 S 
ATOM     63  O   UNL A   1      42.717  19.096  27.166  1.00  0.00    -0.237 OA
ATOM     64  O   UNL A   1      40.357  19.735  27.546  1.00  0.00    -0.237 OA
ATOM     65  O   UNL A   1      41.315  19.855  25.279  1.00  0.00    -0.744 OA
ENDBRANCH  61  62
ENDBRANCH  29  54
BRANCH  41  66
ATOM     66  C   UNL A   1      48.715  27.757  26.055  1.00  0.00     0.058 A 
ATOM     67  C   UNL A   1      48.781  27.669  24.658  1.00  0.00     0.135 A 
ATOM     68  C   UNL A   1      49.888  27.534  26.793  1.00  0.00     0.135 A 
ATOM     69  F   UNL A   1      47.683  27.867  23.912  1.00  0.00    -0.206 F 
ATOM     70  C   UNL A   1      49.970  27.347  24.014  1.00  0.00     0.059 A 
ATOM     71  C   UNL A   1      51.093  27.245  26.169  1.00  0.00     0.059 A 
ATOM     72  F   UNL A   1      49.872  27.621  28.134  1.00  0.00    -0.206 F 
ATOM     73  C   UNL A   1      51.120  27.143  24.779  1.00  0.00     0.060 A 
BRANCH  73  74
ATOM     74  S   UNL A   1      52.666  26.773  23.926  1.00  0.00     0.124 S 
ATOM     75  O   UNL A   1      52.895  25.388  24.324  1.00  0.00    -0.237 OA
ATOM     76  O   UNL A   1      52.307  26.981  22.527  1.00  0.00    -0.237 OA
ATOM     77  O   UNL A   1      53.600  27.748  24.479  1.00  0.00    -0.744 OA
ENDBRANCH  73  74
ENDBRANCH  41  66
ENDBRANCH  15  16
ENDBRANCH   8  10
ENDBRANCH   7   8
ENDBRANCH   6   7
ENDBRANCH   5   6
ENDBRANCH   4   5
ENDBRANCH   3   4
ENDBRANCH   2   3
ENDBRANCH   1   2
BRANCH   1  78
ATOM     78  C   UNL A   1      34.088  31.002  27.567  1.00  0.00     0.188 C 
BRANCH  78  79
ATOM     79  C   UNL A   1      32.632  30.878  27.054  1.00  0.00     0.188 C 
BRANCH  79  80
ATOM     80  O   UNL A   1      32.367  30.122  25.894  1.00  0.00    -0.376 OA
BRANCH  80  81
ATOM     81  C   UNL A   1      31.948  28.767  25.985  1.00  0.00     0.202 C 
BRANCH  81  82
ATOM     82  C   UNL A   1      31.570  28.070  27.307  1.00  0.00     0.261 C 
BRANCH  82  83
ATOM     83  O   UNL A   1      31.555  26.637  27.245  1.00  0.00    -0.463 OA
BRANCH  83  84
ATOM     84  C   UNL A   1      31.017  26.076  26.133  1.00  0.00     0.312 C 
ATOM     85  O   UNL A   1      29.833  26.170  25.829  1.00  0.00    -0.252 OA
BRANCH  84  86
ATOM     86  C   UNL A   1      32.085  25.627  25.160  1.00  0.00     0.147 C 
ATOM     87  C   UNL A   1      32.921  24.322  25.260  1.00  0.00     0.129 C 
ATOM     88  C   UNL A   1      31.476  25.494  23.752  1.00  0.00     0.157 C 
ATOM     89  C   UNL A   1      32.636  23.659  23.915  1.00  0.00     0.155 C 
ATOM     90  C   UNL A   1      32.544  25.580  22.697  1.00  0.00     0.004 C 
ATOM     91  O   UNL A   1      31.268  24.074  23.703  1.00  0.00    -0.365 OA
ATOM     92  C   UNL A   1      33.259  24.449  22.795  1.00  0.00     0.004 C 
BRANCH  87  93
ATOM     93  C   UNL A   1      33.083  23.313  26.399  1.00  0.00     0.231 C 
ATOM     94  O   UNL A   1      32.226  23.345  27.303  1.00  0.00    -0.274 OA
ATOM     95  N   UNL A   1      34.007  22.332  26.530  1.00  0.00    -0.325 N 
ATOM     96  H   UNL A   1      33.741  21.619  27.154  1.00  0.00     0.169 HD
BRANCH  95  97
ATOM     97  C   UNL A   1      35.263  22.132  25.952  1.00  0.00     0.049 A 
ATOM     98  C   UNL A   1      36.124  23.237  25.994  1.00  0.00     0.027 A 
ATOM     99  C   UNL A   1      35.667  20.929  25.337  1.00  0.00     0.005 A 
ATOM    100  C   UNL A   1      37.476  23.076  25.719  1.00  0.00     0.002 A 
ATOM    101  C   UNL A   1      37.053  20.767  25.155  1.00  0.00     0.011 A 
ATOM    102  C   UNL A   1      37.951  21.816  25.386  1.00  0.00     0.001 A 
BRANCH  99 103
ATOM    103  C   UNL A   1      34.692  19.947  24.778  1.00  0.00    -0.016 A 
ATOM    104  C   UNL A   1      35.011  18.592  24.590  1.00  0.00     0.009 A 
ATOM    105  C   UNL A   1      33.378  20.335  24.441  1.00  0.00     0.009 A 
ATOM    106  C   UNL A   1      34.026  17.648  24.270  1.00  0.00     0.001 A 
ATOM    107  C   UNL A   1      32.392  19.400  24.107  1.00  0.00     0.001 A 
ATOM    108  C   UNL A   1      32.712  18.049  24.057  1.00  0.00     0.000 A 
ENDBRANCH  99 103
ENDBRANCH  95  97
ENDBRANCH  87  93
ENDBRANCH  84  86
ENDBRANCH  83  84
ENDBRANCH  82  83
ENDBRANCH  81  82
ENDBRANCH  80  81
ENDBRANCH  79  80
ENDBRANCH  78  79
ENDBRANCH   1  78
TORSDOF 26
ENDMDL
MODEL 3
REMARK VINA RESULT:      -9.6      7.866     12.526
REMARK SMILES O=C(OCCOCCOCCOCCOC(=O)[C@H]1[C@@H](C(=O)Nc2ccccc2-c2ccccc2)[C@@H]2C=C[C@H]1O2)c1ccc(-c2c3nc(c(-c4c(F)cc(S(=O)(=O)[O-])cc4F)c4ccc([nH]4)c(-c4c(F)cc(S(=O)(=O)[O-])cc4F)c4nc(c(-c5c(F)cc(S(=O)(=O)[O-])cc5F)c5ccc2[nH]5)C=C4)C=C3)cc1
REMARK SMILES IDX 9 1 8 2 7 3 6 4 5 5 4 6 3 7 2 8 1 9 40 10 41 11 105 12 42 13
REMARK SMILES IDX 104 14 43 15 44 16 45 17 98 18 46 19 103 20 97 21 99 22
REMARK SMILES IDX 47 23 102 24 96 25 95 26 48 28 82 29 61 30 81 31 62 32 65 33
REMARK SMILES IDX 80 34 100 35 63 36 64 37 79 39 101 40 66 41 49 42 50 43
REMARK SMILES IDX 59 44 51 45 52 46 58 47 60 48 53 49 54 50 55 51 56 52 57 53
REMARK SMILES IDX 83 54 84 55 93 56 85 57 86 58 92 59 94 60 87 61 88 62 89 63
REMARK SMILES IDX 90 64 91 65 67 66 68 67 77 68 69 69 70 70 76 71 78 72 71 73
REMARK SMILES IDX 72 74 73 75 74 76 75 77 10 78 11 79 12 80 13 81 14 82 15 83
REMARK SMILES IDX 16 84 17 85 18 86 19 87 38 88 35 89 37 90 39 91 36 92 20 93
REMARK SMILES IDX 21 94 22 95 23 97 24 98 28 99 25 100 27 101 26 102 29 103
REMARK SMILES IDX 30 104 34 105 31 106 33 107 32 108
REMARK H PARENT 99 27 65 38 22 96
REMARK Flexibility Score: inf
ROOT
ATOM      1  O   UNL A   1      35.041  34.112  28.823  1.00  0.00    -0.377 OA
ENDROOT
BRANCH   1   2
ATOM      2  C   UNL A   1      34.391  35.286  28.348  1.00  0.00     0.188 C 
BRANCH   2   3
ATOM      3  C   UNL A   1      32.989  35.541  28.885  1.00  0.00     0.188 C 
BRANCH   3   4
ATOM      4  O   UNL A   1      32.942  35.022  30.199  1.00  0.00    -0.376 OA
BRANCH   4   5
ATOM      5  C   UNL A   1      33.490  35.768  31.269  1.00  0.00     0.202 C 
BRANCH   5   6
ATOM      6  C   UNL A   1      33.104  35.277  32.652  1.00  0.00     0.261 C 
BRANCH   6   7
ATOM      7  O   UNL A   1      33.312  33.872  32.874  1.00  0.00    -0.460 OA
BRANCH   7   8
ATOM      8  C   UNL A   1      34.397  33.095  32.657  1.00  0.00     0.338 C 
ATOM      9  O   UNL A   1      34.433  32.426  31.623  1.00  0.00    -0.246 OA
BRANCH   8  10
ATOM     10  C   UNL A   1      35.576  33.006  33.563  1.00  0.00     0.060 A 
ATOM     11  C   UNL A   1      36.488  31.956  33.598  1.00  0.00     0.016 A 
ATOM     12  C   UNL A   1      35.866  34.139  34.338  1.00  0.00     0.016 A 
ATOM     13  C   UNL A   1      37.587  31.956  34.432  1.00  0.00     0.010 A 
ATOM     14  C   UNL A   1      37.003  34.178  35.152  1.00  0.00     0.010 A 
ATOM     15  C   UNL A   1      37.844  33.061  35.223  1.00  0.00    -0.014 A 
BRANCH  15  16
ATOM     16  C   UNL A   1      38.872  32.904  36.259  1.00  0.00     0.031 A 
ATOM     17  C   UNL A   1      40.294  33.075  35.828  1.00  0.00     0.074 A 
ATOM     18  C   UNL A   1      38.517  32.807  37.552  1.00  0.00     0.049 A 
ATOM     19  N   UNL A   1      41.391  32.897  36.506  1.00  0.00    -0.248 NA
ATOM     20  C   UNL A   1      40.511  33.521  34.437  1.00  0.00     0.031 C 
ATOM     21  C   UNL A   1      37.138  32.829  38.057  1.00  0.00     0.029 A 
ATOM     22  N   UNL A   1      39.280  32.710  38.682  1.00  0.00    -0.354 N 
ATOM     23  C   UNL A   1      42.423  33.163  35.616  1.00  0.00     0.074 A 
ATOM     24  C   UNL A   1      41.829  33.507  34.346  1.00  0.00     0.031 C 
ATOM     25  C   UNL A   1      37.160  32.757  39.397  1.00  0.00     0.029 A 
ATOM     26  C   UNL A   1      38.540  32.594  39.835  1.00  0.00     0.049 A 
ATOM     27  H   UNL A   1      40.265  32.721  38.670  1.00  0.00     0.167 HD
ATOM     28  C   UNL A   1      43.751  33.112  35.853  1.00  0.00     0.037 A 
ATOM     29  C   UNL A   1      38.948  32.326  41.088  1.00  0.00     0.037 A 
ATOM     30  C   UNL A   1      44.287  32.775  37.142  1.00  0.00     0.049 A 
ATOM     31  C   UNL A   1      40.428  32.143  41.303  1.00  0.00     0.074 A 
ATOM     32  C   UNL A   1      45.603  32.595  37.515  1.00  0.00     0.029 A 
ATOM     33  N   UNL A   1      43.511  32.571  38.278  1.00  0.00    -0.354 N 
ATOM     34  N   UNL A   1      41.407  32.276  40.434  1.00  0.00    -0.248 NA
ATOM     35  C   UNL A   1      40.862  31.757  42.649  1.00  0.00     0.031 C 
ATOM     36  C   UNL A   1      45.618  32.236  38.868  1.00  0.00     0.029 A 
ATOM     37  C   UNL A   1      44.316  32.253  39.352  1.00  0.00     0.049 A 
ATOM     38  H   UNL A   1      42.529  32.645  38.312  1.00  0.00     0.167 HD
ATOM     39  C   UNL A   1      42.577  32.012  41.135  1.00  0.00     0.074 A 
ATOM     40  C   UNL A   1      42.180  31.729  42.502  1.00  0.00     0.031 C 
ATOM     41  C   UNL A   1      43.861  31.997  40.698  1.00  0.00     0.037 A 
BRANCH  28  42
ATOM     42  C   UNL A   1      44.668  33.342  34.687  1.00  0.00     0.058 A 
ATOM     43  C   UNL A   1      45.093  32.298  33.849  1.00  0.00     0.135 A 
ATOM     44  C   UNL A   1      45.170  34.628  34.432  1.00  0.00     0.135 A 
ATOM     45  F   UNL A   1      44.679  31.040  34.072  1.00  0.00    -0.206 F 
ATOM     46  C   UNL A   1      46.002  32.516  32.817  1.00  0.00     0.059 A 
ATOM     47  C   UNL A   1      46.058  34.875  33.390  1.00  0.00     0.059 A 
ATOM     48  F   UNL A   1      44.818  35.658  35.217  1.00  0.00    -0.206 F 
ATOM     49  C   UNL A   1      46.479  33.810  32.596  1.00  0.00     0.060 A 
BRANCH  49  50
ATOM     50  S   UNL A   1      47.660  34.072  31.257  1.00  0.00     0.124 S 
ATOM     51  O   UNL A   1      48.654  33.043  31.536  1.00  0.00    -0.237 OA
ATOM     52  O   UNL A   1      46.840  33.863  30.073  1.00  0.00    -0.237 OA
ATOM     53  O   UNL A   1      48.111  35.450  31.469  1.00  0.00    -0.744 OA
ENDBRANCH  49  50
ENDBRANCH  28  42
BRANCH  29  54
ATOM     54  C   UNL A   1      37.962  32.136  42.189  1.00  0.00     0.058 A 
ATOM     55  C   UNL A   1      37.391  33.227  42.861  1.00  0.00     0.135 A 
ATOM     56  C   UNL A   1      37.581  30.848  42.607  1.00  0.00     0.135 A 
ATOM     57  F   UNL A   1      37.719  34.479  42.507  1.00  0.00    -0.206 F 
ATOM     58  C   UNL A   1      36.502  33.051  43.919  1.00  0.00     0.059 A 
ATOM     59  C   UNL A   1      36.671  30.647  43.640  1.00  0.00     0.059 A 
ATOM     60  F   UNL A   1      38.084  29.763  41.997  1.00  0.00    -0.206 F 
ATOM     61  C   UNL A   1      36.150  31.755  44.303  1.00  0.00     0.060 A 
BRANCH  61  62
ATOM     62  S   UNL A   1      34.991  31.536  45.672  1.00  0.00     0.124 S 
ATOM     63  O   UNL A   1      34.583  32.912  45.932  1.00  0.00    -0.237 OA
ATOM     64  O   UNL A   1      33.978  30.669  45.080  1.00  0.00    -0.237 OA
ATOM     65  O   UNL A   1      35.811  30.915  46.708  1.00  0.00    -0.744 OA
ENDBRANCH  61  62
ENDBRANCH  29  54
BRANCH  41  66
ATOM     66  C   UNL A   1      44.919  31.717  41.723  1.00  0.00     0.058 A 
ATOM     67  C   UNL A   1      45.414  30.423  41.936  1.00  0.00     0.135 A 
ATOM     68  C   UNL A   1      45.488  32.775  42.450  1.00  0.00     0.135 A 
ATOM     69  F   UNL A   1      44.896  29.380  41.268  1.00  0.00    -0.206 F 
ATOM     70  C   UNL A   1      46.427  30.183  42.857  1.00  0.00     0.059 A 
ATOM     71  C   UNL A   1      46.523  32.563  43.349  1.00  0.00     0.059 A 
ATOM     72  F   UNL A   1      45.053  34.033  42.268  1.00  0.00    -0.206 F 
ATOM     73  C   UNL A   1      46.978  31.261  43.553  1.00  0.00     0.060 A 
BRANCH  73  74
ATOM     74  S   UNL A   1      48.323  30.940  44.710  1.00  0.00     0.124 S 
ATOM     75  O   UNL A   1      49.492  31.259  43.896  1.00  0.00    -0.237 OA
ATOM     76  O   UNL A   1      48.030  31.873  45.794  1.00  0.00    -0.237 OA
ATOM     77  O   UNL A   1      48.155  29.529  45.042  1.00  0.00    -0.744 OA
ENDBRANCH  73  74
ENDBRANCH  41  66
ENDBRANCH  15  16
ENDBRANCH   8  10
ENDBRANCH   7   8
ENDBRANCH   6   7
ENDBRANCH   5   6
ENDBRANCH   4   5
ENDBRANCH   3   4
ENDBRANCH   2   3
ENDBRANCH   1   2
BRANCH   1  78
ATOM     78  C   UNL A   1      35.068  32.955  27.999  1.00  0.00     0.188 C 
BRANCH  78  79
ATOM     79  C   UNL A   1      34.058  31.797  28.199  1.00  0.00     0.188 C 
BRANCH  79  80
ATOM     80  O   UNL A   1      33.631  31.049  27.083  1.00  0.00    -0.376 OA
BRANCH  80  81
ATOM     81  C   UNL A   1      32.778  29.922  27.243  1.00  0.00     0.202 C 
BRANCH  81  82
ATOM     82  C   UNL A   1      31.991  29.268  26.090  1.00  0.00     0.261 C 
BRANCH  82  83
ATOM     83  O   UNL A   1      32.797  28.540  25.153  1.00  0.00    -0.463 OA
BRANCH  83  84
ATOM     84  C   UNL A   1      33.205  27.301  25.527  1.00  0.00     0.312 C 
ATOM     85  O   UNL A   1      33.771  27.065  26.588  1.00  0.00    -0.252 OA
BRANCH  84  86
ATOM     86  C   UNL A   1      32.591  26.224  24.661  1.00  0.00     0.147 C 
ATOM     87  C   UNL A   1      32.221  24.786  25.118  1.00  0.00     0.129 C 
ATOM     88  C   UNL A   1      31.248  26.721  24.095  1.00  0.00     0.157 C 
ATOM     89  C   UNL A   1      30.738  24.712  24.759  1.00  0.00     0.155 C 
ATOM     90  C   UNL A   1      30.873  25.955  22.856  1.00  0.00     0.004 C 
ATOM     91  O   UNL A   1      30.340  26.080  25.005  1.00  0.00    -0.365 OA
ATOM     92  C   UNL A   1      30.557  24.717  23.265  1.00  0.00     0.004 C 
BRANCH  87  93
ATOM     93  C   UNL A   1      32.564  24.013  26.392  1.00  0.00     0.231 C 
ATOM     94  O   UNL A   1      31.792  24.154  27.360  1.00  0.00    -0.274 OA
ATOM     95  N   UNL A   1      33.571  23.131  26.597  1.00  0.00    -0.325 N 
ATOM     96  H   UNL A   1      33.420  22.528  27.360  1.00  0.00     0.169 HD
BRANCH  95  97
ATOM     97  C   UNL A   1      34.782  22.908  25.937  1.00  0.00     0.049 A 
ATOM     98  C   UNL A   1      35.734  23.928  26.074  1.00  0.00     0.027 A 
ATOM     99  C   UNL A   1      35.059  21.766  25.159  1.00  0.00     0.005 A 
ATOM    100  C   UNL A   1      37.056  23.697  25.714  1.00  0.00     0.002 A 
ATOM    101  C   UNL A   1      36.418  21.520  24.889  1.00  0.00     0.011 A 
ATOM    102  C   UNL A   1      37.410  22.457  25.203  1.00  0.00     0.001 A 
BRANCH  99 103
ATOM    103  C   UNL A   1      33.983  20.943  24.530  1.00  0.00    -0.016 A 
ATOM    104  C   UNL A   1      33.033  21.489  23.651  1.00  0.00     0.009 A 
ATOM    105  C   UNL A   1      33.894  19.555  24.768  1.00  0.00     0.009 A 
ATOM    106  C   UNL A   1      32.171  20.670  22.910  1.00  0.00     0.001 A 
ATOM    107  C   UNL A   1      33.027  18.734  24.041  1.00  0.00     0.001 A 
ATOM    108  C   UNL A   1      32.189  19.291  23.084  1.00  0.00     0.000 A 
ENDBRANCH  99 103
ENDBRANCH  95  97
ENDBRANCH  87  93
ENDBRANCH  84  86
ENDBRANCH  83  84
ENDBRANCH  82  83
ENDBRANCH  81  82
ENDBRANCH  80  81
ENDBRANCH  79  80
ENDBRANCH  78  79
ENDBRANCH   1  78
TORSDOF 26
ENDMDL
