MODEL 1
REMARK VINA RESULT:      -7.1      0.000      0.000
REMARK SMILES CCS(=O)(=O)c1ccccc1NC[C@H]1CC[C@H](C(=O)OCCOCCOCCOCCOC(=O)c2ccc(-c3c4nc(c(-c5c(F)cc(S(=O)(=O)[O-])cc5F)c5ccc([nH]5)c(-c5c(F)cc(S(=O)(=O)[O-])cc5F)c5nc(c(-c6c(F)cc(S(=O)(=O)[O-])cc6F)c6ccc3[nH]6)C=C5)C=C4)cc2)O1
REMARK SMILES IDX 25 1 24 2 23 3 22 4 21 5 20 6 18 7 19 8 17 9 14 10 15 11
REMARK SMILES IDX 101 12 16 13 13 14 12 15 11 17 6 18 7 19 8 20 10 21 9 22
REMARK SMILES IDX 3 23 4 24 5 25 2 26 1 27 26 28 27 29 28 30 29 31 30 32 31 33
REMARK SMILES IDX 32 34 33 35 34 36 35 37 36 38 100 39 37 40 99 41 38 42 39 43
REMARK SMILES IDX 40 44 93 45 41 46 98 47 92 48 94 49 42 50 97 51 91 52 90 53
REMARK SMILES IDX 43 55 77 56 56 57 76 58 57 59 60 60 75 61 95 62 58 63 59 64
REMARK SMILES IDX 74 66 96 67 61 68 44 69 45 70 54 71 46 72 47 73 53 74 55 75
REMARK SMILES IDX 48 76 49 77 50 78 51 79 52 80 78 81 79 82 88 83 80 84 81 85
REMARK SMILES IDX 87 86 89 87 82 88 83 89 84 90 85 91 86 92 62 93 63 94 72 95
REMARK SMILES IDX 64 96 65 97 71 98 73 99 66 100 67 101 68 102 69 103 70 104
REMARK H PARENT 12 16 94 54 60 65
REMARK Flexibility Score: inf
ROOT
ATOM      1  C   UNL A   1      48.419  42.261  28.254  1.00  0.00     0.188 C 
ENDROOT
BRANCH   1   2
ATOM      2  C   UNL A   1      48.825  43.485  27.422  1.00  0.00     0.188 C 
BRANCH   2   3
ATOM      3  O   UNL A   1      48.024  44.654  27.387  1.00  0.00    -0.376 OA
BRANCH   3   4
ATOM      4  C   UNL A   1      46.770  44.737  28.055  1.00  0.00     0.202 C 
BRANCH   4   5
ATOM      5  C   UNL A   1      45.421  44.708  27.320  1.00  0.00     0.261 C 
BRANCH   5   6
ATOM      6  O   UNL A   1      44.939  43.413  26.942  1.00  0.00    -0.461 OA
BRANCH   6   7
ATOM      7  C   UNL A   1      44.584  43.276  25.645  1.00  0.00     0.335 C 
ATOM      8  O   UNL A   1      43.655  42.578  25.248  1.00  0.00    -0.249 OA
BRANCH   7   9
ATOM      9  C   UNL A   1      45.450  44.091  24.687  1.00  0.00     0.228 C 
ATOM     10  C   UNL A   1      44.921  44.693  22.483  1.00  0.00     0.138 C 
ATOM     11  C   UNL A   1      45.636  43.354  22.448  1.00  0.00     0.037 C 
ATOM     12  O   UNL A   1      44.561  44.878  23.868  1.00  0.00    -0.361 OA
ATOM     13  C   UNL A   1      46.408  43.386  23.736  1.00  0.00     0.047 C 
BRANCH  10  14
ATOM     14  C   UNL A   1      45.750  45.933  22.083  1.00  0.00     0.145 C 
BRANCH  14  15
ATOM     15  N   UNL A   1      45.790  46.179  20.646  1.00  0.00    -0.381 N 
ATOM     16  H   UNL A   1      46.332  45.562  20.104  1.00  0.00     0.160 HD
BRANCH  15  17
ATOM     17  C   UNL A   1      45.142  47.194  19.975  1.00  0.00     0.053 A 
ATOM     18  C   UNL A   1      44.312  46.956  18.866  1.00  0.00     0.090 A 
ATOM     19  C   UNL A   1      43.641  48.020  18.228  1.00  0.00     0.022 A 
ATOM     20  C   UNL A   1      43.810  49.332  18.660  1.00  0.00     0.001 A 
ATOM     21  C   UNL A   1      45.316  48.537  20.361  1.00  0.00     0.027 A 
ATOM     22  C   UNL A   1      44.659  49.591  19.722  1.00  0.00     0.002 A 
BRANCH  18  23
ATOM     23  S   UNL A   1      43.977  45.350  18.158  1.00  0.00     0.180 S 
ATOM     24  O   UNL A   1      44.170  44.382  19.228  1.00  0.00    -0.224 OA
ATOM     25  O   UNL A   1      44.794  45.274  16.960  1.00  0.00    -0.224 OA
BRANCH  23  26
ATOM     26  C   UNL A   1      42.300  45.155  17.632  1.00  0.00     0.139 C 
ATOM     27  C   UNL A   1      42.048  45.352  16.156  1.00  0.00     0.021 C 
ENDBRANCH  23  26
ENDBRANCH  18  23
ENDBRANCH  15  17
ENDBRANCH  14  15
ENDBRANCH  10  14
ENDBRANCH   7   9
ENDBRANCH   6   7
ENDBRANCH   5   6
ENDBRANCH   4   5
ENDBRANCH   3   4
ENDBRANCH   2   3
ENDBRANCH   1   2
BRANCH   1  28
ATOM     28  O   UNL A   1      47.723  41.267  27.532  1.00  0.00    -0.377 OA
BRANCH  28  29
ATOM     29  C   UNL A   1      46.604  40.639  28.149  1.00  0.00     0.188 C 
BRANCH  29  30
ATOM     30  C   UNL A   1      46.463  39.109  28.029  1.00  0.00     0.188 C 
BRANCH  30  31
ATOM     31  O   UNL A   1      45.382  38.692  27.206  1.00  0.00    -0.376 OA
BRANCH  31  32
ATOM     32  C   UNL A   1      44.061  39.050  27.585  1.00  0.00     0.202 C 
BRANCH  32  33
ATOM     33  C   UNL A   1      42.887  38.286  26.949  1.00  0.00     0.261 C 
BRANCH  33  34
ATOM     34  O   UNL A   1      42.100  37.459  27.826  1.00  0.00    -0.460 OA
BRANCH  34  35
ATOM     35  C   UNL A   1      41.909  36.170  27.486  1.00  0.00     0.338 C 
ATOM     36  O   UNL A   1      40.841  35.631  27.232  1.00  0.00    -0.246 OA
BRANCH  35  37
ATOM     37  C   UNL A   1      43.230  35.550  27.257  1.00  0.00     0.060 A 
ATOM     38  C   UNL A   1      43.529  35.059  25.980  1.00  0.00     0.016 A 
ATOM     39  C   UNL A   1      44.158  35.426  28.295  1.00  0.00     0.016 A 
ATOM     40  C   UNL A   1      44.735  34.397  25.749  1.00  0.00     0.010 A 
ATOM     41  C   UNL A   1      45.359  34.745  28.066  1.00  0.00     0.010 A 
ATOM     42  C   UNL A   1      45.634  34.191  26.804  1.00  0.00    -0.014 A 
BRANCH  42  43
ATOM     43  C   UNL A   1      46.760  33.239  26.617  1.00  0.00     0.031 A 
ATOM     44  C   UNL A   1      48.140  33.795  26.380  1.00  0.00     0.074 A 
ATOM     45  C   UNL A   1      46.574  31.911  26.714  1.00  0.00     0.049 A 
ATOM     46  N   UNL A   1      49.270  33.162  26.199  1.00  0.00    -0.248 NA
ATOM     47  C   UNL A   1      48.262  35.261  26.344  1.00  0.00     0.031 C 
ATOM     48  C   UNL A   1      45.295  31.253  26.977  1.00  0.00     0.029 A 
ATOM     49  N   UNL A   1      47.467  30.874  26.598  1.00  0.00    -0.354 N 
ATOM     50  C   UNL A   1      50.234  34.149  26.021  1.00  0.00     0.074 A 
ATOM     51  C   UNL A   1      49.552  35.422  26.085  1.00  0.00     0.031 C 
ATOM     52  C   UNL A   1      45.484  29.922  26.993  1.00  0.00     0.029 A 
ATOM     53  C   UNL A   1      46.890  29.632  26.713  1.00  0.00     0.049 A 
ATOM     54  H   UNL A   1      48.431  31.008  26.447  1.00  0.00     0.167 HD
ATOM     55  C   UNL A   1      51.567  34.008  25.832  1.00  0.00     0.037 A 
ATOM     56  C   UNL A   1      47.430  28.402  26.584  1.00  0.00     0.037 A 
ATOM     57  C   UNL A   1      52.242  32.736  25.771  1.00  0.00     0.049 A 
ATOM     58  C   UNL A   1      48.908  28.270  26.313  1.00  0.00     0.074 A 
ATOM     59  C   UNL A   1      53.594  32.488  25.608  1.00  0.00     0.029 A 
ATOM     60  N   UNL A   1      51.619  31.499  25.860  1.00  0.00    -0.354 N 
ATOM     61  N   UNL A   1      49.812  29.212  26.180  1.00  0.00    -0.248 NA
ATOM     62  C   UNL A   1      49.440  26.906  26.181  1.00  0.00     0.031 C 
ATOM     63  C   UNL A   1      53.780  31.104  25.535  1.00  0.00     0.029 A 
ATOM     64  C   UNL A   1      52.554  30.487  25.723  1.00  0.00     0.049 A 
ATOM     65  H   UNL A   1      50.655  31.363  26.001  1.00  0.00     0.167 HD
ATOM     66  C   UNL A   1      51.022  28.555  25.978  1.00  0.00     0.074 A 
ATOM     67  C   UNL A   1      50.737  27.135  26.026  1.00  0.00     0.031 C 
ATOM     68  C   UNL A   1      52.259  29.076  25.772  1.00  0.00     0.037 A 
BRANCH  55  69
ATOM     69  C   UNL A   1      52.386  35.256  25.645  1.00  0.00     0.058 A 
ATOM     70  C   UNL A   1      52.687  35.765  24.371  1.00  0.00     0.135 A 
ATOM     71  C   UNL A   1      52.834  35.982  26.760  1.00  0.00     0.135 A 
ATOM     72  F   UNL A   1      52.301  35.101  23.269  1.00  0.00    -0.206 F 
ATOM     73  C   UNL A   1      53.418  36.938  24.209  1.00  0.00     0.059 A 
ATOM     74  C   UNL A   1      53.540  37.174  26.623  1.00  0.00     0.059 A 
ATOM     75  F   UNL A   1      52.580  35.540  28.002  1.00  0.00    -0.206 F 
ATOM     76  C   UNL A   1      53.836  37.639  25.343  1.00  0.00     0.060 A 
BRANCH  76  77
ATOM     77  S   UNL A   1      54.761  39.173  25.115  1.00  0.00     0.124 S 
ATOM     78  O   UNL A   1      55.981  38.685  24.479  1.00  0.00    -0.237 OA
ATOM     79  O   UNL A   1      53.867  39.949  24.262  1.00  0.00    -0.237 OA
ATOM     80  O   UNL A   1      54.922  39.678  26.475  1.00  0.00    -0.744 OA
ENDBRANCH  76  77
ENDBRANCH  55  69
BRANCH  56  81
ATOM     81  C   UNL A   1      46.567  27.192  26.689  1.00  0.00     0.058 A 
ATOM     82  C   UNL A   1      45.932  26.646  25.564  1.00  0.00     0.135 A 
ATOM     83  C   UNL A   1      46.348  26.568  27.928  1.00  0.00     0.135 A 
ATOM     84  F   UNL A   1      46.097  27.213  24.360  1.00  0.00    -0.206 F 
ATOM     85  C   UNL A   1      45.094  25.539  25.664  1.00  0.00     0.059 A 
ATOM     86  C   UNL A   1      45.542  25.441  28.049  1.00  0.00     0.059 A 
ATOM     87  F   UNL A   1      46.940  27.043  29.035  1.00  0.00    -0.206 F 
ATOM     88  C   UNL A   1      44.909  24.941  26.912  1.00  0.00     0.060 A 
BRANCH  88  89
ATOM     89  S   UNL A   1      43.856  23.477  27.024  1.00  0.00     0.124 S 
ATOM     90  O   UNL A   1      42.525  24.063  26.918  1.00  0.00    -0.237 OA
ATOM     91  O   UNL A   1      44.304  22.692  25.879  1.00  0.00    -0.237 OA
ATOM     92  O   UNL A   1      44.198  22.919  28.330  1.00  0.00    -0.744 OA
ENDBRANCH  88  89
ENDBRANCH  56  81
BRANCH  68  93
ATOM     93  C   UNL A   1      53.404  28.109  25.620  1.00  0.00     0.058 A 
ATOM     94  C   UNL A   1      53.757  27.563  24.375  1.00  0.00     0.135 A 
ATOM     95  C   UNL A   1      54.181  27.747  26.734  1.00  0.00     0.135 A 
ATOM     96  F   UNL A   1      53.049  27.874  23.277  1.00  0.00    -0.206 F 
ATOM     97  C   UNL A   1      54.810  26.662  24.247  1.00  0.00     0.059 A 
ATOM     98  C   UNL A   1      55.260  26.874  26.622  1.00  0.00     0.059 A 
ATOM     99  F   UNL A   1      53.902  28.248  27.947  1.00  0.00    -0.206 F 
ATOM    100  C   UNL A   1      55.554  26.322  25.377  1.00  0.00     0.060 A 
BRANCH 100 101
ATOM    101  S   UNL A   1      56.919  25.154  25.196  1.00  0.00     0.124 S 
ATOM    102  O   UNL A   1      56.212  23.878  25.174  1.00  0.00    -0.237 OA
ATOM    103  O   UNL A   1      57.518  25.569  23.931  1.00  0.00    -0.237 OA
ATOM    104  O   UNL A   1      57.736  25.398  26.380  1.00  0.00    -0.744 OA
ENDBRANCH 100 101
ENDBRANCH  68  93
ENDBRANCH  42  43
ENDBRANCH  35  37
ENDBRANCH  34  35
ENDBRANCH  33  34
ENDBRANCH  32  33
ENDBRANCH  31  32
ENDBRANCH  30  31
ENDBRANCH  29  30
ENDBRANCH  28  29
ENDBRANCH   1  28
TORSDOF 28
ENDMDL
MODEL 2
REMARK VINA RESULT:      -7.0      8.271     18.225
REMARK SMILES CCS(=O)(=O)c1ccccc1NC[C@H]1CC[C@H](C(=O)OCCOCCOCCOCCOC(=O)c2ccc(-c3c4nc(c(-c5c(F)cc(S(=O)(=O)[O-])cc5F)c5ccc([nH]5)c(-c5c(F)cc(S(=O)(=O)[O-])cc5F)c5nc(c(-c6c(F)cc(S(=O)(=O)[O-])cc6F)c6ccc3[nH]6)C=C5)C=C4)cc2)O1
REMARK SMILES IDX 25 1 24 2 23 3 22 4 21 5 20 6 18 7 19 8 17 9 14 10 15 11
REMARK SMILES IDX 101 12 16 13 13 14 12 15 11 17 6 18 7 19 8 20 10 21 9 22
REMARK SMILES IDX 3 23 4 24 5 25 2 26 1 27 26 28 27 29 28 30 29 31 30 32 31 33
REMARK SMILES IDX 32 34 33 35 34 36 35 37 36 38 100 39 37 40 99 41 38 42 39 43
REMARK SMILES IDX 40 44 93 45 41 46 98 47 92 48 94 49 42 50 97 51 91 52 90 53
REMARK SMILES IDX 43 55 77 56 56 57 76 58 57 59 60 60 75 61 95 62 58 63 59 64
REMARK SMILES IDX 74 66 96 67 61 68 44 69 45 70 54 71 46 72 47 73 53 74 55 75
REMARK SMILES IDX 48 76 49 77 50 78 51 79 52 80 78 81 79 82 88 83 80 84 81 85
REMARK SMILES IDX 87 86 89 87 82 88 83 89 84 90 85 91 86 92 62 93 63 94 72 95
REMARK SMILES IDX 64 96 65 97 71 98 73 99 66 100 67 101 68 102 69 103 70 104
REMARK H PARENT 12 16 94 54 60 65
REMARK Flexibility Score: inf
ROOT
ATOM      1  C   UNL A   1      45.636  26.438  26.473  1.00  0.00     0.188 C 
ENDROOT
BRANCH   1   2
ATOM      2  C   UNL A   1      45.171  25.265  25.600  1.00  0.00     0.188 C 
BRANCH   2   3
ATOM      3  O   UNL A   1      43.952  25.317  24.879  1.00  0.00    -0.376 OA
BRANCH   3   4
ATOM      4  C   UNL A   1      42.953  24.310  25.000  1.00  0.00     0.202 C 
BRANCH   4   5
ATOM      5  C   UNL A   1      43.257  22.874  25.452  1.00  0.00     0.261 C 
BRANCH   5   6
ATOM      6  O   UNL A   1      42.120  22.055  25.750  1.00  0.00    -0.461 OA
BRANCH   6   7
ATOM      7  C   UNL A   1      41.668  22.122  27.023  1.00  0.00     0.335 C 
ATOM      8  O   UNL A   1      42.388  22.210  28.014  1.00  0.00    -0.249 OA
BRANCH   7   9
ATOM      9  C   UNL A   1      40.145  22.088  27.130  1.00  0.00     0.228 C 
ATOM     10  C   UNL A   1      38.607  22.562  25.423  1.00  0.00     0.138 C 
ATOM     11  C   UNL A   1      38.918  23.856  26.153  1.00  0.00     0.037 C 
ATOM     12  O   UNL A   1      39.635  21.645  25.856  1.00  0.00    -0.361 OA
ATOM     13  C   UNL A   1      39.376  23.351  27.490  1.00  0.00     0.047 C 
BRANCH  10  14
ATOM     14  C   UNL A   1      37.259  21.885  25.753  1.00  0.00     0.145 C 
BRANCH  14  15
ATOM     15  N   UNL A   1      36.149  22.342  24.925  1.00  0.00    -0.381 N 
ATOM     16  H   UNL A   1      36.253  23.217  24.485  1.00  0.00     0.160 HD
BRANCH  15  17
ATOM     17  C   UNL A   1      34.970  21.667  24.699  1.00  0.00     0.053 A 
ATOM     18  C   UNL A   1      33.823  22.300  24.187  1.00  0.00     0.090 A 
ATOM     19  C   UNL A   1      32.646  21.564  23.940  1.00  0.00     0.022 A 
ATOM     20  C   UNL A   1      32.579  20.204  24.227  1.00  0.00     0.001 A 
ATOM     21  C   UNL A   1      34.854  20.298  25.010  1.00  0.00     0.027 A 
ATOM     22  C   UNL A   1      33.684  19.573  24.773  1.00  0.00     0.002 A 
BRANCH  18  23
ATOM     23  S   UNL A   1      33.706  24.032  23.766  1.00  0.00     0.180 S 
ATOM     24  O   UNL A   1      34.013  24.131  22.347  1.00  0.00    -0.224 OA
ATOM     25  O   UNL A   1      34.538  24.725  24.735  1.00  0.00    -0.224 OA
BRANCH  23  26
ATOM     26  C   UNL A   1      32.074  24.687  23.951  1.00  0.00     0.139 C 
ATOM     27  C   UNL A   1      30.954  23.809  23.445  1.00  0.00     0.021 C 
ENDBRANCH  23  26
ENDBRANCH  18  23
ENDBRANCH  15  17
ENDBRANCH  14  15
ENDBRANCH  10  14
ENDBRANCH   7   9
ENDBRANCH   6   7
ENDBRANCH   5   6
ENDBRANCH   4   5
ENDBRANCH   3   4
ENDBRANCH   2   3
ENDBRANCH   1   2
BRANCH   1  28
ATOM     28  O   UNL A   1      45.660  26.164  27.858  1.00  0.00    -0.377 OA
BRANCH  28  29
ATOM     29  C   UNL A   1      44.420  26.003  28.540  1.00  0.00     0.188 C 
BRANCH  29  30
ATOM     30  C   UNL A   1      43.147  26.581  27.894  1.00  0.00     0.188 C 
BRANCH  30  31
ATOM     31  O   UNL A   1      43.194  27.986  27.683  1.00  0.00    -0.376 OA
BRANCH  31  32
ATOM     32  C   UNL A   1      42.187  28.585  26.880  1.00  0.00     0.202 C 
BRANCH  32  33
ATOM     33  C   UNL A   1      40.766  28.701  27.459  1.00  0.00     0.261 C 
BRANCH  33  34
ATOM     34  O   UNL A   1      40.654  28.765  28.893  1.00  0.00    -0.460 OA
BRANCH  34  35
ATOM     35  C   UNL A   1      39.697  29.549  29.423  1.00  0.00     0.338 C 
ATOM     36  O   UNL A   1      38.568  29.210  29.748  1.00  0.00    -0.246 OA
BRANCH  35  37
ATOM     37  C   UNL A   1      40.300  30.857  29.753  1.00  0.00     0.060 A 
ATOM     38  C   UNL A   1      41.681  30.922  29.979  1.00  0.00     0.016 A 
ATOM     39  C   UNL A   1      39.513  32.007  29.866  1.00  0.00     0.016 A 
ATOM     40  C   UNL A   1      42.270  32.124  30.369  1.00  0.00     0.010 A 
ATOM     41  C   UNL A   1      40.103  33.207  30.276  1.00  0.00     0.010 A 
ATOM     42  C   UNL A   1      41.477  33.261  30.570  1.00  0.00    -0.014 A 
BRANCH  42  43
ATOM     43  C   UNL A   1      42.063  34.438  31.262  1.00  0.00     0.031 A 
ATOM     44  C   UNL A   1      42.005  34.490  32.767  1.00  0.00     0.074 A 
ATOM     45  C   UNL A   1      42.686  35.413  30.576  1.00  0.00     0.049 A 
ATOM     46  N   UNL A   1      42.454  35.407  33.584  1.00  0.00    -0.248 NA
ATOM     47  C   UNL A   1      41.354  33.355  33.440  1.00  0.00     0.031 C 
ATOM     48  C   UNL A   1      42.840  35.458  29.123  1.00  0.00     0.029 A 
ATOM     49  N   UNL A   1      43.304  36.558  31.015  1.00  0.00    -0.354 N 
ATOM     50  C   UNL A   1      42.136  34.965  34.863  1.00  0.00     0.074 A 
ATOM     51  C   UNL A   1      41.428  33.713  34.714  1.00  0.00     0.031 C 
ATOM     52  C   UNL A   1      43.503  36.579  28.789  1.00  0.00     0.029 A 
ATOM     53  C   UNL A   1      43.793  37.346  30.000  1.00  0.00     0.049 A 
ATOM     54  H   UNL A   1      43.389  36.792  31.967  1.00  0.00     0.167 HD
ATOM     55  C   UNL A   1      42.416  35.544  36.054  1.00  0.00     0.037 A 
ATOM     56  C   UNL A   1      44.385  38.557  30.043  1.00  0.00     0.037 A 
ATOM     57  C   UNL A   1      43.123  36.791  36.199  1.00  0.00     0.049 A 
ATOM     58  C   UNL A   1      44.633  39.211  31.380  1.00  0.00     0.074 A 
ATOM     59  C   UNL A   1      43.479  37.448  37.364  1.00  0.00     0.029 A 
ATOM     60  N   UNL A   1      43.575  37.575  35.146  1.00  0.00    -0.354 N 
ATOM     61  N   UNL A   1      44.356  38.765  32.583  1.00  0.00    -0.248 NA
ATOM     62  C   UNL A   1      45.282  40.530  31.364  1.00  0.00     0.031 C 
ATOM     63  C   UNL A   1      44.088  38.658  37.016  1.00  0.00     0.029 A 
ATOM     64  C   UNL A   1      44.176  38.724  35.635  1.00  0.00     0.049 A 
ATOM     65  H   UNL A   1      43.482  37.348  34.193  1.00  0.00     0.167 HD
ATOM     66  C   UNL A   1      44.821  39.735  33.466  1.00  0.00     0.074 A 
ATOM     67  C   UNL A   1      45.416  40.781  32.659  1.00  0.00     0.031 C 
ATOM     68  C   UNL A   1      44.765  39.759  34.822  1.00  0.00     0.037 A 
BRANCH  55  69
ATOM     69  C   UNL A   1      41.932  34.855  37.302  1.00  0.00     0.058 A 
ATOM     70  C   UNL A   1      40.649  35.083  37.828  1.00  0.00     0.135 A 
ATOM     71  C   UNL A   1      42.746  33.913  37.952  1.00  0.00     0.135 A 
ATOM     72  F   UNL A   1      39.835  35.988  37.259  1.00  0.00    -0.206 F 
ATOM     73  C   UNL A   1      40.199  34.416  38.963  1.00  0.00     0.059 A 
ATOM     74  C   UNL A   1      42.305  33.212  39.071  1.00  0.00     0.059 A 
ATOM     75  F   UNL A   1      43.983  33.660  37.496  1.00  0.00    -0.206 F 
ATOM     76  C   UNL A   1      41.033  33.478  39.575  1.00  0.00     0.060 A 
BRANCH  76  77
ATOM     77  S   UNL A   1      40.424  32.603  41.032  1.00  0.00     0.124 S 
ATOM     78  O   UNL A   1      39.108  32.164  40.579  1.00  0.00    -0.237 OA
ATOM     79  O   UNL A   1      41.421  31.551  41.200  1.00  0.00    -0.237 OA
ATOM     80  O   UNL A   1      40.419  33.631  42.069  1.00  0.00    -0.744 OA
ENDBRANCH  76  77
ENDBRANCH  55  69
BRANCH  56  81
ATOM     81  C   UNL A   1      44.771  39.245  28.779  1.00  0.00     0.058 A 
ATOM     82  C   UNL A   1      43.891  40.119  28.123  1.00  0.00     0.135 A 
ATOM     83  C   UNL A   1      46.028  39.026  28.193  1.00  0.00     0.135 A 
ATOM     84  F   UNL A   1      42.672  40.351  28.635  1.00  0.00    -0.206 F 
ATOM     85  C   UNL A   1      44.232  40.734  26.923  1.00  0.00     0.059 A 
ATOM     86  C   UNL A   1      46.405  39.654  27.010  1.00  0.00     0.059 A 
ATOM     87  F   UNL A   1      46.913  38.207  28.783  1.00  0.00    -0.206 F 
ATOM     88  C   UNL A   1      45.495  40.497  26.376  1.00  0.00     0.060 A 
BRANCH  88  89
ATOM     89  S   UNL A   1      45.945  41.335  24.841  1.00  0.00     0.124 S 
ATOM     90  O   UNL A   1      46.736  42.456  25.337  1.00  0.00    -0.237 OA
ATOM     91  O   UNL A   1      46.684  40.296  24.132  1.00  0.00    -0.237 OA
ATOM     92  O   UNL A   1      44.652  41.683  24.258  1.00  0.00    -0.744 OA
ENDBRANCH  88  89
ENDBRANCH  56  81
BRANCH  68  93
ATOM     93  C   UNL A   1      45.391  40.936  35.524  1.00  0.00     0.058 A 
ATOM     94  C   UNL A   1      46.740  40.936  35.916  1.00  0.00     0.135 A 
ATOM     95  C   UNL A   1      44.638  42.094  35.781  1.00  0.00     0.135 A 
ATOM     96  F   UNL A   1      47.507  39.856  35.697  1.00  0.00    -0.206 F 
ATOM     97  C   UNL A   1      47.307  42.024  36.574  1.00  0.00     0.059 A 
ATOM     98  C   UNL A   1      45.194  43.207  36.407  1.00  0.00     0.059 A 
ATOM     99  F   UNL A   1      43.348  42.158  35.415  1.00  0.00    -0.206 F 
ATOM    100  C   UNL A   1      46.525  43.154  36.817  1.00  0.00     0.060 A 
BRANCH 100 101
ATOM    101  S   UNL A   1      47.273  44.558  37.669  1.00  0.00     0.124 S 
ATOM    102  O   UNL A   1      48.677  44.415  37.296  1.00  0.00    -0.237 OA
ATOM    103  O   UNL A   1      46.572  45.692  37.075  1.00  0.00    -0.237 OA
ATOM    104  O   UNL A   1      46.970  44.306  39.074  1.00  0.00    -0.744 OA
ENDBRANCH 100 101
ENDBRANCH  68  93
ENDBRANCH  42  43
ENDBRANCH  35  37
ENDBRANCH  34  35
ENDBRANCH  33  34
ENDBRANCH  32  33
ENDBRANCH  31  32
ENDBRANCH  30  31
ENDBRANCH  29  30
ENDBRANCH  28  29
ENDBRANCH   1  28
TORSDOF 28
ENDMDL
MODEL 3
REMARK VINA RESULT:      -6.8      5.707     10.613
REMARK SMILES CCS(=O)(=O)c1ccccc1NC[C@H]1CC[C@H](C(=O)OCCOCCOCCOCCOC(=O)c2ccc(-c3c4nc(c(-c5c(F)cc(S(=O)(=O)[O-])cc5F)c5ccc([nH]5)c(-c5c(F)cc(S(=O)(=O)[O-])cc5F)c5nc(c(-c6c(F)cc(S(=O)(=O)[O-])cc6F)c6ccc3[nH]6)C=C5)C=C4)cc2)O1
REMARK SMILES IDX 25 1 24 2 23 3 22 4 21 5 20 6 18 7 19 8 17 9 14 10 15 11
REMARK SMILES IDX 101 12 16 13 13 14 12 15 11 17 6 18 7 19 8 20 10 21 9 22
REMARK SMILES IDX 3 23 4 24 5 25 2 26 1 27 26 28 27 29 28 30 29 31 30 32 31 33
REMARK SMILES IDX 32 34 33 35 34 36 35 37 36 38 100 39 37 40 99 41 38 42 39 43
REMARK SMILES IDX 40 44 93 45 41 46 98 47 92 48 94 49 42 50 97 51 91 52 90 53
REMARK SMILES IDX 43 55 77 56 56 57 76 58 57 59 60 60 75 61 95 62 58 63 59 64
REMARK SMILES IDX 74 66 96 67 61 68 44 69 45 70 54 71 46 72 47 73 53 74 55 75
REMARK SMILES IDX 48 76 49 77 50 78 51 79 52 80 78 81 79 82 88 83 80 84 81 85
REMARK SMILES IDX 87 86 89 87 82 88 83 89 84 90 85 91 86 92 62 93 63 94 72 95
REMARK SMILES IDX 64 96 65 97 71 98 73 99 66 100 67 101 68 102 69 103 70 104
REMARK H PARENT 12 16 94 54 60 65
REMARK Flexibility Score: inf
ROOT
ATOM      1  C   UNL A   1      47.804  35.092  26.072  1.00  0.00     0.188 C 
ENDROOT
BRANCH   1   2
ATOM      2  C   UNL A   1      46.282  34.902  26.064  1.00  0.00     0.188 C 
BRANCH   2   3
ATOM      3  O   UNL A   1      45.458  35.494  27.054  1.00  0.00    -0.376 OA
BRANCH   3   4
ATOM      4  C   UNL A   1      44.510  36.510  26.748  1.00  0.00     0.202 C 
BRANCH   4   5
ATOM      5  C   UNL A   1      43.928  37.463  27.802  1.00  0.00     0.261 C 
BRANCH   5   6
ATOM      6  O   UNL A   1      43.325  38.662  27.302  1.00  0.00    -0.461 OA
BRANCH   6   7
ATOM      7  C   UNL A   1      43.086  39.626  28.220  1.00  0.00     0.335 C 
ATOM      8  O   UNL A   1      41.973  39.915  28.652  1.00  0.00    -0.249 OA
BRANCH   7   9
ATOM      9  C   UNL A   1      44.350  40.338  28.698  1.00  0.00     0.228 C 
ATOM     10  C   UNL A   1      44.652  41.432  30.750  1.00  0.00     0.138 C 
ATOM     11  C   UNL A   1      44.115  42.441  29.751  1.00  0.00     0.037 C 
ATOM     12  O   UNL A   1      44.434  40.149  30.126  1.00  0.00    -0.361 OA
ATOM     13  C   UNL A   1      44.529  41.827  28.444  1.00  0.00     0.047 C 
BRANCH  10  14
ATOM     14  C   UNL A   1      46.161  41.506  31.068  1.00  0.00     0.145 C 
BRANCH  14  15
ATOM     15  N   UNL A   1      46.473  41.402  32.488  1.00  0.00    -0.381 N 
ATOM     16  H   UNL A   1      47.206  41.966  32.825  1.00  0.00     0.160 HD
BRANCH  15  17
ATOM     17  C   UNL A   1      45.839  40.590  33.404  1.00  0.00     0.053 A 
ATOM     18  C   UNL A   1      45.047  41.102  34.447  1.00  0.00     0.090 A 
ATOM     19  C   UNL A   1      44.390  40.234  35.343  1.00  0.00     0.022 A 
ATOM     20  C   UNL A   1      44.534  38.854  35.237  1.00  0.00     0.001 A 
ATOM     21  C   UNL A   1      45.990  39.191  33.349  1.00  0.00     0.027 A 
ATOM     22  C   UNL A   1      45.345  38.333  34.244  1.00  0.00     0.002 A 
BRANCH  18  23
ATOM     23  S   UNL A   1      44.749  42.837  34.755  1.00  0.00     0.180 S 
ATOM     24  O   UNL A   1      46.041  43.499  34.653  1.00  0.00    -0.224 OA
ATOM     25  O   UNL A   1      44.007  42.889  36.002  1.00  0.00    -0.224 OA
BRANCH  23  26
ATOM     26  C   UNL A   1      43.723  43.596  33.531  1.00  0.00     0.139 C 
ATOM     27  C   UNL A   1      44.355  44.728  32.756  1.00  0.00     0.021 C 
ENDBRANCH  23  26
ENDBRANCH  18  23
ENDBRANCH  15  17
ENDBRANCH  14  15
ENDBRANCH  10  14
ENDBRANCH   7   9
ENDBRANCH   6   7
ENDBRANCH   5   6
ENDBRANCH   4   5
ENDBRANCH   3   4
ENDBRANCH   2   3
ENDBRANCH   1   2
BRANCH   1  28
ATOM     28  O   UNL A   1      48.238  36.370  25.660  1.00  0.00    -0.377 OA
BRANCH  28  29
ATOM     29  C   UNL A   1      48.374  37.391  26.644  1.00  0.00     0.188 C 
BRANCH  29  30
ATOM     30  C   UNL A   1      49.611  38.307  26.584  1.00  0.00     0.188 C 
BRANCH  30  31
ATOM     31  O   UNL A   1      50.546  38.085  27.632  1.00  0.00    -0.376 OA
BRANCH  31  32
ATOM     32  C   UNL A   1      50.426  36.902  28.409  1.00  0.00     0.202 C 
BRANCH  32  33
ATOM     33  C   UNL A   1      50.406  37.036  29.942  1.00  0.00     0.261 C 
BRANCH  33  34
ATOM     34  O   UNL A   1      49.119  36.961  30.582  1.00  0.00    -0.460 OA
BRANCH  34  35
ATOM     35  C   UNL A   1      48.964  36.098  31.603  1.00  0.00     0.338 C 
ATOM     36  O   UNL A   1      48.962  36.367  32.796  1.00  0.00    -0.246 OA
BRANCH  35  37
ATOM     37  C   UNL A   1      48.579  34.785  31.046  1.00  0.00     0.060 A 
ATOM     38  C   UNL A   1      47.809  34.751  29.876  1.00  0.00     0.016 A 
ATOM     39  C   UNL A   1      48.948  33.596  31.681  1.00  0.00     0.016 A 
ATOM     40  C   UNL A   1      47.363  33.533  29.368  1.00  0.00     0.010 A 
ATOM     41  C   UNL A   1      48.483  32.375  31.179  1.00  0.00     0.010 A 
ATOM     42  C   UNL A   1      47.653  32.341  30.044  1.00  0.00    -0.014 A 
BRANCH  42  43
ATOM     43  C   UNL A   1      46.932  31.099  29.664  1.00  0.00     0.031 A 
ATOM     44  C   UNL A   1      47.690  30.022  28.931  1.00  0.00     0.074 A 
ATOM     45  C   UNL A   1      45.648  30.903  30.011  1.00  0.00     0.049 A 
ATOM     46  N   UNL A   1      47.275  28.857  28.506  1.00  0.00    -0.248 NA
ATOM     47  C   UNL A   1      49.107  30.297  28.640  1.00  0.00     0.031 C 
ATOM     48  C   UNL A   1      44.818  31.852  30.752  1.00  0.00     0.029 A 
ATOM     49  N   UNL A   1      44.814  29.837  29.781  1.00  0.00    -0.354 N 
ATOM     50  C   UNL A   1      48.374  28.264  27.893  1.00  0.00     0.074 A 
ATOM     51  C   UNL A   1      49.465  29.209  27.974  1.00  0.00     0.031 C 
ATOM     52  C   UNL A   1      43.589  31.329  30.908  1.00  0.00     0.029 A 
ATOM     53  C   UNL A   1      43.536  30.022  30.253  1.00  0.00     0.049 A 
ATOM     54  H   UNL A   1      45.104  29.016  29.321  1.00  0.00     0.167 HD
ATOM     55  C   UNL A   1      48.468  27.039  27.325  1.00  0.00     0.037 A 
ATOM     56  C   UNL A   1      42.444  29.237  30.149  1.00  0.00     0.037 A 
ATOM     57  C   UNL A   1      47.378  26.099  27.248  1.00  0.00     0.049 A 
ATOM     58  C   UNL A   1      42.558  27.902  29.457  1.00  0.00     0.074 A 
ATOM     59  C   UNL A   1      47.380  24.823  26.715  1.00  0.00     0.029 A 
ATOM     60  N   UNL A   1      46.091  26.336  27.710  1.00  0.00    -0.354 N 
ATOM     61  N   UNL A   1      43.611  27.340  28.912  1.00  0.00    -0.248 NA
ATOM     62  C   UNL A   1      41.335  27.090  29.373  1.00  0.00     0.031 C 
ATOM     63  C   UNL A   1      46.080  24.312  26.796  1.00  0.00     0.029 A 
ATOM     64  C   UNL A   1      45.283  25.242  27.443  1.00  0.00     0.049 A 
ATOM     65  H   UNL A   1      45.796  27.159  28.161  1.00  0.00     0.167 HD
ATOM     66  C   UNL A   1      43.185  26.099  28.446  1.00  0.00     0.074 A 
ATOM     67  C   UNL A   1      41.783  25.985  28.792  1.00  0.00     0.031 C 
ATOM     68  C   UNL A   1      43.888  25.139  27.792  1.00  0.00     0.037 A 
BRANCH  55  69
ATOM     69  C   UNL A   1      49.785  26.649  26.708  1.00  0.00     0.058 A 
ATOM     70  C   UNL A   1      50.766  25.949  27.430  1.00  0.00     0.135 A 
ATOM     71  C   UNL A   1      50.047  26.935  25.359  1.00  0.00     0.135 A 
ATOM     72  F   UNL A   1      50.577  25.667  28.730  1.00  0.00    -0.206 F 
ATOM     73  C   UNL A   1      51.966  25.565  26.842  1.00  0.00     0.059 A 
ATOM     74  C   UNL A   1      51.228  26.533  24.741  1.00  0.00     0.059 A 
ATOM     75  F   UNL A   1      49.147  27.606  24.623  1.00  0.00    -0.206 F 
ATOM     76  C   UNL A   1      52.186  25.856  25.494  1.00  0.00     0.060 A 
BRANCH  76  77
ATOM     77  S   UNL A   1      53.738  25.327  24.739  1.00  0.00     0.124 S 
ATOM     78  O   UNL A   1      54.719  25.909  25.650  1.00  0.00    -0.237 OA
ATOM     79  O   UNL A   1      53.621  23.873  24.778  1.00  0.00    -0.237 OA
ATOM     80  O   UNL A   1      53.690  25.923  23.407  1.00  0.00    -0.744 OA
ENDBRANCH  76  77
ENDBRANCH  55  69
BRANCH  56  81
ATOM     81  C   UNL A   1      41.137  29.699  30.696  1.00  0.00     0.058 A 
ATOM     82  C   UNL A   1      40.819  29.551  32.054  1.00  0.00     0.135 A 
ATOM     83  C   UNL A   1      40.171  30.282  29.861  1.00  0.00     0.135 A 
ATOM     84  F   UNL A   1      41.702  28.986  32.892  1.00  0.00    -0.206 F 
ATOM     85  C   UNL A   1      39.585  29.945  32.562  1.00  0.00     0.059 A 
ATOM     86  C   UNL A   1      38.942  30.713  30.350  1.00  0.00     0.059 A 
ATOM     87  F   UNL A   1      40.427  30.456  28.555  1.00  0.00    -0.206 F 
ATOM     88  C   UNL A   1      38.654  30.530  31.701  1.00  0.00     0.060 A 
BRANCH  88  89
ATOM     89  S   UNL A   1      37.072  31.079  32.379  1.00  0.00     0.124 S 
ATOM     90  O   UNL A   1      36.261  29.873  32.249  1.00  0.00    -0.237 OA
ATOM     91  O   UNL A   1      37.440  31.459  33.739  1.00  0.00    -0.237 OA
ATOM     92  O   UNL A   1      36.701  32.188  31.504  1.00  0.00    -0.744 OA
ENDBRANCH  88  89
ENDBRANCH  56  81
BRANCH  68  93
ATOM     93  C   UNL A   1      43.164  23.866  27.440  1.00  0.00     0.058 A 
ATOM     94  C   UNL A   1      42.753  23.583  26.127  1.00  0.00     0.135 A 
ATOM     95  C   UNL A   1      42.904  22.900  28.427  1.00  0.00     0.135 A 
ATOM     96  F   UNL A   1      42.974  24.471  25.144  1.00  0.00    -0.206 F 
ATOM     97  C   UNL A   1      42.074  22.409  25.814  1.00  0.00     0.059 A 
ATOM     98  C   UNL A   1      42.258  21.703  28.128  1.00  0.00     0.059 A 
ATOM     99  F   UNL A   1      43.287  23.108  29.696  1.00  0.00    -0.206 F 
ATOM    100  C   UNL A   1      41.830  21.476  26.822  1.00  0.00     0.060 A 
BRANCH 100 101
ATOM    101  S   UNL A   1      40.951  19.956  26.401  1.00  0.00     0.124 S 
ATOM    102  O   UNL A   1      41.845  19.364  25.411  1.00  0.00    -0.237 OA
ATOM    103  O   UNL A   1      40.885  19.268  27.687  1.00  0.00    -0.237 OA
ATOM    104  O   UNL A   1      39.672  20.433  25.884  1.00  0.00    -0.744 OA
ENDBRANCH 100 101
ENDBRANCH  68  93
ENDBRANCH  42  43
ENDBRANCH  35  37
ENDBRANCH  34  35
ENDBRANCH  33  34
ENDBRANCH  32  33
ENDBRANCH  31  32
ENDBRANCH  30  31
ENDBRANCH  29  30
ENDBRANCH  28  29
ENDBRANCH   1  28
TORSDOF 28
ENDMDL
