MODEL 1
REMARK VINA RESULT:      -8.2      0.000      0.000
REMARK SMILES O=C(CCCC[C@@H]1CCSS1)OCCOCCOCCOCCOC(=O)c1ccc(-c2c3nc(c(-c4c(F)cc(S(=O)(=O)[O-])cc4F)c4ccc([nH]4)c(-c4c(F)cc(S(=O)(=O)[O-])cc4F)c4nc(c(-c5c(F)cc(S(=O)(=O)[O-])cc5F)c5ccc2[nH]5)C=C4)C=C3)cc1
REMARK SMILES IDX 17 1 16 2 15 3 14 4 13 5 12 6 2 7 1 8 3 9 4 10 5 11 6 12
REMARK SMILES IDX 7 13 8 14 11 15 9 16 10 17 18 18 19 19 20 20 21 21 22 22
REMARK SMILES IDX 23 23 24 24 25 25 26 26 27 27 28 28 92 29 29 30 91 31 30 32
REMARK SMILES IDX 31 33 32 34 85 35 33 36 90 37 84 38 86 39 34 40 89 41 83 42
REMARK SMILES IDX 82 43 35 45 69 46 48 47 68 48 49 49 52 50 67 51 87 52 50 53
REMARK SMILES IDX 51 54 66 56 88 57 53 58 36 59 37 60 46 61 38 62 39 63 45 64
REMARK SMILES IDX 47 65 40 66 41 67 42 68 43 69 44 70 70 71 71 72 80 73 72 74
REMARK SMILES IDX 73 75 79 76 81 77 74 78 75 79 76 80 77 81 78 82 54 83 55 84
REMARK SMILES IDX 64 85 56 86 57 87 63 88 65 89 58 90 59 91 60 92 61 93 62 94
REMARK H PARENT 86 44 52 55
REMARK Flexibility Score: inf
ROOT
ATOM      1  C   UNL A   1      32.834  29.714  27.259  1.00  0.00     0.188 C 
ENDROOT
BRANCH   1   2
ATOM      2  C   UNL A   1      32.799  28.561  26.263  1.00  0.00     0.188 C 
BRANCH   2   3
ATOM      3  O   UNL A   1      34.005  28.341  25.536  1.00  0.00    -0.376 OA
BRANCH   3   4
ATOM      4  C   UNL A   1      33.906  28.133  24.136  1.00  0.00     0.202 C 
BRANCH   4   5
ATOM      5  C   UNL A   1      32.610  28.683  23.584  1.00  0.00     0.261 C 
BRANCH   5   6
ATOM      6  O   UNL A   1      31.779  27.686  22.970  1.00  0.00    -0.463 OA
BRANCH   6   7
ATOM      7  C   UNL A   1      30.442  27.652  22.827  1.00  0.00     0.305 C 
ATOM      8  O   UNL A   1      29.936  28.408  21.991  1.00  0.00    -0.252 OA
BRANCH   7   9
ATOM      9  C   UNL A   1      29.523  26.809  23.695  1.00  0.00     0.123 C 
BRANCH   9  10
ATOM     10  C   UNL A   1      29.987  26.319  25.061  1.00  0.00     0.012 C 
BRANCH  10  11
ATOM     11  C   UNL A   1      30.597  24.917  25.179  1.00  0.00     0.002 C 
BRANCH  11  12
ATOM     12  C   UNL A   1      32.133  24.822  25.183  1.00  0.00     0.015 C 
BRANCH  12  13
ATOM     13  C   UNL A   1      32.743  23.743  24.282  1.00  0.00     0.059 C 
ATOM     14  C   UNL A   1      31.691  23.196  23.299  1.00  0.00     0.027 C 
ATOM     15  S   UNL A   1      33.350  22.328  25.266  1.00  0.00    -0.091 SA
ATOM     16  C   UNL A   1      32.141  21.869  22.701  1.00  0.00     0.083 C 
ATOM     17  S   UNL A   1      32.585  20.826  24.103  1.00  0.00    -0.094 SA
ENDBRANCH  12  13
ENDBRANCH  11  12
ENDBRANCH  10  11
ENDBRANCH   9  10
ENDBRANCH   7   9
ENDBRANCH   6   7
ENDBRANCH   5   6
ENDBRANCH   4   5
ENDBRANCH   3   4
ENDBRANCH   2   3
ENDBRANCH   1   2
BRANCH   1  18
ATOM     18  O   UNL A   1      33.537  30.892  26.892  1.00  0.00    -0.377 OA
BRANCH  18  19
ATOM     19  C   UNL A   1      33.321  32.112  27.575  1.00  0.00     0.188 C 
BRANCH  19  20
ATOM     20  C   UNL A   1      34.319  32.398  28.706  1.00  0.00     0.188 C 
BRANCH  20  21
ATOM     21  O   UNL A   1      34.315  33.691  29.292  1.00  0.00    -0.376 OA
BRANCH  21  22
ATOM     22  C   UNL A   1      35.075  33.890  30.484  1.00  0.00     0.202 C 
BRANCH  22  23
ATOM     23  C   UNL A   1      35.502  32.691  31.362  1.00  0.00     0.261 C 
BRANCH  23  24
ATOM     24  O   UNL A   1      36.910  32.373  31.345  1.00  0.00    -0.460 OA
BRANCH  24  25
ATOM     25  C   UNL A   1      37.273  31.203  31.927  1.00  0.00     0.338 C 
ATOM     26  O   UNL A   1      36.699  30.643  32.844  1.00  0.00    -0.246 OA
BRANCH  25  27
ATOM     27  C   UNL A   1      38.358  30.545  31.156  1.00  0.00     0.060 A 
ATOM     28  C   UNL A   1      39.308  29.795  31.869  1.00  0.00     0.016 A 
ATOM     29  C   UNL A   1      38.502  30.720  29.780  1.00  0.00     0.016 A 
ATOM     30  C   UNL A   1      40.416  29.245  31.219  1.00  0.00     0.010 A 
ATOM     31  C   UNL A   1      39.637  30.204  29.134  1.00  0.00     0.010 A 
ATOM     32  C   UNL A   1      40.619  29.500  29.857  1.00  0.00    -0.014 A 
BRANCH  32  33
ATOM     33  C   UNL A   1      41.969  29.273  29.274  1.00  0.00     0.031 A 
ATOM     34  C   UNL A   1      42.278  27.898  28.735  1.00  0.00     0.074 A 
ATOM     35  C   UNL A   1      42.889  30.252  29.177  1.00  0.00     0.049 A 
ATOM     36  N   UNL A   1      43.382  27.436  28.209  1.00  0.00    -0.248 NA
ATOM     37  C   UNL A   1      41.185  26.913  28.801  1.00  0.00     0.031 C 
ATOM     38  C   UNL A   1      42.700  31.637  29.603  1.00  0.00     0.029 A 
ATOM     39  N   UNL A   1      44.173  30.222  28.689  1.00  0.00    -0.354 N 
ATOM     40  C   UNL A   1      43.120  26.107  27.891  1.00  0.00     0.074 A 
ATOM     41  C   UNL A   1      41.766  25.828  28.312  1.00  0.00     0.031 C 
ATOM     42  C   UNL A   1      43.835  32.322  29.371  1.00  0.00     0.029 A 
ATOM     43  C   UNL A   1      44.841  31.418  28.809  1.00  0.00     0.049 A 
ATOM     44  H   UNL A   1      44.578  29.418  28.290  1.00  0.00     0.167 HD
ATOM     45  C   UNL A   1      43.931  25.199  27.296  1.00  0.00     0.037 A 
ATOM     46  C   UNL A   1      46.119  31.739  28.519  1.00  0.00     0.037 A 
ATOM     47  C   UNL A   1      45.284  25.474  26.886  1.00  0.00     0.049 A 
ATOM     48  C   UNL A   1      47.034  30.688  27.933  1.00  0.00     0.074 A 
ATOM     49  C   UNL A   1      46.184  24.624  26.269  1.00  0.00     0.029 A 
ATOM     50  N   UNL A   1      45.934  26.687  27.062  1.00  0.00    -0.354 N 
ATOM     51  N   UNL A   1      46.770  29.440  27.622  1.00  0.00    -0.248 NA
ATOM     52  C   UNL A   1      48.421  31.091  27.657  1.00  0.00     0.031 C 
ATOM     53  C   UNL A   1      47.398  25.303  26.127  1.00  0.00     0.029 A 
ATOM     54  C   UNL A   1      47.234  26.599  26.591  1.00  0.00     0.049 A 
ATOM     55  H   UNL A   1      45.531  27.491  27.463  1.00  0.00     0.167 HD
ATOM     56  C   UNL A   1      47.943  28.924  27.079  1.00  0.00     0.074 A 
ATOM     57  C   UNL A   1      48.916  29.995  27.096  1.00  0.00     0.031 C 
ATOM     58  C   UNL A   1      48.192  27.677  26.603  1.00  0.00     0.037 A 
BRANCH  45  59
ATOM     59  C   UNL A   1      43.385  23.811  27.090  1.00  0.00     0.058 A 
ATOM     60  C   UNL A   1      43.263  22.897  28.148  1.00  0.00     0.135 A 
ATOM     61  C   UNL A   1      42.962  23.397  25.816  1.00  0.00     0.135 A 
ATOM     62  F   UNL A   1      43.672  23.231  29.383  1.00  0.00    -0.206 F 
ATOM     63  C   UNL A   1      42.772  21.610  27.946  1.00  0.00     0.059 A 
ATOM     64  C   UNL A   1      42.436  22.128  25.597  1.00  0.00     0.059 A 
ATOM     65  F   UNL A   1      43.059  24.230  24.767  1.00  0.00    -0.206 F 
ATOM     66  C   UNL A   1      42.359  21.236  26.666  1.00  0.00     0.060 A 
BRANCH  66  67
ATOM     67  S   UNL A   1      41.724  19.565  26.419  1.00  0.00     0.124 S 
ATOM     68  O   UNL A   1      42.430  19.161  25.206  1.00  0.00    -0.237 OA
ATOM     69  O   UNL A   1      42.137  18.891  27.647  1.00  0.00    -0.237 OA
ATOM     70  O   UNL A   1      40.287  19.765  26.270  1.00  0.00    -0.744 OA
ENDBRANCH  66  67
ENDBRANCH  45  59
BRANCH  46  71
ATOM     71  C   UNL A   1      46.628  33.115  28.781  1.00  0.00     0.058 A 
ATOM     72  C   UNL A   1      46.578  34.111  27.794  1.00  0.00     0.135 A 
ATOM     73  C   UNL A   1      47.193  33.457  30.021  1.00  0.00     0.135 A 
ATOM     74  F   UNL A   1      46.067  33.832  26.586  1.00  0.00    -0.206 F 
ATOM     75  C   UNL A   1      47.082  35.389  28.018  1.00  0.00     0.059 A 
ATOM     76  C   UNL A   1      47.675  34.737  30.279  1.00  0.00     0.059 A 
ATOM     77  F   UNL A   1      47.262  32.546  31.004  1.00  0.00    -0.206 F 
ATOM     78  C   UNL A   1      47.623  35.695  29.268  1.00  0.00     0.060 A 
BRANCH  78  79
ATOM     79  S   UNL A   1      48.219  37.374  29.566  1.00  0.00     0.124 S 
ATOM     80  O   UNL A   1      49.395  37.427  28.706  1.00  0.00    -0.237 OA
ATOM     81  O   UNL A   1      47.079  38.180  29.142  1.00  0.00    -0.237 OA
ATOM     82  O   UNL A   1      48.484  37.385  31.002  1.00  0.00    -0.744 OA
ENDBRANCH  78  79
ENDBRANCH  46  71
BRANCH  58  83
ATOM     83  C   UNL A   1      49.554  27.409  26.013  1.00  0.00     0.058 A 
ATOM     84  C   UNL A   1      50.668  27.109  26.811  1.00  0.00     0.135 A 
ATOM     85  C   UNL A   1      49.729  27.403  24.618  1.00  0.00     0.135 A 
ATOM     86  F   UNL A   1      50.559  27.101  28.149  1.00  0.00    -0.206 F 
ATOM     87  C   UNL A   1      51.915  26.844  26.250  1.00  0.00     0.059 A 
ATOM     88  C   UNL A   1      50.959  27.108  24.035  1.00  0.00     0.059 A 
ATOM     89  F   UNL A   1      48.695  27.669  23.805  1.00  0.00    -0.206 F 
ATOM     90  C   UNL A   1      52.050  26.846  24.860  1.00  0.00     0.060 A 
BRANCH  90  91
ATOM     91  S   UNL A   1      53.666  26.479  24.147  1.00  0.00     0.124 S 
ATOM     92  O   UNL A   1      54.555  27.223  25.034  1.00  0.00    -0.237 OA
ATOM     93  O   UNL A   1      53.733  25.026  24.255  1.00  0.00    -0.237 OA
ATOM     94  O   UNL A   1      53.564  26.997  22.785  1.00  0.00    -0.744 OA
ENDBRANCH  90  91
ENDBRANCH  58  83
ENDBRANCH  32  33
ENDBRANCH  25  27
ENDBRANCH  24  25
ENDBRANCH  23  24
ENDBRANCH  22  23
ENDBRANCH  21  22
ENDBRANCH  20  21
ENDBRANCH  19  20
ENDBRANCH  18  19
ENDBRANCH   1  18
TORSDOF 27
ENDMDL
MODEL 2
REMARK VINA RESULT:      -7.6      4.147     11.127
REMARK SMILES O=C(CCCC[C@@H]1CCSS1)OCCOCCOCCOCCOC(=O)c1ccc(-c2c3nc(c(-c4c(F)cc(S(=O)(=O)[O-])cc4F)c4ccc([nH]4)c(-c4c(F)cc(S(=O)(=O)[O-])cc4F)c4nc(c(-c5c(F)cc(S(=O)(=O)[O-])cc5F)c5ccc2[nH]5)C=C4)C=C3)cc1
REMARK SMILES IDX 17 1 16 2 15 3 14 4 13 5 12 6 2 7 1 8 3 9 4 10 5 11 6 12
REMARK SMILES IDX 7 13 8 14 11 15 9 16 10 17 18 18 19 19 20 20 21 21 22 22
REMARK SMILES IDX 23 23 24 24 25 25 26 26 27 27 28 28 92 29 29 30 91 31 30 32
REMARK SMILES IDX 31 33 32 34 85 35 33 36 90 37 84 38 86 39 34 40 89 41 83 42
REMARK SMILES IDX 82 43 35 45 69 46 48 47 68 48 49 49 52 50 67 51 87 52 50 53
REMARK SMILES IDX 51 54 66 56 88 57 53 58 36 59 37 60 46 61 38 62 39 63 45 64
REMARK SMILES IDX 47 65 40 66 41 67 42 68 43 69 44 70 70 71 71 72 80 73 72 74
REMARK SMILES IDX 73 75 79 76 81 77 74 78 75 79 76 80 77 81 78 82 54 83 55 84
REMARK SMILES IDX 64 85 56 86 57 87 63 88 65 89 58 90 59 91 60 92 61 93 62 94
REMARK H PARENT 86 44 52 55
REMARK Flexibility Score: inf
ROOT
ATOM      1  C   UNL A   1      39.973  35.326  35.970  1.00  0.00     0.188 C 
ENDROOT
BRANCH   1   2
ATOM      2  C   UNL A   1      41.443  35.116  35.628  1.00  0.00     0.188 C 
BRANCH   2   3
ATOM      3  O   UNL A   1      41.824  33.770  35.352  1.00  0.00    -0.376 OA
BRANCH   3   4
ATOM      4  C   UNL A   1      42.406  33.017  36.405  1.00  0.00     0.202 C 
BRANCH   4   5
ATOM      5  C   UNL A   1      41.590  31.784  36.722  1.00  0.00     0.261 C 
BRANCH   5   6
ATOM      6  O   UNL A   1      42.125  30.579  36.152  1.00  0.00    -0.463 OA
BRANCH   6   7
ATOM      7  C   UNL A   1      41.568  29.360  36.043  1.00  0.00     0.305 C 
ATOM      8  O   UNL A   1      40.341  29.279  36.155  1.00  0.00    -0.252 OA
BRANCH   7   9
ATOM      9  C   UNL A   1      42.370  28.079  35.881  1.00  0.00     0.123 C 
BRANCH   9  10
ATOM     10  C   UNL A   1      42.735  27.567  34.493  1.00  0.00     0.012 C 
BRANCH  10  11
ATOM     11  C   UNL A   1      43.829  26.501  34.360  1.00  0.00     0.002 C 
BRANCH  11  12
ATOM     12  C   UNL A   1      43.413  25.040  34.603  1.00  0.00     0.015 C 
BRANCH  12  13
ATOM     13  C   UNL A   1      44.535  23.998  34.531  1.00  0.00     0.059 C 
ATOM     14  C   UNL A   1      43.952  22.577  34.420  1.00  0.00     0.027 C 
ATOM     15  S   UNL A   1      45.571  24.041  36.035  1.00  0.00    -0.091 SA
ATOM     16  C   UNL A   1      45.002  21.529  34.765  1.00  0.00     0.083 C 
ATOM     17  S   UNL A   1      45.681  22.023  36.361  1.00  0.00    -0.094 SA
ENDBRANCH  12  13
ENDBRANCH  11  12
ENDBRANCH  10  11
ENDBRANCH   9  10
ENDBRANCH   7   9
ENDBRANCH   6   7
ENDBRANCH   5   6
ENDBRANCH   4   5
ENDBRANCH   3   4
ENDBRANCH   2   3
ENDBRANCH   1   2
BRANCH   1  18
ATOM     18  O   UNL A   1      39.045  35.416  34.898  1.00  0.00    -0.377 OA
BRANCH  18  19
ATOM     19  C   UNL A   1      38.345  34.274  34.444  1.00  0.00     0.188 C 
BRANCH  19  20
ATOM     20  C   UNL A   1      37.420  33.632  35.489  1.00  0.00     0.188 C 
BRANCH  20  21
ATOM     21  O   UNL A   1      36.163  33.134  35.055  1.00  0.00    -0.376 OA
BRANCH  21  22
ATOM     22  C   UNL A   1      35.236  34.058  34.483  1.00  0.00     0.202 C 
BRANCH  22  23
ATOM     23  C   UNL A   1      34.650  33.820  33.072  1.00  0.00     0.261 C 
BRANCH  23  24
ATOM     24  O   UNL A   1      34.793  32.481  32.553  1.00  0.00    -0.460 OA
BRANCH  24  25
ATOM     25  C   UNL A   1      34.798  32.353  31.202  1.00  0.00     0.338 C 
ATOM     26  O   UNL A   1      34.088  32.953  30.417  1.00  0.00    -0.246 OA
BRANCH  25  27
ATOM     27  C   UNL A   1      35.953  31.532  30.756  1.00  0.00     0.060 A 
ATOM     28  C   UNL A   1      36.752  30.932  31.743  1.00  0.00     0.016 A 
ATOM     29  C   UNL A   1      36.304  31.415  29.411  1.00  0.00     0.016 A 
ATOM     30  C   UNL A   1      37.917  30.242  31.395  1.00  0.00     0.010 A 
ATOM     31  C   UNL A   1      37.496  30.759  29.065  1.00  0.00     0.010 A 
ATOM     32  C   UNL A   1      38.328  30.205  30.057  1.00  0.00    -0.014 A 
BRANCH  32  33
ATOM     33  C   UNL A   1      39.737  29.841  29.745  1.00  0.00     0.031 A 
ATOM     34  C   UNL A   1      40.785  30.917  29.880  1.00  0.00     0.074 A 
ATOM     35  C   UNL A   1      40.100  28.592  29.395  1.00  0.00     0.049 A 
ATOM     36  N   UNL A   1      42.070  30.866  29.638  1.00  0.00    -0.248 NA
ATOM     37  C   UNL A   1      40.314  32.230  30.352  1.00  0.00     0.031 C 
ATOM     38  C   UNL A   1      39.199  27.447  29.286  1.00  0.00     0.029 A 
ATOM     39  N   UNL A   1      41.332  28.084  29.062  1.00  0.00    -0.354 N 
ATOM     40  C   UNL A   1      42.556  32.139  29.920  1.00  0.00     0.074 A 
ATOM     41  C   UNL A   1      41.426  32.947  30.319  1.00  0.00     0.031 C 
ATOM     42  C   UNL A   1      39.908  26.371  28.896  1.00  0.00     0.029 A 
ATOM     43  C   UNL A   1      41.306  26.758  28.697  1.00  0.00     0.049 A 
ATOM     44  H   UNL A   1      42.157  28.620  29.081  1.00  0.00     0.167 HD
ATOM     45  C   UNL A   1      43.831  32.595  29.860  1.00  0.00     0.037 A 
ATOM     46  C   UNL A   1      42.291  25.957  28.239  1.00  0.00     0.037 A 
ATOM     47  C   UNL A   1      44.954  31.792  29.452  1.00  0.00     0.049 A 
ATOM     48  C   UNL A   1      43.691  26.509  28.098  1.00  0.00     0.074 A 
ATOM     49  C   UNL A   1      46.286  32.159  29.364  1.00  0.00     0.029 A 
ATOM     50  N   UNL A   1      44.878  30.465  29.054  1.00  0.00    -0.354 N 
ATOM     51  N   UNL A   1      44.141  27.708  28.384  1.00  0.00    -0.248 NA
ATOM     52  C   UNL A   1      44.718  25.595  27.574  1.00  0.00     0.031 C 
ATOM     53  C   UNL A   1      47.004  31.074  28.854  1.00  0.00     0.029 A 
ATOM     54  C   UNL A   1      46.134  30.007  28.692  1.00  0.00     0.049 A 
ATOM     55  H   UNL A   1      44.053  29.929  29.032  1.00  0.00     0.167 HD
ATOM     56  C   UNL A   1      45.507  27.680  28.111  1.00  0.00     0.074 A 
ATOM     57  C   UNL A   1      45.810  26.343  27.646  1.00  0.00     0.031 C 
ATOM     58  C   UNL A   1      46.428  28.669  28.240  1.00  0.00     0.037 A 
BRANCH  45  59
ATOM     59  C   UNL A   1      44.068  34.041  30.206  1.00  0.00     0.058 A 
ATOM     60  C   UNL A   1      44.608  34.430  31.441  1.00  0.00     0.135 A 
ATOM     61  C   UNL A   1      43.766  35.050  29.277  1.00  0.00     0.135 A 
ATOM     62  F   UNL A   1      44.897  33.508  32.375  1.00  0.00    -0.206 F 
ATOM     63  C   UNL A   1      44.810  35.770  31.759  1.00  0.00     0.059 A 
ATOM     64  C   UNL A   1      43.990  36.395  29.559  1.00  0.00     0.059 A 
ATOM     65  F   UNL A   1      43.243  34.736  28.081  1.00  0.00    -0.206 F 
ATOM     66  C   UNL A   1      44.499  36.745  30.809  1.00  0.00     0.060 A 
BRANCH  66  67
ATOM     67  S   UNL A   1      44.766  38.478  31.235  1.00  0.00     0.124 S 
ATOM     68  O   UNL A   1      44.992  39.070  29.919  1.00  0.00    -0.237 OA
ATOM     69  O   UNL A   1      43.508  38.837  31.883  1.00  0.00    -0.237 OA
ATOM     70  O   UNL A   1      45.932  38.439  32.112  1.00  0.00    -0.744 OA
ENDBRANCH  66  67
ENDBRANCH  45  59
BRANCH  46  71
ATOM     71  C   UNL A   1      41.999  24.544  27.866  1.00  0.00     0.058 A 
ATOM     72  C   UNL A   1      41.346  24.227  26.666  1.00  0.00     0.135 A 
ATOM     73  C   UNL A   1      42.352  23.481  28.714  1.00  0.00     0.135 A 
ATOM     74  F   UNL A   1      40.970  25.205  25.829  1.00  0.00    -0.206 F 
ATOM     75  C   UNL A   1      41.039  22.912  26.325  1.00  0.00     0.059 A 
ATOM     76  C   UNL A   1      42.083  22.157  28.381  1.00  0.00     0.059 A 
ATOM     77  F   UNL A   1      42.982  23.725  29.873  1.00  0.00    -0.206 F 
ATOM     78  C   UNL A   1      41.418  21.883  27.187  1.00  0.00     0.060 A 
BRANCH  78  79
ATOM     79  S   UNL A   1      41.067  20.177  26.706  1.00  0.00     0.124 S 
ATOM     80  O   UNL A   1      42.267  19.828  25.954  1.00  0.00    -0.237 OA
ATOM     81  O   UNL A   1      40.912  19.524  28.002  1.00  0.00    -0.237 OA
ATOM     82  O   UNL A   1      39.841  20.296  25.922  1.00  0.00    -0.744 OA
ENDBRANCH  78  79
ENDBRANCH  46  71
BRANCH  58  83
ATOM     83  C   UNL A   1      47.864  28.337  27.924  1.00  0.00     0.058 A 
ATOM     84  C   UNL A   1      48.364  28.356  26.612  1.00  0.00     0.135 A 
ATOM     85  C   UNL A   1      48.766  28.045  28.961  1.00  0.00     0.135 A 
ATOM     86  F   UNL A   1      47.548  28.627  25.582  1.00  0.00    -0.206 F 
ATOM     87  C   UNL A   1      49.698  28.067  26.338  1.00  0.00     0.059 A 
ATOM     88  C   UNL A   1      50.111  27.786  28.713  1.00  0.00     0.059 A 
ATOM     89  F   UNL A   1      48.347  28.028  30.237  1.00  0.00    -0.206 F 
ATOM     90  C   UNL A   1      50.564  27.783  27.395  1.00  0.00     0.060 A 
BRANCH  90  91
ATOM     91  S   UNL A   1      52.295  27.431  27.026  1.00  0.00     0.124 S 
ATOM     92  O   UNL A   1      52.309  25.972  27.043  1.00  0.00    -0.237 OA
ATOM     93  O   UNL A   1      52.468  28.051  25.717  1.00  0.00    -0.237 OA
ATOM     94  O   UNL A   1      53.015  28.077  28.120  1.00  0.00    -0.744 OA
ENDBRANCH  90  91
ENDBRANCH  58  83
ENDBRANCH  32  33
ENDBRANCH  25  27
ENDBRANCH  24  25
ENDBRANCH  23  24
ENDBRANCH  22  23
ENDBRANCH  21  22
ENDBRANCH  20  21
ENDBRANCH  19  20
ENDBRANCH  18  19
ENDBRANCH   1  18
TORSDOF 27
ENDMDL
MODEL 3
REMARK VINA RESULT:      -7.5      6.509     11.095
REMARK SMILES O=C(CCCC[C@@H]1CCSS1)OCCOCCOCCOCCOC(=O)c1ccc(-c2c3nc(c(-c4c(F)cc(S(=O)(=O)[O-])cc4F)c4ccc([nH]4)c(-c4c(F)cc(S(=O)(=O)[O-])cc4F)c4nc(c(-c5c(F)cc(S(=O)(=O)[O-])cc5F)c5ccc2[nH]5)C=C4)C=C3)cc1
REMARK SMILES IDX 17 1 16 2 15 3 14 4 13 5 12 6 2 7 1 8 3 9 4 10 5 11 6 12
REMARK SMILES IDX 7 13 8 14 11 15 9 16 10 17 18 18 19 19 20 20 21 21 22 22
REMARK SMILES IDX 23 23 24 24 25 25 26 26 27 27 28 28 92 29 29 30 91 31 30 32
REMARK SMILES IDX 31 33 32 34 85 35 33 36 90 37 84 38 86 39 34 40 89 41 83 42
REMARK SMILES IDX 82 43 35 45 69 46 48 47 68 48 49 49 52 50 67 51 87 52 50 53
REMARK SMILES IDX 51 54 66 56 88 57 53 58 36 59 37 60 46 61 38 62 39 63 45 64
REMARK SMILES IDX 47 65 40 66 41 67 42 68 43 69 44 70 70 71 71 72 80 73 72 74
REMARK SMILES IDX 73 75 79 76 81 77 74 78 75 79 76 80 77 81 78 82 54 83 55 84
REMARK SMILES IDX 64 85 56 86 57 87 63 88 65 89 58 90 59 91 60 92 61 93 62 94
REMARK H PARENT 86 44 52 55
REMARK Flexibility Score: inf
ROOT
ATOM      1  C   UNL A   1      31.767  29.427  26.539  1.00  0.00     0.188 C 
ENDROOT
BRANCH   1   2
ATOM      2  C   UNL A   1      31.730  28.101  25.791  1.00  0.00     0.188 C 
BRANCH   2   3
ATOM      3  O   UNL A   1      32.421  27.022  26.417  1.00  0.00    -0.376 OA
BRANCH   3   4
ATOM      4  C   UNL A   1      33.675  26.636  25.877  1.00  0.00     0.202 C 
BRANCH   4   5
ATOM      5  C   UNL A   1      33.614  26.505  24.372  1.00  0.00     0.261 C 
BRANCH   5   6
ATOM      6  O   UNL A   1      33.049  25.262  23.927  1.00  0.00    -0.463 OA
BRANCH   6   7
ATOM      7  C   UNL A   1      33.542  24.354  23.066  1.00  0.00     0.305 C 
ATOM      8  O   UNL A   1      33.657  24.689  21.883  1.00  0.00    -0.252 OA
BRANCH   7   9
ATOM      9  C   UNL A   1      33.876  22.922  23.451  1.00  0.00     0.123 C 
BRANCH   9  10
ATOM     10  C   UNL A   1      33.253  22.292  24.692  1.00  0.00     0.012 C 
BRANCH  10  11
ATOM     11  C   UNL A   1      34.139  21.451  25.620  1.00  0.00     0.002 C 
BRANCH  11  12
ATOM     12  C   UNL A   1      34.827  20.221  25.002  1.00  0.00     0.015 C 
BRANCH  12  13
ATOM     13  C   UNL A   1      33.904  19.067  24.593  1.00  0.00     0.059 C 
ATOM     14  C   UNL A   1      32.922  18.727  25.730  1.00  0.00     0.027 C 
ATOM     15  S   UNL A   1      34.861  17.552  24.236  1.00  0.00    -0.091 SA
ATOM     16  C   UNL A   1      32.300  17.353  25.520  1.00  0.00     0.083 C 
ATOM     17  S   UNL A   1      33.682  16.225  25.257  1.00  0.00    -0.094 SA
ENDBRANCH  12  13
ENDBRANCH  11  12
ENDBRANCH  10  11
ENDBRANCH   9  10
ENDBRANCH   7   9
ENDBRANCH   6   7
ENDBRANCH   5   6
ENDBRANCH   4   5
ENDBRANCH   3   4
ENDBRANCH   2   3
ENDBRANCH   1   2
BRANCH   1  18
ATOM     18  O   UNL A   1      32.973  30.177  26.509  1.00  0.00    -0.377 OA
BRANCH  18  19
ATOM     19  C   UNL A   1      33.661  30.499  27.703  1.00  0.00     0.188 C 
BRANCH  19  20
ATOM     20  C   UNL A   1      34.202  31.935  27.762  1.00  0.00     0.188 C 
BRANCH  20  21
ATOM     21  O   UNL A   1      34.986  32.309  28.885  1.00  0.00    -0.376 OA
BRANCH  21  22
ATOM     22  C   UNL A   1      34.949  33.673  29.306  1.00  0.00     0.202 C 
BRANCH  22  23
ATOM     23  C   UNL A   1      33.609  34.440  29.390  1.00  0.00     0.261 C 
BRANCH  23  24
ATOM     24  O   UNL A   1      33.585  35.561  30.298  1.00  0.00    -0.460 OA
BRANCH  24  25
ATOM     25  C   UNL A   1      33.167  35.307  31.563  1.00  0.00     0.338 C 
ATOM     26  O   UNL A   1      32.018  35.333  31.963  1.00  0.00    -0.246 OA
BRANCH  25  27
ATOM     27  C   UNL A   1      34.278  34.762  32.385  1.00  0.00     0.060 A 
ATOM     28  C   UNL A   1      35.483  35.484  32.421  1.00  0.00     0.016 A 
ATOM     29  C   UNL A   1      34.183  33.535  33.041  1.00  0.00     0.016 A 
ATOM     30  C   UNL A   1      36.601  34.971  33.083  1.00  0.00     0.010 A 
ATOM     31  C   UNL A   1      35.319  33.000  33.669  1.00  0.00     0.010 A 
ATOM     32  C   UNL A   1      36.544  33.696  33.658  1.00  0.00    -0.014 A 
BRANCH  32  33
ATOM     33  C   UNL A   1      37.814  32.995  33.989  1.00  0.00     0.031 A 
ATOM     34  C   UNL A   1      38.413  33.238  35.352  1.00  0.00     0.074 A 
ATOM     35  C   UNL A   1      38.408  32.136  33.140  1.00  0.00     0.049 A 
ATOM     36  N   UNL A   1      39.522  32.778  35.871  1.00  0.00    -0.248 NA
ATOM     37  C   UNL A   1      37.652  34.124  36.250  1.00  0.00     0.031 C 
ATOM     38  C   UNL A   1      37.905  31.765  31.819  1.00  0.00     0.029 A 
ATOM     39  N   UNL A   1      39.575  31.420  33.269  1.00  0.00    -0.354 N 
ATOM     40  C   UNL A   1      39.595  33.324  37.148  1.00  0.00     0.074 A 
ATOM     41  C   UNL A   1      38.438  34.174  37.314  1.00  0.00     0.031 C 
ATOM     42  C   UNL A   1      38.768  30.901  31.251  1.00  0.00     0.029 A 
ATOM     43  C   UNL A   1      39.899  30.682  32.155  1.00  0.00     0.049 A 
ATOM     44  H   UNL A   1      40.128  31.436  34.083  1.00  0.00     0.167 HD
ATOM     45  C   UNL A   1      40.537  33.132  38.103  1.00  0.00     0.037 A 
ATOM     46  C   UNL A   1      40.989  29.932  31.889  1.00  0.00     0.037 A 
ATOM     47  C   UNL A   1      41.695  32.293  37.934  1.00  0.00     0.049 A 
ATOM     48  C   UNL A   1      42.071  29.799  32.936  1.00  0.00     0.074 A 
ATOM     49  C   UNL A   1      42.704  32.028  38.843  1.00  0.00     0.029 A 
ATOM     50  N   UNL A   1      42.006  31.594  36.776  1.00  0.00    -0.354 N 
ATOM     51  N   UNL A   1      42.120  30.306  34.146  1.00  0.00    -0.248 NA
ATOM     52  C   UNL A   1      43.245  28.986  32.582  1.00  0.00     0.031 C 
ATOM     53  C   UNL A   1      43.655  31.218  38.215  1.00  0.00     0.029 A 
ATOM     54  C   UNL A   1      43.205  30.920  36.938  1.00  0.00     0.049 A 
ATOM     55  H   UNL A   1      41.454  31.580  35.961  1.00  0.00     0.167 HD
ATOM     56  C   UNL A   1      43.307  29.843  34.707  1.00  0.00     0.074 A 
ATOM     57  C   UNL A   1      43.942  29.009  33.709  1.00  0.00     0.031 C 
ATOM     58  C   UNL A   1      43.824  30.082  35.940  1.00  0.00     0.037 A 
BRANCH  45  59
ATOM     59  C   UNL A   1      40.371  33.875  39.402  1.00  0.00     0.058 A 
ATOM     60  C   UNL A   1      40.996  35.110  39.636  1.00  0.00     0.135 A 
ATOM     61  C   UNL A   1      39.559  33.350  40.420  1.00  0.00     0.135 A 
ATOM     62  F   UNL A   1      41.801  35.649  38.705  1.00  0.00    -0.206 F 
ATOM     63  C   UNL A   1      40.849  35.783  40.845  1.00  0.00     0.059 A 
ATOM     64  C   UNL A   1      39.370  34.022  41.624  1.00  0.00     0.059 A 
ATOM     65  F   UNL A   1      38.939  32.171  40.252  1.00  0.00    -0.206 F 
ATOM     66  C   UNL A   1      40.033  35.231  41.833  1.00  0.00     0.060 A 
BRANCH  66  67
ATOM     67  S   UNL A   1      39.851  36.115  43.396  1.00  0.00     0.124 S 
ATOM     68  O   UNL A   1      39.620  37.481  42.932  1.00  0.00    -0.237 OA
ATOM     69  O   UNL A   1      38.702  35.448  43.999  1.00  0.00    -0.237 OA
ATOM     70  O   UNL A   1      41.127  35.889  44.066  1.00  0.00    -0.744 OA
ENDBRANCH  66  67
ENDBRANCH  45  59
BRANCH  46  71
ATOM     71  C   UNL A   1      41.131  29.250  30.571  1.00  0.00     0.058 A 
ATOM     72  C   UNL A   1      41.907  29.806  29.543  1.00  0.00     0.135 A 
ATOM     73  C   UNL A   1      40.477  28.036  30.307  1.00  0.00     0.135 A 
ATOM     74  F   UNL A   1      42.537  30.974  29.736  1.00  0.00    -0.206 F 
ATOM     75  C   UNL A   1      42.018  29.194  28.297  1.00  0.00     0.059 A 
ATOM     76  C   UNL A   1      40.596  27.390  29.081  1.00  0.00     0.059 A 
ATOM     77  F   UNL A   1      39.725  27.456  31.255  1.00  0.00    -0.206 F 
ATOM     78  C   UNL A   1      41.363  27.981  28.078  1.00  0.00     0.060 A 
BRANCH  78  79
ATOM     79  S   UNL A   1      41.562  27.167  26.478  1.00  0.00     0.124 S 
ATOM     80  O   UNL A   1      41.599  28.306  25.568  1.00  0.00    -0.237 OA
ATOM     81  O   UNL A   1      42.821  26.451  26.657  1.00  0.00    -0.237 OA
ATOM     82  O   UNL A   1      40.377  26.320  26.384  1.00  0.00    -0.744 OA
ENDBRANCH  78  79
ENDBRANCH  46  71
BRANCH  58  83
ATOM     83  C   UNL A   1      45.115  29.395  36.307  1.00  0.00     0.058 A 
ATOM     84  C   UNL A   1      45.142  28.118  36.890  1.00  0.00     0.135 A 
ATOM     85  C   UNL A   1      46.347  30.007  36.019  1.00  0.00     0.135 A 
ATOM     86  F   UNL A   1      43.996  27.487  37.188  1.00  0.00    -0.206 F 
ATOM     87  C   UNL A   1      46.343  27.488  37.204  1.00  0.00     0.059 A 
ATOM     88  C   UNL A   1      47.559  29.380  36.294  1.00  0.00     0.059 A 
ATOM     89  F   UNL A   1      46.382  31.221  35.447  1.00  0.00    -0.206 F 
ATOM     90  C   UNL A   1      47.547  28.127  36.902  1.00  0.00     0.060 A 
BRANCH  90  91
ATOM     91  S   UNL A   1      49.095  27.288  37.295  1.00  0.00     0.124 S 
ATOM     92  O   UNL A   1      48.973  26.063  36.512  1.00  0.00    -0.237 OA
ATOM     93  O   UNL A   1      50.095  28.242  36.828  1.00  0.00    -0.237 OA
ATOM     94  O   UNL A   1      49.031  27.114  38.744  1.00  0.00    -0.744 OA
ENDBRANCH  90  91
ENDBRANCH  58  83
ENDBRANCH  32  33
ENDBRANCH  25  27
ENDBRANCH  24  25
ENDBRANCH  23  24
ENDBRANCH  22  23
ENDBRANCH  21  22
ENDBRANCH  20  21
ENDBRANCH  19  20
ENDBRANCH  18  19
ENDBRANCH   1  18
TORSDOF 27
ENDMDL
