MODEL 1
REMARK VINA RESULT:     -10.0      0.000      0.000
REMARK SMILES COc1ccc([C@H](NC(=O)[C@H]2CC(C)=C(C)C[C@@H]2C(=O)OCCOCCOCCOCCOC(=O)c2ccc(-c3c4nc(c(-c5c(F)cc(S(=O)(=O)[O-])cc5F)c5ccc([nH]5)c(-c5c(F)cc(S(=O)(=O)[O-])cc5F)c5nc(c(-c6c(F)cc(S(=O)(=O)[O-])cc6F)c6ccc3[nH]6)C=C5)C=C4)cc2)c2ccccc2)cc1
REMARK SMILES IDX 26 1 25 2 24 3 23 4 22 5 21 6 19 7 20 8 18 9 11 10 12 11
REMARK SMILES IDX 13 12 17 13 14 14 15 15 16 16 9 17 8 18 10 20 7 21 6 22 3 23
REMARK SMILES IDX 4 24 109 25 5 26 108 27 2 28 1 29 102 30 103 31 107 32
REMARK SMILES IDX 104 33 106 34 105 35 27 36 28 37 29 38 30 39 31 40 32 41
REMARK SMILES IDX 33 42 34 43 35 44 36 45 37 46 101 47 38 48 100 49 39 50
REMARK SMILES IDX 40 51 41 52 94 53 42 54 99 55 93 56 95 57 43 58 98 59 92 60
REMARK SMILES IDX 91 61 44 63 78 64 57 65 77 66 58 67 61 68 76 69 96 70 59 71
REMARK SMILES IDX 60 72 75 74 97 75 62 76 45 77 46 78 55 79 47 80 48 81 54 82
REMARK SMILES IDX 56 83 49 84 50 85 51 86 52 87 53 88 79 89 80 90 89 91 81 92
REMARK SMILES IDX 82 93 88 94 90 95 83 96 84 97 85 98 86 99 87 100 63 101
REMARK SMILES IDX 64 102 73 103 65 104 66 105 72 106 74 107 67 108 68 109
REMARK SMILES IDX 69 110 70 111 71 112
REMARK H PARENT 8 19 95 62 61 73
REMARK Flexibility Score: inf
ROOT
ATOM      1  C   UNL A   1      32.574  30.349  27.508  1.00  0.00     0.188 C 
ENDROOT
BRANCH   1   2
ATOM      2  C   UNL A   1      32.068  29.421  26.388  1.00  0.00     0.188 C 
BRANCH   2   3
ATOM      3  O   UNL A   1      32.783  29.305  25.169  1.00  0.00    -0.376 OA
BRANCH   3   4
ATOM      4  C   UNL A   1      32.085  29.105  23.954  1.00  0.00     0.202 C 
BRANCH   4   5
ATOM      5  C   UNL A   1      32.801  28.904  22.621  1.00  0.00     0.261 C 
BRANCH   5   6
ATOM      6  O   UNL A   1      33.247  27.585  22.258  1.00  0.00    -0.463 OA
BRANCH   6   7
ATOM      7  C   UNL A   1      32.302  26.624  22.211  1.00  0.00     0.310 C 
ATOM      8  O   UNL A   1      31.256  26.729  21.574  1.00  0.00    -0.252 OA
BRANCH   7   9
ATOM      9  C   UNL A   1      32.636  25.329  22.952  1.00  0.00     0.116 C 
ATOM     10  C   UNL A   1      31.863  24.037  22.579  1.00  0.00     0.097 C 
ATOM     11  C   UNL A   1      31.075  23.366  23.754  1.00  0.00     0.045 C 
ATOM     12  C   UNL A   1      31.189  23.917  25.163  1.00  0.00    -0.074 C 
ATOM     13  C   UNL A   1      32.725  25.733  24.437  1.00  0.00     0.046 C 
ATOM     14  C   UNL A   1      30.418  23.148  26.211  1.00  0.00     0.039 C 
ATOM     15  C   UNL A   1      31.918  25.006  25.462  1.00  0.00    -0.073 C 
ATOM     16  C   UNL A   1      31.986  25.626  26.838  1.00  0.00     0.039 C 
BRANCH  10  17
ATOM     17  C   UNL A   1      32.868  23.007  22.023  1.00  0.00     0.225 C 
ATOM     18  N   UNL A   1      33.561  22.132  22.804  1.00  0.00    -0.345 N 
ATOM     19  H   UNL A   1      34.109  21.504  22.280  1.00  0.00     0.164 HD
ATOM     20  O   UNL A   1      33.031  22.891  20.803  1.00  0.00    -0.275 OA
BRANCH  18  21
ATOM     21  C   UNL A   1      33.677  21.913  24.254  1.00  0.00     0.143 C 
BRANCH  21  22
ATOM     22  C   UNL A   1      33.648  20.435  24.637  1.00  0.00    -0.021 A 
ATOM     23  C   UNL A   1      33.653  17.682  25.226  1.00  0.00     0.118 A 
ATOM     24  C   UNL A   1      34.791  18.282  24.692  1.00  0.00     0.047 A 
ATOM     25  C   UNL A   1      32.476  18.420  25.342  1.00  0.00     0.047 A 
ATOM     26  C   UNL A   1      34.805  19.656  24.441  1.00  0.00     0.010 A 
ATOM     27  C   UNL A   1      32.467  19.778  25.016  1.00  0.00     0.010 A 
BRANCH  23  28
ATOM     28  O   UNL A   1      33.790  16.382  25.624  1.00  0.00    -0.497 OA
ATOM     29  C   UNL A   1      35.011  15.769  25.208  1.00  0.00     0.278 C 
ENDBRANCH  23  28
ENDBRANCH  21  22
BRANCH  21  30
ATOM     30  C   UNL A   1      34.955  22.585  24.804  1.00  0.00    -0.021 A 
ATOM     31  C   UNL A   1      36.174  22.582  24.084  1.00  0.00     0.006 A 
ATOM     32  C   UNL A   1      34.961  23.193  26.070  1.00  0.00     0.006 A 
ATOM     33  C   UNL A   1      37.352  23.102  24.614  1.00  0.00     0.000 A 
ATOM     34  C   UNL A   1      36.141  23.747  26.588  1.00  0.00     0.000 A 
ATOM     35  C   UNL A   1      37.332  23.688  25.866  1.00  0.00     0.000 A 
ENDBRANCH  21  30
ENDBRANCH  18  21
ENDBRANCH  10  17
ENDBRANCH   7   9
ENDBRANCH   6   7
ENDBRANCH   5   6
ENDBRANCH   4   5
ENDBRANCH   3   4
ENDBRANCH   2   3
ENDBRANCH   1   2
BRANCH   1  36
ATOM     36  O   UNL A   1      32.865  31.677  27.116  1.00  0.00    -0.377 OA
BRANCH  36  37
ATOM     37  C   UNL A   1      33.979  32.321  27.712  1.00  0.00     0.188 C 
BRANCH  37  38
ATOM     38  C   UNL A   1      33.996  33.862  27.772  1.00  0.00     0.188 C 
BRANCH  38  39
ATOM     39  O   UNL A   1      32.998  34.415  28.617  1.00  0.00    -0.376 OA
BRANCH  39  40
ATOM     40  C   UNL A   1      33.377  35.375  29.587  1.00  0.00     0.202 C 
BRANCH  40  41
ATOM     41  C   UNL A   1      34.002  34.876  30.899  1.00  0.00     0.261 C 
BRANCH  41  42
ATOM     42  O   UNL A   1      35.085  33.940  30.798  1.00  0.00    -0.460 OA
BRANCH  42  43
ATOM     43  C   UNL A   1      34.963  32.733  31.386  1.00  0.00     0.338 C 
ATOM     44  O   UNL A   1      33.989  32.292  31.972  1.00  0.00    -0.246 OA
BRANCH  43  45
ATOM     45  C   UNL A   1      36.164  31.953  31.020  1.00  0.00     0.060 A 
ATOM     46  C   UNL A   1      36.666  30.981  31.899  1.00  0.00     0.016 A 
ATOM     47  C   UNL A   1      36.778  32.178  29.787  1.00  0.00     0.016 A 
ATOM     48  C   UNL A   1      37.814  30.260  31.564  1.00  0.00     0.010 A 
ATOM     49  C   UNL A   1      37.940  31.480  29.466  1.00  0.00     0.010 A 
ATOM     50  C   UNL A   1      38.485  30.549  30.370  1.00  0.00    -0.014 A 
BRANCH  50  51
ATOM     51  C   UNL A   1      39.885  30.117  30.157  1.00  0.00     0.031 A 
ATOM     52  C   UNL A   1      40.950  31.172  30.272  1.00  0.00     0.074 A 
ATOM     53  C   UNL A   1      40.198  28.861  29.794  1.00  0.00     0.049 A 
ATOM     54  N   UNL A   1      42.202  31.135  29.907  1.00  0.00    -0.248 NA
ATOM     55  C   UNL A   1      40.531  32.455  30.863  1.00  0.00     0.031 C 
ATOM     56  C   UNL A   1      39.263  27.743  29.708  1.00  0.00     0.029 A 
ATOM     57  N   UNL A   1      41.400  28.330  29.393  1.00  0.00    -0.354 N 
ATOM     58  C   UNL A   1      42.712  32.396  30.195  1.00  0.00     0.074 A 
ATOM     59  C   UNL A   1      41.634  33.179  30.752  1.00  0.00     0.031 C 
ATOM     60  C   UNL A   1      39.919  26.663  29.245  1.00  0.00     0.029 A 
ATOM     61  C   UNL A   1      41.304  27.031  28.952  1.00  0.00     0.049 A 
ATOM     62  H   UNL A   1      42.247  28.831  29.419  1.00  0.00     0.167 HD
ATOM     63  C   UNL A   1      43.969  32.858  30.003  1.00  0.00     0.037 A 
ATOM     64  C   UNL A   1      42.220  26.252  28.340  1.00  0.00     0.037 A 
ATOM     65  C   UNL A   1      45.029  32.069  29.440  1.00  0.00     0.049 A 
ATOM     66  C   UNL A   1      43.596  26.810  28.064  1.00  0.00     0.074 A 
ATOM     67  C   UNL A   1      46.341  32.435  29.206  1.00  0.00     0.029 A 
ATOM     68  N   UNL A   1      44.894  30.755  29.015  1.00  0.00    -0.354 N 
ATOM     69  N   UNL A   1      44.073  28.003  28.336  1.00  0.00    -0.248 NA
ATOM     70  C   UNL A   1      44.559  25.922  27.394  1.00  0.00     0.031 C 
ATOM     71  C   UNL A   1      46.986  31.360  28.589  1.00  0.00     0.029 A 
ATOM     72  C   UNL A   1      46.096  30.301  28.504  1.00  0.00     0.049 A 
ATOM     73  H   UNL A   1      44.065  30.225  29.070  1.00  0.00     0.167 HD
ATOM     74  C   UNL A   1      45.400  27.990  27.914  1.00  0.00     0.074 A 
ATOM     75  C   UNL A   1      45.649  26.677  27.358  1.00  0.00     0.031 C 
ATOM     76  C   UNL A   1      46.332  28.974  27.990  1.00  0.00     0.037 A 
BRANCH  63  77
ATOM     77  C   UNL A   1      44.249  34.290  30.365  1.00  0.00     0.058 A 
ATOM     78  C   UNL A   1      44.845  34.645  31.585  1.00  0.00     0.135 A 
ATOM     79  C   UNL A   1      43.935  35.322  29.465  1.00  0.00     0.135 A 
ATOM     80  F   UNL A   1      45.141  33.701  32.493  1.00  0.00    -0.206 F 
ATOM     81  C   UNL A   1      45.099  35.973  31.910  1.00  0.00     0.059 A 
ATOM     82  C   UNL A   1      44.210  36.654  29.756  1.00  0.00     0.059 A 
ATOM     83  F   UNL A   1      43.356  35.040  28.288  1.00  0.00    -0.206 F 
ATOM     84  C   UNL A   1      44.780  36.970  30.987  1.00  0.00     0.060 A 
BRANCH  84  85
ATOM     85  S   UNL A   1      45.126  38.688  31.422  1.00  0.00     0.124 S 
ATOM     86  O   UNL A   1      43.987  39.375  30.819  1.00  0.00    -0.237 OA
ATOM     87  O   UNL A   1      45.138  38.643  32.880  1.00  0.00    -0.237 OA
ATOM     88  O   UNL A   1      46.417  38.945  30.794  1.00  0.00    -0.744 OA
ENDBRANCH  84  85
ENDBRANCH  63  77
BRANCH  64  89
ATOM     89  C   UNL A   1      41.862  24.869  27.918  1.00  0.00     0.058 A 
ATOM     90  C   UNL A   1      42.180  23.763  28.719  1.00  0.00     0.135 A 
ATOM     91  C   UNL A   1      41.201  24.625  26.704  1.00  0.00     0.135 A 
ATOM     92  F   UNL A   1      42.824  23.942  29.882  1.00  0.00    -0.206 F 
ATOM     93  C   UNL A   1      41.872  22.464  28.327  1.00  0.00     0.059 A 
ATOM     94  C   UNL A   1      40.860  23.337  26.301  1.00  0.00     0.059 A 
ATOM     95  F   UNL A   1      40.865  25.647  25.901  1.00  0.00    -0.206 F 
ATOM     96  C   UNL A   1      41.208  22.262  27.116  1.00  0.00     0.060 A 
BRANCH  96  97
ATOM     97  S   UNL A   1      40.797  20.573  26.629  1.00  0.00     0.124 S 
ATOM     98  O   UNL A   1      39.465  20.741  26.061  1.00  0.00    -0.237 OA
ATOM     99  O   UNL A   1      41.863  20.263  25.681  1.00  0.00    -0.237 OA
ATOM    100  O   UNL A   1      40.853  19.835  27.887  1.00  0.00    -0.744 OA
ENDBRANCH  96  97
ENDBRANCH  64  89
BRANCH  76 101
ATOM    101  C   UNL A   1      47.734  28.664  27.544  1.00  0.00     0.058 A 
ATOM    102  C   UNL A   1      48.746  28.314  28.451  1.00  0.00     0.135 A 
ATOM    103  C   UNL A   1      48.029  28.593  26.172  1.00  0.00     0.135 A 
ATOM    104  F   UNL A   1      48.518  28.372  29.772  1.00  0.00    -0.206 F 
ATOM    105  C   UNL A   1      50.000  27.900  28.011  1.00  0.00     0.059 A 
ATOM    106  C   UNL A   1      49.265  28.155  25.711  1.00  0.00     0.059 A 
ATOM    107  F   UNL A   1      47.092  28.906  25.262  1.00  0.00    -0.206 F 
ATOM    108  C   UNL A   1      50.246  27.810  26.639  1.00  0.00     0.060 A 
BRANCH 108 109
ATOM    109  S   UNL A   1      51.845  27.184  26.084  1.00  0.00     0.124 S 
ATOM    110  O   UNL A   1      51.911  25.896  26.766  1.00  0.00    -0.237 OA
ATOM    111  O   UNL A   1      51.671  27.127  24.636  1.00  0.00    -0.237 OA
ATOM    112  O   UNL A   1      52.789  28.192  26.555  1.00  0.00    -0.744 OA
ENDBRANCH 108 109
ENDBRANCH  76 101
ENDBRANCH  50  51
ENDBRANCH  43  45
ENDBRANCH  42  43
ENDBRANCH  41  42
ENDBRANCH  40  41
ENDBRANCH  39  40
ENDBRANCH  38  39
ENDBRANCH  37  38
ENDBRANCH  36  37
ENDBRANCH   1  36
TORSDOF 28
ENDMDL
MODEL 2
REMARK VINA RESULT:      -9.4      1.472      2.206
REMARK SMILES COc1ccc([C@H](NC(=O)[C@H]2CC(C)=C(C)C[C@@H]2C(=O)OCCOCCOCCOCCOC(=O)c2ccc(-c3c4nc(c(-c5c(F)cc(S(=O)(=O)[O-])cc5F)c5ccc([nH]5)c(-c5c(F)cc(S(=O)(=O)[O-])cc5F)c5nc(c(-c6c(F)cc(S(=O)(=O)[O-])cc6F)c6ccc3[nH]6)C=C5)C=C4)cc2)c2ccccc2)cc1
REMARK SMILES IDX 26 1 25 2 24 3 23 4 22 5 21 6 19 7 20 8 18 9 11 10 12 11
REMARK SMILES IDX 13 12 17 13 14 14 15 15 16 16 9 17 8 18 10 20 7 21 6 22 3 23
REMARK SMILES IDX 4 24 109 25 5 26 108 27 2 28 1 29 102 30 103 31 107 32
REMARK SMILES IDX 104 33 106 34 105 35 27 36 28 37 29 38 30 39 31 40 32 41
REMARK SMILES IDX 33 42 34 43 35 44 36 45 37 46 101 47 38 48 100 49 39 50
REMARK SMILES IDX 40 51 41 52 94 53 42 54 99 55 93 56 95 57 43 58 98 59 92 60
REMARK SMILES IDX 91 61 44 63 78 64 57 65 77 66 58 67 61 68 76 69 96 70 59 71
REMARK SMILES IDX 60 72 75 74 97 75 62 76 45 77 46 78 55 79 47 80 48 81 54 82
REMARK SMILES IDX 56 83 49 84 50 85 51 86 52 87 53 88 79 89 80 90 89 91 81 92
REMARK SMILES IDX 82 93 88 94 90 95 83 96 84 97 85 98 86 99 87 100 63 101
REMARK SMILES IDX 64 102 73 103 65 104 66 105 72 106 74 107 67 108 68 109
REMARK SMILES IDX 69 110 70 111 71 112
REMARK H PARENT 8 19 95 62 61 73
REMARK Flexibility Score: inf
ROOT
ATOM      1  C   UNL A   1      32.467  30.119  27.185  1.00  0.00     0.188 C 
ENDROOT
BRANCH   1   2
ATOM      2  C   UNL A   1      31.920  29.415  25.928  1.00  0.00     0.188 C 
BRANCH   2   3
ATOM      3  O   UNL A   1      32.801  28.965  24.912  1.00  0.00    -0.376 OA
BRANCH   3   4
ATOM      4  C   UNL A   1      32.448  29.116  23.550  1.00  0.00     0.202 C 
BRANCH   4   5
ATOM      5  C   UNL A   1      33.383  28.716  22.412  1.00  0.00     0.261 C 
BRANCH   5   6
ATOM      6  O   UNL A   1      33.620  27.320  22.159  1.00  0.00    -0.463 OA
BRANCH   6   7
ATOM      7  C   UNL A   1      32.538  26.515  22.171  1.00  0.00     0.310 C 
ATOM      8  O   UNL A   1      31.483  26.786  21.601  1.00  0.00    -0.252 OA
BRANCH   7   9
ATOM      9  C   UNL A   1      32.714  25.177  22.889  1.00  0.00     0.116 C 
ATOM     10  C   UNL A   1      31.768  24.005  22.521  1.00  0.00     0.097 C 
ATOM     11  C   UNL A   1      30.925  23.427  23.707  1.00  0.00     0.045 C 
ATOM     12  C   UNL A   1      31.143  23.939  25.119  1.00  0.00    -0.074 C 
ATOM     13  C   UNL A   1      32.889  25.545  24.376  1.00  0.00     0.046 C 
ATOM     14  C   UNL A   1      30.302  23.263  26.178  1.00  0.00     0.039 C 
ATOM     15  C   UNL A   1      32.017  24.916  25.412  1.00  0.00    -0.073 C 
ATOM     16  C   UNL A   1      32.199  25.503  26.793  1.00  0.00     0.039 C 
BRANCH  10  17
ATOM     17  C   UNL A   1      32.615  22.859  21.929  1.00  0.00     0.225 C 
ATOM     18  N   UNL A   1      33.052  21.791  22.654  1.00  0.00    -0.345 N 
ATOM     19  H   UNL A   1      33.523  21.124  22.105  1.00  0.00     0.164 HD
ATOM     20  O   UNL A   1      32.874  22.836  20.720  1.00  0.00    -0.275 OA
BRANCH  18  21
ATOM     21  C   UNL A   1      32.979  21.410  24.073  1.00  0.00     0.143 C 
BRANCH  21  22
ATOM     22  C   UNL A   1      32.966  19.898  24.283  1.00  0.00    -0.021 A 
ATOM     23  C   UNL A   1      32.841  17.102  24.583  1.00  0.00     0.118 A 
ATOM     24  C   UNL A   1      32.780  17.669  23.312  1.00  0.00     0.047 A 
ATOM     25  C   UNL A   1      32.831  17.926  25.706  1.00  0.00     0.047 A 
ATOM     26  C   UNL A   1      32.886  19.054  23.159  1.00  0.00     0.010 A 
ATOM     27  C   UNL A   1      32.858  19.315  25.555  1.00  0.00     0.010 A 
BRANCH  23  28
ATOM     28  O   UNL A   1      32.929  15.738  24.628  1.00  0.00    -0.497 OA
ATOM     29  C   UNL A   1      32.306  15.150  25.771  1.00  0.00     0.278 C 
ENDBRANCH  23  28
ENDBRANCH  21  22
BRANCH  21  30
ATOM     30  C   UNL A   1      34.139  22.053  24.867  1.00  0.00    -0.021 A 
ATOM     31  C   UNL A   1      34.043  22.316  26.255  1.00  0.00     0.006 A 
ATOM     32  C   UNL A   1      35.326  22.439  24.223  1.00  0.00     0.006 A 
ATOM     33  C   UNL A   1      35.047  22.980  26.956  1.00  0.00     0.000 A 
ATOM     34  C   UNL A   1      36.350  23.077  24.938  1.00  0.00     0.000 A 
ATOM     35  C   UNL A   1      36.202  23.357  26.295  1.00  0.00     0.000 A 
ENDBRANCH  21  30
ENDBRANCH  18  21
ENDBRANCH  10  17
ENDBRANCH   7   9
ENDBRANCH   6   7
ENDBRANCH   5   6
ENDBRANCH   4   5
ENDBRANCH   3   4
ENDBRANCH   2   3
ENDBRANCH   1   2
BRANCH   1  36
ATOM     36  O   UNL A   1      33.537  31.019  26.963  1.00  0.00    -0.377 OA
BRANCH  36  37
ATOM     37  C   UNL A   1      34.471  31.218  28.012  1.00  0.00     0.188 C 
BRANCH  37  38
ATOM     38  C   UNL A   1      35.566  32.289  27.833  1.00  0.00     0.188 C 
BRANCH  38  39
ATOM     39  O   UNL A   1      35.094  33.621  27.968  1.00  0.00    -0.376 OA
BRANCH  39  40
ATOM     40  C   UNL A   1      35.706  34.469  28.924  1.00  0.00     0.202 C 
BRANCH  40  41
ATOM     41  C   UNL A   1      35.631  34.069  30.405  1.00  0.00     0.261 C 
BRANCH  41  42
ATOM     42  O   UNL A   1      36.701  33.268  30.926  1.00  0.00    -0.460 OA
BRANCH  42  43
ATOM     43  C   UNL A   1      36.447  31.995  31.292  1.00  0.00     0.338 C 
ATOM     44  O   UNL A   1      35.402  31.549  31.732  1.00  0.00    -0.246 OA
BRANCH  43  45
ATOM     45  C   UNL A   1      37.612  31.187  30.874  1.00  0.00     0.060 A 
ATOM     46  C   UNL A   1      38.476  30.649  31.841  1.00  0.00     0.016 A 
ATOM     47  C   UNL A   1      37.830  30.949  29.517  1.00  0.00     0.016 A 
ATOM     48  C   UNL A   1      39.590  29.905  31.446  1.00  0.00     0.010 A 
ATOM     49  C   UNL A   1      38.957  30.231  29.123  1.00  0.00     0.010 A 
ATOM     50  C   UNL A   1      39.863  29.742  30.083  1.00  0.00    -0.014 A 
BRANCH  50  51
ATOM     51  C   UNL A   1      41.204  29.322  29.617  1.00  0.00     0.031 A 
ATOM     52  C   UNL A   1      42.241  30.400  29.463  1.00  0.00     0.074 A 
ATOM     53  C   UNL A   1      41.473  28.053  29.265  1.00  0.00     0.049 A 
ATOM     54  N   UNL A   1      43.397  30.363  28.857  1.00  0.00    -0.248 NA
ATOM     55  C   UNL A   1      41.913  31.707  30.059  1.00  0.00     0.031 C 
ATOM     56  C   UNL A   1      40.571  26.917  29.426  1.00  0.00     0.029 A 
ATOM     57  N   UNL A   1      42.585  27.520  28.660  1.00  0.00    -0.354 N 
ATOM     58  C   UNL A   1      43.918  31.646  28.972  1.00  0.00     0.074 A 
ATOM     59  C   UNL A   1      42.952  32.441  29.692  1.00  0.00     0.031 C 
ATOM     60  C   UNL A   1      41.150  25.824  28.897  1.00  0.00     0.029 A 
ATOM     61  C   UNL A   1      42.440  26.198  28.315  1.00  0.00     0.049 A 
ATOM     62  H   UNL A   1      43.407  28.036  28.490  1.00  0.00     0.167 HD
ATOM     63  C   UNL A   1      45.099  32.118  28.509  1.00  0.00     0.037 A 
ATOM     64  C   UNL A   1      43.237  25.400  27.573  1.00  0.00     0.037 A 
ATOM     65  C   UNL A   1      46.048  31.315  27.787  1.00  0.00     0.049 A 
ATOM     66  C   UNL A   1      44.515  25.964  27.000  1.00  0.00     0.074 A 
ATOM     67  C   UNL A   1      47.277  31.690  27.277  1.00  0.00     0.029 A 
ATOM     68  N   UNL A   1      45.867  29.978  27.467  1.00  0.00    -0.354 N 
ATOM     69  N   UNL A   1      45.004  27.179  27.108  1.00  0.00    -0.248 NA
ATOM     70  C   UNL A   1      45.349  25.056  26.198  1.00  0.00     0.031 C 
ATOM     71  C   UNL A   1      47.816  30.593  26.601  1.00  0.00     0.029 A 
ATOM     72  C   UNL A   1      46.956  29.515  26.750  1.00  0.00     0.049 A 
ATOM     73  H   UNL A   1      45.081  29.438  27.713  1.00  0.00     0.167 HD
ATOM     74  C   UNL A   1      46.220  27.164  26.431  1.00  0.00     0.074 A 
ATOM     75  C   UNL A   1      46.389  25.826  25.905  1.00  0.00     0.031 C 
ATOM     76  C   UNL A   1      47.121  28.166  26.268  1.00  0.00     0.037 A 
BRANCH  63  77
ATOM     77  C   UNL A   1      45.406  33.572  28.733  1.00  0.00     0.058 A 
ATOM     78  C   UNL A   1      46.233  34.004  29.782  1.00  0.00     0.135 A 
ATOM     79  C   UNL A   1      44.882  34.547  27.869  1.00  0.00     0.135 A 
ATOM     80  F   UNL A   1      46.739  33.116  30.653  1.00  0.00    -0.206 F 
ATOM     81  C   UNL A   1      46.510  35.352  29.981  1.00  0.00     0.059 A 
ATOM     82  C   UNL A   1      45.172  35.898  28.029  1.00  0.00     0.059 A 
ATOM     83  F   UNL A   1      44.079  34.191  26.855  1.00  0.00    -0.206 F 
ATOM     84  C   UNL A   1      45.977  36.291  29.097  1.00  0.00     0.060 A 
BRANCH  84  85
ATOM     85  S   UNL A   1      46.355  38.036  29.364  1.00  0.00     0.124 S 
ATOM     86  O   UNL A   1      47.531  37.951  30.224  1.00  0.00    -0.237 OA
ATOM     87  O   UNL A   1      46.596  38.512  28.006  1.00  0.00    -0.237 OA
ATOM     88  O   UNL A   1      45.149  38.553  30.002  1.00  0.00    -0.744 OA
ENDBRANCH  84  85
ENDBRANCH  63  77
BRANCH  64  89
ATOM     89  C   UNL A   1      42.840  23.990  27.304  1.00  0.00     0.058 A 
ATOM     90  C   UNL A   1      42.272  23.621  26.076  1.00  0.00     0.135 A 
ATOM     91  C   UNL A   1      43.013  22.986  28.269  1.00  0.00     0.135 A 
ATOM     92  F   UNL A   1      42.072  24.547  25.125  1.00  0.00    -0.206 F 
ATOM     93  C   UNL A   1      41.875  22.313  25.818  1.00  0.00     0.059 A 
ATOM     94  C   UNL A   1      42.647  21.665  28.026  1.00  0.00     0.059 A 
ATOM     95  F   UNL A   1      43.559  23.281  29.460  1.00  0.00    -0.206 F 
ATOM     96  C   UNL A   1      42.071  21.340  26.800  1.00  0.00     0.060 A 
BRANCH  96  97
ATOM     97  S   UNL A   1      41.570  19.642  26.445  1.00  0.00     0.124 S 
ATOM     98  O   UNL A   1      40.241  19.835  25.877  1.00  0.00    -0.237 OA
ATOM     99  O   UNL A   1      42.608  19.208  25.515  1.00  0.00    -0.237 OA
ATOM    100  O   UNL A   1      41.604  18.999  27.756  1.00  0.00    -0.744 OA
ENDBRANCH  96  97
ENDBRANCH  64  89
BRANCH  76 101
ATOM    101  C   UNL A   1      48.415  27.855  25.568  1.00  0.00     0.058 A 
ATOM    102  C   UNL A   1      48.522  27.840  24.169  1.00  0.00     0.135 A 
ATOM    103  C   UNL A   1      49.592  27.697  26.319  1.00  0.00     0.135 A 
ATOM    104  F   UNL A   1      47.427  27.979  23.406  1.00  0.00    -0.206 F 
ATOM    105  C   UNL A   1      49.754  27.684  23.540  1.00  0.00     0.059 A 
ATOM    106  C   UNL A   1      50.836  27.569  25.710  1.00  0.00     0.059 A 
ATOM    107  F   UNL A   1      49.545  27.715  27.661  1.00  0.00    -0.206 F 
ATOM    108  C   UNL A   1      50.907  27.563  24.319  1.00  0.00     0.060 A 
BRANCH 108 109
ATOM    109  S   UNL A   1      52.507  27.454  23.489  1.00  0.00     0.124 S 
ATOM    110  O   UNL A   1      52.292  28.305  22.323  1.00  0.00    -0.237 OA
ATOM    111  O   UNL A   1      53.417  27.983  24.500  1.00  0.00    -0.237 OA
ATOM    112  O   UNL A   1      52.650  26.029  23.209  1.00  0.00    -0.744 OA
ENDBRANCH 108 109
ENDBRANCH  76 101
ENDBRANCH  50  51
ENDBRANCH  43  45
ENDBRANCH  42  43
ENDBRANCH  41  42
ENDBRANCH  40  41
ENDBRANCH  39  40
ENDBRANCH  38  39
ENDBRANCH  37  38
ENDBRANCH  36  37
ENDBRANCH   1  36
TORSDOF 28
ENDMDL
MODEL 3
REMARK VINA RESULT:      -9.4      1.571      2.339
REMARK SMILES COc1ccc([C@H](NC(=O)[C@H]2CC(C)=C(C)C[C@@H]2C(=O)OCCOCCOCCOCCOC(=O)c2ccc(-c3c4nc(c(-c5c(F)cc(S(=O)(=O)[O-])cc5F)c5ccc([nH]5)c(-c5c(F)cc(S(=O)(=O)[O-])cc5F)c5nc(c(-c6c(F)cc(S(=O)(=O)[O-])cc6F)c6ccc3[nH]6)C=C5)C=C4)cc2)c2ccccc2)cc1
REMARK SMILES IDX 26 1 25 2 24 3 23 4 22 5 21 6 19 7 20 8 18 9 11 10 12 11
REMARK SMILES IDX 13 12 17 13 14 14 15 15 16 16 9 17 8 18 10 20 7 21 6 22 3 23
REMARK SMILES IDX 4 24 109 25 5 26 108 27 2 28 1 29 102 30 103 31 107 32
REMARK SMILES IDX 104 33 106 34 105 35 27 36 28 37 29 38 30 39 31 40 32 41
REMARK SMILES IDX 33 42 34 43 35 44 36 45 37 46 101 47 38 48 100 49 39 50
REMARK SMILES IDX 40 51 41 52 94 53 42 54 99 55 93 56 95 57 43 58 98 59 92 60
REMARK SMILES IDX 91 61 44 63 78 64 57 65 77 66 58 67 61 68 76 69 96 70 59 71
REMARK SMILES IDX 60 72 75 74 97 75 62 76 45 77 46 78 55 79 47 80 48 81 54 82
REMARK SMILES IDX 56 83 49 84 50 85 51 86 52 87 53 88 79 89 80 90 89 91 81 92
REMARK SMILES IDX 82 93 88 94 90 95 83 96 84 97 85 98 86 99 87 100 63 101
REMARK SMILES IDX 64 102 73 103 65 104 66 105 72 106 74 107 67 108 68 109
REMARK SMILES IDX 69 110 70 111 71 112
REMARK H PARENT 8 19 95 62 61 73
REMARK Flexibility Score: inf
ROOT
ATOM      1  C   UNL A   1      32.175  29.841  27.193  1.00  0.00     0.188 C 
ENDROOT
BRANCH   1   2
ATOM      2  C   UNL A   1      31.781  29.151  25.872  1.00  0.00     0.188 C 
BRANCH   2   3
ATOM      3  O   UNL A   1      32.775  28.750  24.944  1.00  0.00    -0.376 OA
BRANCH   3   4
ATOM      4  C   UNL A   1      32.585  28.978  23.560  1.00  0.00     0.202 C 
BRANCH   4   5
ATOM      5  C   UNL A   1      33.641  28.620  22.517  1.00  0.00     0.261 C 
BRANCH   5   6
ATOM      6  O   UNL A   1      33.784  27.248  22.110  1.00  0.00    -0.463 OA
BRANCH   6   7
ATOM      7  C   UNL A   1      32.688  26.470  22.225  1.00  0.00     0.310 C 
ATOM      8  O   UNL A   1      31.596  26.757  21.738  1.00  0.00    -0.252 OA
BRANCH   7   9
ATOM      9  C   UNL A   1      32.892  25.139  22.950  1.00  0.00     0.116 C 
ATOM     10  C   UNL A   1      31.957  23.951  22.602  1.00  0.00     0.097 C 
ATOM     11  C   UNL A   1      31.137  23.370  23.803  1.00  0.00     0.045 C 
ATOM     12  C   UNL A   1      31.367  23.895  25.209  1.00  0.00    -0.074 C 
ATOM     13  C   UNL A   1      33.082  25.519  24.431  1.00  0.00     0.046 C 
ATOM     14  C   UNL A   1      30.549  23.215  26.283  1.00  0.00     0.039 C 
ATOM     15  C   UNL A   1      32.232  24.886  25.483  1.00  0.00    -0.073 C 
ATOM     16  C   UNL A   1      32.424  25.484  26.858  1.00  0.00     0.039 C 
BRANCH  10  17
ATOM     17  C   UNL A   1      32.811  22.813  22.006  1.00  0.00     0.225 C 
ATOM     18  N   UNL A   1      33.358  21.812  22.751  1.00  0.00    -0.345 N 
ATOM     19  H   UNL A   1      33.818  21.135  22.203  1.00  0.00     0.164 HD
ATOM     20  O   UNL A   1      32.973  22.730  20.783  1.00  0.00    -0.275 OA
BRANCH  18  21
ATOM     21  C   UNL A   1      33.420  21.513  24.190  1.00  0.00     0.143 C 
BRANCH  21  22
ATOM     22  C   UNL A   1      33.480  20.016  24.485  1.00  0.00    -0.021 A 
ATOM     23  C   UNL A   1      33.670  17.242  24.922  1.00  0.00     0.118 A 
ATOM     24  C   UNL A   1      34.811  17.977  24.607  1.00  0.00     0.047 A 
ATOM     25  C   UNL A   1      32.422  17.860  24.889  1.00  0.00     0.047 A 
ATOM     26  C   UNL A   1      34.725  19.360  24.434  1.00  0.00     0.010 A 
ATOM     27  C   UNL A   1      32.327  19.232  24.637  1.00  0.00     0.010 A 
BRANCH  23  28
ATOM     28  O   UNL A   1      33.874  15.935  25.268  1.00  0.00    -0.497 OA
ATOM     29  C   UNL A   1      32.679  15.221  25.585  1.00  0.00     0.278 C 
ENDBRANCH  23  28
ENDBRANCH  21  22
BRANCH  21  30
ATOM     30  C   UNL A   1      34.618  22.238  24.844  1.00  0.00    -0.021 A 
ATOM     31  C   UNL A   1      34.692  22.455  26.242  1.00  0.00     0.006 A 
ATOM     32  C   UNL A   1      35.665  22.750  24.061  1.00  0.00     0.006 A 
ATOM     33  C   UNL A   1      35.720  23.189  26.826  1.00  0.00     0.000 A 
ATOM     34  C   UNL A   1      36.718  23.459  24.656  1.00  0.00     0.000 A 
ATOM     35  C   UNL A   1      36.735  23.688  26.030  1.00  0.00     0.000 A 
ENDBRANCH  21  30
ENDBRANCH  18  21
ENDBRANCH  10  17
ENDBRANCH   7   9
ENDBRANCH   6   7
ENDBRANCH   5   6
ENDBRANCH   4   5
ENDBRANCH   3   4
ENDBRANCH   2   3
ENDBRANCH   1   2
BRANCH   1  36
ATOM     36  O   UNL A   1      32.761  31.122  27.061  1.00  0.00    -0.377 OA
BRANCH  36  37
ATOM     37  C   UNL A   1      33.977  31.374  27.748  1.00  0.00     0.188 C 
BRANCH  37  38
ATOM     38  C   UNL A   1      34.495  32.824  27.824  1.00  0.00     0.188 C 
BRANCH  38  39
ATOM     39  O   UNL A   1      33.472  33.790  28.016  1.00  0.00    -0.376 OA
BRANCH  39  40
ATOM     40  C   UNL A   1      33.733  34.906  28.850  1.00  0.00     0.202 C 
BRANCH  40  41
ATOM     41  C   UNL A   1      33.750  34.690  30.371  1.00  0.00     0.261 C 
BRANCH  41  42
ATOM     42  O   UNL A   1      34.971  34.215  30.954  1.00  0.00    -0.460 OA
BRANCH  42  43
ATOM     43  C   UNL A   1      34.981  33.011  31.561  1.00  0.00     0.338 C 
ATOM     44  O   UNL A   1      34.041  32.441  32.086  1.00  0.00    -0.246 OA
BRANCH  43  45
ATOM     45  C   UNL A   1      36.307  32.410  31.303  1.00  0.00     0.060 A 
ATOM     46  C   UNL A   1      36.944  31.657  32.301  1.00  0.00     0.016 A 
ATOM     47  C   UNL A   1      36.906  32.582  30.054  1.00  0.00     0.016 A 
ATOM     48  C   UNL A   1      38.206  31.109  32.066  1.00  0.00     0.010 A 
ATOM     49  C   UNL A   1      38.177  32.060  29.829  1.00  0.00     0.010 A 
ATOM     50  C   UNL A   1      38.849  31.357  30.847  1.00  0.00    -0.014 A 
BRANCH  50  51
ATOM     51  C   UNL A   1      40.308  31.149  30.696  1.00  0.00     0.031 A 
ATOM     52  C   UNL A   1      41.195  32.337  30.948  1.00  0.00     0.074 A 
ATOM     53  C   UNL A   1      40.823  29.982  30.274  1.00  0.00     0.049 A 
ATOM     54  N   UNL A   1      42.457  32.509  30.662  1.00  0.00    -0.248 NA
ATOM     55  C   UNL A   1      40.558  33.498  31.593  1.00  0.00     0.031 C 
ATOM     56  C   UNL A   1      40.071  28.750  30.057  1.00  0.00     0.029 A 
ATOM     57  N   UNL A   1      42.111  29.662  29.918  1.00  0.00    -0.354 N 
ATOM     58  C   UNL A   1      42.756  33.805  31.063  1.00  0.00     0.074 A 
ATOM     59  C   UNL A   1      41.546  34.380  31.600  1.00  0.00     0.031 C 
ATOM     60  C   UNL A   1      40.905  27.814  29.567  1.00  0.00     0.029 A 
ATOM     61  C   UNL A   1      42.233  28.399  29.388  1.00  0.00     0.049 A 
ATOM     62  H   UNL A   1      42.871  30.277  30.030  1.00  0.00     0.167 HD
ATOM     63  C   UNL A   1      43.939  34.458  30.983  1.00  0.00     0.037 A 
ATOM     64  C   UNL A   1      43.287  27.808  28.787  1.00  0.00     0.037 A 
ATOM     65  C   UNL A   1      45.134  33.874  30.439  1.00  0.00     0.049 A 
ATOM     66  C   UNL A   1      44.578  28.578  28.637  1.00  0.00     0.074 A 
ATOM     67  C   UNL A   1      46.387  34.443  30.314  1.00  0.00     0.029 A 
ATOM     68  N   UNL A   1      45.219  32.590  29.922  1.00  0.00    -0.354 N 
ATOM     69  N   UNL A   1      44.856  29.805  29.015  1.00  0.00    -0.248 NA
ATOM     70  C   UNL A   1      45.696  27.891  27.974  1.00  0.00     0.031 C 
ATOM     71  C   UNL A   1      47.218  33.521  29.671  1.00  0.00     0.029 A 
ATOM     72  C   UNL A   1      46.501  32.353  29.461  1.00  0.00     0.049 A 
ATOM     73  H   UNL A   1      44.477  31.942  29.890  1.00  0.00     0.167 HD
ATOM     74  C   UNL A   1      46.191  30.016  28.679  1.00  0.00     0.074 A 
ATOM     75  C   UNL A   1      46.662  28.797  28.056  1.00  0.00     0.031 C 
ATOM     76  C   UNL A   1      46.960  31.116  28.878  1.00  0.00     0.037 A 
BRANCH  63  77
ATOM     77  C   UNL A   1      43.982  35.885  31.454  1.00  0.00     0.058 A 
ATOM     78  C   UNL A   1      44.174  36.216  32.804  1.00  0.00     0.135 A 
ATOM     79  C   UNL A   1      43.852  36.938  30.534  1.00  0.00     0.135 A 
ATOM     80  F   UNL A   1      44.278  35.248  33.730  1.00  0.00    -0.206 F 
ATOM     81  C   UNL A   1      44.212  37.539  33.230  1.00  0.00     0.059 A 
ATOM     82  C   UNL A   1      43.919  38.269  30.932  1.00  0.00     0.059 A 
ATOM     83  F   UNL A   1      43.658  36.679  29.232  1.00  0.00    -0.206 F 
ATOM     84  C   UNL A   1      44.086  38.559  32.285  1.00  0.00     0.060 A 
BRANCH  84  85
ATOM     85  S   UNL A   1      44.147  40.271  32.853  1.00  0.00     0.124 S 
ATOM     86  O   UNL A   1      44.632  40.107  34.221  1.00  0.00    -0.237 OA
ATOM     87  O   UNL A   1      45.090  40.875  31.916  1.00  0.00    -0.237 OA
ATOM     88  O   UNL A   1      42.766  40.722  32.728  1.00  0.00    -0.744 OA
ENDBRANCH  84  85
ENDBRANCH  63  77
BRANCH  64  89
ATOM     89  C   UNL A   1      43.162  26.423  28.254  1.00  0.00     0.058 A 
ATOM     90  C   UNL A   1      42.789  26.191  26.923  1.00  0.00     0.135 A 
ATOM     91  C   UNL A   1      43.406  25.304  29.066  1.00  0.00     0.135 A 
ATOM     92  F   UNL A   1      42.530  27.227  26.110  1.00  0.00    -0.206 F 
ATOM     93  C   UNL A   1      42.646  24.902  26.417  1.00  0.00     0.059 A 
ATOM     94  C   UNL A   1      43.295  24.006  28.578  1.00  0.00     0.059 A 
ATOM     95  F   UNL A   1      43.775  25.467  30.347  1.00  0.00    -0.206 F 
ATOM     96  C   UNL A   1      42.905  23.815  27.254  1.00  0.00     0.060 A 
BRANCH  96  97
ATOM     97  S   UNL A   1      42.735  22.149  26.580  1.00  0.00     0.124 S 
ATOM     98  O   UNL A   1      44.108  21.840  26.197  1.00  0.00    -0.237 OA
ATOM     99  O   UNL A   1      42.208  21.411  27.724  1.00  0.00    -0.237 OA
ATOM    100  O   UNL A   1      41.801  22.326  25.472  1.00  0.00    -0.744 OA
ENDBRANCH  96  97
ENDBRANCH  64  89
BRANCH  76 101
ATOM    101  C   UNL A   1      48.415  31.046  28.504  1.00  0.00     0.058 A 
ATOM    102  C   UNL A   1      48.913  31.635  27.331  1.00  0.00     0.135 A 
ATOM    103  C   UNL A   1      49.339  30.492  29.405  1.00  0.00     0.135 A 
ATOM    104  F   UNL A   1      48.072  32.172  26.435  1.00  0.00    -0.206 F 
ATOM    105  C   UNL A   1      50.279  31.678  27.069  1.00  0.00     0.059 A 
ATOM    106  C   UNL A   1      50.710  30.550  29.176  1.00  0.00     0.059 A 
ATOM    107  F   UNL A   1      48.914  29.927  30.547  1.00  0.00    -0.206 F 
ATOM    108  C   UNL A   1      51.171  31.145  28.003  1.00  0.00     0.060 A 
BRANCH 108 109
ATOM    109  S   UNL A   1      52.943  31.291  27.692  1.00  0.00     0.124 S 
ATOM    110  O   UNL A   1      53.275  29.943  27.244  1.00  0.00    -0.237 OA
ATOM    111  O   UNL A   1      52.994  32.330  26.668  1.00  0.00    -0.237 OA
ATOM    112  O   UNL A   1      53.488  31.673  28.991  1.00  0.00    -0.744 OA
ENDBRANCH 108 109
ENDBRANCH  76 101
ENDBRANCH  50  51
ENDBRANCH  43  45
ENDBRANCH  42  43
ENDBRANCH  41  42
ENDBRANCH  40  41
ENDBRANCH  39  40
ENDBRANCH  38  39
ENDBRANCH  37  38
ENDBRANCH  36  37
ENDBRANCH   1  36
TORSDOF 28
ENDMDL
