MODEL 1
REMARK VINA RESULT:      -7.5      0.000      0.000
REMARK SMILES CCc1ccccc1NC(=O)CCCC(=O)OCCOCCOCCOCCOC(=O)c1ccc(-c2c3nc(c(-c4c(F)cc(S(=O)(=O)[O-])cc4F)c4ccc([nH]4)c(-c4c(F)cc(S(=O)(=O)[O-])cc4F)c4nc(c(-c5c(F)cc(S(=O)(=O)[O-])cc5F)c5ccc2[nH]5)C=C4)C=C3)cc1
REMARK SMILES IDX 22 1 21 2 20 3 19 4 18 5 17 6 15 7 16 8 14 9 13 10 12 11
REMARK SMILES IDX 10 12 9 13 11 15 8 16 3 17 4 18 5 19 7 20 6 21 2 22 1 23
REMARK SMILES IDX 23 24 24 25 25 26 26 27 27 28 28 29 29 30 30 31 31 32 32 33
REMARK SMILES IDX 33 34 97 35 34 36 96 37 35 38 36 39 37 40 90 41 38 42 95 43
REMARK SMILES IDX 89 44 91 45 39 46 94 47 88 48 87 49 40 51 74 52 53 53 73 54
REMARK SMILES IDX 54 55 57 56 72 57 92 58 55 59 56 60 71 62 93 63 58 64 41 65
REMARK SMILES IDX 42 66 51 67 43 68 44 69 50 70 52 71 45 72 46 73 47 74 48 75
REMARK SMILES IDX 49 76 75 77 76 78 85 79 77 80 78 81 84 82 86 83 79 84 80 85
REMARK SMILES IDX 81 86 82 87 83 88 59 89 60 90 69 91 61 92 62 93 68 94 70 95
REMARK SMILES IDX 63 96 64 97 65 98 66 99 67 100
REMARK H PARENT 9 14 91 50 57 61
REMARK Flexibility Score: inf
ROOT
ATOM      1  C   UNL A   1      37.706  22.157  24.925  1.00  0.00     0.188 C 
ENDROOT
BRANCH   1   2
ATOM      2  C   UNL A   1      36.308  21.521  24.816  1.00  0.00     0.188 C 
BRANCH   2   3
ATOM      3  O   UNL A   1      35.333  22.305  24.149  1.00  0.00    -0.376 OA
BRANCH   3   4
ATOM      4  C   UNL A   1      35.169  23.635  24.601  1.00  0.00     0.202 C 
BRANCH   4   5
ATOM      5  C   UNL A   1      34.508  23.809  25.956  1.00  0.00     0.261 C 
BRANCH   5   6
ATOM      6  O   UNL A   1      33.693  22.745  26.477  1.00  0.00    -0.463 OA
BRANCH   6   7
ATOM      7  C   UNL A   1      32.444  22.869  26.962  1.00  0.00     0.305 C 
ATOM      8  O   UNL A   1      32.116  22.721  28.132  1.00  0.00    -0.252 OA
BRANCH   7   9
ATOM      9  C   UNL A   1      31.462  23.224  25.857  1.00  0.00     0.123 C 
BRANCH   9  10
ATOM     10  C   UNL A   1      31.408  24.694  25.421  1.00  0.00     0.022 C 
BRANCH  10  11
ATOM     11  C   UNL A   1      30.585  25.036  24.169  1.00  0.00     0.101 C 
BRANCH  11  12
ATOM     12  C   UNL A   1      29.821  26.340  24.232  1.00  0.00     0.224 C 
ATOM     13  N   UNL A   1      30.317  27.520  24.702  1.00  0.00    -0.326 N 
ATOM     14  H   UNL A   1      29.671  28.258  24.620  1.00  0.00     0.169 HD
ATOM     15  O   UNL A   1      28.684  26.381  23.744  1.00  0.00    -0.275 OA
BRANCH  13  16
ATOM     16  C   UNL A   1      31.534  27.934  25.279  1.00  0.00     0.044 A 
ATOM     17  C   UNL A   1      32.702  28.007  24.486  1.00  0.00    -0.025 A 
ATOM     18  C   UNL A   1      33.959  28.123  25.122  1.00  0.00     0.006 A 
ATOM     19  C   UNL A   1      34.060  28.323  26.485  1.00  0.00     0.000 A 
ATOM     20  C   UNL A   1      31.643  28.308  26.608  1.00  0.00     0.026 A 
ATOM     21  C   UNL A   1      32.899  28.519  27.203  1.00  0.00     0.002 A 
BRANCH  17  22
ATOM     22  C   UNL A   1      32.630  28.136  22.981  1.00  0.00     0.034 C 
ATOM     23  C   UNL A   1      33.208  26.980  22.182  1.00  0.00     0.009 C 
ENDBRANCH  17  22
ENDBRANCH  13  16
ENDBRANCH  11  12
ENDBRANCH  10  11
ENDBRANCH   9  10
ENDBRANCH   7   9
ENDBRANCH   6   7
ENDBRANCH   5   6
ENDBRANCH   4   5
ENDBRANCH   3   4
ENDBRANCH   2   3
ENDBRANCH   1   2
BRANCH   1  24
ATOM     24  O   UNL A   1      38.450  21.973  26.118  1.00  0.00    -0.377 OA
BRANCH  24  25
ATOM     25  C   UNL A   1      39.780  21.463  26.099  1.00  0.00     0.188 C 
BRANCH  25  26
ATOM     26  C   UNL A   1      40.768  21.732  27.241  1.00  0.00     0.188 C 
BRANCH  26  27
ATOM     27  O   UNL A   1      40.972  23.102  27.514  1.00  0.00    -0.376 OA
BRANCH  27  28
ATOM     28  C   UNL A   1      41.369  23.946  26.450  1.00  0.00     0.202 C 
BRANCH  28  29
ATOM     29  C   UNL A   1      42.861  24.087  26.100  1.00  0.00     0.261 C 
BRANCH  29  30
ATOM     30  O   UNL A   1      43.837  23.460  26.953  1.00  0.00    -0.460 OA
BRANCH  30  31
ATOM     31  C   UNL A   1      44.964  22.943  26.421  1.00  0.00     0.338 C 
ATOM     32  O   UNL A   1      45.103  21.824  25.952  1.00  0.00    -0.246 OA
BRANCH  31  33
ATOM     33  C   UNL A   1      45.951  24.045  26.298  1.00  0.00     0.060 A 
ATOM     34  C   UNL A   1      46.584  24.538  27.451  1.00  0.00     0.016 A 
ATOM     35  C   UNL A   1      46.266  24.580  25.047  1.00  0.00     0.016 A 
ATOM     36  C   UNL A   1      47.481  25.605  27.362  1.00  0.00     0.010 A 
ATOM     37  C   UNL A   1      47.139  25.669  24.961  1.00  0.00     0.010 A 
ATOM     38  C   UNL A   1      47.712  26.218  26.124  1.00  0.00    -0.014 A 
BRANCH  38  39
ATOM     39  C   UNL A   1      48.302  27.580  26.082  1.00  0.00     0.031 A 
ATOM     40  C   UNL A   1      49.748  27.695  25.668  1.00  0.00     0.074 A 
ATOM     41  C   UNL A   1      47.587  28.682  26.372  1.00  0.00     0.049 A 
ATOM     42  N   UNL A   1      50.521  28.747  25.625  1.00  0.00    -0.248 NA
ATOM     43  C   UNL A   1      50.409  26.446  25.248  1.00  0.00     0.031 C 
ATOM     44  C   UNL A   1      46.170  28.705  26.726  1.00  0.00     0.029 A 
ATOM     45  N   UNL A   1      47.968  30.001  26.423  1.00  0.00    -0.354 N 
ATOM     46  C   UNL A   1      51.759  28.286  25.190  1.00  0.00     0.074 A 
ATOM     47  C   UNL A   1      51.643  26.858  25.003  1.00  0.00     0.031 C 
ATOM     48  C   UNL A   1      45.805  29.974  26.983  1.00  0.00     0.029 A 
ATOM     49  C   UNL A   1      46.970  30.848  26.845  1.00  0.00     0.049 A 
ATOM     50  H   UNL A   1      48.871  30.311  26.181  1.00  0.00     0.167 HD
ATOM     51  C   UNL A   1      52.891  28.992  24.963  1.00  0.00     0.037 A 
ATOM     52  C   UNL A   1      47.007  32.169  27.121  1.00  0.00     0.037 A 
ATOM     53  C   UNL A   1      52.997  30.414  25.147  1.00  0.00     0.049 A 
ATOM     54  C   UNL A   1      48.303  32.923  26.931  1.00  0.00     0.074 A 
ATOM     55  C   UNL A   1      54.093  31.229  24.931  1.00  0.00     0.029 A 
ATOM     56  N   UNL A   1      51.971  31.232  25.598  1.00  0.00    -0.354 N 
ATOM     57  N   UNL A   1      49.463  32.480  26.504  1.00  0.00    -0.248 NA
ATOM     58  C   UNL A   1      48.296  34.356  27.258  1.00  0.00     0.031 C 
ATOM     59  C   UNL A   1      53.749  32.530  25.308  1.00  0.00     0.029 A 
ATOM     60  C   UNL A   1      52.418  32.539  25.694  1.00  0.00     0.049 A 
ATOM     61  H   UNL A   1      51.061  30.928  25.817  1.00  0.00     0.167 HD
ATOM     62  C   UNL A   1      50.309  33.585  26.479  1.00  0.00     0.074 A 
ATOM     63  C   UNL A   1      49.526  34.718  26.923  1.00  0.00     0.031 C 
ATOM     64  C   UNL A   1      51.616  33.658  26.122  1.00  0.00     0.037 A 
BRANCH  51  65
ATOM     65  C   UNL A   1      54.115  28.236  24.521  1.00  0.00     0.058 A 
ATOM     66  C   UNL A   1      54.453  28.093  23.166  1.00  0.00     0.135 A 
ATOM     67  C   UNL A   1      54.991  27.692  25.475  1.00  0.00     0.135 A 
ATOM     68  F   UNL A   1      53.638  28.571  22.212  1.00  0.00    -0.206 F 
ATOM     69  C   UNL A   1      55.610  27.430  22.772  1.00  0.00     0.059 A 
ATOM     70  C   UNL A   1      56.168  27.050  25.105  1.00  0.00     0.059 A 
ATOM     71  F   UNL A   1      54.710  27.792  26.784  1.00  0.00    -0.206 F 
ATOM     72  C   UNL A   1      56.466  26.918  23.750  1.00  0.00     0.060 A 
BRANCH  72  73
ATOM     73  S   UNL A   1      57.982  26.094  23.221  1.00  0.00     0.124 S 
ATOM     74  O   UNL A   1      57.814  26.075  21.771  1.00  0.00    -0.237 OA
ATOM     75  O   UNL A   1      59.015  26.992  23.727  1.00  0.00    -0.237 OA
ATOM     76  O   UNL A   1      57.910  24.792  23.877  1.00  0.00    -0.744 OA
ENDBRANCH  72  73
ENDBRANCH  51  65
BRANCH  52  77
ATOM     77  C   UNL A   1      45.796  32.867  27.636  1.00  0.00     0.058 A 
ATOM     78  C   UNL A   1      45.441  32.813  28.993  1.00  0.00     0.135 A 
ATOM     79  C   UNL A   1      44.947  33.580  26.772  1.00  0.00     0.135 A 
ATOM     80  F   UNL A   1      46.209  32.134  29.858  1.00  0.00    -0.206 F 
ATOM     81  C   UNL A   1      44.281  33.415  29.470  1.00  0.00     0.059 A 
ATOM     82  C   UNL A   1      43.797  34.217  27.233  1.00  0.00     0.059 A 
ATOM     83  F   UNL A   1      45.238  33.670  25.466  1.00  0.00    -0.206 F 
ATOM     84  C   UNL A   1      43.466  34.117  28.582  1.00  0.00     0.060 A 
BRANCH  84  85
ATOM     85  S   UNL A   1      41.978  34.918  29.219  1.00  0.00     0.124 S 
ATOM     86  O   UNL A   1      41.456  35.567  28.023  1.00  0.00    -0.237 OA
ATOM     87  O   UNL A   1      41.209  33.782  29.717  1.00  0.00    -0.237 OA
ATOM     88  O   UNL A   1      42.494  35.815  30.249  1.00  0.00    -0.744 OA
ENDBRANCH  84  85
ENDBRANCH  52  77
BRANCH  64  89
ATOM     89  C   UNL A   1      52.274  35.012  26.141  1.00  0.00     0.058 A 
ATOM     90  C   UNL A   1      52.226  35.878  25.039  1.00  0.00     0.135 A 
ATOM     91  C   UNL A   1      52.908  35.473  27.308  1.00  0.00     0.135 A 
ATOM     92  F   UNL A   1      51.635  35.488  23.898  1.00  0.00    -0.206 F 
ATOM     93  C   UNL A   1      52.805  37.142  25.082  1.00  0.00     0.059 A 
ATOM     94  C   UNL A   1      53.465  36.745  27.385  1.00  0.00     0.059 A 
ATOM     95  F   UNL A   1      52.971  34.692  28.398  1.00  0.00    -0.206 F 
ATOM     96  C   UNL A   1      53.420  37.568  26.261  1.00  0.00     0.060 A 
BRANCH  96  97
ATOM     97  S   UNL A   1      54.139  39.223  26.313  1.00  0.00     0.124 S 
ATOM     98  O   UNL A   1      53.911  39.687  24.948  1.00  0.00    -0.237 OA
ATOM     99  O   UNL A   1      53.343  39.876  27.346  1.00  0.00    -0.237 OA
ATOM    100  O   UNL A   1      55.535  38.977  26.666  1.00  0.00    -0.744 OA
ENDBRANCH  96  97
ENDBRANCH  64  89
ENDBRANCH  38  39
ENDBRANCH  31  33
ENDBRANCH  30  31
ENDBRANCH  29  30
ENDBRANCH  28  29
ENDBRANCH  27  28
ENDBRANCH  26  27
ENDBRANCH  25  26
ENDBRANCH  24  25
ENDBRANCH   1  24
TORSDOF 28
ENDMDL
MODEL 2
REMARK VINA RESULT:      -7.5      7.983     10.504
REMARK SMILES CCc1ccccc1NC(=O)CCCC(=O)OCCOCCOCCOCCOC(=O)c1ccc(-c2c3nc(c(-c4c(F)cc(S(=O)(=O)[O-])cc4F)c4ccc([nH]4)c(-c4c(F)cc(S(=O)(=O)[O-])cc4F)c4nc(c(-c5c(F)cc(S(=O)(=O)[O-])cc5F)c5ccc2[nH]5)C=C4)C=C3)cc1
REMARK SMILES IDX 22 1 21 2 20 3 19 4 18 5 17 6 15 7 16 8 14 9 13 10 12 11
REMARK SMILES IDX 10 12 9 13 11 15 8 16 3 17 4 18 5 19 7 20 6 21 2 22 1 23
REMARK SMILES IDX 23 24 24 25 25 26 26 27 27 28 28 29 29 30 30 31 31 32 32 33
REMARK SMILES IDX 33 34 97 35 34 36 96 37 35 38 36 39 37 40 90 41 38 42 95 43
REMARK SMILES IDX 89 44 91 45 39 46 94 47 88 48 87 49 40 51 74 52 53 53 73 54
REMARK SMILES IDX 54 55 57 56 72 57 92 58 55 59 56 60 71 62 93 63 58 64 41 65
REMARK SMILES IDX 42 66 51 67 43 68 44 69 50 70 52 71 45 72 46 73 47 74 48 75
REMARK SMILES IDX 49 76 75 77 76 78 85 79 77 80 78 81 84 82 86 83 79 84 80 85
REMARK SMILES IDX 81 86 82 87 83 88 59 89 60 90 69 91 61 92 62 93 68 94 70 95
REMARK SMILES IDX 63 96 64 97 65 98 66 99 67 100
REMARK H PARENT 9 14 91 50 57 61
REMARK Flexibility Score: inf
ROOT
ATOM      1  C   UNL A   1      36.936  22.024  25.218  1.00  0.00     0.188 C 
ENDROOT
BRANCH   1   2
ATOM      2  C   UNL A   1      35.835  20.957  25.082  1.00  0.00     0.188 C 
BRANCH   2   3
ATOM      3  O   UNL A   1      34.626  21.239  25.765  1.00  0.00    -0.376 OA
BRANCH   3   4
ATOM      4  C   UNL A   1      34.715  22.092  26.890  1.00  0.00     0.202 C 
BRANCH   4   5
ATOM      5  C   UNL A   1      33.430  22.771  27.326  1.00  0.00     0.261 C 
BRANCH   5   6
ATOM      6  O   UNL A   1      32.173  22.248  26.861  1.00  0.00    -0.463 OA
BRANCH   6   7
ATOM      7  C   UNL A   1      31.137  22.971  26.396  1.00  0.00     0.305 C 
ATOM      8  O   UNL A   1      30.306  23.548  27.084  1.00  0.00    -0.252 OA
BRANCH   7   9
ATOM      9  C   UNL A   1      31.122  22.988  24.876  1.00  0.00     0.123 C 
BRANCH   9  10
ATOM     10  C   UNL A   1      31.197  24.361  24.195  1.00  0.00     0.022 C 
BRANCH  10  11
ATOM     11  C   UNL A   1      32.575  25.035  24.100  1.00  0.00     0.101 C 
BRANCH  11  12
ATOM     12  C   UNL A   1      32.923  25.608  22.745  1.00  0.00     0.224 C 
ATOM     13  N   UNL A   1      32.584  26.854  22.307  1.00  0.00    -0.326 N 
ATOM     14  H   UNL A   1      32.942  27.047  21.410  1.00  0.00     0.169 HD
ATOM     15  O   UNL A   1      33.646  24.942  21.991  1.00  0.00    -0.275 OA
BRANCH  13  16
ATOM     16  C   UNL A   1      31.844  27.932  22.833  1.00  0.00     0.044 A 
ATOM     17  C   UNL A   1      32.307  28.612  23.981  1.00  0.00    -0.025 A 
ATOM     18  C   UNL A   1      31.425  29.474  24.672  1.00  0.00     0.006 A 
ATOM     19  C   UNL A   1      30.178  29.785  24.164  1.00  0.00     0.000 A 
ATOM     20  C   UNL A   1      30.672  28.388  22.251  1.00  0.00     0.026 A 
ATOM     21  C   UNL A   1      29.854  29.324  22.906  1.00  0.00     0.002 A 
BRANCH  17  22
ATOM     22  C   UNL A   1      33.763  28.575  24.391  1.00  0.00     0.034 C 
ATOM     23  C   UNL A   1      34.044  28.143  25.821  1.00  0.00     0.009 C 
ENDBRANCH  17  22
ENDBRANCH  13  16
ENDBRANCH  11  12
ENDBRANCH  10  11
ENDBRANCH   9  10
ENDBRANCH   7   9
ENDBRANCH   6   7
ENDBRANCH   5   6
ENDBRANCH   4   5
ENDBRANCH   3   4
ENDBRANCH   2   3
ENDBRANCH   1   2
BRANCH   1  24
ATOM     24  O   UNL A   1      37.978  21.816  26.157  1.00  0.00    -0.377 OA
BRANCH  24  25
ATOM     25  C   UNL A   1      39.298  21.474  25.746  1.00  0.00     0.188 C 
BRANCH  25  26
ATOM     26  C   UNL A   1      40.447  21.324  26.751  1.00  0.00     0.188 C 
BRANCH  26  27
ATOM     27  O   UNL A   1      40.583  22.413  27.638  1.00  0.00    -0.376 OA
BRANCH  27  28
ATOM     28  C   UNL A   1      40.495  23.723  27.109  1.00  0.00     0.202 C 
BRANCH  28  29
ATOM     29  C   UNL A   1      41.766  24.581  26.976  1.00  0.00     0.261 C 
BRANCH  29  30
ATOM     30  O   UNL A   1      43.050  23.948  27.122  1.00  0.00    -0.460 OA
BRANCH  30  31
ATOM     31  C   UNL A   1      44.178  24.680  27.020  1.00  0.00     0.338 C 
ATOM     32  O   UNL A   1      44.978  24.664  26.098  1.00  0.00    -0.246 OA
BRANCH  31  33
ATOM     33  C   UNL A   1      44.169  25.680  28.119  1.00  0.00     0.060 A 
ATOM     34  C   UNL A   1      43.637  25.325  29.370  1.00  0.00     0.016 A 
ATOM     35  C   UNL A   1      44.698  26.957  27.922  1.00  0.00     0.016 A 
ATOM     36  C   UNL A   1      43.576  26.265  30.402  1.00  0.00     0.010 A 
ATOM     37  C   UNL A   1      44.608  27.907  28.945  1.00  0.00     0.010 A 
ATOM     38  C   UNL A   1      44.002  27.579  30.172  1.00  0.00    -0.014 A 
BRANCH  38  39
ATOM     39  C   UNL A   1      43.556  28.661  31.086  1.00  0.00     0.031 A 
ATOM     40  C   UNL A   1      44.404  28.934  32.303  1.00  0.00     0.074 A 
ATOM     41  C   UNL A   1      42.458  29.399  30.843  1.00  0.00     0.049 A 
ATOM     42  N   UNL A   1      44.200  29.761  33.292  1.00  0.00    -0.248 NA
ATOM     43  C   UNL A   1      45.654  28.159  32.414  1.00  0.00     0.031 C 
ATOM     44  C   UNL A   1      41.591  29.272  29.673  1.00  0.00     0.029 A 
ATOM     45  N   UNL A   1      41.878  30.401  31.582  1.00  0.00    -0.354 N 
ATOM     46  C   UNL A   1      45.284  29.596  34.150  1.00  0.00     0.074 A 
ATOM     47  C   UNL A   1      46.131  28.576  33.576  1.00  0.00     0.031 C 
ATOM     48  C   UNL A   1      40.575  30.147  29.785  1.00  0.00     0.029 A 
ATOM     49  C   UNL A   1      40.699  30.870  31.051  1.00  0.00     0.049 A 
ATOM     50  H   UNL A   1      42.269  30.752  32.416  1.00  0.00     0.167 HD
ATOM     51  C   UNL A   1      45.549  30.241  35.308  1.00  0.00     0.037 A 
ATOM     52  C   UNL A   1      39.810  31.755  31.548  1.00  0.00     0.037 A 
ATOM     53  C   UNL A   1      44.702  31.259  35.869  1.00  0.00     0.049 A 
ATOM     54  C   UNL A   1      40.091  32.409  32.881  1.00  0.00     0.074 A 
ATOM     55  C   UNL A   1      44.887  31.986  37.032  1.00  0.00     0.029 A 
ATOM     56  N   UNL A   1      43.506  31.688  35.313  1.00  0.00    -0.354 N 
ATOM     57  N   UNL A   1      41.126  32.257  33.675  1.00  0.00    -0.248 NA
ATOM     58  C   UNL A   1      39.085  33.353  33.387  1.00  0.00     0.031 C 
ATOM     59  C   UNL A   1      43.773  32.812  37.209  1.00  0.00     0.029 A 
ATOM     60  C   UNL A   1      42.928  32.650  36.123  1.00  0.00     0.049 A 
ATOM     61  H   UNL A   1      43.125  31.357  34.467  1.00  0.00     0.167 HD
ATOM     62  C   UNL A   1      40.911  33.112  34.752  1.00  0.00     0.074 A 
ATOM     63  C   UNL A   1      39.654  33.785  34.504  1.00  0.00     0.031 C 
ATOM     64  C   UNL A   1      41.682  33.323  35.849  1.00  0.00     0.037 A 
BRANCH  51  65
ATOM     65  C   UNL A   1      46.788  29.847  36.066  1.00  0.00     0.058 A 
ATOM     66  C   UNL A   1      48.027  30.467  35.841  1.00  0.00     0.135 A 
ATOM     67  C   UNL A   1      46.719  28.867  37.070  1.00  0.00     0.135 A 
ATOM     68  F   UNL A   1      48.156  31.392  34.876  1.00  0.00    -0.206 F 
ATOM     69  C   UNL A   1      49.155  30.124  36.578  1.00  0.00     0.059 A 
ATOM     70  C   UNL A   1      47.828  28.528  37.839  1.00  0.00     0.059 A 
ATOM     71  F   UNL A   1      45.562  28.235  37.318  1.00  0.00    -0.206 F 
ATOM     72  C   UNL A   1      49.044  29.157  37.581  1.00  0.00     0.060 A 
BRANCH  72  73
ATOM     73  S   UNL A   1      50.510  28.753  38.553  1.00  0.00     0.124 S 
ATOM     74  O   UNL A   1      51.437  28.312  37.515  1.00  0.00    -0.237 OA
ATOM     75  O   UNL A   1      50.825  30.030  39.184  1.00  0.00    -0.237 OA
ATOM     76  O   UNL A   1      50.041  27.707  39.458  1.00  0.00    -0.744 OA
ENDBRANCH  72  73
ENDBRANCH  51  65
BRANCH  52  77
ATOM     77  C   UNL A   1      38.553  32.059  30.808  1.00  0.00     0.058 A 
ATOM     78  C   UNL A   1      37.393  31.290  30.989  1.00  0.00     0.135 A 
ATOM     79  C   UNL A   1      38.494  33.110  29.878  1.00  0.00     0.135 A 
ATOM     80  F   UNL A   1      37.398  30.265  31.855  1.00  0.00    -0.206 F 
ATOM     81  C   UNL A   1      36.233  31.533  30.260  1.00  0.00     0.059 A 
ATOM     82  C   UNL A   1      37.335  33.393  29.160  1.00  0.00     0.059 A 
ATOM     83  F   UNL A   1      39.571  33.883  29.668  1.00  0.00    -0.206 F 
ATOM     84  C   UNL A   1      36.214  32.588  29.348  1.00  0.00     0.060 A 
BRANCH  84  85
ATOM     85  S   UNL A   1      34.693  32.912  28.429  1.00  0.00     0.124 S 
ATOM     86  O   UNL A   1      33.677  32.449  29.367  1.00  0.00    -0.237 OA
ATOM     87  O   UNL A   1      34.762  34.356  28.224  1.00  0.00    -0.237 OA
ATOM     88  O   UNL A   1      34.851  32.107  27.221  1.00  0.00    -0.744 OA
ENDBRANCH  84  85
ENDBRANCH  52  77
BRANCH  64  89
ATOM     89  C   UNL A   1      41.223  34.359  36.840  1.00  0.00     0.058 A 
ATOM     90  C   UNL A   1      40.413  34.031  37.937  1.00  0.00     0.135 A 
ATOM     91  C   UNL A   1      41.656  35.691  36.721  1.00  0.00     0.135 A 
ATOM     92  F   UNL A   1      39.968  32.774  38.098  1.00  0.00    -0.206 F 
ATOM     93  C   UNL A   1      40.026  34.991  38.867  1.00  0.00     0.059 A 
ATOM     94  C   UNL A   1      41.309  36.660  37.657  1.00  0.00     0.059 A 
ATOM     95  F   UNL A   1      42.444  36.057  35.698  1.00  0.00    -0.206 F 
ATOM     96  C   UNL A   1      40.482  36.302  38.720  1.00  0.00     0.060 A 
BRANCH  96  97
ATOM     97  S   UNL A   1      39.998  37.530  39.952  1.00  0.00     0.124 S 
ATOM     98  O   UNL A   1      41.158  38.415  39.958  1.00  0.00    -0.237 OA
ATOM     99  O   UNL A   1      38.779  38.086  39.374  1.00  0.00    -0.237 OA
ATOM    100  O   UNL A   1      39.806  36.739  41.165  1.00  0.00    -0.744 OA
ENDBRANCH  96  97
ENDBRANCH  64  89
ENDBRANCH  38  39
ENDBRANCH  31  33
ENDBRANCH  30  31
ENDBRANCH  29  30
ENDBRANCH  28  29
ENDBRANCH  27  28
ENDBRANCH  26  27
ENDBRANCH  25  26
ENDBRANCH  24  25
ENDBRANCH   1  24
TORSDOF 28
ENDMDL
MODEL 3
REMARK VINA RESULT:      -7.4     12.622     17.273
REMARK SMILES CCc1ccccc1NC(=O)CCCC(=O)OCCOCCOCCOCCOC(=O)c1ccc(-c2c3nc(c(-c4c(F)cc(S(=O)(=O)[O-])cc4F)c4ccc([nH]4)c(-c4c(F)cc(S(=O)(=O)[O-])cc4F)c4nc(c(-c5c(F)cc(S(=O)(=O)[O-])cc5F)c5ccc2[nH]5)C=C4)C=C3)cc1
REMARK SMILES IDX 22 1 21 2 20 3 19 4 18 5 17 6 15 7 16 8 14 9 13 10 12 11
REMARK SMILES IDX 10 12 9 13 11 15 8 16 3 17 4 18 5 19 7 20 6 21 2 22 1 23
REMARK SMILES IDX 23 24 24 25 25 26 26 27 27 28 28 29 29 30 30 31 31 32 32 33
REMARK SMILES IDX 33 34 97 35 34 36 96 37 35 38 36 39 37 40 90 41 38 42 95 43
REMARK SMILES IDX 89 44 91 45 39 46 94 47 88 48 87 49 40 51 74 52 53 53 73 54
REMARK SMILES IDX 54 55 57 56 72 57 92 58 55 59 56 60 71 62 93 63 58 64 41 65
REMARK SMILES IDX 42 66 51 67 43 68 44 69 50 70 52 71 45 72 46 73 47 74 48 75
REMARK SMILES IDX 49 76 75 77 76 78 85 79 77 80 78 81 84 82 86 83 79 84 80 85
REMARK SMILES IDX 81 86 82 87 83 88 59 89 60 90 69 91 61 92 62 93 68 94 70 95
REMARK SMILES IDX 63 96 64 97 65 98 66 99 67 100
REMARK H PARENT 9 14 91 50 57 61
REMARK Flexibility Score: inf
ROOT
ATOM      1  C   UNL A   1      47.834  18.826  40.719  1.00  0.00     0.188 C 
ENDROOT
BRANCH   1   2
ATOM      2  C   UNL A   1      47.134  17.808  39.800  1.00  0.00     0.188 C 
BRANCH   2   3
ATOM      3  O   UNL A   1      46.210  16.945  40.440  1.00  0.00    -0.376 OA
BRANCH   3   4
ATOM      4  C   UNL A   1      45.155  16.440  39.644  1.00  0.00     0.202 C 
BRANCH   4   5
ATOM      5  C   UNL A   1      43.747  16.736  40.124  1.00  0.00     0.261 C 
BRANCH   5   6
ATOM      6  O   UNL A   1      43.104  15.809  41.016  1.00  0.00    -0.463 OA
BRANCH   6   7
ATOM      7  C   UNL A   1      42.364  14.744  40.655  1.00  0.00     0.305 C 
ATOM      8  O   UNL A   1      42.270  14.295  39.520  1.00  0.00    -0.252 OA
BRANCH   7   9
ATOM      9  C   UNL A   1      41.642  14.149  41.853  1.00  0.00     0.123 C 
BRANCH   9  10
ATOM     10  C   UNL A   1      42.514  13.630  43.003  1.00  0.00     0.022 C 
BRANCH  10  11
ATOM     11  C   UNL A   1      42.895  14.622  44.113  1.00  0.00     0.101 C 
BRANCH  11  12
ATOM     12  C   UNL A   1      42.860  14.066  45.519  1.00  0.00     0.224 C 
ATOM     13  N   UNL A   1      43.667  13.075  45.993  1.00  0.00    -0.326 N 
ATOM     14  H   UNL A   1      43.511  12.887  46.947  1.00  0.00     0.169 HD
ATOM     15  O   UNL A   1      42.105  14.598  46.345  1.00  0.00    -0.275 OA
BRANCH  13  16
ATOM     16  C   UNL A   1      44.672  12.255  45.442  1.00  0.00     0.044 A 
ATOM     17  C   UNL A   1      45.988  12.749  45.303  1.00  0.00    -0.025 A 
ATOM     18  C   UNL A   1      46.904  12.048  44.485  1.00  0.00     0.006 A 
ATOM     19  C   UNL A   1      46.589  10.815  43.947  1.00  0.00     0.000 A 
ATOM     20  C   UNL A   1      44.437  10.948  45.046  1.00  0.00     0.026 A 
ATOM     21  C   UNL A   1      45.399  10.227  44.318  1.00  0.00     0.002 A 
BRANCH  17  22
ATOM     22  C   UNL A   1      46.492  13.907  46.137  1.00  0.00     0.034 C 
ATOM     23  C   UNL A   1      46.640  15.236  45.415  1.00  0.00     0.009 C 
ENDBRANCH  17  22
ENDBRANCH  13  16
ENDBRANCH  11  12
ENDBRANCH  10  11
ENDBRANCH   9  10
ENDBRANCH   7   9
ENDBRANCH   6   7
ENDBRANCH   5   6
ENDBRANCH   4   5
ENDBRANCH   3   4
ENDBRANCH   2   3
ENDBRANCH   1   2
BRANCH   1  24
ATOM     24  O   UNL A   1      47.340  20.154  40.769  1.00  0.00    -0.377 OA
BRANCH  24  25
ATOM     25  C   UNL A   1      47.690  21.119  39.782  1.00  0.00     0.188 C 
BRANCH  25  26
ATOM     26  C   UNL A   1      46.700  21.566  38.699  1.00  0.00     0.188 C 
BRANCH  26  27
ATOM     27  O   UNL A   1      47.312  22.030  37.515  1.00  0.00    -0.376 OA
BRANCH  27  28
ATOM     28  C   UNL A   1      46.870  21.498  36.280  1.00  0.00     0.202 C 
BRANCH  28  29
ATOM     29  C   UNL A   1      47.174  22.248  34.971  1.00  0.00     0.261 C 
BRANCH  29  30
ATOM     30  O   UNL A   1      46.112  22.442  34.019  1.00  0.00    -0.460 OA
BRANCH  30  31
ATOM     31  C   UNL A   1      44.826  22.324  34.410  1.00  0.00     0.338 C 
ATOM     32  O   UNL A   1      44.264  21.300  34.767  1.00  0.00    -0.246 OA
BRANCH  31  33
ATOM     33  C   UNL A   1      44.268  23.693  34.546  1.00  0.00     0.060 A 
ATOM     34  C   UNL A   1      44.850  24.751  33.829  1.00  0.00     0.016 A 
ATOM     35  C   UNL A   1      43.163  23.931  35.367  1.00  0.00     0.016 A 
ATOM     36  C   UNL A   1      44.369  26.054  33.980  1.00  0.00     0.010 A 
ATOM     37  C   UNL A   1      42.702  25.240  35.543  1.00  0.00     0.010 A 
ATOM     38  C   UNL A   1      43.335  26.313  34.888  1.00  0.00    -0.014 A 
BRANCH  38  39
ATOM     39  C   UNL A   1      43.115  27.701  35.367  1.00  0.00     0.031 A 
ATOM     40  C   UNL A   1      43.964  28.179  36.519  1.00  0.00     0.074 A 
ATOM     41  C   UNL A   1      42.220  28.525  34.794  1.00  0.00     0.049 A 
ATOM     42  N   UNL A   1      43.920  29.308  37.174  1.00  0.00    -0.248 NA
ATOM     43  C   UNL A   1      45.003  27.248  36.994  1.00  0.00     0.031 C 
ATOM     44  C   UNL A   1      41.385  28.200  33.639  1.00  0.00     0.029 A 
ATOM     45  N   UNL A   1      41.857  29.810  35.120  1.00  0.00    -0.354 N 
ATOM     46  C   UNL A   1      44.911  29.217  38.146  1.00  0.00     0.074 A 
ATOM     47  C   UNL A   1      45.525  27.916  38.011  1.00  0.00     0.031 C 
ATOM     48  C   UNL A   1      40.588  29.250  33.368  1.00  0.00     0.029 A 
ATOM     49  C   UNL A   1      40.832  30.307  34.350  1.00  0.00     0.049 A 
ATOM     50  H   UNL A   1      42.290  30.327  35.838  1.00  0.00     0.167 HD
ATOM     51  C   UNL A   1      45.277  30.138  39.067  1.00  0.00     0.037 A 
ATOM     52  C   UNL A   1      40.149  31.467  34.451  1.00  0.00     0.037 A 
ATOM     53  C   UNL A   1      44.663  31.432  39.192  1.00  0.00     0.049 A 
ATOM     54  C   UNL A   1      40.527  32.449  35.536  1.00  0.00     0.074 A 
ATOM     55  C   UNL A   1      44.970  32.446  40.081  1.00  0.00     0.029 A 
ATOM     56  N   UNL A   1      43.613  31.888  38.409  1.00  0.00    -0.354 N 
ATOM     57  N   UNL A   1      41.476  32.359  36.439  1.00  0.00    -0.248 NA
ATOM     58  C   UNL A   1      39.744  33.690  35.615  1.00  0.00     0.031 C 
ATOM     59  C   UNL A   1      44.066  33.492  39.876  1.00  0.00     0.029 A 
ATOM     60  C   UNL A   1      43.241  33.159  38.814  1.00  0.00     0.049 A 
ATOM     61  H   UNL A   1      43.195  31.384  37.675  1.00  0.00     0.167 HD
ATOM     62  C   UNL A   1      41.424  33.545  37.167  1.00  0.00     0.074 A 
ATOM     63  C   UNL A   1      40.359  34.339  36.593  1.00  0.00     0.031 C 
ATOM     64  C   UNL A   1      42.187  33.942  38.217  1.00  0.00     0.037 A 
BRANCH  51  65
ATOM     65  C   UNL A   1      46.371  29.771  40.033  1.00  0.00     0.058 A 
ATOM     66  C   UNL A   1      46.099  29.154  41.264  1.00  0.00     0.135 A 
ATOM     67  C   UNL A   1      47.716  29.995  39.696  1.00  0.00     0.135 A 
ATOM     68  F   UNL A   1      44.831  28.940  41.650  1.00  0.00    -0.206 F 
ATOM     69  C   UNL A   1      47.122  28.780  42.130  1.00  0.00     0.059 A 
ATOM     70  C   UNL A   1      48.755  29.603  40.533  1.00  0.00     0.059 A 
ATOM     71  F   UNL A   1      48.030  30.591  38.535  1.00  0.00    -0.206 F 
ATOM     72  C   UNL A   1      48.448  29.002  41.752  1.00  0.00     0.060 A 
BRANCH  72  73
ATOM     73  S   UNL A   1      49.762  28.475  42.871  1.00  0.00     0.124 S 
ATOM     74  O   UNL A   1      49.434  27.066  43.064  1.00  0.00    -0.237 OA
ATOM     75  O   UNL A   1      50.963  28.744  42.087  1.00  0.00    -0.237 OA
ATOM     76  O   UNL A   1      49.576  29.327  44.042  1.00  0.00    -0.744 OA
ENDBRANCH  72  73
ENDBRANCH  51  65
BRANCH  52  77
ATOM     77  C   UNL A   1      39.016  31.760  33.528  1.00  0.00     0.058 A 
ATOM     78  C   UNL A   1      37.703  31.371  33.834  1.00  0.00     0.135 A 
ATOM     79  C   UNL A   1      39.230  32.410  32.302  1.00  0.00     0.135 A 
ATOM     80  F   UNL A   1      37.445  30.733  34.987  1.00  0.00    -0.206 F 
ATOM     81  C   UNL A   1      36.650  31.590  32.951  1.00  0.00     0.059 A 
ATOM     82  C   UNL A   1      38.187  32.670  31.416  1.00  0.00     0.059 A 
ATOM     83  F   UNL A   1      40.464  32.811  31.959  1.00  0.00    -0.206 F 
ATOM     84  C   UNL A   1      36.903  32.243  31.744  1.00  0.00     0.060 A 
BRANCH  84  85
ATOM     85  S   UNL A   1      35.523  32.549  30.620  1.00  0.00     0.124 S 
ATOM     86  O   UNL A   1      34.393  32.578  31.540  1.00  0.00    -0.237 OA
ATOM     87  O   UNL A   1      35.894  33.829  30.023  1.00  0.00    -0.237 OA
ATOM     88  O   UNL A   1      35.569  31.406  29.712  1.00  0.00    -0.744 OA
ENDBRANCH  84  85
ENDBRANCH  52  77
BRANCH  64  89
ATOM     89  C   UNL A   1      41.942  35.315  38.782  1.00  0.00     0.058 A 
ATOM     90  C   UNL A   1      40.992  35.547  39.788  1.00  0.00     0.135 A 
ATOM     91  C   UNL A   1      42.717  36.406  38.351  1.00  0.00     0.135 A 
ATOM     92  F   UNL A   1      40.222  34.542  40.235  1.00  0.00    -0.206 F 
ATOM     93  C   UNL A   1      40.800  36.815  40.329  1.00  0.00     0.059 A 
ATOM     94  C   UNL A   1      42.566  37.674  38.901  1.00  0.00     0.059 A 
ATOM     95  F   UNL A   1      43.651  36.239  37.401  1.00  0.00    -0.206 F 
ATOM     96  C   UNL A   1      41.595  37.872  39.881  1.00  0.00     0.060 A 
BRANCH  96  97
ATOM     97  S   UNL A   1      41.357  39.504  40.614  1.00  0.00     0.124 S 
ATOM     98  O   UNL A   1      41.810  39.281  41.983  1.00  0.00    -0.237 OA
ATOM     99  O   UNL A   1      42.221  40.344  39.790  1.00  0.00    -0.237 OA
ATOM    100  O   UNL A   1      39.925  39.743  40.458  1.00  0.00    -0.744 OA
ENDBRANCH  96  97
ENDBRANCH  64  89
ENDBRANCH  38  39
ENDBRANCH  31  33
ENDBRANCH  30  31
ENDBRANCH  29  30
ENDBRANCH  28  29
ENDBRANCH  27  28
ENDBRANCH  26  27
ENDBRANCH  25  26
ENDBRANCH  24  25
ENDBRANCH   1  24
TORSDOF 28
ENDMDL
