MODEL 1
REMARK VINA RESULT:      -9.1      0.000      0.000
REMARK SMILES O=C(OCCOCCOCCOCCOC(=O)[C@@H]1[C@@H](C(=O)Nc2ccc(F)c(F)c2)[C@H]2CC[C@@H]1O2)c1ccc(-c2c3nc(c(-c4c(F)cc(S(=O)(=O)[O-])cc4F)c4ccc([nH]4)c(-c4c(F)cc(S(=O)(=O)[O-])cc4F)c4nc(c(-c5c(F)cc(S(=O)(=O)[O-])cc5F)c5ccc2[nH]5)C=C4)C=C3)cc1
REMARK SMILES IDX 8 1 7 2 6 3 5 4 4 5 3 6 2 7 1 8 36 9 37 10 101 11 38 12
REMARK SMILES IDX 100 13 39 14 40 15 41 16 94 17 42 18 99 19 93 20 95 21 43 22
REMARK SMILES IDX 98 23 92 24 91 25 44 27 78 28 57 29 77 30 58 31 61 32 76 33
REMARK SMILES IDX 96 34 59 35 60 36 75 38 97 39 62 40 45 41 46 42 55 43 47 44
REMARK SMILES IDX 48 45 54 46 56 47 49 48 50 49 51 50 52 51 53 52 79 53 80 54
REMARK SMILES IDX 89 55 81 56 82 57 88 58 90 59 83 60 84 61 85 62 86 63 87 64
REMARK SMILES IDX 63 65 64 66 73 67 65 68 66 69 72 70 74 71 67 72 68 73 69 74
REMARK SMILES IDX 70 75 71 76 9 77 10 78 11 79 12 80 13 81 14 82 15 83 16 84
REMARK SMILES IDX 17 85 18 86 19 87 34 88 31 89 33 90 35 91 32 92 20 93 21 94
REMARK SMILES IDX 22 95 23 97 24 98 30 99 25 100 28 101 26 102 29 103 27 104
REMARK H PARENT 95 26 61 37 22 96
REMARK Flexibility Score: inf
ROOT
ATOM      1  C   UNL A   1      33.781  36.903  32.126  1.00  0.00     0.188 C 
ENDROOT
BRANCH   1   2
ATOM      2  C   UNL A   1      32.779  36.603  31.007  1.00  0.00     0.188 C 
BRANCH   2   3
ATOM      3  O   UNL A   1      32.857  35.250  30.556  1.00  0.00    -0.376 OA
BRANCH   3   4
ATOM      4  C   UNL A   1      33.553  34.984  29.337  1.00  0.00     0.202 C 
BRANCH   4   5
ATOM      5  C   UNL A   1      33.344  33.600  28.734  1.00  0.00     0.261 C 
BRANCH   5   6
ATOM      6  O   UNL A   1      34.259  32.608  29.207  1.00  0.00    -0.460 OA
BRANCH   6   7
ATOM      7  C   UNL A   1      34.571  31.404  28.674  1.00  0.00     0.338 C 
ATOM      8  O   UNL A   1      33.692  30.816  28.042  1.00  0.00    -0.246 OA
BRANCH   7   9
ATOM      9  C   UNL A   1      35.893  30.718  28.815  1.00  0.00     0.060 A 
ATOM     10  C   UNL A   1      36.471  30.273  30.005  1.00  0.00     0.016 A 
ATOM     11  C   UNL A   1      36.567  30.427  27.618  1.00  0.00     0.016 A 
ATOM     12  C   UNL A   1      37.673  29.590  30.035  1.00  0.00     0.010 A 
ATOM     13  C   UNL A   1      37.795  29.767  27.630  1.00  0.00     0.010 A 
ATOM     14  C   UNL A   1      38.357  29.381  28.851  1.00  0.00    -0.014 A 
BRANCH  14  15
ATOM     15  C   UNL A   1      39.778  29.045  28.965  1.00  0.00     0.031 A 
ATOM     16  C   UNL A   1      40.672  30.121  29.492  1.00  0.00     0.074 A 
ATOM     17  C   UNL A   1      40.198  27.790  28.752  1.00  0.00     0.049 A 
ATOM     18  N   UNL A   1      41.970  30.168  29.546  1.00  0.00    -0.248 NA
ATOM     19  C   UNL A   1      40.001  31.316  30.040  1.00  0.00     0.031 C 
ATOM     20  C   UNL A   1      39.333  26.651  28.436  1.00  0.00     0.029 A 
ATOM     21  N   UNL A   1      41.456  27.261  28.780  1.00  0.00    -0.354 N 
ATOM     22  C   UNL A   1      42.272  31.418  30.073  1.00  0.00     0.074 A 
ATOM     23  C   UNL A   1      41.026  32.095  30.337  1.00  0.00     0.031 C 
ATOM     24  C   UNL A   1      40.095  25.557  28.274  1.00  0.00     0.029 A 
ATOM     25  C   UNL A   1      41.496  25.945  28.391  1.00  0.00     0.049 A 
ATOM     26  H   UNL A   1      42.254  27.771  29.050  1.00  0.00     0.167 HD
ATOM     27  C   UNL A   1      43.497  31.946  30.283  1.00  0.00     0.037 A 
ATOM     28  C   UNL A   1      42.562  25.180  28.096  1.00  0.00     0.037 A 
ATOM     29  C   UNL A   1      44.697  31.213  29.991  1.00  0.00     0.049 A 
ATOM     30  C   UNL A   1      43.920  25.814  28.228  1.00  0.00     0.074 A 
ATOM     31  C   UNL A   1      46.010  31.626  30.077  1.00  0.00     0.029 A 
ATOM     32  N   UNL A   1      44.710  29.894  29.545  1.00  0.00    -0.354 N 
ATOM     33  N   UNL A   1      44.221  27.034  28.616  1.00  0.00    -0.248 NA
ATOM     34  C   UNL A   1      45.079  24.992  27.872  1.00  0.00     0.031 C 
ATOM     35  C   UNL A   1      46.815  30.572  29.629  1.00  0.00     0.029 A 
ATOM     36  C   UNL A   1      46.009  29.479  29.334  1.00  0.00     0.049 A 
ATOM     37  H   UNL A   1      43.911  29.340  29.401  1.00  0.00     0.167 HD
ATOM     38  C   UNL A   1      45.605  27.119  28.584  1.00  0.00     0.074 A 
ATOM     39  C   UNL A   1      46.081  25.822  28.132  1.00  0.00     0.031 C 
ATOM     40  C   UNL A   1      46.415  28.160  28.901  1.00  0.00     0.037 A 
BRANCH  27  41
ATOM     41  C   UNL A   1      43.556  33.381  30.727  1.00  0.00     0.058 A 
ATOM     42  C   UNL A   1      43.395  34.456  29.836  1.00  0.00     0.135 A 
ATOM     43  C   UNL A   1      43.871  33.685  32.061  1.00  0.00     0.135 A 
ATOM     44  F   UNL A   1      43.135  34.227  28.538  1.00  0.00    -0.206 F 
ATOM     45  C   UNL A   1      43.590  35.773  30.242  1.00  0.00     0.059 A 
ATOM     46  C   UNL A   1      44.038  34.996  32.497  1.00  0.00     0.059 A 
ATOM     47  F   UNL A   1      44.055  32.699  32.954  1.00  0.00    -0.206 F 
ATOM     48  C   UNL A   1      43.919  36.033  31.573  1.00  0.00     0.060 A 
BRANCH  48  49
ATOM     49  S   UNL A   1      44.211  37.742  32.077  1.00  0.00     0.124 S 
ATOM     50  O   UNL A   1      43.190  37.922  33.104  1.00  0.00    -0.237 OA
ATOM     51  O   UNL A   1      45.589  37.693  32.556  1.00  0.00    -0.237 OA
ATOM     52  O   UNL A   1      44.005  38.500  30.847  1.00  0.00    -0.744 OA
ENDBRANCH  48  49
ENDBRANCH  27  41
BRANCH  28  53
ATOM     53  C   UNL A   1      42.362  23.793  27.596  1.00  0.00     0.058 A 
ATOM     54  C   UNL A   1      42.214  23.523  26.230  1.00  0.00     0.135 A 
ATOM     55  C   UNL A   1      42.381  22.697  28.478  1.00  0.00     0.135 A 
ATOM     56  F   UNL A   1      42.185  24.531  25.346  1.00  0.00    -0.206 F 
ATOM     57  C   UNL A   1      42.094  22.219  25.753  1.00  0.00     0.059 A 
ATOM     58  C   UNL A   1      42.290  21.385  28.024  1.00  0.00     0.059 A 
ATOM     59  F   UNL A   1      42.533  22.896  29.796  1.00  0.00    -0.206 F 
ATOM     60  C   UNL A   1      42.143  21.156  26.657  1.00  0.00     0.060 A 
BRANCH  60  61
ATOM     61  S   UNL A   1      42.059  19.468  26.019  1.00  0.00     0.124 S 
ATOM     62  O   UNL A   1      42.939  19.548  24.859  1.00  0.00    -0.237 OA
ATOM     63  O   UNL A   1      42.559  18.691  27.149  1.00  0.00    -0.237 OA
ATOM     64  O   UNL A   1      40.641  19.289  25.723  1.00  0.00    -0.744 OA
ENDBRANCH  60  61
ENDBRANCH  28  53
BRANCH  40  65
ATOM     65  C   UNL A   1      47.893  27.918  28.841  1.00  0.00     0.058 A 
ATOM     66  C   UNL A   1      48.582  27.283  29.883  1.00  0.00     0.135 A 
ATOM     67  C   UNL A   1      48.597  28.226  27.666  1.00  0.00     0.135 A 
ATOM     68  F   UNL A   1      47.949  26.979  31.027  1.00  0.00    -0.206 F 
ATOM     69  C   UNL A   1      49.927  26.961  29.762  1.00  0.00     0.059 A 
ATOM     70  C   UNL A   1      49.933  27.884  27.511  1.00  0.00     0.059 A 
ATOM     71  F   UNL A   1      47.971  28.823  26.639  1.00  0.00    -0.206 F 
ATOM     72  C   UNL A   1      50.590  27.254  28.567  1.00  0.00     0.060 A 
BRANCH  72  73
ATOM     73  S   UNL A   1      52.313  26.754  28.393  1.00  0.00     0.124 S 
ATOM     74  O   UNL A   1      52.668  26.440  29.773  1.00  0.00    -0.237 OA
ATOM     75  O   UNL A   1      52.216  25.615  27.486  1.00  0.00    -0.237 OA
ATOM     76  O   UNL A   1      52.956  27.940  27.834  1.00  0.00    -0.744 OA
ENDBRANCH  72  73
ENDBRANCH  40  65
ENDBRANCH  14  15
ENDBRANCH   7   9
ENDBRANCH   6   7
ENDBRANCH   5   6
ENDBRANCH   4   5
ENDBRANCH   3   4
ENDBRANCH   2   3
ENDBRANCH   1   2
BRANCH   1  77
ATOM     77  O   UNL A   1      34.707  35.864  32.424  1.00  0.00    -0.377 OA
BRANCH  77  78
ATOM     78  C   UNL A   1      34.372  35.062  33.543  1.00  0.00     0.188 C 
BRANCH  78  79
ATOM     79  C   UNL A   1      34.065  33.562  33.342  1.00  0.00     0.188 C 
BRANCH  79  80
ATOM     80  O   UNL A   1      35.198  32.731  33.434  1.00  0.00    -0.376 OA
BRANCH  80  81
ATOM     81  C   UNL A   1      36.117  32.690  32.351  1.00  0.00     0.202 C 
BRANCH  81  82
ATOM     82  C   UNL A   1      37.374  33.590  32.263  1.00  0.00     0.261 C 
BRANCH  82  83
ATOM     83  O   UNL A   1      37.782  34.273  33.459  1.00  0.00    -0.463 OA
BRANCH  83  84
ATOM     84  C   UNL A   1      39.043  34.083  33.923  1.00  0.00     0.312 C 
ATOM     85  O   UNL A   1      40.060  34.292  33.267  1.00  0.00    -0.252 OA
BRANCH  84  86
ATOM     86  C   UNL A   1      39.011  33.741  35.406  1.00  0.00     0.143 C 
ATOM     87  C   UNL A   1      39.697  32.378  35.682  1.00  0.00     0.124 C 
ATOM     88  C   UNL A   1      37.594  33.506  35.898  1.00  0.00     0.133 C 
ATOM     89  C   UNL A   1      38.522  31.580  36.276  1.00  0.00     0.132 C 
ATOM     90  C   UNL A   1      37.611  33.445  37.433  1.00  0.00     0.036 C 
ATOM     91  O   UNL A   1      37.391  32.120  35.551  1.00  0.00    -0.373 OA
ATOM     92  C   UNL A   1      38.136  32.030  37.687  1.00  0.00     0.035 C 
BRANCH  87  93
ATOM     93  C   UNL A   1      40.858  32.352  36.676  1.00  0.00     0.231 C 
ATOM     94  O   UNL A   1      41.002  33.225  37.534  1.00  0.00    -0.274 OA
ATOM     95  N   UNL A   1      41.655  31.242  36.771  1.00  0.00    -0.326 N 
ATOM     96  H   UNL A   1      42.122  31.146  37.633  1.00  0.00     0.169 HD
BRANCH  95  97
ATOM     97  C   UNL A   1      41.917  30.221  35.849  1.00  0.00     0.044 A 
ATOM     98  C   UNL A   1      41.260  28.987  35.883  1.00  0.00     0.029 A 
ATOM     99  C   UNL A   1      42.807  30.497  34.807  1.00  0.00     0.068 A 
ATOM    100  C   UNL A   1      41.536  28.012  34.920  1.00  0.00     0.044 A 
ATOM    101  C   UNL A   1      43.102  29.508  33.872  1.00  0.00     0.160 A 
ATOM    102  C   UNL A   1      42.474  28.271  33.929  1.00  0.00     0.158 A 
ATOM    103  F   UNL A   1      44.009  29.762  32.917  1.00  0.00    -0.204 F 
ATOM    104  F   UNL A   1      42.763  27.325  33.026  1.00  0.00    -0.204 F 
ENDBRANCH  95  97
ENDBRANCH  87  93
ENDBRANCH  84  86
ENDBRANCH  83  84
ENDBRANCH  82  83
ENDBRANCH  81  82
ENDBRANCH  80  81
ENDBRANCH  79  80
ENDBRANCH  78  79
ENDBRANCH  77  78
ENDBRANCH   1  77
TORSDOF 25
ENDMDL
MODEL 2
REMARK VINA RESULT:      -9.0      5.481     12.417
REMARK SMILES O=C(OCCOCCOCCOCCOC(=O)[C@@H]1[C@@H](C(=O)Nc2ccc(F)c(F)c2)[C@H]2CC[C@@H]1O2)c1ccc(-c2c3nc(c(-c4c(F)cc(S(=O)(=O)[O-])cc4F)c4ccc([nH]4)c(-c4c(F)cc(S(=O)(=O)[O-])cc4F)c4nc(c(-c5c(F)cc(S(=O)(=O)[O-])cc5F)c5ccc2[nH]5)C=C4)C=C3)cc1
REMARK SMILES IDX 8 1 7 2 6 3 5 4 4 5 3 6 2 7 1 8 36 9 37 10 101 11 38 12
REMARK SMILES IDX 100 13 39 14 40 15 41 16 94 17 42 18 99 19 93 20 95 21 43 22
REMARK SMILES IDX 98 23 92 24 91 25 44 27 78 28 57 29 77 30 58 31 61 32 76 33
REMARK SMILES IDX 96 34 59 35 60 36 75 38 97 39 62 40 45 41 46 42 55 43 47 44
REMARK SMILES IDX 48 45 54 46 56 47 49 48 50 49 51 50 52 51 53 52 79 53 80 54
REMARK SMILES IDX 89 55 81 56 82 57 88 58 90 59 83 60 84 61 85 62 86 63 87 64
REMARK SMILES IDX 63 65 64 66 73 67 65 68 66 69 72 70 74 71 67 72 68 73 69 74
REMARK SMILES IDX 70 75 71 76 9 77 10 78 11 79 12 80 13 81 14 82 15 83 16 84
REMARK SMILES IDX 17 85 18 86 19 87 34 88 31 89 33 90 35 91 32 92 20 93 21 94
REMARK SMILES IDX 22 95 23 97 24 98 30 99 25 100 28 101 26 102 29 103 27 104
REMARK H PARENT 95 26 61 37 22 96
REMARK Flexibility Score: inf
ROOT
ATOM      1  C   UNL A   1      35.248  33.422  28.360  1.00  0.00     0.188 C 
ENDROOT
BRANCH   1   2
ATOM      2  C   UNL A   1      34.383  34.578  27.850  1.00  0.00     0.188 C 
BRANCH   2   3
ATOM      3  O   UNL A   1      34.310  35.657  28.784  1.00  0.00    -0.376 OA
BRANCH   3   4
ATOM      4  C   UNL A   1      33.035  35.989  29.335  1.00  0.00     0.202 C 
BRANCH   4   5
ATOM      5  C   UNL A   1      33.020  37.120  30.356  1.00  0.00     0.261 C 
BRANCH   5   6
ATOM      6  O   UNL A   1      33.095  36.685  31.717  1.00  0.00    -0.460 OA
BRANCH   6   7
ATOM      7  C   UNL A   1      33.115  35.428  32.216  1.00  0.00     0.338 C 
ATOM      8  O   UNL A   1      32.033  34.912  32.503  1.00  0.00    -0.246 OA
BRANCH   7   9
ATOM      9  C   UNL A   1      34.350  34.623  32.473  1.00  0.00     0.060 A 
ATOM     10  C   UNL A   1      34.413  33.391  33.127  1.00  0.00     0.016 A 
ATOM     11  C   UNL A   1      35.540  35.130  31.927  1.00  0.00     0.016 A 
ATOM     12  C   UNL A   1      35.594  32.687  33.266  1.00  0.00     0.010 A 
ATOM     13  C   UNL A   1      36.747  34.449  32.084  1.00  0.00     0.010 A 
ATOM     14  C   UNL A   1      36.768  33.240  32.786  1.00  0.00    -0.014 A 
BRANCH  14  15
ATOM     15  C   UNL A   1      38.017  32.684  33.311  1.00  0.00     0.031 A 
ATOM     16  C   UNL A   1      38.686  31.646  32.468  1.00  0.00     0.074 A 
ATOM     17  C   UNL A   1      38.586  33.207  34.408  1.00  0.00     0.049 A 
ATOM     18  N   UNL A   1      39.694  30.874  32.748  1.00  0.00    -0.248 NA
ATOM     19  C   UNL A   1      38.137  31.456  31.111  1.00  0.00     0.031 C 
ATOM     20  C   UNL A   1      38.079  34.362  35.153  1.00  0.00     0.029 A 
ATOM     21  N   UNL A   1      39.718  32.843  35.077  1.00  0.00    -0.354 N 
ATOM     22  C   UNL A   1      39.859  30.065  31.630  1.00  0.00     0.074 A 
ATOM     23  C   UNL A   1      38.860  30.446  30.661  1.00  0.00     0.031 C 
ATOM     24  C   UNL A   1      38.890  34.595  36.198  1.00  0.00     0.029 A 
ATOM     25  C   UNL A   1      39.912  33.555  36.234  1.00  0.00     0.049 A 
ATOM     26  H   UNL A   1      40.331  32.139  34.763  1.00  0.00     0.167 HD
ATOM     27  C   UNL A   1      40.759  29.073  31.460  1.00  0.00     0.037 A 
ATOM     28  C   UNL A   1      40.781  33.327  37.235  1.00  0.00     0.037 A 
ATOM     29  C   UNL A   1      41.723  28.745  32.473  1.00  0.00     0.049 A 
ATOM     30  C   UNL A   1      41.707  32.150  37.085  1.00  0.00     0.074 A 
ATOM     31  C   UNL A   1      42.653  27.727  32.491  1.00  0.00     0.029 A 
ATOM     32  N   UNL A   1      41.865  29.450  33.665  1.00  0.00    -0.354 N 
ATOM     33  N   UNL A   1      41.800  31.303  36.084  1.00  0.00    -0.248 NA
ATOM     34  C   UNL A   1      42.630  31.881  38.191  1.00  0.00     0.031 C 
ATOM     35  C   UNL A   1      43.320  27.784  33.720  1.00  0.00     0.029 A 
ATOM     36  C   UNL A   1      42.857  28.882  34.437  1.00  0.00     0.049 A 
ATOM     37  H   UNL A   1      41.336  30.240  33.920  1.00  0.00     0.167 HD
ATOM     38  C   UNL A   1      42.813  30.417  36.421  1.00  0.00     0.074 A 
ATOM     39  C   UNL A   1      43.299  30.833  37.726  1.00  0.00     0.031 C 
ATOM     40  C   UNL A   1      43.307  29.362  35.725  1.00  0.00     0.037 A 
BRANCH  27  41
ATOM     41  C   UNL A   1      40.636  28.243  30.213  1.00  0.00     0.058 A 
ATOM     42  C   UNL A   1      39.628  27.279  30.040  1.00  0.00     0.135 A 
ATOM     43  C   UNL A   1      41.606  28.357  29.203  1.00  0.00     0.135 A 
ATOM     44  F   UNL A   1      38.698  27.096  30.991  1.00  0.00    -0.206 F 
ATOM     45  C   UNL A   1      39.615  26.429  28.939  1.00  0.00     0.059 A 
ATOM     46  C   UNL A   1      41.594  27.539  28.077  1.00  0.00     0.059 A 
ATOM     47  F   UNL A   1      42.604  29.247  29.322  1.00  0.00    -0.206 F 
ATOM     48  C   UNL A   1      40.607  26.561  27.966  1.00  0.00     0.060 A 
BRANCH  48  49
ATOM     49  S   UNL A   1      40.604  25.424  26.564  1.00  0.00     0.124 S 
ATOM     50  O   UNL A   1      41.624  24.461  26.967  1.00  0.00    -0.237 OA
ATOM     51  O   UNL A   1      39.231  24.929  26.568  1.00  0.00    -0.237 OA
ATOM     52  O   UNL A   1      40.957  26.275  25.432  1.00  0.00    -0.744 OA
ENDBRANCH  48  49
ENDBRANCH  27  41
BRANCH  28  53
ATOM     53  C   UNL A   1      40.750  34.182  38.452  1.00  0.00     0.058 A 
ATOM     54  C   UNL A   1      41.358  35.444  38.474  1.00  0.00     0.135 A 
ATOM     55  C   UNL A   1      40.052  33.775  39.603  1.00  0.00     0.135 A 
ATOM     56  F   UNL A   1      42.040  35.879  37.405  1.00  0.00    -0.206 F 
ATOM     57  C   UNL A   1      41.273  36.274  39.590  1.00  0.00     0.059 A 
ATOM     58  C   UNL A   1      39.930  34.597  40.719  1.00  0.00     0.059 A 
ATOM     59  F   UNL A   1      39.441  32.581  39.633  1.00  0.00    -0.206 F 
ATOM     60  C   UNL A   1      40.548  35.846  40.705  1.00  0.00     0.060 A 
BRANCH  60  61
ATOM     61  S   UNL A   1      40.385  36.961  42.116  1.00  0.00     0.124 S 
ATOM     62  O   UNL A   1      39.421  37.933  41.613  1.00  0.00    -0.237 OA
ATOM     63  O   UNL A   1      39.902  36.062  43.159  1.00  0.00    -0.237 OA
ATOM     64  O   UNL A   1      41.743  37.462  42.309  1.00  0.00    -0.744 OA
ENDBRANCH  60  61
ENDBRANCH  28  53
BRANCH  40  65
ATOM     65  C   UNL A   1      44.471  28.634  36.324  1.00  0.00     0.058 A 
ATOM     66  C   UNL A   1      45.786  29.101  36.188  1.00  0.00     0.135 A 
ATOM     67  C   UNL A   1      44.241  27.517  37.143  1.00  0.00     0.135 A 
ATOM     68  F   UNL A   1      46.051  30.160  35.408  1.00  0.00    -0.206 F 
ATOM     69  C   UNL A   1      46.839  28.481  36.848  1.00  0.00     0.059 A 
ATOM     70  C   UNL A   1      45.274  26.902  37.837  1.00  0.00     0.059 A 
ATOM     71  F   UNL A   1      42.995  27.045  37.310  1.00  0.00    -0.206 F 
ATOM     72  C   UNL A   1      46.571  27.390  37.679  1.00  0.00     0.060 A 
BRANCH  72  73
ATOM     73  S   UNL A   1      47.935  26.648  38.594  1.00  0.00     0.124 S 
ATOM     74  O   UNL A   1      48.685  27.829  39.010  1.00  0.00    -0.237 OA
ATOM     75  O   UNL A   1      47.242  25.928  39.657  1.00  0.00    -0.237 OA
ATOM     76  O   UNL A   1      48.593  25.805  37.599  1.00  0.00    -0.744 OA
ENDBRANCH  72  73
ENDBRANCH  40  65
ENDBRANCH  14  15
ENDBRANCH   7   9
ENDBRANCH   6   7
ENDBRANCH   5   6
ENDBRANCH   4   5
ENDBRANCH   3   4
ENDBRANCH   2   3
ENDBRANCH   1   2
BRANCH   1  77
ATOM     77  O   UNL A   1      34.562  32.199  28.610  1.00  0.00    -0.377 OA
BRANCH  77  78
ATOM     78  C   UNL A   1      33.520  31.896  27.698  1.00  0.00     0.188 C 
BRANCH  78  79
ATOM     79  C   UNL A   1      33.336  30.445  27.205  1.00  0.00     0.188 C 
BRANCH  79  80
ATOM     80  O   UNL A   1      32.000  29.999  27.231  1.00  0.00    -0.376 OA
BRANCH  80  81
ATOM     81  C   UNL A   1      31.736  28.604  27.269  1.00  0.00     0.202 C 
BRANCH  81  82
ATOM     82  C   UNL A   1      32.702  27.536  26.700  1.00  0.00     0.261 C 
BRANCH  82  83
ATOM     83  O   UNL A   1      32.162  26.585  25.769  1.00  0.00    -0.463 OA
BRANCH  83  84
ATOM     84  C   UNL A   1      32.972  25.610  25.285  1.00  0.00     0.312 C 
ATOM     85  O   UNL A   1      33.389  24.664  25.948  1.00  0.00    -0.252 OA
BRANCH  84  86
ATOM     86  C   UNL A   1      33.146  25.771  23.780  1.00  0.00     0.143 C 
ATOM     87  C   UNL A   1      32.238  26.899  23.227  1.00  0.00     0.124 C 
ATOM     88  C   UNL A   1      32.657  24.548  23.025  1.00  0.00     0.133 C 
ATOM     89  C   UNL A   1      31.356  26.103  22.248  1.00  0.00     0.132 C 
ATOM     90  C   UNL A   1      33.115  24.659  21.562  1.00  0.00     0.036 C 
ATOM     91  O   UNL A   1      31.245  24.822  22.912  1.00  0.00    -0.373 OA
ATOM     92  C   UNL A   1      32.102  25.654  20.989  1.00  0.00     0.035 C 
BRANCH  87  93
ATOM     93  C   UNL A   1      32.906  28.043  22.465  1.00  0.00     0.231 C 
ATOM     94  O   UNL A   1      34.059  27.958  22.038  1.00  0.00    -0.274 OA
ATOM     95  N   UNL A   1      32.165  29.120  22.056  1.00  0.00    -0.326 N 
ATOM     96  H   UNL A   1      32.546  29.615  21.295  1.00  0.00     0.169 HD
BRANCH  95  97
ATOM     97  C   UNL A   1      30.955  29.636  22.539  1.00  0.00     0.044 A 
ATOM     98  C   UNL A   1      30.785  30.045  23.865  1.00  0.00     0.029 A 
ATOM     99  C   UNL A   1      29.917  29.827  21.622  1.00  0.00     0.068 A 
ATOM    100  C   UNL A   1      29.565  30.582  24.288  1.00  0.00     0.044 A 
ATOM    101  C   UNL A   1      28.694  30.330  22.060  1.00  0.00     0.160 A 
ATOM    102  C   UNL A   1      28.517  30.702  23.386  1.00  0.00     0.158 A 
ATOM    103  F   UNL A   1      27.685  30.444  21.185  1.00  0.00    -0.204 F 
ATOM    104  F   UNL A   1      27.339  31.187  23.799  1.00  0.00    -0.204 F 
ENDBRANCH  95  97
ENDBRANCH  87  93
ENDBRANCH  84  86
ENDBRANCH  83  84
ENDBRANCH  82  83
ENDBRANCH  81  82
ENDBRANCH  80  81
ENDBRANCH  79  80
ENDBRANCH  78  79
ENDBRANCH  77  78
ENDBRANCH   1  77
TORSDOF 25
ENDMDL
MODEL 3
REMARK VINA RESULT:      -8.9      4.965     11.864
REMARK SMILES O=C(OCCOCCOCCOCCOC(=O)[C@@H]1[C@@H](C(=O)Nc2ccc(F)c(F)c2)[C@H]2CC[C@@H]1O2)c1ccc(-c2c3nc(c(-c4c(F)cc(S(=O)(=O)[O-])cc4F)c4ccc([nH]4)c(-c4c(F)cc(S(=O)(=O)[O-])cc4F)c4nc(c(-c5c(F)cc(S(=O)(=O)[O-])cc5F)c5ccc2[nH]5)C=C4)C=C3)cc1
REMARK SMILES IDX 8 1 7 2 6 3 5 4 4 5 3 6 2 7 1 8 36 9 37 10 101 11 38 12
REMARK SMILES IDX 100 13 39 14 40 15 41 16 94 17 42 18 99 19 93 20 95 21 43 22
REMARK SMILES IDX 98 23 92 24 91 25 44 27 78 28 57 29 77 30 58 31 61 32 76 33
REMARK SMILES IDX 96 34 59 35 60 36 75 38 97 39 62 40 45 41 46 42 55 43 47 44
REMARK SMILES IDX 48 45 54 46 56 47 49 48 50 49 51 50 52 51 53 52 79 53 80 54
REMARK SMILES IDX 89 55 81 56 82 57 88 58 90 59 83 60 84 61 85 62 86 63 87 64
REMARK SMILES IDX 63 65 64 66 73 67 65 68 66 69 72 70 74 71 67 72 68 73 69 74
REMARK SMILES IDX 70 75 71 76 9 77 10 78 11 79 12 80 13 81 14 82 15 83 16 84
REMARK SMILES IDX 17 85 18 86 19 87 34 88 31 89 33 90 35 91 32 92 20 93 21 94
REMARK SMILES IDX 22 95 23 97 24 98 30 99 25 100 28 101 26 102 29 103 27 104
REMARK H PARENT 95 26 61 37 22 96
REMARK Flexibility Score: inf
ROOT
ATOM      1  C   UNL A   1      35.387  33.227  28.731  1.00  0.00     0.188 C 
ENDROOT
BRANCH   1   2
ATOM      2  C   UNL A   1      34.745  34.336  27.894  1.00  0.00     0.188 C 
BRANCH   2   3
ATOM      3  O   UNL A   1      34.469  35.508  28.663  1.00  0.00    -0.376 OA
BRANCH   3   4
ATOM      4  C   UNL A   1      33.171  35.645  29.242  1.00  0.00     0.202 C 
BRANCH   4   5
ATOM      5  C   UNL A   1      32.970  36.843  30.163  1.00  0.00     0.261 C 
BRANCH   5   6
ATOM      6  O   UNL A   1      33.047  36.532  31.557  1.00  0.00    -0.460 OA
BRANCH   6   7
ATOM      7  C   UNL A   1      33.103  35.326  32.166  1.00  0.00     0.338 C 
ATOM      8  O   UNL A   1      32.044  34.842  32.571  1.00  0.00    -0.246 OA
BRANCH   7   9
ATOM      9  C   UNL A   1      34.354  34.543  32.411  1.00  0.00     0.060 A 
ATOM     10  C   UNL A   1      34.436  33.267  32.972  1.00  0.00     0.016 A 
ATOM     11  C   UNL A   1      35.546  35.126  31.952  1.00  0.00     0.016 A 
ATOM     12  C   UNL A   1      35.634  32.591  33.105  1.00  0.00     0.010 A 
ATOM     13  C   UNL A   1      36.769  34.473  32.104  1.00  0.00     0.010 A 
ATOM     14  C   UNL A   1      36.806  33.216  32.715  1.00  0.00    -0.014 A 
BRANCH  14  15
ATOM     15  C   UNL A   1      38.052  32.661  33.245  1.00  0.00     0.031 A 
ATOM     16  C   UNL A   1      38.732  31.632  32.400  1.00  0.00     0.074 A 
ATOM     17  C   UNL A   1      38.610  33.178  34.350  1.00  0.00     0.049 A 
ATOM     18  N   UNL A   1      39.740  30.862  32.682  1.00  0.00    -0.248 NA
ATOM     19  C   UNL A   1      38.194  31.449  31.037  1.00  0.00     0.031 C 
ATOM     20  C   UNL A   1      38.093  34.326  35.100  1.00  0.00     0.029 A 
ATOM     21  N   UNL A   1      39.738  32.813  35.026  1.00  0.00    -0.354 N 
ATOM     22  C   UNL A   1      39.917  30.061  31.559  1.00  0.00     0.074 A 
ATOM     23  C   UNL A   1      38.925  30.446  30.585  1.00  0.00     0.031 C 
ATOM     24  C   UNL A   1      38.895  34.554  36.153  1.00  0.00     0.029 A 
ATOM     25  C   UNL A   1      39.920  33.518  36.190  1.00  0.00     0.049 A 
ATOM     26  H   UNL A   1      40.357  32.114  34.711  1.00  0.00     0.167 HD
ATOM     27  C   UNL A   1      40.823  29.073  31.390  1.00  0.00     0.037 A 
ATOM     28  C   UNL A   1      40.783  33.286  37.195  1.00  0.00     0.037 A 
ATOM     29  C   UNL A   1      41.780  28.742  32.408  1.00  0.00     0.049 A 
ATOM     30  C   UNL A   1      41.714  32.114  37.044  1.00  0.00     0.074 A 
ATOM     31  C   UNL A   1      42.714  27.727  32.426  1.00  0.00     0.029 A 
ATOM     32  N   UNL A   1      41.910  29.439  33.606  1.00  0.00    -0.354 N 
ATOM     33  N   UNL A   1      41.819  31.274  36.038  1.00  0.00    -0.248 NA
ATOM     34  C   UNL A   1      42.629  31.839  38.155  1.00  0.00     0.031 C 
ATOM     35  C   UNL A   1      43.370  27.778  33.661  1.00  0.00     0.029 A 
ATOM     36  C   UNL A   1      42.898  28.869  34.381  1.00  0.00     0.049 A 
ATOM     37  H   UNL A   1      41.375  30.225  33.862  1.00  0.00     0.167 HD
ATOM     38  C   UNL A   1      42.832  30.389  36.376  1.00  0.00     0.074 A 
ATOM     39  C   UNL A   1      43.306  30.798  37.688  1.00  0.00     0.031 C 
ATOM     40  C   UNL A   1      43.336  29.341  35.676  1.00  0.00     0.037 A 
BRANCH  27  41
ATOM     41  C   UNL A   1      40.713  28.253  30.136  1.00  0.00     0.058 A 
ATOM     42  C   UNL A   1      39.745  27.247  29.971  1.00  0.00     0.135 A 
ATOM     43  C   UNL A   1      41.658  28.419  29.110  1.00  0.00     0.135 A 
ATOM     44  F   UNL A   1      38.841  27.013  30.936  1.00  0.00    -0.206 F 
ATOM     45  C   UNL A   1      39.748  26.409  28.860  1.00  0.00     0.059 A 
ATOM     46  C   UNL A   1      41.660  27.614  27.975  1.00  0.00     0.059 A 
ATOM     47  F   UNL A   1      42.618  29.351  29.220  1.00  0.00    -0.206 F 
ATOM     48  C   UNL A   1      40.715  26.595  27.870  1.00  0.00     0.060 A 
BRANCH  48  49
ATOM     49  S   UNL A   1      40.736  25.473  26.456  1.00  0.00     0.124 S 
ATOM     50  O   UNL A   1      39.340  25.050  26.400  1.00  0.00    -0.237 OA
ATOM     51  O   UNL A   1      41.175  26.347  25.372  1.00  0.00    -0.237 OA
ATOM     52  O   UNL A   1      41.689  24.442  26.852  1.00  0.00    -0.744 OA
ENDBRANCH  48  49
ENDBRANCH  27  41
BRANCH  28  53
ATOM     53  C   UNL A   1      40.739  34.131  38.418  1.00  0.00     0.058 A 
ATOM     54  C   UNL A   1      39.932  33.793  39.512  1.00  0.00     0.135 A 
ATOM     55  C   UNL A   1      41.559  35.268  38.541  1.00  0.00     0.135 A 
ATOM     56  F   UNL A   1      39.128  32.722  39.446  1.00  0.00    -0.206 F 
ATOM     57  C   UNL A   1      39.939  34.546  40.684  1.00  0.00     0.059 A 
ATOM     58  C   UNL A   1      41.604  36.020  39.710  1.00  0.00     0.059 A 
ATOM     59  F   UNL A   1      42.362  35.632  37.529  1.00  0.00    -0.206 F 
ATOM     60  C   UNL A   1      40.787  35.653  40.778  1.00  0.00     0.060 A 
BRANCH  60  61
ATOM     61  S   UNL A   1      40.840  36.577  42.328  1.00  0.00     0.124 S 
ATOM     62  O   UNL A   1      40.812  35.502  43.313  1.00  0.00    -0.237 OA
ATOM     63  O   UNL A   1      42.101  37.301  42.207  1.00  0.00    -0.237 OA
ATOM     64  O   UNL A   1      39.641  37.408  42.268  1.00  0.00    -0.744 OA
ENDBRANCH  60  61
ENDBRANCH  28  53
BRANCH  40  65
ATOM     65  C   UNL A   1      44.498  28.613  36.280  1.00  0.00     0.058 A 
ATOM     66  C   UNL A   1      45.811  29.089  36.162  1.00  0.00     0.135 A 
ATOM     67  C   UNL A   1      44.266  27.486  37.084  1.00  0.00     0.135 A 
ATOM     68  F   UNL A   1      46.078  30.158  35.396  1.00  0.00    -0.206 F 
ATOM     69  C   UNL A   1      46.861  28.468  36.826  1.00  0.00     0.059 A 
ATOM     70  C   UNL A   1      45.296  26.870  37.782  1.00  0.00     0.059 A 
ATOM     71  F   UNL A   1      43.021  27.006  37.233  1.00  0.00    -0.206 F 
ATOM     72  C   UNL A   1      46.591  27.366  37.642  1.00  0.00     0.060 A 
BRANCH  72  73
ATOM     73  S   UNL A   1      47.950  26.623  38.563  1.00  0.00     0.124 S 
ATOM     74  O   UNL A   1      47.345  26.432  39.877  1.00  0.00    -0.237 OA
ATOM     75  O   UNL A   1      48.212  25.405  37.802  1.00  0.00    -0.237 OA
ATOM     76  O   UNL A   1      49.000  27.635  38.496  1.00  0.00    -0.744 OA
ENDBRANCH  72  73
ENDBRANCH  40  65
ENDBRANCH  14  15
ENDBRANCH   7   9
ENDBRANCH   6   7
ENDBRANCH   5   6
ENDBRANCH   4   5
ENDBRANCH   3   4
ENDBRANCH   2   3
ENDBRANCH   1   2
BRANCH   1  77
ATOM     77  O   UNL A   1      34.629  32.027  28.855  1.00  0.00    -0.377 OA
BRANCH  77  78
ATOM     78  C   UNL A   1      33.746  31.760  27.778  1.00  0.00     0.188 C 
BRANCH  78  79
ATOM     79  C   UNL A   1      33.253  30.317  27.537  1.00  0.00     0.188 C 
BRANCH  79  80
ATOM     80  O   UNL A   1      34.266  29.344  27.638  1.00  0.00    -0.376 OA
BRANCH  80  81
ATOM     81  C   UNL A   1      34.606  28.576  26.492  1.00  0.00     0.202 C 
BRANCH  81  82
ATOM     82  C   UNL A   1      33.779  28.585  25.182  1.00  0.00     0.261 C 
BRANCH  82  83
ATOM     83  O   UNL A   1      33.650  27.343  24.474  1.00  0.00    -0.463 OA
BRANCH  83  84
ATOM     84  C   UNL A   1      32.558  27.144  23.695  1.00  0.00     0.312 C 
ATOM     85  O   UNL A   1      32.257  27.847  22.733  1.00  0.00    -0.252 OA
BRANCH  84  86
ATOM     86  C   UNL A   1      31.866  25.843  24.081  1.00  0.00     0.143 C 
ATOM     87  C   UNL A   1      32.881  24.811  24.635  1.00  0.00     0.124 C 
ATOM     88  C   UNL A   1      31.294  25.130  22.869  1.00  0.00     0.133 C 
ATOM     89  C   UNL A   1      32.723  23.674  23.610  1.00  0.00     0.132 C 
ATOM     90  C   UNL A   1      30.382  23.993  23.353  1.00  0.00     0.036 C 
ATOM     91  O   UNL A   1      32.444  24.402  22.390  1.00  0.00    -0.373 OA
ATOM     92  C   UNL A   1      31.400  22.917  23.743  1.00  0.00     0.035 C 
BRANCH  87  93
ATOM     93  C   UNL A   1      32.632  24.246  26.034  1.00  0.00     0.231 C 
ATOM     94  O   UNL A   1      31.704  24.641  26.741  1.00  0.00    -0.274 OA
ATOM     95  N   UNL A   1      33.314  23.137  26.457  1.00  0.00    -0.326 N 
ATOM     96  H   UNL A   1      32.869  22.631  27.176  1.00  0.00     0.169 HD
BRANCH  95  97
ATOM     97  C   UNL A   1      34.538  22.599  26.039  1.00  0.00     0.044 A 
ATOM     98  C   UNL A   1      35.739  23.313  26.109  1.00  0.00     0.029 A 
ATOM     99  C   UNL A   1      34.556  21.264  25.625  1.00  0.00     0.068 A 
ATOM    100  C   UNL A   1      36.939  22.718  25.708  1.00  0.00     0.044 A 
ATOM    101  C   UNL A   1      35.750  20.691  25.195  1.00  0.00     0.160 A 
ATOM    102  C   UNL A   1      36.935  21.414  25.232  1.00  0.00     0.158 A 
ATOM    103  F   UNL A   1      35.741  19.431  24.736  1.00  0.00    -0.204 F 
ATOM    104  F   UNL A   1      38.079  20.856  24.817  1.00  0.00    -0.204 F 
ENDBRANCH  95  97
ENDBRANCH  87  93
ENDBRANCH  84  86
ENDBRANCH  83  84
ENDBRANCH  82  83
ENDBRANCH  81  82
ENDBRANCH  80  81
ENDBRANCH  79  80
ENDBRANCH  78  79
ENDBRANCH  77  78
ENDBRANCH   1  77
TORSDOF 25
ENDMDL
