MODEL 1
REMARK VINA RESULT:      -7.9      0.000      0.000
REMARK SMILES CSCCC(=O)N1[C@H](C)CCC[C@@H]1C(=O)OCCOCCOCCOCCOC(=O)c1ccc(-c2c3nc(c(-c4c(F)cc(S(=O)(=O)[O-])cc4F)c4ccc([nH]4)c(-c4c(F)cc(S(=O)(=O)[O-])cc4F)c4nc(c(-c5c(F)cc(S(=O)(=O)[O-])cc5F)c5ccc2[nH]5)C=C4)C=C3)cc1
REMARK SMILES IDX 21 1 20 2 19 3 18 4 17 5 16 6 14 7 15 8 13 9 7 10 8 11 9 12
REMARK SMILES IDX 10 13 12 14 11 15 5 16 6 17 4 18 3 19 2 20 1 21 22 22 23 23
REMARK SMILES IDX 24 24 25 25 26 26 27 27 28 28 29 29 30 30 31 31 32 32 96 33
REMARK SMILES IDX 33 34 95 35 34 36 35 37 36 38 89 39 37 40 94 41 88 42 90 43
REMARK SMILES IDX 38 44 93 45 87 46 86 47 39 49 73 50 52 51 72 52 53 53 56 54
REMARK SMILES IDX 71 55 91 56 54 57 55 58 70 60 92 61 57 62 40 63 41 64 50 65
REMARK SMILES IDX 42 66 43 67 49 68 51 69 44 70 45 71 46 72 47 73 48 74 74 75
REMARK SMILES IDX 75 76 84 77 76 78 77 79 83 80 85 81 78 82 79 83 80 84 81 85
REMARK SMILES IDX 82 86 58 87 59 88 68 89 60 90 61 91 67 92 69 93 62 94 63 95
REMARK SMILES IDX 64 96 65 97 66 98
REMARK H PARENT 90 48 56 59
REMARK Flexibility Score: inf
ROOT
ATOM      1  C   UNL A   1      34.663  29.929  27.842  1.00  0.00     0.188 C 
ENDROOT
BRANCH   1   2
ATOM      2  C   UNL A   1      34.767  28.985  26.633  1.00  0.00     0.188 C 
BRANCH   2   3
ATOM      3  O   UNL A   1      34.146  29.300  25.399  1.00  0.00    -0.376 OA
BRANCH   3   4
ATOM      4  C   UNL A   1      34.447  28.566  24.221  1.00  0.00     0.202 C 
BRANCH   4   5
ATOM      5  C   UNL A   1      33.453  28.481  23.065  1.00  0.00     0.261 C 
BRANCH   5   6
ATOM      6  O   UNL A   1      32.102  28.853  23.391  1.00  0.00    -0.462 OA
BRANCH   6   7
ATOM      7  C   UNL A   1      31.466  28.133  24.346  1.00  0.00     0.328 C 
ATOM      8  O   UNL A   1      30.639  28.615  25.117  1.00  0.00    -0.250 OA
BRANCH   7   9
ATOM      9  C   UNL A   1      32.036  26.711  24.529  1.00  0.00     0.195 C 
ATOM     10  N   UNL A   1      31.148  25.858  23.744  1.00  0.00    -0.326 N 
ATOM     11  C   UNL A   1      29.841  25.555  24.354  1.00  0.00     0.083 C 
ATOM     12  C   UNL A   1      28.656  26.361  23.835  1.00  0.00     0.031 C 
ATOM     13  C   UNL A   1      29.886  25.540  25.898  1.00  0.00     0.025 C 
ATOM     14  C   UNL A   1      32.348  26.044  25.876  1.00  0.00     0.037 C 
ATOM     15  C   UNL A   1      31.256  25.110  26.394  1.00  0.00     0.005 C 
BRANCH  10  16
ATOM     16  C   UNL A   1      31.673  25.249  22.620  1.00  0.00     0.224 C 
ATOM     17  O   UNL A   1      31.802  25.856  21.553  1.00  0.00    -0.275 OA
BRANCH  16  18
ATOM     18  C   UNL A   1      32.019  23.779  22.680  1.00  0.00     0.111 C 
BRANCH  18  19
ATOM     19  C   UNL A   1      33.486  23.452  22.436  1.00  0.00     0.079 C 
BRANCH  19  20
ATOM     20  S   UNL A   1      34.602  23.774  23.852  1.00  0.00    -0.165 SA
ATOM     21  C   UNL A   1      35.996  22.672  23.448  1.00  0.00     0.085 C 
ENDBRANCH  19  20
ENDBRANCH  18  19
ENDBRANCH  16  18
ENDBRANCH  10  16
ENDBRANCH   7   9
ENDBRANCH   6   7
ENDBRANCH   5   6
ENDBRANCH   4   5
ENDBRANCH   3   4
ENDBRANCH   2   3
ENDBRANCH   1   2
BRANCH   1  22
ATOM     22  O   UNL A   1      34.688  31.315  27.558  1.00  0.00    -0.377 OA
BRANCH  22  23
ATOM     23  C   UNL A   1      34.048  32.203  28.470  1.00  0.00     0.188 C 
BRANCH  23  24
ATOM     24  C   UNL A   1      33.785  33.650  28.014  1.00  0.00     0.188 C 
BRANCH  24  25
ATOM     25  O   UNL A   1      34.357  34.634  28.860  1.00  0.00    -0.376 OA
BRANCH  25  26
ATOM     26  C   UNL A   1      35.008  34.236  30.057  1.00  0.00     0.202 C 
BRANCH  26  27
ATOM     27  C   UNL A   1      36.500  33.861  30.014  1.00  0.00     0.261 C 
BRANCH  27  28
ATOM     28  O   UNL A   1      37.016  33.077  31.101  1.00  0.00    -0.460 OA
BRANCH  28  29
ATOM     29  C   UNL A   1      36.654  31.785  31.201  1.00  0.00     0.338 C 
ATOM     30  O   UNL A   1      35.548  31.347  31.489  1.00  0.00    -0.246 OA
BRANCH  29  31
ATOM     31  C   UNL A   1      37.777  30.967  30.708  1.00  0.00     0.060 A 
ATOM     32  C   UNL A   1      38.655  30.372  31.625  1.00  0.00     0.016 A 
ATOM     33  C   UNL A   1      37.972  30.810  29.334  1.00  0.00     0.016 A 
ATOM     34  C   UNL A   1      39.767  29.664  31.168  1.00  0.00     0.010 A 
ATOM     35  C   UNL A   1      39.098  30.125  28.878  1.00  0.00     0.010 A 
ATOM     36  C   UNL A   1      40.023  29.592  29.794  1.00  0.00    -0.014 A 
BRANCH  36  37
ATOM     37  C   UNL A   1      41.365  29.196  29.310  1.00  0.00     0.031 A 
ATOM     38  C   UNL A   1      42.420  30.267  29.227  1.00  0.00     0.074 A 
ATOM     39  C   UNL A   1      41.641  27.934  28.938  1.00  0.00     0.049 A 
ATOM     40  N   UNL A   1      43.618  30.216  28.710  1.00  0.00    -0.248 NA
ATOM     41  C   UNL A   1      42.066  31.578  29.799  1.00  0.00     0.031 C 
ATOM     42  C   UNL A   1      40.721  26.802  29.033  1.00  0.00     0.029 A 
ATOM     43  N   UNL A   1      42.779  27.400  28.387  1.00  0.00    -0.354 N 
ATOM     44  C   UNL A   1      44.151  31.490  28.873  1.00  0.00     0.074 A 
ATOM     45  C   UNL A   1      43.141  32.298  29.517  1.00  0.00     0.031 C 
ATOM     46  C   UNL A   1      41.324  25.710  28.531  1.00  0.00     0.029 A 
ATOM     47  C   UNL A   1      42.653  26.076  28.041  1.00  0.00     0.049 A 
ATOM     48  H   UNL A   1      43.605  27.917  28.251  1.00  0.00     0.167 HD
ATOM     49  C   UNL A   1      45.374  31.944  28.514  1.00  0.00     0.037 A 
ATOM     50  C   UNL A   1      43.502  25.268  27.374  1.00  0.00     0.037 A 
ATOM     51  C   UNL A   1      46.372  31.128  27.877  1.00  0.00     0.049 A 
ATOM     52  C   UNL A   1      44.832  25.815  26.915  1.00  0.00     0.074 A 
ATOM     53  C   UNL A   1      47.650  31.483  27.485  1.00  0.00     0.029 A 
ATOM     54  N   UNL A   1      46.203  29.795  27.530  1.00  0.00    -0.354 N 
ATOM     55  N   UNL A   1      45.330  27.019  27.077  1.00  0.00    -0.248 NA
ATOM     56  C   UNL A   1      45.716  24.896  26.185  1.00  0.00     0.031 C 
ATOM     57  C   UNL A   1      48.231  30.384  26.847  1.00  0.00     0.029 A 
ATOM     58  C   UNL A   1      47.343  29.321  26.908  1.00  0.00     0.049 A 
ATOM     59  H   UNL A   1      45.390  29.266  27.702  1.00  0.00     0.167 HD
ATOM     60  C   UNL A   1      46.601  26.987  26.511  1.00  0.00     0.074 A 
ATOM     61  C   UNL A   1      46.794  25.647  25.999  1.00  0.00     0.031 C 
ATOM     62  C   UNL A   1      47.528  27.973  26.429  1.00  0.00     0.037 A 
BRANCH  49  63
ATOM     63  C   UNL A   1      45.688  33.393  28.766  1.00  0.00     0.058 A 
ATOM     64  C   UNL A   1      45.423  34.389  27.814  1.00  0.00     0.135 A 
ATOM     65  C   UNL A   1      46.225  33.793  30.001  1.00  0.00     0.135 A 
ATOM     66  F   UNL A   1      44.932  34.060  26.608  1.00  0.00    -0.206 F 
ATOM     67  C   UNL A   1      45.695  35.729  28.069  1.00  0.00     0.059 A 
ATOM     68  C   UNL A   1      46.476  35.131  30.289  1.00  0.00     0.059 A 
ATOM     69  F   UNL A   1      46.506  32.880  30.944  1.00  0.00    -0.206 F 
ATOM     70  C   UNL A   1      46.218  36.090  29.313  1.00  0.00     0.060 A 
BRANCH  70  71
ATOM     71  S   UNL A   1      46.544  37.836  29.636  1.00  0.00     0.124 S 
ATOM     72  O   UNL A   1      46.211  38.437  28.349  1.00  0.00    -0.237 OA
ATOM     73  O   UNL A   1      45.622  38.126  30.729  1.00  0.00    -0.237 OA
ATOM     74  O   UNL A   1      47.960  37.858  29.991  1.00  0.00    -0.744 OA
ENDBRANCH  70  71
ENDBRANCH  49  63
BRANCH  50  75
ATOM     75  C   UNL A   1      43.120  23.859  27.081  1.00  0.00     0.058 A 
ATOM     76  C   UNL A   1      42.260  23.549  26.018  1.00  0.00     0.135 A 
ATOM     77  C   UNL A   1      43.596  22.797  27.866  1.00  0.00     0.135 A 
ATOM     78  F   UNL A   1      41.767  24.529  25.245  1.00  0.00    -0.206 F 
ATOM     79  C   UNL A   1      41.867  22.240  25.755  1.00  0.00     0.059 A 
ATOM     80  C   UNL A   1      43.243  21.476  27.604  1.00  0.00     0.059 A 
ATOM     81  F   UNL A   1      44.430  23.036  28.890  1.00  0.00    -0.206 F 
ATOM     82  C   UNL A   1      42.368  21.209  26.553  1.00  0.00     0.060 A 
BRANCH  82  83
ATOM     83  S   UNL A   1      41.884  19.511  26.175  1.00  0.00     0.124 S 
ATOM     84  O   UNL A   1      42.253  18.820  27.405  1.00  0.00    -0.237 OA
ATOM     85  O   UNL A   1      40.453  19.652  25.925  1.00  0.00    -0.237 OA
ATOM     86  O   UNL A   1      42.691  19.187  25.002  1.00  0.00    -0.744 OA
ENDBRANCH  82  83
ENDBRANCH  50  75
BRANCH  62  87
ATOM     87  C   UNL A   1      48.869  27.635  25.834  1.00  0.00     0.058 A 
ATOM     88  C   UNL A   1      49.091  27.623  24.448  1.00  0.00     0.135 A 
ATOM     89  C   UNL A   1      49.971  27.405  26.676  1.00  0.00     0.135 A 
ATOM     90  F   UNL A   1      48.073  27.832  23.599  1.00  0.00    -0.206 F 
ATOM     91  C   UNL A   1      50.354  27.380  23.918  1.00  0.00     0.059 A 
ATOM     92  C   UNL A   1      51.248  27.192  26.169  1.00  0.00     0.059 A 
ATOM     93  F   UNL A   1      49.817  27.416  28.010  1.00  0.00    -0.206 F 
ATOM     94  C   UNL A   1      51.428  27.174  24.787  1.00  0.00     0.060 A 
BRANCH  94  95
ATOM     95  S   UNL A   1      53.072  26.915  24.086  1.00  0.00     0.124 S 
ATOM     96  O   UNL A   1      53.927  27.141  25.246  1.00  0.00    -0.237 OA
ATOM     97  O   UNL A   1      52.994  25.537  23.612  1.00  0.00    -0.237 OA
ATOM     98  O   UNL A   1      53.157  27.927  23.036  1.00  0.00    -0.744 OA
ENDBRANCH  94  95
ENDBRANCH  62  87
ENDBRANCH  36  37
ENDBRANCH  29  31
ENDBRANCH  28  29
ENDBRANCH  27  28
ENDBRANCH  26  27
ENDBRANCH  25  26
ENDBRANCH  24  25
ENDBRANCH  23  24
ENDBRANCH  22  23
ENDBRANCH   1  22
TORSDOF 27
ENDMDL
MODEL 2
REMARK VINA RESULT:      -7.4      4.405     10.567
REMARK SMILES CSCCC(=O)N1[C@H](C)CCC[C@@H]1C(=O)OCCOCCOCCOCCOC(=O)c1ccc(-c2c3nc(c(-c4c(F)cc(S(=O)(=O)[O-])cc4F)c4ccc([nH]4)c(-c4c(F)cc(S(=O)(=O)[O-])cc4F)c4nc(c(-c5c(F)cc(S(=O)(=O)[O-])cc5F)c5ccc2[nH]5)C=C4)C=C3)cc1
REMARK SMILES IDX 21 1 20 2 19 3 18 4 17 5 16 6 14 7 15 8 13 9 7 10 8 11 9 12
REMARK SMILES IDX 10 13 12 14 11 15 5 16 6 17 4 18 3 19 2 20 1 21 22 22 23 23
REMARK SMILES IDX 24 24 25 25 26 26 27 27 28 28 29 29 30 30 31 31 32 32 96 33
REMARK SMILES IDX 33 34 95 35 34 36 35 37 36 38 89 39 37 40 94 41 88 42 90 43
REMARK SMILES IDX 38 44 93 45 87 46 86 47 39 49 73 50 52 51 72 52 53 53 56 54
REMARK SMILES IDX 71 55 91 56 54 57 55 58 70 60 92 61 57 62 40 63 41 64 50 65
REMARK SMILES IDX 42 66 43 67 49 68 51 69 44 70 45 71 46 72 47 73 48 74 74 75
REMARK SMILES IDX 75 76 84 77 76 78 77 79 83 80 85 81 78 82 79 83 80 84 81 85
REMARK SMILES IDX 82 86 58 87 59 88 68 89 60 90 61 91 67 92 69 93 62 94 63 95
REMARK SMILES IDX 64 96 65 97 66 98
REMARK H PARENT 90 48 56 59
REMARK Flexibility Score: inf
ROOT
ATOM      1  C   UNL A   1      43.447  34.879  29.309  1.00  0.00     0.188 C 
ENDROOT
BRANCH   1   2
ATOM      2  C   UNL A   1      44.085  34.911  30.707  1.00  0.00     0.188 C 
BRANCH   2   3
ATOM      3  O   UNL A   1      43.307  34.707  31.874  1.00  0.00    -0.376 OA
BRANCH   3   4
ATOM      4  C   UNL A   1      42.725  33.441  32.153  1.00  0.00     0.202 C 
BRANCH   4   5
ATOM      5  C   UNL A   1      41.256  33.159  31.845  1.00  0.00     0.261 C 
BRANCH   5   6
ATOM      6  O   UNL A   1      40.650  32.129  32.645  1.00  0.00    -0.462 OA
BRANCH   6   7
ATOM      7  C   UNL A   1      40.380  32.418  33.940  1.00  0.00     0.328 C 
ATOM      8  O   UNL A   1      41.209  32.318  34.842  1.00  0.00    -0.250 OA
BRANCH   7   9
ATOM      9  C   UNL A   1      38.882  32.665  34.218  1.00  0.00     0.195 C 
ATOM     10  N   UNL A   1      38.699  34.095  33.983  1.00  0.00    -0.326 N 
ATOM     11  C   UNL A   1      39.180  34.990  35.051  1.00  0.00     0.083 C 
ATOM     12  C   UNL A   1      40.526  35.662  34.806  1.00  0.00     0.031 C 
ATOM     13  C   UNL A   1      39.113  34.344  36.453  1.00  0.00     0.025 C 
ATOM     14  C   UNL A   1      38.131  32.241  35.488  1.00  0.00     0.037 C 
ATOM     15  C   UNL A   1      37.973  33.344  36.533  1.00  0.00     0.005 C 
BRANCH  10  16
ATOM     16  C   UNL A   1      37.921  34.473  32.905  1.00  0.00     0.224 C 
ATOM     17  O   UNL A   1      38.390  34.567  31.767  1.00  0.00    -0.275 OA
BRANCH  16  18
ATOM     18  C   UNL A   1      36.480  34.860  33.145  1.00  0.00     0.111 C 
BRANCH  18  19
ATOM     19  C   UNL A   1      35.718  33.947  34.097  1.00  0.00     0.079 C 
BRANCH  19  20
ATOM     20  S   UNL A   1      34.070  33.409  33.508  1.00  0.00    -0.165 SA
ATOM     21  C   UNL A   1      34.497  32.716  31.878  1.00  0.00     0.085 C 
ENDBRANCH  19  20
ENDBRANCH  18  19
ENDBRANCH  16  18
ENDBRANCH  10  16
ENDBRANCH   7   9
ENDBRANCH   6   7
ENDBRANCH   5   6
ENDBRANCH   4   5
ENDBRANCH   3   4
ENDBRANCH   2   3
ENDBRANCH   1   2
BRANCH   1  22
ATOM     22  O   UNL A   1      42.480  35.876  29.038  1.00  0.00    -0.377 OA
BRANCH  22  23
ATOM     23  C   UNL A   1      42.930  37.208  28.807  1.00  0.00     0.188 C 
BRANCH  23  24
ATOM     24  C   UNL A   1      42.853  37.764  27.373  1.00  0.00     0.188 C 
BRANCH  24  25
ATOM     25  O   UNL A   1      44.050  37.604  26.629  1.00  0.00    -0.376 OA
BRANCH  25  26
ATOM     26  C   UNL A   1      45.051  38.608  26.688  1.00  0.00     0.202 C 
BRANCH  26  27
ATOM     27  C   UNL A   1      46.149  38.516  27.762  1.00  0.00     0.261 C 
BRANCH  27  28
ATOM     28  O   UNL A   1      46.975  37.341  27.765  1.00  0.00    -0.460 OA
BRANCH  28  29
ATOM     29  C   UNL A   1      47.146  36.668  28.918  1.00  0.00     0.338 C 
ATOM     30  O   UNL A   1      47.172  37.134  30.049  1.00  0.00    -0.246 OA
BRANCH  29  31
ATOM     31  C   UNL A   1      47.100  35.229  28.605  1.00  0.00     0.060 A 
ATOM     32  C   UNL A   1      46.622  34.807  27.355  1.00  0.00     0.016 A 
ATOM     33  C   UNL A   1      47.509  34.296  29.559  1.00  0.00     0.016 A 
ATOM     34  C   UNL A   1      46.498  33.445  27.078  1.00  0.00     0.010 A 
ATOM     35  C   UNL A   1      47.360  32.935  29.292  1.00  0.00     0.010 A 
ATOM     36  C   UNL A   1      46.810  32.508  28.070  1.00  0.00    -0.014 A 
BRANCH  36  37
ATOM     37  C   UNL A   1      46.331  31.112  27.947  1.00  0.00     0.031 A 
ATOM     38  C   UNL A   1      47.325  30.072  27.501  1.00  0.00     0.074 A 
ATOM     39  C   UNL A   1      45.056  30.775  28.203  1.00  0.00     0.049 A 
ATOM     40  N   UNL A   1      47.131  28.821  27.182  1.00  0.00    -0.248 NA
ATOM     41  C   UNL A   1      48.727  30.511  27.394  1.00  0.00     0.031 C 
ATOM     42  C   UNL A   1      44.022  31.682  28.699  1.00  0.00     0.029 A 
ATOM     43  N   UNL A   1      44.410  29.572  28.062  1.00  0.00    -0.354 N 
ATOM     44  C   UNL A   1      48.379  28.331  26.813  1.00  0.00     0.074 A 
ATOM     45  C   UNL A   1      49.319  29.422  26.929  1.00  0.00     0.031 C 
ATOM     46  C   UNL A   1      42.863  31.007  28.797  1.00  0.00     0.029 A 
ATOM     47  C   UNL A   1      43.064  29.636  28.329  1.00  0.00     0.049 A 
ATOM     48  H   UNL A   1      44.869  28.744  27.793  1.00  0.00     0.167 HD
ATOM     49  C   UNL A   1      48.708  27.081  26.413  1.00  0.00     0.037 A 
ATOM     50  C   UNL A   1      42.103  28.701  28.177  1.00  0.00     0.037 A 
ATOM     51  C   UNL A   1      47.764  26.002  26.306  1.00  0.00     0.049 A 
ATOM     52  C   UNL A   1      42.480  27.336  27.657  1.00  0.00     0.074 A 
ATOM     53  C   UNL A   1      47.995  24.693  25.926  1.00  0.00     0.029 A 
ATOM     54  N   UNL A   1      46.406  26.109  26.572  1.00  0.00    -0.354 N 
ATOM     55  N   UNL A   1      43.662  26.879  27.316  1.00  0.00    -0.248 NA
ATOM     56  C   UNL A   1      41.394  26.357  27.501  1.00  0.00     0.031 C 
ATOM     57  C   UNL A   1      46.768  24.024  25.903  1.00  0.00     0.029 A 
ATOM     58  C   UNL A   1      45.784  24.896  26.341  1.00  0.00     0.049 A 
ATOM     59  H   UNL A   1      45.954  26.928  26.880  1.00  0.00     0.167 HD
ATOM     60  C   UNL A   1      43.469  25.549  26.951  1.00  0.00     0.074 A 
ATOM     61  C   UNL A   1      42.056  25.277  27.109  1.00  0.00     0.031 C 
ATOM     62  C   UNL A   1      44.378  24.635  26.532  1.00  0.00     0.037 A 
BRANCH  49  63
ATOM     63  C   UNL A   1      50.138  26.821  26.025  1.00  0.00     0.058 A 
ATOM     64  C   UNL A   1      50.587  26.953  24.702  1.00  0.00     0.135 A 
ATOM     65  C   UNL A   1      51.083  26.476  27.005  1.00  0.00     0.135 A 
ATOM     66  F   UNL A   1      49.722  27.257  23.721  1.00  0.00    -0.206 F 
ATOM     67  C   UNL A   1      51.917  26.734  24.360  1.00  0.00     0.059 A 
ATOM     68  C   UNL A   1      52.424  26.283  26.692  1.00  0.00     0.059 A 
ATOM     69  F   UNL A   1      50.706  26.329  28.286  1.00  0.00    -0.206 F 
ATOM     70  C   UNL A   1      52.830  26.404  25.364  1.00  0.00     0.060 A 
BRANCH  70  71
ATOM     71  S   UNL A   1      54.556  26.146  24.907  1.00  0.00     0.124 S 
ATOM     72  O   UNL A   1      54.537  26.486  23.489  1.00  0.00    -0.237 OA
ATOM     73  O   UNL A   1      55.251  27.090  25.776  1.00  0.00    -0.237 OA
ATOM     74  O   UNL A   1      54.783  24.736  25.211  1.00  0.00    -0.744 OA
ENDBRANCH  70  71
ENDBRANCH  49  63
BRANCH  50  75
ATOM     75  C   UNL A   1      40.686  29.024  28.504  1.00  0.00     0.058 A 
ATOM     76  C   UNL A   1      39.738  29.222  27.492  1.00  0.00     0.135 A 
ATOM     77  C   UNL A   1      40.257  29.155  29.834  1.00  0.00     0.135 A 
ATOM     78  F   UNL A   1      40.100  29.121  26.203  1.00  0.00    -0.206 F 
ATOM     79  C   UNL A   1      38.419  29.558  27.782  1.00  0.00     0.059 A 
ATOM     80  C   UNL A   1      38.937  29.460  30.152  1.00  0.00     0.059 A 
ATOM     81  F   UNL A   1      41.122  28.966  30.844  1.00  0.00    -0.206 F 
ATOM     82  C   UNL A   1      38.027  29.671  29.118  1.00  0.00     0.060 A 
BRANCH  82  83
ATOM     83  S   UNL A   1      36.304  30.068  29.483  1.00  0.00     0.124 S 
ATOM     84  O   UNL A   1      36.305  31.521  29.362  1.00  0.00    -0.237 OA
ATOM     85  O   UNL A   1      35.597  29.338  28.435  1.00  0.00    -0.237 OA
ATOM     86  O   UNL A   1      36.120  29.547  30.834  1.00  0.00    -0.744 OA
ENDBRANCH  82  83
ENDBRANCH  50  75
BRANCH  62  87
ATOM     87  C   UNL A   1      43.902  23.228  26.284  1.00  0.00     0.058 A 
ATOM     88  C   UNL A   1      44.002  22.616  25.025  1.00  0.00     0.135 A 
ATOM     89  C   UNL A   1      43.419  22.454  27.353  1.00  0.00     0.135 A 
ATOM     90  F   UNL A   1      44.452  23.311  23.969  1.00  0.00    -0.206 F 
ATOM     91  C   UNL A   1      43.624  21.290  24.832  1.00  0.00     0.059 A 
ATOM     92  C   UNL A   1      43.067  21.119  27.190  1.00  0.00     0.059 A 
ATOM     93  F   UNL A   1      43.314  22.987  28.581  1.00  0.00    -0.206 F 
ATOM     94  C   UNL A   1      43.166  20.548  25.922  1.00  0.00     0.060 A 
BRANCH  94  95
ATOM     95  S   UNL A   1      42.733  18.813  25.668  1.00  0.00     0.124 S 
ATOM     96  O   UNL A   1      41.296  18.828  25.917  1.00  0.00    -0.237 OA
ATOM     97  O   UNL A   1      43.135  18.593  24.282  1.00  0.00    -0.237 OA
ATOM     98  O   UNL A   1      43.537  18.111  26.665  1.00  0.00    -0.744 OA
ENDBRANCH  94  95
ENDBRANCH  62  87
ENDBRANCH  36  37
ENDBRANCH  29  31
ENDBRANCH  28  29
ENDBRANCH  27  28
ENDBRANCH  26  27
ENDBRANCH  25  26
ENDBRANCH  24  25
ENDBRANCH  23  24
ENDBRANCH  22  23
ENDBRANCH   1  22
TORSDOF 27
ENDMDL
MODEL 3
REMARK VINA RESULT:      -7.4      4.538     11.079
REMARK SMILES CSCCC(=O)N1[C@H](C)CCC[C@@H]1C(=O)OCCOCCOCCOCCOC(=O)c1ccc(-c2c3nc(c(-c4c(F)cc(S(=O)(=O)[O-])cc4F)c4ccc([nH]4)c(-c4c(F)cc(S(=O)(=O)[O-])cc4F)c4nc(c(-c5c(F)cc(S(=O)(=O)[O-])cc5F)c5ccc2[nH]5)C=C4)C=C3)cc1
REMARK SMILES IDX 21 1 20 2 19 3 18 4 17 5 16 6 14 7 15 8 13 9 7 10 8 11 9 12
REMARK SMILES IDX 10 13 12 14 11 15 5 16 6 17 4 18 3 19 2 20 1 21 22 22 23 23
REMARK SMILES IDX 24 24 25 25 26 26 27 27 28 28 29 29 30 30 31 31 32 32 96 33
REMARK SMILES IDX 33 34 95 35 34 36 35 37 36 38 89 39 37 40 94 41 88 42 90 43
REMARK SMILES IDX 38 44 93 45 87 46 86 47 39 49 73 50 52 51 72 52 53 53 56 54
REMARK SMILES IDX 71 55 91 56 54 57 55 58 70 60 92 61 57 62 40 63 41 64 50 65
REMARK SMILES IDX 42 66 43 67 49 68 51 69 44 70 45 71 46 72 47 73 48 74 74 75
REMARK SMILES IDX 75 76 84 77 76 78 77 79 83 80 85 81 78 82 79 83 80 84 81 85
REMARK SMILES IDX 82 86 58 87 59 88 68 89 60 90 61 91 67 92 69 93 62 94 63 95
REMARK SMILES IDX 64 96 65 97 66 98
REMARK H PARENT 90 48 56 59
REMARK Flexibility Score: inf
ROOT
ATOM      1  C   UNL A   1      43.322  35.272  29.152  1.00  0.00     0.188 C 
ENDROOT
BRANCH   1   2
ATOM      2  C   UNL A   1      43.468  35.270  30.683  1.00  0.00     0.188 C 
BRANCH   2   3
ATOM      3  O   UNL A   1      42.773  34.333  31.486  1.00  0.00    -0.376 OA
BRANCH   3   4
ATOM      4  C   UNL A   1      41.840  34.761  32.468  1.00  0.00     0.202 C 
BRANCH   4   5
ATOM      5  C   UNL A   1      42.262  34.984  33.919  1.00  0.00     0.261 C 
BRANCH   5   6
ATOM      6  O   UNL A   1      42.690  33.803  34.619  1.00  0.00    -0.462 OA
BRANCH   6   7
ATOM      7  C   UNL A   1      41.881  32.718  34.573  1.00  0.00     0.328 C 
ATOM      8  O   UNL A   1      40.653  32.789  34.576  1.00  0.00    -0.250 OA
BRANCH   7   9
ATOM      9  C   UNL A   1      42.632  31.381  34.743  1.00  0.00     0.195 C 
ATOM     10  N   UNL A   1      42.054  30.788  35.947  1.00  0.00    -0.326 N 
ATOM     11  C   UNL A   1      42.510  31.358  37.228  1.00  0.00     0.083 C 
ATOM     12  C   UNL A   1      41.559  32.343  37.898  1.00  0.00     0.031 C 
ATOM     13  C   UNL A   1      43.950  31.913  37.162  1.00  0.00     0.025 C 
ATOM     14  C   UNL A   1      44.158  31.214  34.757  1.00  0.00     0.037 C 
ATOM     15  C   UNL A   1      44.780  31.142  36.150  1.00  0.00     0.005 C 
BRANCH  10  16
ATOM     16  C   UNL A   1      41.310  29.633  35.799  1.00  0.00     0.224 C 
ATOM     17  O   UNL A   1      40.169  29.533  36.258  1.00  0.00    -0.275 OA
BRANCH  16  18
ATOM     18  C   UNL A   1      41.945  28.437  35.129  1.00  0.00     0.111 C 
BRANCH  18  19
ATOM     19  C   UNL A   1      42.466  27.367  36.080  1.00  0.00     0.079 C 
BRANCH  19  20
ATOM     20  S   UNL A   1      41.896  25.664  35.724  1.00  0.00    -0.165 SA
ATOM     21  C   UNL A   1      43.234  25.073  34.637  1.00  0.00     0.085 C 
ENDBRANCH  19  20
ENDBRANCH  18  19
ENDBRANCH  16  18
ENDBRANCH  10  16
ENDBRANCH   7   9
ENDBRANCH   6   7
ENDBRANCH   5   6
ENDBRANCH   4   5
ENDBRANCH   3   4
ENDBRANCH   2   3
ENDBRANCH   1   2
BRANCH   1  22
ATOM     22  O   UNL A   1      42.410  36.209  28.611  1.00  0.00    -0.377 OA
BRANCH  22  23
ATOM     23  C   UNL A   1      42.817  37.571  28.517  1.00  0.00     0.188 C 
BRANCH  23  24
ATOM     24  C   UNL A   1      43.137  38.141  27.123  1.00  0.00     0.188 C 
BRANCH  24  25
ATOM     25  O   UNL A   1      44.453  37.860  26.674  1.00  0.00    -0.376 OA
BRANCH  25  26
ATOM     26  C   UNL A   1      45.488  38.803  26.905  1.00  0.00     0.202 C 
BRANCH  26  27
ATOM     27  C   UNL A   1      46.457  38.586  28.081  1.00  0.00     0.261 C 
BRANCH  27  28
ATOM     28  O   UNL A   1      47.125  37.317  28.161  1.00  0.00    -0.460 OA
BRANCH  28  29
ATOM     29  C   UNL A   1      47.183  36.686  29.348  1.00  0.00     0.338 C 
ATOM     30  O   UNL A   1      47.139  37.195  30.460  1.00  0.00    -0.246 OA
BRANCH  29  31
ATOM     31  C   UNL A   1      47.112  35.237  29.087  1.00  0.00     0.060 A 
ATOM     32  C   UNL A   1      46.767  34.781  27.806  1.00  0.00     0.016 A 
ATOM     33  C   UNL A   1      47.364  34.331  30.119  1.00  0.00     0.016 A 
ATOM     34  C   UNL A   1      46.616  33.414  27.569  1.00  0.00     0.010 A 
ATOM     35  C   UNL A   1      47.188  32.967  29.888  1.00  0.00     0.010 A 
ATOM     36  C   UNL A   1      46.768  32.509  28.626  1.00  0.00    -0.014 A 
BRANCH  36  37
ATOM     37  C   UNL A   1      46.246  31.129  28.500  1.00  0.00     0.031 A 
ATOM     38  C   UNL A   1      47.208  30.059  28.056  1.00  0.00     0.074 A 
ATOM     39  C   UNL A   1      44.960  30.832  28.753  1.00  0.00     0.049 A 
ATOM     40  N   UNL A   1      46.976  28.815  27.734  1.00  0.00    -0.248 NA
ATOM     41  C   UNL A   1      48.623  30.454  27.952  1.00  0.00     0.031 C 
ATOM     42  C   UNL A   1      43.954  31.770  29.248  1.00  0.00     0.029 A 
ATOM     43  N   UNL A   1      44.277  29.649  28.609  1.00  0.00    -0.354 N 
ATOM     44  C   UNL A   1      48.209  28.287  27.368  1.00  0.00     0.074 A 
ATOM     45  C   UNL A   1      49.182  29.348  27.487  1.00  0.00     0.031 C 
ATOM     46  C   UNL A   1      42.774  31.131  29.342  1.00  0.00     0.029 A 
ATOM     47  C   UNL A   1      42.933  29.755  28.873  1.00  0.00     0.049 A 
ATOM     48  H   UNL A   1      44.711  28.807  28.339  1.00  0.00     0.167 HD
ATOM     49  C   UNL A   1      48.500  27.027  26.967  1.00  0.00     0.037 A 
ATOM     50  C   UNL A   1      41.944  28.851  28.717  1.00  0.00     0.037 A 
ATOM     51  C   UNL A   1      47.523  25.979  26.856  1.00  0.00     0.049 A 
ATOM     52  C   UNL A   1      42.280  27.475  28.196  1.00  0.00     0.074 A 
ATOM     53  C   UNL A   1      47.713  24.663  26.474  1.00  0.00     0.029 A 
ATOM     54  N   UNL A   1      46.168  26.128  27.119  1.00  0.00    -0.354 N 
ATOM     55  N   UNL A   1      43.448  26.982  27.857  1.00  0.00    -0.248 NA
ATOM     56  C   UNL A   1      41.164  26.531  28.037  1.00  0.00     0.031 C 
ATOM     57  C   UNL A   1      46.466  24.033  26.448  1.00  0.00     0.029 A 
ATOM     58  C   UNL A   1      45.509  24.935  26.885  1.00  0.00     0.049 A 
ATOM     59  H   UNL A   1      45.741  26.960  27.427  1.00  0.00     0.167 HD
ATOM     60  C   UNL A   1      43.214  25.659  27.490  1.00  0.00     0.074 A 
ATOM     61  C   UNL A   1      41.793  25.431  27.645  1.00  0.00     0.031 C 
ATOM     62  C   UNL A   1      44.095  24.717  27.072  1.00  0.00     0.037 A 
BRANCH  49  63
ATOM     63  C   UNL A   1      49.922  26.724  26.582  1.00  0.00     0.058 A 
ATOM     64  C   UNL A   1      50.373  26.825  25.256  1.00  0.00     0.135 A 
ATOM     65  C   UNL A   1      50.858  26.367  27.566  1.00  0.00     0.135 A 
ATOM     66  F   UNL A   1      49.515  27.138  24.272  1.00  0.00    -0.206 F 
ATOM     67  C   UNL A   1      51.696  26.565  24.917  1.00  0.00     0.059 A 
ATOM     68  C   UNL A   1      52.194  26.134  27.255  1.00  0.00     0.059 A 
ATOM     69  F   UNL A   1      50.479  26.249  28.849  1.00  0.00    -0.206 F 
ATOM     70  C   UNL A   1      52.601  26.225  25.926  1.00  0.00     0.060 A 
BRANCH  70  71
ATOM     71  S   UNL A   1      54.319  25.914  25.472  1.00  0.00     0.124 S 
ATOM     72  O   UNL A   1      54.214  24.624  24.798  1.00  0.00    -0.237 OA
ATOM     73  O   UNL A   1      54.625  27.054  24.614  1.00  0.00    -0.237 OA
ATOM     74  O   UNL A   1      55.014  25.895  26.756  1.00  0.00    -0.744 OA
ENDBRANCH  70  71
ENDBRANCH  49  63
BRANCH  50  75
ATOM     75  C   UNL A   1      40.538  29.217  29.042  1.00  0.00     0.058 A 
ATOM     76  C   UNL A   1      39.612  29.501  28.027  1.00  0.00     0.135 A 
ATOM     77  C   UNL A   1      40.095  29.305  30.371  1.00  0.00     0.135 A 
ATOM     78  F   UNL A   1      39.988  29.443  26.741  1.00  0.00    -0.206 F 
ATOM     79  C   UNL A   1      38.305  29.878  28.317  1.00  0.00     0.059 A 
ATOM     80  C   UNL A   1      38.785  29.650  30.686  1.00  0.00     0.059 A 
ATOM     81  F   UNL A   1      40.938  29.034  31.381  1.00  0.00    -0.206 F 
ATOM     82  C   UNL A   1      37.899  29.946  29.652  1.00  0.00     0.060 A 
BRANCH  82  83
ATOM     83  S   UNL A   1      36.188  30.397  30.013  1.00  0.00     0.124 S 
ATOM     84  O   UNL A   1      35.480  29.777  28.899  1.00  0.00    -0.237 OA
ATOM     85  O   UNL A   1      35.984  29.786  31.322  1.00  0.00    -0.237 OA
ATOM     86  O   UNL A   1      36.219  31.857  30.007  1.00  0.00    -0.744 OA
ENDBRANCH  82  83
ENDBRANCH  50  75
BRANCH  62  87
ATOM     87  C   UNL A   1      43.577  23.327  26.821  1.00  0.00     0.058 A 
ATOM     88  C   UNL A   1      43.493  22.780  25.531  1.00  0.00     0.135 A 
ATOM     89  C   UNL A   1      43.240  22.498  27.907  1.00  0.00     0.135 A 
ATOM     90  F   UNL A   1      43.798  23.529  24.460  1.00  0.00    -0.206 F 
ATOM     91  C   UNL A   1      43.080  21.468  25.325  1.00  0.00     0.059 A 
ATOM     92  C   UNL A   1      42.857  21.174  27.726  1.00  0.00     0.059 A 
ATOM     93  F   UNL A   1      43.313  22.967  29.162  1.00  0.00    -0.206 F 
ATOM     94  C   UNL A   1      42.772  20.670  26.429  1.00  0.00     0.060 A 
BRANCH  94  95
ATOM     95  S   UNL A   1      42.291  18.952  26.149  1.00  0.00     0.124 S 
ATOM     96  O   UNL A   1      40.898  19.098  25.742  1.00  0.00    -0.237 OA
ATOM     97  O   UNL A   1      43.219  18.538  25.101  1.00  0.00    -0.237 OA
ATOM     98  O   UNL A   1      42.504  18.322  27.449  1.00  0.00    -0.744 OA
ENDBRANCH  94  95
ENDBRANCH  62  87
ENDBRANCH  36  37
ENDBRANCH  29  31
ENDBRANCH  28  29
ENDBRANCH  27  28
ENDBRANCH  26  27
ENDBRANCH  25  26
ENDBRANCH  24  25
ENDBRANCH  23  24
ENDBRANCH  22  23
ENDBRANCH   1  22
TORSDOF 27
ENDMDL
