MODEL 1
REMARK VINA RESULT:      -9.8      0.000      0.000
REMARK SMILES O=C(OCCOCCOCCOCCOC(=O)[C@@H]1C[N@@H+](CCOc2ccc(F)cc2)C[C@H]1C1CC1)c1ccc(-c2c3nc(c(-c4c(F)cc(S(=O)(=O)[O-])cc4F)c4ccc([nH]4)c(-c4c(F)cc(S(=O)(=O)[O-])cc4F)c4nc(c(-c5c(F)cc(S(=O)(=O)[O-])cc5F)c5ccc2[nH]5)C=C4)C=C3)cc1
REMARK SMILES IDX 10 1 9 2 8 3 7 4 6 5 5 6 4 7 3 8 2 9 1 10 36 11 37 12 101 13
REMARK SMILES IDX 38 14 100 15 39 16 40 17 41 18 94 19 42 20 99 21 93 22 95 23
REMARK SMILES IDX 43 24 98 25 92 26 91 27 44 29 78 30 57 31 77 32 58 33 61 34
REMARK SMILES IDX 76 35 96 36 59 37 60 38 75 40 97 41 62 42 45 43 46 44 55 45
REMARK SMILES IDX 47 46 48 47 54 48 56 49 49 50 50 51 51 52 52 53 53 54 79 55
REMARK SMILES IDX 80 56 89 57 81 58 82 59 88 60 90 61 83 62 84 63 85 64 86 65
REMARK SMILES IDX 87 66 63 67 64 68 73 69 65 70 66 71 72 72 74 73 67 74 68 75
REMARK SMILES IDX 69 76 70 77 71 78 11 79 12 80 13 81 14 82 15 83 16 84 17 85
REMARK SMILES IDX 18 86 19 87 32 88 20 89 31 90 33 92 34 93 35 94 21 95 22 96
REMARK SMILES IDX 23 97 24 98 25 99 30 100 26 101 29 102 27 103 28 104
REMARK H PARENT 95 28 61 39 20 91
REMARK Flexibility Score: inf
ROOT
ATOM      1  C   UNL A   1      34.823  31.415  28.367  1.00  0.00     0.188 C 
ENDROOT
BRANCH   1   2
ATOM      2  O   UNL A   1      34.795  32.680  27.711  1.00  0.00    -0.377 OA
BRANCH   2   3
ATOM      3  C   UNL A   1      33.883  33.677  28.178  1.00  0.00     0.188 C 
BRANCH   3   4
ATOM      4  C   UNL A   1      34.285  34.612  29.329  1.00  0.00     0.188 C 
BRANCH   4   5
ATOM      5  O   UNL A   1      33.818  34.106  30.574  1.00  0.00    -0.376 OA
BRANCH   5   6
ATOM      6  C   UNL A   1      34.743  33.848  31.609  1.00  0.00     0.202 C 
BRANCH   6   7
ATOM      7  C   UNL A   1      35.195  32.392  31.726  1.00  0.00     0.261 C 
BRANCH   7   8
ATOM      8  O   UNL A   1      36.592  32.273  31.417  1.00  0.00    -0.460 OA
BRANCH   8   9
ATOM      9  C   UNL A   1      37.538  31.610  32.124  1.00  0.00     0.338 C 
ATOM     10  O   UNL A   1      37.406  31.515  33.343  1.00  0.00    -0.246 OA
BRANCH   9  11
ATOM     11  C   UNL A   1      38.721  30.953  31.493  1.00  0.00     0.060 A 
ATOM     12  C   UNL A   1      39.665  30.177  32.169  1.00  0.00     0.016 A 
ATOM     13  C   UNL A   1      38.844  31.078  30.101  1.00  0.00     0.016 A 
ATOM     14  C   UNL A   1      40.753  29.625  31.520  1.00  0.00     0.010 A 
ATOM     15  C   UNL A   1      39.921  30.499  29.428  1.00  0.00     0.010 A 
ATOM     16  C   UNL A   1      40.899  29.805  30.151  1.00  0.00    -0.014 A 
BRANCH  16  17
ATOM     17  C   UNL A   1      42.192  29.446  29.553  1.00  0.00     0.031 A 
ATOM     18  C   UNL A   1      42.318  28.070  28.975  1.00  0.00     0.074 A 
ATOM     19  C   UNL A   1      43.145  30.381  29.396  1.00  0.00     0.049 A 
ATOM     20  N   UNL A   1      43.368  27.465  28.499  1.00  0.00    -0.248 NA
ATOM     21  C   UNL A   1      41.082  27.265  28.917  1.00  0.00     0.031 C 
ATOM     22  C   UNL A   1      43.014  31.791  29.774  1.00  0.00     0.029 A 
ATOM     23  N   UNL A   1      44.393  30.299  28.846  1.00  0.00    -0.354 N 
ATOM     24  C   UNL A   1      42.931  26.198  28.128  1.00  0.00     0.074 A 
ATOM     25  C   UNL A   1      41.525  26.115  28.438  1.00  0.00     0.031 C 
ATOM     26  C   UNL A   1      44.132  32.446  29.421  1.00  0.00     0.029 A 
ATOM     27  C   UNL A   1      45.086  31.485  28.876  1.00  0.00     0.049 A 
ATOM     28  H   UNL A   1      44.761  29.468  28.465  1.00  0.00     0.167 HD
ATOM     29  C   UNL A   1      43.659  25.201  27.579  1.00  0.00     0.037 A 
ATOM     30  C   UNL A   1      46.363  31.741  28.539  1.00  0.00     0.037 A 
ATOM     31  C   UNL A   1      45.056  25.347  27.277  1.00  0.00     0.049 A 
ATOM     32  C   UNL A   1      47.191  30.584  28.047  1.00  0.00     0.074 A 
ATOM     33  C   UNL A   1      45.944  24.402  26.805  1.00  0.00     0.029 A 
ATOM     34  N   UNL A   1      45.762  26.538  27.412  1.00  0.00    -0.354 N 
ATOM     35  N   UNL A   1      46.817  29.344  27.821  1.00  0.00    -0.248 NA
ATOM     36  C   UNL A   1      48.611  30.843  27.789  1.00  0.00     0.031 C 
ATOM     37  C   UNL A   1      47.198  25.012  26.695  1.00  0.00     0.029 A 
ATOM     38  C   UNL A   1      47.080  26.353  27.042  1.00  0.00     0.049 A 
ATOM     39  H   UNL A   1      45.378  27.389  27.726  1.00  0.00     0.167 HD
ATOM     40  C   UNL A   1      47.950  28.675  27.381  1.00  0.00     0.074 A 
ATOM     41  C   UNL A   1      49.021  29.656  27.359  1.00  0.00     0.031 C 
ATOM     42  C   UNL A   1      48.103  27.372  27.032  1.00  0.00     0.037 A 
BRANCH  29  43
ATOM     43  C   UNL A   1      42.971  23.885  27.347  1.00  0.00     0.058 A 
ATOM     44  C   UNL A   1      42.447  23.576  26.081  1.00  0.00     0.135 A 
ATOM     45  C   UNL A   1      42.850  22.916  28.357  1.00  0.00     0.135 A 
ATOM     46  F   UNL A   1      42.556  24.453  25.071  1.00  0.00    -0.206 F 
ATOM     47  C   UNL A   1      41.824  22.359  25.826  1.00  0.00     0.059 A 
ATOM     48  C   UNL A   1      42.253  21.681  28.117  1.00  0.00     0.059 A 
ATOM     49  F   UNL A   1      43.371  23.140  29.573  1.00  0.00    -0.206 F 
ATOM     50  C   UNL A   1      41.733  21.416  26.850  1.00  0.00     0.060 A 
BRANCH  50  51
ATOM     51  S   UNL A   1      40.970  19.820  26.485  1.00  0.00     0.124 S 
ATOM     52  O   UNL A   1      41.918  19.243  25.540  1.00  0.00    -0.237 OA
ATOM     53  O   UNL A   1      40.923  19.195  27.804  1.00  0.00    -0.237 OA
ATOM     54  O   UNL A   1      39.671  20.186  25.929  1.00  0.00    -0.744 OA
ENDBRANCH  50  51
ENDBRANCH  29  43
BRANCH  30  55
ATOM     55  C   UNL A   1      46.922  33.112  28.702  1.00  0.00     0.058 A 
ATOM     56  C   UNL A   1      46.908  34.038  27.645  1.00  0.00     0.135 A 
ATOM     57  C   UNL A   1      47.525  33.513  29.903  1.00  0.00     0.135 A 
ATOM     58  F   UNL A   1      46.345  33.710  26.470  1.00  0.00    -0.206 F 
ATOM     59  C   UNL A   1      47.499  35.291  27.758  1.00  0.00     0.059 A 
ATOM     60  C   UNL A   1      48.099  34.776  30.051  1.00  0.00     0.059 A 
ATOM     61  F   UNL A   1      47.554  32.675  30.950  1.00  0.00    -0.206 F 
ATOM     62  C   UNL A   1      48.096  35.651  28.965  1.00  0.00     0.060 A 
BRANCH  62  63
ATOM     63  S   UNL A   1      48.862  37.283  29.092  1.00  0.00     0.124 S 
ATOM     64  O   UNL A   1      48.597  37.623  30.490  1.00  0.00    -0.237 OA
ATOM     65  O   UNL A   1      50.257  36.986  28.769  1.00  0.00    -0.237 OA
ATOM     66  O   UNL A   1      48.146  38.074  28.106  1.00  0.00    -0.744 OA
ENDBRANCH  62  63
ENDBRANCH  30  55
BRANCH  42  67
ATOM     67  C   UNL A   1      49.464  26.945  26.568  1.00  0.00     0.058 A 
ATOM     68  C   UNL A   1      49.773  26.952  25.200  1.00  0.00     0.135 A 
ATOM     69  C   UNL A   1      50.416  26.437  27.463  1.00  0.00     0.135 A 
ATOM     70  F   UNL A   1      48.888  27.420  24.306  1.00  0.00    -0.206 F 
ATOM     71  C   UNL A   1      50.975  26.442  24.729  1.00  0.00     0.059 A 
ATOM     72  C   UNL A   1      51.639  25.951  27.017  1.00  0.00     0.059 A 
ATOM     73  F   UNL A   1      50.165  26.422  28.782  1.00  0.00    -0.206 F 
ATOM     74  C   UNL A   1      51.900  25.940  25.646  1.00  0.00     0.060 A 
BRANCH  74  75
ATOM     75  S   UNL A   1      53.455  25.280  25.015  1.00  0.00     0.124 S 
ATOM     76  O   UNL A   1      53.277  23.847  25.224  1.00  0.00    -0.237 OA
ATOM     77  O   UNL A   1      53.436  25.727  23.626  1.00  0.00    -0.237 OA
ATOM     78  O   UNL A   1      54.461  25.919  25.859  1.00  0.00    -0.744 OA
ENDBRANCH  74  75
ENDBRANCH  42  67
ENDBRANCH  16  17
ENDBRANCH   9  11
ENDBRANCH   8   9
ENDBRANCH   7   8
ENDBRANCH   6   7
ENDBRANCH   5   6
ENDBRANCH   4   5
ENDBRANCH   3   4
ENDBRANCH   2   3
ENDBRANCH   1   2
BRANCH   1  79
ATOM     79  C   UNL A   1      34.926  30.204  27.428  1.00  0.00     0.188 C 
BRANCH  79  80
ATOM     80  O   UNL A   1      33.924  30.046  26.439  1.00  0.00    -0.376 OA
BRANCH  80  81
ATOM     81  C   UNL A   1      32.776  29.303  26.827  1.00  0.00     0.202 C 
BRANCH  81  82
ATOM     82  C   UNL A   1      32.865  27.763  26.743  1.00  0.00     0.261 C 
BRANCH  82  83
ATOM     83  O   UNL A   1      32.469  27.201  25.474  1.00  0.00    -0.463 OA
BRANCH  83  84
ATOM     84  C   UNL A   1      33.446  26.921  24.570  1.00  0.00     0.315 C 
ATOM     85  O   UNL A   1      34.062  27.762  23.931  1.00  0.00    -0.252 OA
BRANCH  84  86
ATOM     86  C   UNL A   1      33.730  25.425  24.411  1.00  0.00     0.163 C 
ATOM     87  C   UNL A   1      32.383  24.676  24.439  1.00  0.00     0.278 C 
ATOM     88  C   UNL A   1      34.591  24.764  25.494  1.00  0.00     0.067 C 
ATOM     89  N   UNL A   1      32.572  23.461  25.256  1.00  0.00    -0.331 N 
ATOM     90  C   UNL A   1      33.559  23.897  26.232  1.00  0.00     0.267 C 
ATOM     91  H   UNL A   1      31.742  23.121  25.741  1.00  0.00     0.348 HD
BRANCH  88  92
ATOM     92  C   UNL A   1      35.780  23.916  25.074  1.00  0.00    -0.001 C 
ATOM     93  C   UNL A   1      37.136  23.861  25.751  1.00  0.00     0.004 C 
ATOM     94  C   UNL A   1      36.256  22.655  25.752  1.00  0.00     0.004 C 
ENDBRANCH  88  92
BRANCH  89  95
ATOM     95  C   UNL A   1      32.811  22.231  24.470  1.00  0.00     0.304 C 
BRANCH  95  96
ATOM     96  C   UNL A   1      32.964  20.791  25.049  1.00  0.00     0.290 C 
BRANCH  96  97
ATOM     97  O   UNL A   1      33.594  19.842  24.181  1.00  0.00    -0.488 OA
BRANCH  97  98
ATOM     98  C   UNL A   1      33.458  18.534  24.569  1.00  0.00     0.119 A 
ATOM     99  C   UNL A   1      34.072  17.603  23.727  1.00  0.00     0.049 A 
ATOM    100  C   UNL A   1      32.719  18.099  25.675  1.00  0.00     0.049 A 
ATOM    101  C   UNL A   1      33.842  16.242  23.902  1.00  0.00     0.043 A 
ATOM    102  C   UNL A   1      32.511  16.727  25.868  1.00  0.00     0.043 A 
ATOM    103  C   UNL A   1      33.068  15.818  24.971  1.00  0.00     0.123 A 
ATOM    104  F   UNL A   1      32.858  14.506  25.134  1.00  0.00    -0.207 F 
ENDBRANCH  97  98
ENDBRANCH  96  97
ENDBRANCH  95  96
ENDBRANCH  89  95
ENDBRANCH  84  86
ENDBRANCH  83  84
ENDBRANCH  82  83
ENDBRANCH  81  82
ENDBRANCH  80  81
ENDBRANCH  79  80
ENDBRANCH   1  79
TORSDOF 28
ENDMDL
MODEL 2
REMARK VINA RESULT:      -9.2      1.799      2.778
REMARK SMILES O=C(OCCOCCOCCOCCOC(=O)[C@@H]1C[N@@H+](CCOc2ccc(F)cc2)C[C@H]1C1CC1)c1ccc(-c2c3nc(c(-c4c(F)cc(S(=O)(=O)[O-])cc4F)c4ccc([nH]4)c(-c4c(F)cc(S(=O)(=O)[O-])cc4F)c4nc(c(-c5c(F)cc(S(=O)(=O)[O-])cc5F)c5ccc2[nH]5)C=C4)C=C3)cc1
REMARK SMILES IDX 10 1 9 2 8 3 7 4 6 5 5 6 4 7 3 8 2 9 1 10 36 11 37 12 101 13
REMARK SMILES IDX 38 14 100 15 39 16 40 17 41 18 94 19 42 20 99 21 93 22 95 23
REMARK SMILES IDX 43 24 98 25 92 26 91 27 44 29 78 30 57 31 77 32 58 33 61 34
REMARK SMILES IDX 76 35 96 36 59 37 60 38 75 40 97 41 62 42 45 43 46 44 55 45
REMARK SMILES IDX 47 46 48 47 54 48 56 49 49 50 50 51 51 52 52 53 53 54 79 55
REMARK SMILES IDX 80 56 89 57 81 58 82 59 88 60 90 61 83 62 84 63 85 64 86 65
REMARK SMILES IDX 87 66 63 67 64 68 73 69 65 70 66 71 72 72 74 73 67 74 68 75
REMARK SMILES IDX 69 76 70 77 71 78 11 79 12 80 13 81 14 82 15 83 16 84 17 85
REMARK SMILES IDX 18 86 19 87 32 88 20 89 31 90 33 92 34 93 35 94 21 95 22 96
REMARK SMILES IDX 23 97 24 98 25 99 30 100 26 101 29 102 27 103 28 104
REMARK H PARENT 95 28 61 39 20 91
REMARK Flexibility Score: inf
ROOT
ATOM      1  C   UNL A   1      33.786  29.627  26.776  1.00  0.00     0.188 C 
ENDROOT
BRANCH   1   2
ATOM      2  O   UNL A   1      34.348  30.759  27.436  1.00  0.00    -0.377 OA
BRANCH   2   3
ATOM      3  C   UNL A   1      33.519  31.900  27.668  1.00  0.00     0.188 C 
BRANCH   3   4
ATOM      4  C   UNL A   1      34.090  33.135  28.383  1.00  0.00     0.188 C 
BRANCH   4   5
ATOM      5  O   UNL A   1      35.496  33.223  28.189  1.00  0.00    -0.376 OA
BRANCH   5   6
ATOM      6  C   UNL A   1      36.365  32.910  29.257  1.00  0.00     0.202 C 
BRANCH   6   7
ATOM      7  C   UNL A   1      35.694  32.266  30.471  1.00  0.00     0.261 C 
BRANCH   7   8
ATOM      8  O   UNL A   1      36.592  31.352  31.117  1.00  0.00    -0.460 OA
BRANCH   8   9
ATOM      9  C   UNL A   1      37.104  30.205  30.610  1.00  0.00     0.338 C 
ATOM     10  O   UNL A   1      36.382  29.210  30.556  1.00  0.00    -0.246 OA
BRANCH   9  11
ATOM     11  C   UNL A   1      38.493  30.093  30.077  1.00  0.00     0.060 A 
ATOM     12  C   UNL A   1      38.830  29.998  28.725  1.00  0.00     0.016 A 
ATOM     13  C   UNL A   1      39.535  30.157  31.015  1.00  0.00     0.016 A 
ATOM     14  C   UNL A   1      40.142  29.866  28.309  1.00  0.00     0.010 A 
ATOM     15  C   UNL A   1      40.866  30.057  30.605  1.00  0.00     0.010 A 
ATOM     16  C   UNL A   1      41.163  29.870  29.250  1.00  0.00    -0.014 A 
BRANCH  16  17
ATOM     17  C   UNL A   1      42.500  29.455  28.802  1.00  0.00     0.031 A 
ATOM     18  C   UNL A   1      42.659  28.037  28.347  1.00  0.00     0.074 A 
ATOM     19  C   UNL A   1      43.476  30.369  28.661  1.00  0.00     0.049 A 
ATOM     20  N   UNL A   1      43.739  27.389  28.018  1.00  0.00    -0.248 NA
ATOM     21  C   UNL A   1      41.422  27.239  28.240  1.00  0.00     0.031 C 
ATOM     22  C   UNL A   1      43.332  31.805  28.914  1.00  0.00     0.029 A 
ATOM     23  N   UNL A   1      44.768  30.235  28.236  1.00  0.00    -0.354 N 
ATOM     24  C   UNL A   1      43.320  26.101  27.709  1.00  0.00     0.074 A 
ATOM     25  C   UNL A   1      41.891  26.051  27.894  1.00  0.00     0.031 C 
ATOM     26  C   UNL A   1      44.486  32.422  28.615  1.00  0.00     0.029 A 
ATOM     27  C   UNL A   1      45.471  31.415  28.237  1.00  0.00     0.049 A 
ATOM     28  H   UNL A   1      45.158  29.374  27.956  1.00  0.00     0.167 HD
ATOM     29  C   UNL A   1      44.081  25.058  27.308  1.00  0.00     0.037 A 
ATOM     30  C   UNL A   1      46.777  31.635  27.999  1.00  0.00     0.037 A 
ATOM     31  C   UNL A   1      45.501  25.170  27.125  1.00  0.00     0.049 A 
ATOM     32  C   UNL A   1      47.630  30.437  27.677  1.00  0.00     0.074 A 
ATOM     33  C   UNL A   1      46.415  24.185  26.811  1.00  0.00     0.029 A 
ATOM     34  N   UNL A   1      46.209  26.363  27.231  1.00  0.00    -0.354 N 
ATOM     35  N   UNL A   1      47.261  29.186  27.515  1.00  0.00    -0.248 NA
ATOM     36  C   UNL A   1      49.071  30.665  27.530  1.00  0.00     0.031 C 
ATOM     37  C   UNL A   1      47.682  24.776  26.769  1.00  0.00     0.029 A 
ATOM     38  C   UNL A   1      47.552  26.140  26.999  1.00  0.00     0.049 A 
ATOM     39  H   UNL A   1      45.810  27.239  27.441  1.00  0.00     0.167 HD
ATOM     40  C   UNL A   1      48.420  28.476  27.234  1.00  0.00     0.074 A 
ATOM     41  C   UNL A   1      49.502  29.445  27.233  1.00  0.00     0.031 C 
ATOM     42  C   UNL A   1      48.586  27.149  27.002  1.00  0.00     0.037 A 
BRANCH  29  43
ATOM     43  C   UNL A   1      43.398  23.733  27.118  1.00  0.00     0.058 A 
ATOM     44  C   UNL A   1      43.120  23.262  25.824  1.00  0.00     0.135 A 
ATOM     45  C   UNL A   1      43.042  22.912  28.201  1.00  0.00     0.135 A 
ATOM     46  F   UNL A   1      43.459  23.991  24.750  1.00  0.00    -0.206 F 
ATOM     47  C   UNL A   1      42.509  22.030  25.611  1.00  0.00     0.059 A 
ATOM     48  C   UNL A   1      42.453  21.664  28.010  1.00  0.00     0.059 A 
ATOM     49  F   UNL A   1      43.324  23.292  29.457  1.00  0.00    -0.206 F 
ATOM     50  C   UNL A   1      42.182  21.237  26.711  1.00  0.00     0.060 A 
BRANCH  50  51
ATOM     51  S   UNL A   1      41.440  19.617  26.413  1.00  0.00     0.124 S 
ATOM     52  O   UNL A   1      42.179  19.160  25.242  1.00  0.00    -0.237 OA
ATOM     53  O   UNL A   1      41.725  18.915  27.662  1.00  0.00    -0.237 OA
ATOM     54  O   UNL A   1      40.031  19.926  26.187  1.00  0.00    -0.744 OA
ENDBRANCH  50  51
ENDBRANCH  29  43
BRANCH  30  55
ATOM     55  C   UNL A   1      47.339  33.010  28.105  1.00  0.00     0.058 A 
ATOM     56  C   UNL A   1      47.291  33.905  27.022  1.00  0.00     0.135 A 
ATOM     57  C   UNL A   1      47.976  33.447  29.275  1.00  0.00     0.135 A 
ATOM     58  F   UNL A   1      46.695  33.542  25.874  1.00  0.00    -0.206 F 
ATOM     59  C   UNL A   1      47.883  35.161  27.081  1.00  0.00     0.059 A 
ATOM     60  C   UNL A   1      48.552  34.714  29.369  1.00  0.00     0.059 A 
ATOM     61  F   UNL A   1      48.039  32.640  30.345  1.00  0.00    -0.206 F 
ATOM     62  C   UNL A   1      48.515  35.557  28.258  1.00  0.00     0.060 A 
BRANCH  62  63
ATOM     63  S   UNL A   1      49.282  37.193  28.314  1.00  0.00     0.124 S 
ATOM     64  O   UNL A   1      50.665  36.856  28.653  1.00  0.00    -0.237 OA
ATOM     65  O   UNL A   1      49.066  37.673  26.950  1.00  0.00    -0.237 OA
ATOM     66  O   UNL A   1      48.532  37.886  29.348  1.00  0.00    -0.744 OA
ENDBRANCH  62  63
ENDBRANCH  30  55
BRANCH  42  67
ATOM     67  C   UNL A   1      49.977  26.678  26.700  1.00  0.00     0.058 A 
ATOM     68  C   UNL A   1      50.864  26.391  27.749  1.00  0.00     0.135 A 
ATOM     69  C   UNL A   1      50.458  26.610  25.384  1.00  0.00     0.135 A 
ATOM     70  F   UNL A   1      50.450  26.452  29.024  1.00  0.00    -0.206 F 
ATOM     71  C   UNL A   1      52.194  26.077  27.503  1.00  0.00     0.059 A 
ATOM     72  C   UNL A   1      51.777  26.268  25.115  1.00  0.00     0.059 A 
ATOM     73  F   UNL A   1      49.640  26.868  24.352  1.00  0.00    -0.206 F 
ATOM     74  C   UNL A   1      52.641  26.023  26.182  1.00  0.00     0.060 A 
BRANCH  74  75
ATOM     75  S   UNL A   1      54.373  25.617  25.885  1.00  0.00     0.124 S 
ATOM     76  O   UNL A   1      54.910  26.902  25.450  1.00  0.00    -0.237 OA
ATOM     77  O   UNL A   1      54.810  25.157  27.199  1.00  0.00    -0.237 OA
ATOM     78  O   UNL A   1      54.306  24.583  24.856  1.00  0.00    -0.744 OA
ENDBRANCH  74  75
ENDBRANCH  42  67
ENDBRANCH  16  17
ENDBRANCH   9  11
ENDBRANCH   8   9
ENDBRANCH   7   8
ENDBRANCH   6   7
ENDBRANCH   5   6
ENDBRANCH   4   5
ENDBRANCH   3   4
ENDBRANCH   2   3
ENDBRANCH   1   2
BRANCH   1  79
ATOM     79  C   UNL A   1      32.541  29.928  25.928  1.00  0.00     0.188 C 
BRANCH  79  80
ATOM     80  O   UNL A   1      32.591  29.621  24.546  1.00  0.00    -0.376 OA
BRANCH  80  81
ATOM     81  C   UNL A   1      33.670  28.795  24.129  1.00  0.00     0.202 C 
BRANCH  81  82
ATOM     82  C   UNL A   1      33.683  28.337  22.654  1.00  0.00     0.261 C 
BRANCH  82  83
ATOM     83  O   UNL A   1      32.647  27.394  22.302  1.00  0.00    -0.463 OA
BRANCH  83  84
ATOM     84  C   UNL A   1      33.017  26.111  22.046  1.00  0.00     0.315 C 
ATOM     85  O   UNL A   1      33.429  25.709  20.967  1.00  0.00    -0.252 OA
BRANCH  84  86
ATOM     86  C   UNL A   1      32.881  25.177  23.251  1.00  0.00     0.163 C 
ATOM     87  C   UNL A   1      33.156  23.736  22.774  1.00  0.00     0.278 C 
ATOM     88  C   UNL A   1      31.512  25.128  23.940  1.00  0.00     0.067 C 
ATOM     89  N   UNL A   1      32.164  22.860  23.429  1.00  0.00    -0.331 N 
ATOM     90  C   UNL A   1      31.006  23.734  23.538  1.00  0.00     0.267 C 
ATOM     91  H   UNL A   1      31.908  22.020  22.910  1.00  0.00     0.348 HD
BRANCH  88  92
ATOM     92  C   UNL A   1      31.441  25.294  25.449  1.00  0.00    -0.001 C 
ATOM     93  C   UNL A   1      32.335  26.170  26.305  1.00  0.00     0.004 C 
ATOM     94  C   UNL A   1      30.881  26.487  26.187  1.00  0.00     0.004 C 
ENDBRANCH  88  92
BRANCH  89  95
ATOM     95  C   UNL A   1      32.670  22.159  24.628  1.00  0.00     0.304 C 
BRANCH  95  96
ATOM     96  C   UNL A   1      32.973  20.633  24.735  1.00  0.00     0.290 C 
BRANCH  96  97
ATOM     97  O   UNL A   1      34.261  20.296  25.264  1.00  0.00    -0.488 OA
BRANCH  97  98
ATOM     98  C   UNL A   1      35.140  21.345  25.344  1.00  0.00     0.119 A 
ATOM     99  C   UNL A   1      36.185  21.308  24.418  1.00  0.00     0.049 A 
ATOM    100  C   UNL A   1      35.082  22.368  26.297  1.00  0.00     0.049 A 
ATOM    101  C   UNL A   1      37.245  22.204  24.524  1.00  0.00     0.043 A 
ATOM    102  C   UNL A   1      36.134  23.288  26.385  1.00  0.00     0.043 A 
ATOM    103  C   UNL A   1      37.208  23.186  25.502  1.00  0.00     0.123 A 
ATOM    104  F   UNL A   1      38.229  24.047  25.590  1.00  0.00    -0.207 F 
ENDBRANCH  97  98
ENDBRANCH  96  97
ENDBRANCH  95  96
ENDBRANCH  89  95
ENDBRANCH  84  86
ENDBRANCH  83  84
ENDBRANCH  82  83
ENDBRANCH  81  82
ENDBRANCH  80  81
ENDBRANCH  79  80
ENDBRANCH   1  79
TORSDOF 28
ENDMDL
MODEL 3
REMARK VINA RESULT:      -8.6      1.910      2.813
REMARK SMILES O=C(OCCOCCOCCOCCOC(=O)[C@@H]1C[N@@H+](CCOc2ccc(F)cc2)C[C@H]1C1CC1)c1ccc(-c2c3nc(c(-c4c(F)cc(S(=O)(=O)[O-])cc4F)c4ccc([nH]4)c(-c4c(F)cc(S(=O)(=O)[O-])cc4F)c4nc(c(-c5c(F)cc(S(=O)(=O)[O-])cc5F)c5ccc2[nH]5)C=C4)C=C3)cc1
REMARK SMILES IDX 10 1 9 2 8 3 7 4 6 5 5 6 4 7 3 8 2 9 1 10 36 11 37 12 101 13
REMARK SMILES IDX 38 14 100 15 39 16 40 17 41 18 94 19 42 20 99 21 93 22 95 23
REMARK SMILES IDX 43 24 98 25 92 26 91 27 44 29 78 30 57 31 77 32 58 33 61 34
REMARK SMILES IDX 76 35 96 36 59 37 60 38 75 40 97 41 62 42 45 43 46 44 55 45
REMARK SMILES IDX 47 46 48 47 54 48 56 49 49 50 50 51 51 52 52 53 53 54 79 55
REMARK SMILES IDX 80 56 89 57 81 58 82 59 88 60 90 61 83 62 84 63 85 64 86 65
REMARK SMILES IDX 87 66 63 67 64 68 73 69 65 70 66 71 72 72 74 73 67 74 68 75
REMARK SMILES IDX 69 76 70 77 71 78 11 79 12 80 13 81 14 82 15 83 16 84 17 85
REMARK SMILES IDX 18 86 19 87 32 88 20 89 31 90 33 92 34 93 35 94 21 95 22 96
REMARK SMILES IDX 23 97 24 98 25 99 30 100 26 101 29 102 27 103 28 104
REMARK H PARENT 95 28 61 39 20 91
REMARK Flexibility Score: inf
ROOT
ATOM      1  C   UNL A   1      33.854  28.477  26.633  1.00  0.00     0.188 C 
ENDROOT
BRANCH   1   2
ATOM      2  O   UNL A   1      34.733  29.055  27.595  1.00  0.00    -0.377 OA
BRANCH   2   3
ATOM      3  C   UNL A   1      34.982  30.462  27.541  1.00  0.00     0.188 C 
BRANCH   3   4
ATOM      4  C   UNL A   1      35.528  31.197  28.774  1.00  0.00     0.188 C 
BRANCH   4   5
ATOM      5  O   UNL A   1      36.193  30.291  29.646  1.00  0.00    -0.376 OA
BRANCH   5   6
ATOM      6  C   UNL A   1      36.173  30.526  31.039  1.00  0.00     0.202 C 
BRANCH   6   7
ATOM      7  C   UNL A   1      36.164  32.000  31.446  1.00  0.00     0.261 C 
BRANCH   7   8
ATOM      8  O   UNL A   1      37.487  32.430  31.804  1.00  0.00    -0.460 OA
BRANCH   8   9
ATOM      9  C   UNL A   1      38.419  31.735  32.498  1.00  0.00     0.338 C 
ATOM     10  O   UNL A   1      38.293  31.634  33.718  1.00  0.00    -0.246 OA
BRANCH   9  11
ATOM     11  C   UNL A   1      39.577  31.049  31.853  1.00  0.00     0.060 A 
ATOM     12  C   UNL A   1      40.421  30.132  32.484  1.00  0.00     0.016 A 
ATOM     13  C   UNL A   1      39.781  31.305  30.489  1.00  0.00     0.016 A 
ATOM     14  C   UNL A   1      41.495  29.560  31.827  1.00  0.00     0.010 A 
ATOM     15  C   UNL A   1      40.843  30.709  29.806  1.00  0.00     0.010 A 
ATOM     16  C   UNL A   1      41.725  29.866  30.492  1.00  0.00    -0.014 A 
BRANCH  16  17
ATOM     17  C   UNL A   1      43.015  29.463  29.916  1.00  0.00     0.031 A 
ATOM     18  C   UNL A   1      43.088  28.105  29.289  1.00  0.00     0.074 A 
ATOM     19  C   UNL A   1      44.018  30.353  29.821  1.00  0.00     0.049 A 
ATOM     20  N   UNL A   1      44.119  27.464  28.819  1.00  0.00    -0.248 NA
ATOM     21  C   UNL A   1      41.815  27.368  29.167  1.00  0.00     0.031 C 
ATOM     22  C   UNL A   1      43.947  31.753  30.249  1.00  0.00     0.029 A 
ATOM     23  N   UNL A   1      45.276  30.227  29.302  1.00  0.00    -0.354 N 
ATOM     24  C   UNL A   1      43.630  26.237  28.388  1.00  0.00     0.074 A 
ATOM     25  C   UNL A   1      42.213  26.215  28.656  1.00  0.00     0.031 C 
ATOM     26  C   UNL A   1      45.107  32.362  29.952  1.00  0.00     0.029 A 
ATOM     27  C   UNL A   1      46.026  31.375  29.396  1.00  0.00     0.049 A 
ATOM     28  H   UNL A   1      45.612  29.393  28.899  1.00  0.00     0.167 HD
ATOM     29  C   UNL A   1      44.322  25.225  27.821  1.00  0.00     0.037 A 
ATOM     30  C   UNL A   1      47.323  31.576  29.104  1.00  0.00     0.037 A 
ATOM     31  C   UNL A   1      45.733  25.309  27.562  1.00  0.00     0.049 A 
ATOM     32  C   UNL A   1      48.106  30.398  28.590  1.00  0.00     0.074 A 
ATOM     33  C   UNL A   1      46.585  24.338  27.078  1.00  0.00     0.029 A 
ATOM     34  N   UNL A   1      46.494  26.456  27.762  1.00  0.00    -0.354 N 
ATOM     35  N   UNL A   1      47.676  29.188  28.307  1.00  0.00    -0.248 NA
ATOM     36  C   UNL A   1      49.544  30.592  28.381  1.00  0.00     0.031 C 
ATOM     37  C   UNL A   1      47.871  24.887  27.026  1.00  0.00     0.029 A 
ATOM     38  C   UNL A   1      47.811  26.217  27.421  1.00  0.00     0.049 A 
ATOM     39  H   UNL A   1      46.145  27.314  28.098  1.00  0.00     0.167 HD
ATOM     40  C   UNL A   1      48.787  28.478  27.872  1.00  0.00     0.074 A 
ATOM     41  C   UNL A   1      49.906  29.403  27.916  1.00  0.00     0.031 C 
ATOM     42  C   UNL A   1      48.884  27.183  27.477  1.00  0.00     0.037 A 
BRANCH  29  43
ATOM     43  C   UNL A   1      43.575  23.956  27.520  1.00  0.00     0.058 A 
ATOM     44  C   UNL A   1      43.162  23.674  26.207  1.00  0.00     0.135 A 
ATOM     45  C   UNL A   1      43.290  23.002  28.512  1.00  0.00     0.135 A 
ATOM     46  F   UNL A   1      43.429  24.536  25.214  1.00  0.00    -0.206 F 
ATOM     47  C   UNL A   1      42.488  22.499  25.891  1.00  0.00     0.059 A 
ATOM     48  C   UNL A   1      42.640  21.808  28.213  1.00  0.00     0.059 A 
ATOM     49  F   UNL A   1      43.700  23.199  29.775  1.00  0.00    -0.206 F 
ATOM     50  C   UNL A   1      42.234  21.570  26.900  1.00  0.00     0.060 A 
BRANCH  50  51
ATOM     51  S   UNL A   1      41.407  20.025  26.459  1.00  0.00     0.124 S 
ATOM     52  O   UNL A   1      42.191  19.583  25.312  1.00  0.00    -0.237 OA
ATOM     53  O   UNL A   1      41.561  19.238  27.679  1.00  0.00    -0.237 OA
ATOM     54  O   UNL A   1      40.041  20.445  26.163  1.00  0.00    -0.744 OA
ENDBRANCH  50  51
ENDBRANCH  29  43
BRANCH  30  55
ATOM     55  C   UNL A   1      47.946  32.909  29.334  1.00  0.00     0.058 A 
ATOM     56  C   UNL A   1      48.466  33.267  30.590  1.00  0.00     0.135 A 
ATOM     57  C   UNL A   1      47.996  33.874  28.318  1.00  0.00     0.135 A 
ATOM     58  F   UNL A   1      48.445  32.385  31.604  1.00  0.00    -0.206 F 
ATOM     59  C   UNL A   1      48.976  34.536  30.840  1.00  0.00     0.059 A 
ATOM     60  C   UNL A   1      48.529  35.145  28.535  1.00  0.00     0.059 A 
ATOM     61  F   UNL A   1      47.527  33.583  27.095  1.00  0.00    -0.206 F 
ATOM     62  C   UNL A   1      49.001  35.470  29.807  1.00  0.00     0.060 A 
BRANCH  62  63
ATOM     63  S   UNL A   1      49.664  37.116  30.152  1.00  0.00     0.124 S 
ATOM     64  O   UNL A   1      50.912  37.094  29.389  1.00  0.00    -0.237 OA
ATOM     65  O   UNL A   1      48.614  37.982  29.617  1.00  0.00    -0.237 OA
ATOM     66  O   UNL A   1      49.810  37.129  31.597  1.00  0.00    -0.744 OA
ENDBRANCH  62  63
ENDBRANCH  30  55
BRANCH  42  67
ATOM     67  C   UNL A   1      50.234  26.704  27.035  1.00  0.00     0.058 A 
ATOM     68  C   UNL A   1      51.176  26.282  27.986  1.00  0.00     0.135 A 
ATOM     69  C   UNL A   1      50.626  26.760  25.689  1.00  0.00     0.135 A 
ATOM     70  F   UNL A   1      50.847  26.222  29.286  1.00  0.00    -0.206 F 
ATOM     71  C   UNL A   1      52.474  25.956  27.620  1.00  0.00     0.059 A 
ATOM     72  C   UNL A   1      51.912  26.408  25.297  1.00  0.00     0.059 A 
ATOM     73  F   UNL A   1      49.754  27.148  24.746  1.00  0.00    -0.206 F 
ATOM     74  C   UNL A   1      52.834  26.027  26.273  1.00  0.00     0.060 A 
BRANCH  74  75
ATOM     75  S   UNL A   1      54.526  25.602  25.818  1.00  0.00     0.124 S 
ATOM     76  O   UNL A   1      55.020  24.989  27.047  1.00  0.00    -0.237 OA
ATOM     77  O   UNL A   1      54.322  24.696  24.693  1.00  0.00    -0.237 OA
ATOM     78  O   UNL A   1      55.119  26.892  25.476  1.00  0.00    -0.744 OA
ENDBRANCH  74  75
ENDBRANCH  42  67
ENDBRANCH  16  17
ENDBRANCH   9  11
ENDBRANCH   8   9
ENDBRANCH   7   8
ENDBRANCH   6   7
ENDBRANCH   5   6
ENDBRANCH   4   5
ENDBRANCH   3   4
ENDBRANCH   2   3
ENDBRANCH   1   2
BRANCH   1  79
ATOM     79  C   UNL A   1      33.179  29.484  25.690  1.00  0.00     0.188 C 
BRANCH  79  80
ATOM     80  O   UNL A   1      33.575  29.485  24.329  1.00  0.00    -0.376 OA
BRANCH  80  81
ATOM     81  C   UNL A   1      32.827  28.644  23.461  1.00  0.00     0.202 C 
BRANCH  81  82
ATOM     82  C   UNL A   1      31.290  28.800  23.474  1.00  0.00     0.261 C 
BRANCH  82  83
ATOM     83  O   UNL A   1      30.610  28.026  24.486  1.00  0.00    -0.463 OA
BRANCH  83  84
ATOM     84  C   UNL A   1      29.846  26.977  24.078  1.00  0.00     0.315 C 
ATOM     85  O   UNL A   1      28.836  27.077  23.397  1.00  0.00    -0.252 OA
BRANCH  84  86
ATOM     86  C   UNL A   1      30.368  25.615  24.545  1.00  0.00     0.163 C 
ATOM     87  C   UNL A   1      29.919  25.406  26.005  1.00  0.00     0.278 C 
ATOM     88  C   UNL A   1      31.888  25.419  24.549  1.00  0.00     0.067 C 
ATOM     89  N   UNL A   1      31.058  24.813  26.734  1.00  0.00    -0.331 N 
ATOM     90  C   UNL A   1      32.200  25.403  26.053  1.00  0.00     0.267 C 
ATOM     91  H   UNL A   1      31.106  25.029  27.729  1.00  0.00     0.348 HD
BRANCH  88  92
ATOM     92  C   UNL A   1      32.473  24.185  23.882  1.00  0.00    -0.001 C 
ATOM     93  C   UNL A   1      32.523  23.900  22.393  1.00  0.00     0.004 C 
ATOM     94  C   UNL A   1      33.792  24.109  23.151  1.00  0.00     0.004 C 
ENDBRANCH  88  92
BRANCH  89  95
ATOM     95  C   UNL A   1      30.978  23.344  26.894  1.00  0.00     0.304 C 
BRANCH  95  96
ATOM     96  C   UNL A   1      32.095  22.322  26.521  1.00  0.00     0.290 C 
BRANCH  96  97
ATOM     97  O   UNL A   1      33.361  22.533  27.157  1.00  0.00    -0.488 OA
BRANCH  97  98
ATOM     98  C   UNL A   1      34.448  22.339  26.346  1.00  0.00     0.119 A 
ATOM     99  C   UNL A   1      34.451  21.131  25.643  1.00  0.00     0.049 A 
ATOM    100  C   UNL A   1      35.534  23.216  26.237  1.00  0.00     0.049 A 
ATOM    101  C   UNL A   1      35.585  20.732  24.943  1.00  0.00     0.043 A 
ATOM    102  C   UNL A   1      36.664  22.826  25.508  1.00  0.00     0.043 A 
ATOM    103  C   UNL A   1      36.678  21.583  24.879  1.00  0.00     0.123 A 
ATOM    104  F   UNL A   1      37.761  21.191  24.197  1.00  0.00    -0.207 F 
ENDBRANCH  97  98
ENDBRANCH  96  97
ENDBRANCH  95  96
ENDBRANCH  89  95
ENDBRANCH  84  86
ENDBRANCH  83  84
ENDBRANCH  82  83
ENDBRANCH  81  82
ENDBRANCH  80  81
ENDBRANCH  79  80
ENDBRANCH   1  79
TORSDOF 28
ENDMDL
