MODEL 1
REMARK VINA RESULT:      -8.9      0.000      0.000
REMARK SMILES CC(=O)N[C@@H](Cc1c(OCC(C)C)ccc2ccccc12)C(=O)OCCOCCOCCOCCOC(=O)c1ccc(-c2c3nc(c(-c4c(F)cc(S(=O)(=O)[O-])cc4F)c4ccc([nH]4)c(-c4c(F)cc(S(=O)(=O)[O-])cc4F)c4nc(c(-c5c(F)cc(S(=O)(=O)[O-])cc5F)c5ccc2[nH]5)C=C4)C=C3)cc1
REMARK SMILES IDX 29 1 28 2 27 3 26 4 25 5 24 6 22 7 23 8 5 9 4 10 1 11 2 12
REMARK SMILES IDX 3 13 6 15 7 16 8 17 21 18 14 19 16 20 20 21 15 22 17 23
REMARK SMILES IDX 19 24 18 25 9 26 10 27 11 28 12 29 13 30 30 31 31 32 32 33
REMARK SMILES IDX 33 34 34 35 35 36 36 37 37 38 38 39 39 40 40 41 104 42 41 43
REMARK SMILES IDX 103 44 42 45 43 46 44 47 97 48 45 49 102 50 96 51 98 52
REMARK SMILES IDX 46 53 101 54 95 55 94 56 47 58 81 59 60 60 80 61 61 62 64 63
REMARK SMILES IDX 79 64 99 65 62 66 63 67 78 69 100 70 65 71 48 72 49 73 58 74
REMARK SMILES IDX 50 75 51 76 57 77 59 78 52 79 53 80 54 81 55 82 56 83 82 84
REMARK SMILES IDX 83 85 92 86 84 87 85 88 91 89 93 90 86 91 87 92 88 93 89 94
REMARK SMILES IDX 90 95 66 96 67 97 76 98 68 99 69 100 75 101 77 102 70 103
REMARK SMILES IDX 71 104 72 105 73 106 74 107
REMARK H PARENT 4 14 98 57 64 68
REMARK Flexibility Score: inf
ROOT
ATOM      1  C   UNL A   1      41.867  21.402  26.342  1.00  0.00     0.188 C 
ENDROOT
BRANCH   1   2
ATOM      2  C   UNL A   1      40.363  21.207  26.581  1.00  0.00     0.188 C 
BRANCH   2   3
ATOM      3  O   UNL A   1      39.403  21.948  25.832  1.00  0.00    -0.376 OA
BRANCH   3   4
ATOM      4  C   UNL A   1      38.053  21.500  25.781  1.00  0.00     0.202 C 
BRANCH   4   5
ATOM      5  C   UNL A   1      36.982  22.365  25.094  1.00  0.00     0.261 C 
BRANCH   5   6
ATOM      6  O   UNL A   1      36.438  23.412  25.914  1.00  0.00    -0.462 OA
BRANCH   6   7
ATOM      7  C   UNL A   1      35.370  23.107  26.699  1.00  0.00     0.329 C 
ATOM      8  O   UNL A   1      35.439  22.733  27.864  1.00  0.00    -0.250 OA
BRANCH   7   9
ATOM      9  C   UNL A   1      34.034  23.209  25.926  1.00  0.00     0.196 C 
BRANCH   9  10
ATOM     10  N   UNL A   1      33.091  24.209  26.433  1.00  0.00    -0.343 N 
ATOM     11  C   UNL A   1      30.960  23.002  26.193  1.00  0.00     0.114 C 
ATOM     12  C   UNL A   1      31.734  24.262  26.425  1.00  0.00     0.217 C 
ATOM     13  O   UNL A   1      31.162  25.320  26.685  1.00  0.00    -0.275 OA
ATOM     14  H   UNL A   1      33.521  24.987  26.858  1.00  0.00     0.164 HD
ENDBRANCH   9  10
BRANCH   9  15
ATOM     15  C   UNL A   1      34.299  23.523  24.434  1.00  0.00     0.077 C 
BRANCH  15  16
ATOM     16  C   UNL A   1      33.610  22.551  23.464  1.00  0.00     0.005 A 
ATOM     17  C   UNL A   1      33.142  23.069  22.236  1.00  0.00     0.123 A 
ATOM     18  C   UNL A   1      33.319  21.187  23.809  1.00  0.00    -0.011 A 
ATOM     19  C   UNL A   1      32.292  22.311  21.434  1.00  0.00     0.047 A 
ATOM     20  C   UNL A   1      32.452  20.444  22.969  1.00  0.00    -0.018 A 
ATOM     21  C   UNL A   1      33.819  20.509  24.948  1.00  0.00     0.009 A 
ATOM     22  C   UNL A   1      31.953  21.013  21.798  1.00  0.00     0.012 A 
ATOM     23  C   UNL A   1      32.061  19.139  23.311  1.00  0.00     0.009 A 
ATOM     24  C   UNL A   1      33.383  19.230  25.310  1.00  0.00     0.001 A 
ATOM     25  C   UNL A   1      32.497  18.546  24.491  1.00  0.00     0.001 A 
BRANCH  17  26
ATOM     26  O   UNL A   1      33.576  24.324  21.907  1.00  0.00    -0.493 OA
BRANCH  26  27
ATOM     27  C   UNL A   1      32.649  25.249  21.338  1.00  0.00     0.232 C 
BRANCH  27  28
ATOM     28  C   UNL A   1      31.866  26.076  22.379  1.00  0.00     0.020 C 
ATOM     29  C   UNL A   1      30.762  25.308  23.111  1.00  0.00     0.011 C 
ATOM     30  C   UNL A   1      32.845  26.636  23.411  1.00  0.00     0.011 C 
ENDBRANCH  27  28
ENDBRANCH  26  27
ENDBRANCH  17  26
ENDBRANCH  15  16
ENDBRANCH   9  15
ENDBRANCH   7   9
ENDBRANCH   6   7
ENDBRANCH   5   6
ENDBRANCH   4   5
ENDBRANCH   3   4
ENDBRANCH   2   3
ENDBRANCH   1   2
BRANCH   1  31
ATOM     31  O   UNL A   1      42.203  22.179  25.215  1.00  0.00    -0.377 OA
BRANCH  31  32
ATOM     32  C   UNL A   1      43.547  22.049  24.777  1.00  0.00     0.188 C 
BRANCH  32  33
ATOM     33  C   UNL A   1      44.443  21.093  25.597  1.00  0.00     0.188 C 
BRANCH  33  34
ATOM     34  O   UNL A   1      45.614  21.683  26.149  1.00  0.00    -0.376 OA
BRANCH  34  35
ATOM     35  C   UNL A   1      45.852  23.075  25.987  1.00  0.00     0.202 C 
BRANCH  35  36
ATOM     36  C   UNL A   1      45.248  24.087  26.983  1.00  0.00     0.261 C 
BRANCH  36  37
ATOM     37  O   UNL A   1      44.957  25.399  26.483  1.00  0.00    -0.460 OA
BRANCH  37  38
ATOM     38  C   UNL A   1      43.695  25.665  26.094  1.00  0.00     0.338 C 
ATOM     39  O   UNL A   1      43.094  25.156  25.162  1.00  0.00    -0.246 OA
BRANCH  38  40
ATOM     40  C   UNL A   1      43.077  26.519  27.131  1.00  0.00     0.060 A 
ATOM     41  C   UNL A   1      43.384  27.886  27.146  1.00  0.00     0.016 A 
ATOM     42  C   UNL A   1      42.185  25.985  28.065  1.00  0.00     0.016 A 
ATOM     43  C   UNL A   1      42.822  28.719  28.112  1.00  0.00     0.010 A 
ATOM     44  C   UNL A   1      41.651  26.815  29.055  1.00  0.00     0.010 A 
ATOM     45  C   UNL A   1      41.991  28.179  29.100  1.00  0.00    -0.014 A 
BRANCH  45  46
ATOM     46  C   UNL A   1      41.642  28.998  30.284  1.00  0.00     0.031 A 
ATOM     47  C   UNL A   1      42.474  28.842  31.529  1.00  0.00     0.074 A 
ATOM     48  C   UNL A   1      40.632  29.885  30.248  1.00  0.00     0.049 A 
ATOM     49  N   UNL A   1      42.332  29.404  32.699  1.00  0.00    -0.248 NA
ATOM     50  C   UNL A   1      43.622  27.922  31.437  1.00  0.00     0.031 C 
ATOM     51  C   UNL A   1      39.793  30.164  29.083  1.00  0.00     0.029 A 
ATOM     52  N   UNL A   1      40.137  30.709  31.227  1.00  0.00    -0.354 N 
ATOM     53  C   UNL A   1      43.363  28.904  33.485  1.00  0.00     0.074 A 
ATOM     54  C   UNL A   1      44.107  27.970  32.668  1.00  0.00     0.031 C 
ATOM     55  C   UNL A   1      38.874  31.085  29.422  1.00  0.00     0.029 A 
ATOM     56  C   UNL A   1      39.035  31.430  30.834  1.00  0.00     0.049 A 
ATOM     57  H   UNL A   1      40.533  30.778  32.125  1.00  0.00     0.167 HD
ATOM     58  C   UNL A   1      43.664  29.199  34.772  1.00  0.00     0.037 A 
ATOM     59  C   UNL A   1      38.232  32.249  31.544  1.00  0.00     0.037 A 
ATOM     60  C   UNL A   1      42.915  30.127  35.580  1.00  0.00     0.049 A 
ATOM     61  C   UNL A   1      38.536  32.499  33.001  1.00  0.00     0.074 A 
ATOM     62  C   UNL A   1      43.146  30.508  36.889  1.00  0.00     0.029 A 
ATOM     63  N   UNL A   1      41.781  30.808  35.159  1.00  0.00    -0.354 N 
ATOM     64  N   UNL A   1      39.525  32.036  33.730  1.00  0.00    -0.248 NA
ATOM     65  C   UNL A   1      37.616  33.381  33.732  1.00  0.00     0.031 C 
ATOM     66  C   UNL A   1      42.117  31.369  37.281  1.00  0.00     0.029 A 
ATOM     67  C   UNL A   1      41.282  31.580  36.195  1.00  0.00     0.049 A 
ATOM     68  H   UNL A   1      41.390  30.751  34.258  1.00  0.00     0.167 HD
ATOM     69  C   UNL A   1      39.360  32.592  34.995  1.00  0.00     0.074 A 
ATOM     70  C   UNL A   1      38.187  33.437  34.928  1.00  0.00     0.031 C 
ATOM     71  C   UNL A   1      40.112  32.419  36.113  1.00  0.00     0.037 A 
BRANCH  58  72
ATOM     72  C   UNL A   1      44.832  28.486  35.399  1.00  0.00     0.058 A 
ATOM     73  C   UNL A   1      46.130  29.022  35.379  1.00  0.00     0.135 A 
ATOM     74  C   UNL A   1      44.641  27.261  36.060  1.00  0.00     0.135 A 
ATOM     75  F   UNL A   1      46.374  30.179  34.743  1.00  0.00    -0.206 F 
ATOM     76  C   UNL A   1      47.199  28.360  35.972  1.00  0.00     0.059 A 
ATOM     77  C   UNL A   1      45.690  26.596  36.687  1.00  0.00     0.059 A 
ATOM     78  F   UNL A   1      43.422  26.700  36.104  1.00  0.00    -0.206 F 
ATOM     79  C   UNL A   1      46.969  27.148  36.627  1.00  0.00     0.060 A 
BRANCH  79  80
ATOM     80  S   UNL A   1      48.366  26.308  37.402  1.00  0.00     0.124 S 
ATOM     81  O   UNL A   1      47.902  26.184  38.781  1.00  0.00    -0.237 OA
ATOM     82  O   UNL A   1      48.439  25.064  36.643  1.00  0.00    -0.237 OA
ATOM     83  O   UNL A   1      49.477  27.231  37.196  1.00  0.00    -0.744 OA
ENDBRANCH  79  80
ENDBRANCH  58  72
BRANCH  59  84
ATOM     84  C   UNL A   1      37.046  32.875  30.897  1.00  0.00     0.058 A 
ATOM     85  C   UNL A   1      37.182  33.973  30.036  1.00  0.00     0.135 A 
ATOM     86  C   UNL A   1      35.750  32.387  31.132  1.00  0.00     0.135 A 
ATOM     87  F   UNL A   1      38.396  34.487  29.790  1.00  0.00    -0.206 F 
ATOM     88  C   UNL A   1      36.077  34.574  29.439  1.00  0.00     0.059 A 
ATOM     89  C   UNL A   1      34.633  32.950  30.525  1.00  0.00     0.059 A 
ATOM     90  F   UNL A   1      35.564  31.332  31.941  1.00  0.00    -0.206 F 
ATOM     91  C   UNL A   1      34.806  34.050  29.685  1.00  0.00     0.060 A 
BRANCH  91  92
ATOM     92  S   UNL A   1      33.387  34.796  28.855  1.00  0.00     0.124 S 
ATOM     93  O   UNL A   1      33.040  33.767  27.881  1.00  0.00    -0.237 OA
ATOM     94  O   UNL A   1      32.449  34.975  29.960  1.00  0.00    -0.237 OA
ATOM     95  O   UNL A   1      33.933  36.032  28.303  1.00  0.00    -0.744 OA
ENDBRANCH  91  92
ENDBRANCH  59  84
BRANCH  71  96
ATOM     96  C   UNL A   1      39.711  33.182  37.349  1.00  0.00     0.058 A 
ATOM     97  C   UNL A   1      38.629  32.780  38.149  1.00  0.00     0.135 A 
ATOM     98  C   UNL A   1      40.454  34.298  37.768  1.00  0.00     0.135 A 
ATOM     99  F   UNL A   1      37.881  31.724  37.793  1.00  0.00    -0.206 F 
ATOM    100  C   UNL A   1      38.283  33.473  39.305  1.00  0.00     0.059 A 
ATOM    101  C   UNL A   1      40.146  34.986  38.939  1.00  0.00     0.059 A 
ATOM    102  F   UNL A   1      41.506  34.720  37.049  1.00  0.00    -0.206 F 
ATOM    103  C   UNL A   1      39.050  34.573  39.694  1.00  0.00     0.060 A 
BRANCH 103 104
ATOM    104  S   UNL A   1      38.608  35.443  41.212  1.00  0.00     0.124 S 
ATOM    105  O   UNL A   1      39.794  35.222  42.035  1.00  0.00    -0.237 OA
ATOM    106  O   UNL A   1      38.410  36.810  40.740  1.00  0.00    -0.237 OA
ATOM    107  O   UNL A   1      37.399  34.759  41.659  1.00  0.00    -0.744 OA
ENDBRANCH 103 104
ENDBRANCH  71  96
ENDBRANCH  45  46
ENDBRANCH  38  40
ENDBRANCH  37  38
ENDBRANCH  36  37
ENDBRANCH  35  36
ENDBRANCH  34  35
ENDBRANCH  33  34
ENDBRANCH  32  33
ENDBRANCH  31  32
ENDBRANCH   1  31
TORSDOF 29
ENDMDL
MODEL 2
REMARK VINA RESULT:      -8.6      2.013      3.812
REMARK SMILES CC(=O)N[C@@H](Cc1c(OCC(C)C)ccc2ccccc12)C(=O)OCCOCCOCCOCCOC(=O)c1ccc(-c2c3nc(c(-c4c(F)cc(S(=O)(=O)[O-])cc4F)c4ccc([nH]4)c(-c4c(F)cc(S(=O)(=O)[O-])cc4F)c4nc(c(-c5c(F)cc(S(=O)(=O)[O-])cc5F)c5ccc2[nH]5)C=C4)C=C3)cc1
REMARK SMILES IDX 29 1 28 2 27 3 26 4 25 5 24 6 22 7 23 8 5 9 4 10 1 11 2 12
REMARK SMILES IDX 3 13 6 15 7 16 8 17 21 18 14 19 16 20 20 21 15 22 17 23
REMARK SMILES IDX 19 24 18 25 9 26 10 27 11 28 12 29 13 30 30 31 31 32 32 33
REMARK SMILES IDX 33 34 34 35 35 36 36 37 37 38 38 39 39 40 40 41 104 42 41 43
REMARK SMILES IDX 103 44 42 45 43 46 44 47 97 48 45 49 102 50 96 51 98 52
REMARK SMILES IDX 46 53 101 54 95 55 94 56 47 58 81 59 60 60 80 61 61 62 64 63
REMARK SMILES IDX 79 64 99 65 62 66 63 67 78 69 100 70 65 71 48 72 49 73 58 74
REMARK SMILES IDX 50 75 51 76 57 77 59 78 52 79 53 80 54 81 55 82 56 83 82 84
REMARK SMILES IDX 83 85 92 86 84 87 85 88 91 89 93 90 86 91 87 92 88 93 89 94
REMARK SMILES IDX 90 95 66 96 67 97 76 98 68 99 69 100 75 101 77 102 70 103
REMARK SMILES IDX 71 104 72 105 73 106 74 107
REMARK H PARENT 4 14 98 57 64 68
REMARK Flexibility Score: inf
ROOT
ATOM      1  C   UNL A   1      41.651  21.972  25.836  1.00  0.00     0.188 C 
ENDROOT
BRANCH   1   2
ATOM      2  C   UNL A   1      40.505  22.224  26.828  1.00  0.00     0.188 C 
BRANCH   2   3
ATOM      3  O   UNL A   1      40.017  23.543  27.058  1.00  0.00    -0.376 OA
BRANCH   3   4
ATOM      4  C   UNL A   1      39.142  24.145  26.109  1.00  0.00     0.202 C 
BRANCH   4   5
ATOM      5  C   UNL A   1      37.628  23.886  26.187  1.00  0.00     0.261 C 
BRANCH   5   6
ATOM      6  O   UNL A   1      37.166  22.779  25.396  1.00  0.00    -0.462 OA
BRANCH   6   7
ATOM      7  C   UNL A   1      36.641  23.054  24.172  1.00  0.00     0.329 C 
ATOM      8  O   UNL A   1      37.284  23.114  23.130  1.00  0.00    -0.250 OA
BRANCH   7   9
ATOM      9  C   UNL A   1      35.128  23.368  24.246  1.00  0.00     0.196 C 
BRANCH   9  10
ATOM     10  N   UNL A   1      34.371  23.095  23.023  1.00  0.00    -0.343 N 
ATOM     11  C   UNL A   1      33.423  25.318  22.557  1.00  0.00     0.114 C 
ATOM     12  C   UNL A   1      33.473  23.840  22.327  1.00  0.00     0.217 C 
ATOM     13  O   UNL A   1      32.774  23.308  21.465  1.00  0.00    -0.275 OA
ATOM     14  H   UNL A   1      34.544  22.207  22.634  1.00  0.00     0.164 HD
ENDBRANCH   9  10
BRANCH   9  15
ATOM     15  C   UNL A   1      34.470  22.571  25.398  1.00  0.00     0.077 C 
BRANCH  15  16
ATOM     16  C   UNL A   1      33.054  23.050  25.752  1.00  0.00     0.005 A 
ATOM     17  C   UNL A   1      32.012  22.095  25.729  1.00  0.00     0.123 A 
ATOM     18  C   UNL A   1      32.736  24.432  25.980  1.00  0.00    -0.011 A 
ATOM     19  C   UNL A   1      30.683  22.507  25.786  1.00  0.00     0.047 A 
ATOM     20  C   UNL A   1      31.372  24.816  26.035  1.00  0.00    -0.018 A 
ATOM     21  C   UNL A   1      33.685  25.472  26.139  1.00  0.00     0.009 A 
ATOM     22  C   UNL A   1      30.369  23.853  25.940  1.00  0.00     0.012 A 
ATOM     23  C   UNL A   1      31.009  26.167  26.160  1.00  0.00     0.009 A 
ATOM     24  C   UNL A   1      33.315  26.819  26.209  1.00  0.00     0.001 A 
ATOM     25  C   UNL A   1      31.974  27.167  26.215  1.00  0.00     0.001 A 
BRANCH  17  26
ATOM     26  O   UNL A   1      32.398  20.785  25.653  1.00  0.00    -0.493 OA
BRANCH  26  27
ATOM     27  C   UNL A   1      32.443  20.151  24.374  1.00  0.00     0.232 C 
BRANCH  27  28
ATOM     28  C   UNL A   1      32.434  18.610  24.436  1.00  0.00     0.020 C 
ATOM     29  C   UNL A   1      33.373  17.921  23.443  1.00  0.00     0.011 C 
ATOM     30  C   UNL A   1      32.801  18.165  25.852  1.00  0.00     0.011 C 
ENDBRANCH  27  28
ENDBRANCH  26  27
ENDBRANCH  17  26
ENDBRANCH  15  16
ENDBRANCH   9  15
ENDBRANCH   7   9
ENDBRANCH   6   7
ENDBRANCH   5   6
ENDBRANCH   4   5
ENDBRANCH   3   4
ENDBRANCH   2   3
ENDBRANCH   1   2
BRANCH   1  31
ATOM     31  O   UNL A   1      42.593  23.015  25.726  1.00  0.00    -0.377 OA
BRANCH  31  32
ATOM     32  C   UNL A   1      43.686  22.746  24.859  1.00  0.00     0.188 C 
BRANCH  32  33
ATOM     33  C   UNL A   1      44.672  21.651  25.325  1.00  0.00     0.188 C 
BRANCH  33  34
ATOM     34  O   UNL A   1      45.940  22.124  25.765  1.00  0.00    -0.376 OA
BRANCH  34  35
ATOM     35  C   UNL A   1      46.335  23.461  25.486  1.00  0.00     0.202 C 
BRANCH  35  36
ATOM     36  C   UNL A   1      46.488  24.480  26.635  1.00  0.00     0.261 C 
BRANCH  36  37
ATOM     37  O   UNL A   1      45.292  25.118  27.105  1.00  0.00    -0.460 OA
BRANCH  37  38
ATOM     38  C   UNL A   1      44.687  24.610  28.196  1.00  0.00     0.338 C 
ATOM     39  O   UNL A   1      44.483  23.431  28.436  1.00  0.00    -0.246 OA
BRANCH  38  40
ATOM     40  C   UNL A   1      44.513  25.712  29.165  1.00  0.00     0.060 A 
ATOM     41  C   UNL A   1      43.989  25.417  30.432  1.00  0.00     0.016 A 
ATOM     42  C   UNL A   1      44.883  27.020  28.842  1.00  0.00     0.016 A 
ATOM     43  C   UNL A   1      43.808  26.432  31.369  1.00  0.00     0.010 A 
ATOM     44  C   UNL A   1      44.668  28.043  29.770  1.00  0.00     0.010 A 
ATOM     45  C   UNL A   1      44.102  27.757  31.026  1.00  0.00    -0.014 A 
BRANCH  45  46
ATOM     46  C   UNL A   1      43.632  28.855  31.903  1.00  0.00     0.031 A 
ATOM     47  C   UNL A   1      44.442  29.184  33.128  1.00  0.00     0.074 A 
ATOM     48  C   UNL A   1      42.531  29.567  31.604  1.00  0.00     0.049 A 
ATOM     49  N   UNL A   1      44.207  30.058  34.069  1.00  0.00    -0.248 NA
ATOM     50  C   UNL A   1      45.687  28.417  33.314  1.00  0.00     0.031 C 
ATOM     51  C   UNL A   1      41.699  29.378  30.417  1.00  0.00     0.029 A 
ATOM     52  N   UNL A   1      41.921  30.589  32.285  1.00  0.00    -0.354 N 
ATOM     53  C   UNL A   1      45.265  29.944  34.963  1.00  0.00     0.074 A 
ATOM     54  C   UNL A   1      46.130  28.896  34.466  1.00  0.00     0.031 C 
ATOM     55  C   UNL A   1      40.674  30.247  30.463  1.00  0.00     0.029 A 
ATOM     56  C   UNL A   1      40.757  31.024  31.699  1.00  0.00     0.049 A 
ATOM     57  H   UNL A   1      42.283  30.975  33.116  1.00  0.00     0.167 HD
ATOM     58  C   UNL A   1      45.497  30.652  36.093  1.00  0.00     0.037 A 
ATOM     59  C   UNL A   1      39.850  31.925  32.129  1.00  0.00     0.037 A 
ATOM     60  C   UNL A   1      44.627  31.691  36.582  1.00  0.00     0.049 A 
ATOM     61  C   UNL A   1      40.084  32.643  33.435  1.00  0.00     0.074 A 
ATOM     62  C   UNL A   1      44.779  32.479  37.709  1.00  0.00     0.029 A 
ATOM     63  N   UNL A   1      43.437  32.077  35.982  1.00  0.00    -0.354 N 
ATOM     64  N   UNL A   1      41.098  32.542  34.263  1.00  0.00    -0.248 NA
ATOM     65  C   UNL A   1      39.053  33.596  33.866  1.00  0.00     0.031 C 
ATOM     66  C   UNL A   1      43.651  33.296  37.825  1.00  0.00     0.029 A 
ATOM     67  C   UNL A   1      42.827  33.067  36.734  1.00  0.00     0.049 A 
ATOM     68  H   UNL A   1      43.079  31.702  35.146  1.00  0.00     0.167 HD
ATOM     69  C   UNL A   1      40.839  33.437  35.297  1.00  0.00     0.074 A 
ATOM     70  C   UNL A   1      39.581  34.081  34.982  1.00  0.00     0.031 C 
ATOM     71  C   UNL A   1      41.574  33.702  36.407  1.00  0.00     0.037 A 
BRANCH  58  72
ATOM     72  C   UNL A   1      46.718  30.304  36.900  1.00  0.00     0.058 A 
ATOM     73  C   UNL A   1      46.689  29.336  37.917  1.00  0.00     0.135 A 
ATOM     74  C   UNL A   1      47.948  30.926  36.627  1.00  0.00     0.135 A 
ATOM     75  F   UNL A   1      45.537  28.724  38.235  1.00  0.00    -0.206 F 
ATOM     76  C   UNL A   1      47.827  29.014  38.647  1.00  0.00     0.059 A 
ATOM     77  C   UNL A   1      49.106  30.598  37.324  1.00  0.00     0.059 A 
ATOM     78  F   UNL A   1      48.032  31.864  35.669  1.00  0.00    -0.206 F 
ATOM     79  C   UNL A   1      49.033  29.648  38.342  1.00  0.00     0.060 A 
BRANCH  79  80
ATOM     80  S   UNL A   1      50.503  29.209  39.292  1.00  0.00     0.124 S 
ATOM     81  O   UNL A   1      51.457  28.905  38.229  1.00  0.00    -0.237 OA
ATOM     82  O   UNL A   1      50.762  30.431  40.046  1.00  0.00    -0.237 OA
ATOM     83  O   UNL A   1      50.067  28.065  40.087  1.00  0.00    -0.744 OA
ENDBRANCH  79  80
ENDBRANCH  58  72
BRANCH  59  84
ATOM     84  C   UNL A   1      38.620  32.183  31.330  1.00  0.00     0.058 A 
ATOM     85  C   UNL A   1      37.453  31.431  31.524  1.00  0.00     0.135 A 
ATOM     86  C   UNL A   1      38.592  33.189  30.349  1.00  0.00     0.135 A 
ATOM     87  F   UNL A   1      37.433  30.449  32.438  1.00  0.00    -0.206 F 
ATOM     88  C   UNL A   1      36.305  31.656  30.770  1.00  0.00     0.059 A 
ATOM     89  C   UNL A   1      37.448  33.453  29.603  1.00  0.00     0.059 A 
ATOM     90  F   UNL A   1      39.679  33.944  30.127  1.00  0.00    -0.206 F 
ATOM     91  C   UNL A   1      36.311  32.676  29.816  1.00  0.00     0.060 A 
BRANCH  91  92
ATOM     92  S   UNL A   1      34.796  33.002  28.889  1.00  0.00     0.124 S 
ATOM     93  O   UNL A   1      35.306  33.745  27.742  1.00  0.00    -0.237 OA
ATOM     94  O   UNL A   1      34.312  31.652  28.614  1.00  0.00    -0.237 OA
ATOM     95  O   UNL A   1      33.985  33.769  29.830  1.00  0.00    -0.744 OA
ENDBRANCH  91  92
ENDBRANCH  59  84
BRANCH  71  96
ATOM     96  C   UNL A   1      41.057  34.756  37.351  1.00  0.00     0.058 A 
ATOM     97  C   UNL A   1      41.542  36.074  37.328  1.00  0.00     0.135 A 
ATOM     98  C   UNL A   1      40.024  34.457  38.254  1.00  0.00     0.135 A 
ATOM     99  F   UNL A   1      42.532  36.415  36.489  1.00  0.00    -0.206 F 
ATOM    100  C   UNL A   1      41.039  37.049  38.184  1.00  0.00     0.059 A 
ATOM    101  C   UNL A   1      39.482  35.424  39.097  1.00  0.00     0.059 A 
ATOM    102  F   UNL A   1      39.513  33.216  38.312  1.00  0.00    -0.206 F 
ATOM    103  C   UNL A   1      40.006  36.716  39.063  1.00  0.00     0.060 A 
BRANCH 103 104
ATOM    104  S   UNL A   1      39.343  37.998  40.145  1.00  0.00     0.124 S 
ATOM    105  O   UNL A   1      38.095  38.338  39.469  1.00  0.00    -0.237 OA
ATOM    106  O   UNL A   1      39.203  37.291  41.415  1.00  0.00    -0.237 OA
ATOM    107  O   UNL A   1      40.371  39.033  40.120  1.00  0.00    -0.744 OA
ENDBRANCH 103 104
ENDBRANCH  71  96
ENDBRANCH  45  46
ENDBRANCH  38  40
ENDBRANCH  37  38
ENDBRANCH  36  37
ENDBRANCH  35  36
ENDBRANCH  34  35
ENDBRANCH  33  34
ENDBRANCH  32  33
ENDBRANCH  31  32
ENDBRANCH   1  31
TORSDOF 29
ENDMDL
MODEL 3
REMARK VINA RESULT:      -8.2      2.017      3.023
REMARK SMILES CC(=O)N[C@@H](Cc1c(OCC(C)C)ccc2ccccc12)C(=O)OCCOCCOCCOCCOC(=O)c1ccc(-c2c3nc(c(-c4c(F)cc(S(=O)(=O)[O-])cc4F)c4ccc([nH]4)c(-c4c(F)cc(S(=O)(=O)[O-])cc4F)c4nc(c(-c5c(F)cc(S(=O)(=O)[O-])cc5F)c5ccc2[nH]5)C=C4)C=C3)cc1
REMARK SMILES IDX 29 1 28 2 27 3 26 4 25 5 24 6 22 7 23 8 5 9 4 10 1 11 2 12
REMARK SMILES IDX 3 13 6 15 7 16 8 17 21 18 14 19 16 20 20 21 15 22 17 23
REMARK SMILES IDX 19 24 18 25 9 26 10 27 11 28 12 29 13 30 30 31 31 32 32 33
REMARK SMILES IDX 33 34 34 35 35 36 36 37 37 38 38 39 39 40 40 41 104 42 41 43
REMARK SMILES IDX 103 44 42 45 43 46 44 47 97 48 45 49 102 50 96 51 98 52
REMARK SMILES IDX 46 53 101 54 95 55 94 56 47 58 81 59 60 60 80 61 61 62 64 63
REMARK SMILES IDX 79 64 99 65 62 66 63 67 78 69 100 70 65 71 48 72 49 73 58 74
REMARK SMILES IDX 50 75 51 76 57 77 59 78 52 79 53 80 54 81 55 82 56 83 82 84
REMARK SMILES IDX 83 85 92 86 84 87 85 88 91 89 93 90 86 91 87 92 88 93 89 94
REMARK SMILES IDX 90 95 66 96 67 97 76 98 68 99 69 100 75 101 77 102 70 103
REMARK SMILES IDX 71 104 72 105 73 106 74 107
REMARK H PARENT 4 14 98 57 64 68
REMARK Flexibility Score: inf
ROOT
ATOM      1  C   UNL A   1      41.996  22.134  25.756  1.00  0.00     0.188 C 
ENDROOT
BRANCH   1   2
ATOM      2  C   UNL A   1      41.151  22.547  26.971  1.00  0.00     0.188 C 
BRANCH   2   3
ATOM      3  O   UNL A   1      40.853  23.918  27.220  1.00  0.00    -0.376 OA
BRANCH   3   4
ATOM      4  C   UNL A   1      39.830  24.564  26.470  1.00  0.00     0.202 C 
BRANCH   4   5
ATOM      5  C   UNL A   1      38.352  24.337  26.831  1.00  0.00     0.261 C 
BRANCH   5   6
ATOM      6  O   UNL A   1      37.744  23.205  26.189  1.00  0.00    -0.462 OA
BRANCH   6   7
ATOM      7  C   UNL A   1      37.025  23.432  25.057  1.00  0.00     0.329 C 
ATOM      8  O   UNL A   1      37.505  23.700  23.962  1.00  0.00    -0.250 OA
BRANCH   7   9
ATOM      9  C   UNL A   1      35.501  23.395  25.321  1.00  0.00     0.196 C 
BRANCH   9  10
ATOM     10  N   UNL A   1      35.099  22.775  26.586  1.00  0.00    -0.343 N 
ATOM     11  C   UNL A   1      34.042  20.706  25.773  1.00  0.00     0.114 C 
ATOM     12  C   UNL A   1      34.317  21.698  26.860  1.00  0.00     0.217 C 
ATOM     13  O   UNL A   1      33.914  21.511  28.007  1.00  0.00    -0.275 OA
ATOM     14  H   UNL A   1      35.463  23.221  27.385  1.00  0.00     0.164 HD
ENDBRANCH   9  10
BRANCH   9  15
ATOM     15  C   UNL A   1      34.915  24.827  25.290  1.00  0.00     0.077 C 
BRANCH  15  16
ATOM     16  C   UNL A   1      33.428  24.880  24.911  1.00  0.00     0.005 A 
ATOM     17  C   UNL A   1      32.612  25.821  25.578  1.00  0.00     0.123 A 
ATOM     18  C   UNL A   1      32.822  23.938  24.010  1.00  0.00    -0.011 A 
ATOM     19  C   UNL A   1      31.225  25.747  25.470  1.00  0.00     0.047 A 
ATOM     20  C   UNL A   1      31.407  23.892  23.924  1.00  0.00    -0.018 A 
ATOM     21  C   UNL A   1      33.528  23.019  23.195  1.00  0.00     0.009 A 
ATOM     22  C   UNL A   1      30.632  24.794  24.651  1.00  0.00     0.012 A 
ATOM     23  C   UNL A   1      30.765  22.927  23.131  1.00  0.00     0.009 A 
ATOM     24  C   UNL A   1      32.881  22.027  22.451  1.00  0.00     0.001 A 
ATOM     25  C   UNL A   1      31.496  21.979  22.423  1.00  0.00     0.001 A 
BRANCH  17  26
ATOM     26  O   UNL A   1      33.267  26.777  26.305  1.00  0.00    -0.493 OA
BRANCH  26  27
ATOM     27  C   UNL A   1      33.209  28.136  25.872  1.00  0.00     0.232 C 
BRANCH  27  28
ATOM     28  C   UNL A   1      31.907  28.866  26.265  1.00  0.00     0.020 C 
ATOM     29  C   UNL A   1      31.405  28.567  27.680  1.00  0.00     0.011 C 
ATOM     30  C   UNL A   1      32.119  30.374  26.124  1.00  0.00     0.011 C 
ENDBRANCH  27  28
ENDBRANCH  26  27
ENDBRANCH  17  26
ENDBRANCH  15  16
ENDBRANCH   9  15
ENDBRANCH   7   9
ENDBRANCH   6   7
ENDBRANCH   5   6
ENDBRANCH   4   5
ENDBRANCH   3   4
ENDBRANCH   2   3
ENDBRANCH   1   2
BRANCH   1  31
ATOM     31  O   UNL A   1      42.971  23.070  25.355  1.00  0.00    -0.377 OA
BRANCH  31  32
ATOM     32  C   UNL A   1      43.926  22.579  24.426  1.00  0.00     0.188 C 
BRANCH  32  33
ATOM     33  C   UNL A   1      45.025  21.657  25.001  1.00  0.00     0.188 C 
BRANCH  33  34
ATOM     34  O   UNL A   1      46.178  22.325  25.500  1.00  0.00    -0.376 OA
BRANCH  34  35
ATOM     35  C   UNL A   1      46.364  23.711  25.240  1.00  0.00     0.202 C 
BRANCH  35  36
ATOM     36  C   UNL A   1      46.386  24.722  26.405  1.00  0.00     0.261 C 
BRANCH  36  37
ATOM     37  O   UNL A   1      45.122  25.246  26.838  1.00  0.00    -0.460 OA
BRANCH  37  38
ATOM     38  C   UNL A   1      44.548  24.700  27.927  1.00  0.00     0.338 C 
ATOM     39  O   UNL A   1      44.380  23.511  28.147  1.00  0.00    -0.246 OA
BRANCH  38  40
ATOM     40  C   UNL A   1      44.358  25.778  28.921  1.00  0.00     0.060 A 
ATOM     41  C   UNL A   1      43.839  25.447  30.180  1.00  0.00     0.016 A 
ATOM     42  C   UNL A   1      44.708  27.098  28.627  1.00  0.00     0.016 A 
ATOM     43  C   UNL A   1      43.643  26.439  31.140  1.00  0.00     0.010 A 
ATOM     44  C   UNL A   1      44.478  28.097  29.577  1.00  0.00     0.010 A 
ATOM     45  C   UNL A   1      43.917  27.775  30.825  1.00  0.00    -0.014 A 
BRANCH  45  46
ATOM     46  C   UNL A   1      43.431  28.847  31.727  1.00  0.00     0.031 A 
ATOM     47  C   UNL A   1      44.224  29.144  32.971  1.00  0.00     0.074 A 
ATOM     48  C   UNL A   1      42.331  29.562  31.433  1.00  0.00     0.049 A 
ATOM     49  N   UNL A   1      43.973  29.991  33.933  1.00  0.00    -0.248 NA
ATOM     50  C   UNL A   1      45.469  28.378  33.152  1.00  0.00     0.031 C 
ATOM     51  C   UNL A   1      41.515  29.403  30.230  1.00  0.00     0.029 A 
ATOM     52  N   UNL A   1      41.708  30.563  32.134  1.00  0.00    -0.354 N 
ATOM     53  C   UNL A   1      45.019  29.856  34.837  1.00  0.00     0.074 A 
ATOM     54  C   UNL A   1      45.895  28.826  34.323  1.00  0.00     0.031 C 
ATOM     55  C   UNL A   1      40.486  30.266  30.287  1.00  0.00     0.029 A 
ATOM     56  C   UNL A   1      40.550  31.009  31.546  1.00  0.00     0.049 A 
ATOM     57  H   UNL A   1      42.057  30.927  32.980  1.00  0.00     0.167 HD
ATOM     58  C   UNL A   1      45.233  30.534  35.989  1.00  0.00     0.037 A 
ATOM     59  C   UNL A   1      39.633  31.894  31.988  1.00  0.00     0.037 A 
ATOM     60  C   UNL A   1      44.353  31.555  36.496  1.00  0.00     0.049 A 
ATOM     61  C   UNL A   1      39.847  32.576  33.317  1.00  0.00     0.074 A 
ATOM     62  C   UNL A   1      44.487  32.312  37.645  1.00  0.00     0.029 A 
ATOM     63  N   UNL A   1      43.169  31.953  35.891  1.00  0.00    -0.354 N 
ATOM     64  N   UNL A   1      40.851  32.457  34.155  1.00  0.00    -0.248 NA
ATOM     65  C   UNL A   1      38.807  33.513  33.761  1.00  0.00     0.031 C 
ATOM     66  C   UNL A   1      43.354  33.121  37.770  1.00  0.00     0.029 A 
ATOM     67  C   UNL A   1      42.546  32.920  36.662  1.00  0.00     0.049 A 
ATOM     68  H   UNL A   1      42.824  31.600  35.040  1.00  0.00     0.167 HD
ATOM     69  C   UNL A   1      40.574  33.321  35.210  1.00  0.00     0.074 A 
ATOM     70  C   UNL A   1      39.318  33.969  34.896  1.00  0.00     0.031 C 
ATOM     71  C   UNL A   1      41.294  33.558  36.336  1.00  0.00     0.037 A 
BRANCH  58  72
ATOM     72  C   UNL A   1      46.446  30.168  36.802  1.00  0.00     0.058 A 
ATOM     73  C   UNL A   1      47.696  30.771  36.588  1.00  0.00     0.135 A 
ATOM     74  C   UNL A   1      46.347  29.221  37.835  1.00  0.00     0.135 A 
ATOM     75  F   UNL A   1      47.854  31.668  35.601  1.00  0.00    -0.206 F 
ATOM     76  C   UNL A   1      48.807  30.434  37.353  1.00  0.00     0.059 A 
ATOM     77  C   UNL A   1      47.437  28.890  38.632  1.00  0.00     0.059 A 
ATOM     78  F   UNL A   1      45.178  28.608  38.079  1.00  0.00    -0.206 F 
ATOM     79  C   UNL A   1      48.668  29.494  38.375  1.00  0.00     0.060 A 
BRANCH  79  80
ATOM     80  S   UNL A   1      50.117  29.077  39.367  1.00  0.00     0.124 S 
ATOM     81  O   UNL A   1      50.369  27.701  38.951  1.00  0.00    -0.237 OA
ATOM     82  O   UNL A   1      51.093  30.064  38.919  1.00  0.00    -0.237 OA
ATOM     83  O   UNL A   1      49.650  29.240  40.740  1.00  0.00    -0.744 OA
ENDBRANCH  79  80
ENDBRANCH  58  72
BRANCH  59  84
ATOM     84  C   UNL A   1      38.413  32.170  31.180  1.00  0.00     0.058 A 
ATOM     85  C   UNL A   1      37.271  31.363  31.286  1.00  0.00     0.135 A 
ATOM     86  C   UNL A   1      38.368  33.248  30.281  1.00  0.00     0.135 A 
ATOM     87  F   UNL A   1      37.268  30.312  32.120  1.00  0.00    -0.206 F 
ATOM     88  C   UNL A   1      36.133  31.605  30.522  1.00  0.00     0.059 A 
ATOM     89  C   UNL A   1      37.232  33.529  29.529  1.00  0.00     0.059 A 
ATOM     90  F   UNL A   1      39.430  34.058  30.146  1.00  0.00    -0.206 F 
ATOM     91  C   UNL A   1      36.121  32.695  29.652  1.00  0.00     0.060 A 
BRANCH  91  92
ATOM     92  S   UNL A   1      34.616  33.038  28.714  1.00  0.00     0.124 S 
ATOM     93  O   UNL A   1      35.140  33.793  27.581  1.00  0.00    -0.237 OA
ATOM     94  O   UNL A   1      34.130  31.694  28.418  1.00  0.00    -0.237 OA
ATOM     95  O   UNL A   1      33.799  33.797  29.656  1.00  0.00    -0.744 OA
ENDBRANCH  91  92
ENDBRANCH  59  84
BRANCH  71  96
ATOM     96  C   UNL A   1      40.761  34.584  37.302  1.00  0.00     0.058 A 
ATOM     97  C   UNL A   1      39.777  34.266  38.253  1.00  0.00     0.135 A 
ATOM     98  C   UNL A   1      41.282  35.888  37.314  1.00  0.00     0.135 A 
ATOM     99  F   UNL A   1      39.240  33.036  38.283  1.00  0.00    -0.206 F 
ATOM    100  C   UNL A   1      39.310  35.212  39.161  1.00  0.00     0.059 A 
ATOM    101  C   UNL A   1      40.854  36.841  38.236  1.00  0.00     0.059 A 
ATOM    102  F   UNL A   1      42.234  36.246  36.437  1.00  0.00    -0.206 F 
ATOM    103  C   UNL A   1      39.857  36.496  39.147  1.00  0.00     0.060 A 
BRANCH 103 104
ATOM    104  S   UNL A   1      39.264  37.702  40.351  1.00  0.00     0.124 S 
ATOM    105  O   UNL A   1      38.158  38.322  39.628  1.00  0.00    -0.237 OA
ATOM    106  O   UNL A   1      38.888  36.855  41.480  1.00  0.00    -0.237 OA
ATOM    107  O   UNL A   1      40.424  38.559  40.577  1.00  0.00    -0.744 OA
ENDBRANCH 103 104
ENDBRANCH  71  96
ENDBRANCH  45  46
ENDBRANCH  38  40
ENDBRANCH  37  38
ENDBRANCH  36  37
ENDBRANCH  35  36
ENDBRANCH  34  35
ENDBRANCH  33  34
ENDBRANCH  32  33
ENDBRANCH  31  32
ENDBRANCH   1  31
TORSDOF 29
ENDMDL
