MODEL 1
REMARK VINA RESULT:      -9.5      0.000      0.000
REMARK SMILES CC1(C)CSC[C@@H]([N@H+]2CCC[C@H](CCC(=O)OCCOCCOCCOCCOC(=O)c3ccc(-c4c5nc(c(-c6c(F)cc(S(=O)(=O)[O-])cc6F)c6ccc([nH]6)c(-c6c(F)cc(S(=O)(=O)[O-])cc6F)c6nc(c(-c7c(F)cc(S(=O)(=O)[O-])cc7F)c7ccc4[nH]7)C=C6)C=C5)cc3)C2)C1
REMARK SMILES IDX 23 1 22 2 21 3 20 4 19 5 18 6 17 7 15 8 16 9 14 10 13 11
REMARK SMILES IDX 12 12 8 13 9 14 98 15 10 17 11 18 7 19 1 20 2 21 3 22 4 23
REMARK SMILES IDX 99 24 5 25 6 26 24 27 25 28 26 29 27 30 28 31 29 32 30 33
REMARK SMILES IDX 31 34 32 35 33 36 97 37 34 38 96 39 35 40 36 41 37 42 90 43
REMARK SMILES IDX 38 44 95 45 89 46 91 47 39 48 94 49 88 50 87 51 40 53 74 54
REMARK SMILES IDX 53 55 73 56 54 57 57 58 72 59 92 60 55 61 56 62 71 64 93 65
REMARK SMILES IDX 58 66 41 67 42 68 51 69 43 70 44 71 50 72 52 73 45 74 46 75
REMARK SMILES IDX 47 76 48 77 49 78 75 79 76 80 85 81 77 82 78 83 84 84 86 85
REMARK SMILES IDX 79 86 80 87 81 88 82 89 83 90 59 91 60 92 69 93 61 94 62 95
REMARK SMILES IDX 68 96 70 97 63 98 64 99 65 100 66 101 67 102
REMARK H PARENT 8 16 91 52 57 63
REMARK Flexibility Score: inf
ROOT
ATOM      1  O   UNL A   1      38.424  21.324  25.847  1.00  0.00    -0.377 OA
ENDROOT
BRANCH   1   2
ATOM      2  C   UNL A   1      37.427  22.179  25.306  1.00  0.00     0.188 C 
BRANCH   2   3
ATOM      3  C   UNL A   1      36.297  21.518  24.532  1.00  0.00     0.188 C 
BRANCH   3   4
ATOM      4  O   UNL A   1      35.678  20.515  25.308  1.00  0.00    -0.376 OA
BRANCH   4   5
ATOM      5  C   UNL A   1      35.734  19.213  24.748  1.00  0.00     0.202 C 
BRANCH   5   6
ATOM      6  C   UNL A   1      34.476  18.317  24.608  1.00  0.00     0.261 C 
BRANCH   6   7
ATOM      7  O   UNL A   1      33.146  18.838  24.858  1.00  0.00    -0.463 OA
BRANCH   7   8
ATOM      8  C   UNL A   1      32.515  19.452  23.831  1.00  0.00     0.305 C 
ATOM      9  O   UNL A   1      32.284  18.893  22.761  1.00  0.00    -0.252 OA
BRANCH   8  10
ATOM     10  C   UNL A   1      32.198  20.942  24.025  1.00  0.00     0.123 C 
BRANCH  10  11
ATOM     11  C   UNL A   1      32.477  21.716  25.330  1.00  0.00     0.021 C 
BRANCH  11  12
ATOM     12  C   UNL A   1      31.858  23.124  25.369  1.00  0.00     0.045 C 
ATOM     13  N   UNL A   1      32.388  25.536  25.491  1.00  0.00    -0.332 N 
ATOM     14  C   UNL A   1      31.318  25.815  26.431  1.00  0.00     0.262 C 
ATOM     15  C   UNL A   1      32.917  24.190  25.666  1.00  0.00     0.265 C 
ATOM     16  H   UNL A   1      33.104  26.201  25.781  1.00  0.00     0.348 HD
ATOM     17  C   UNL A   1      30.207  24.777  26.371  1.00  0.00     0.062 C 
ATOM     18  C   UNL A   1      30.694  23.319  26.356  1.00  0.00     0.015 C 
BRANCH  13  19
ATOM     19  C   UNL A   1      32.319  26.041  24.102  1.00  0.00     0.194 C 
ATOM     20  C   UNL A   1      31.037  29.292  24.567  1.00  0.00     0.012 C 
ATOM     21  C   UNL A   1      31.179  28.412  23.317  1.00  0.00    -0.021 C 
ATOM     22  C   UNL A   1      29.967  28.792  22.430  1.00  0.00     0.012 C 
ATOM     23  C   UNL A   1      32.472  28.792  22.598  1.00  0.00     0.076 C 
ATOM     24  C   UNL A   1      31.142  26.861  23.492  1.00  0.00     0.073 C 
ATOM     25  S   UNL A   1      33.935  28.297  23.568  1.00  0.00    -0.155 SA
ATOM     26  C   UNL A   1      33.660  26.515  23.536  1.00  0.00     0.134 C 
ENDBRANCH  13  19
ENDBRANCH  11  12
ENDBRANCH  10  11
ENDBRANCH   8  10
ENDBRANCH   7   8
ENDBRANCH   6   7
ENDBRANCH   5   6
ENDBRANCH   4   5
ENDBRANCH   3   4
ENDBRANCH   2   3
ENDBRANCH   1   2
BRANCH   1  27
ATOM     27  C   UNL A   1      39.615  21.866  26.400  1.00  0.00     0.188 C 
BRANCH  27  28
ATOM     28  C   UNL A   1      40.881  21.011  26.491  1.00  0.00     0.188 C 
BRANCH  28  29
ATOM     29  O   UNL A   1      42.029  21.517  27.160  1.00  0.00    -0.376 OA
BRANCH  29  30
ATOM     30  C   UNL A   1      43.090  22.080  26.396  1.00  0.00     0.202 C 
BRANCH  30  31
ATOM     31  C   UNL A   1      42.799  23.387  25.671  1.00  0.00     0.261 C 
BRANCH  31  32
ATOM     32  O   UNL A   1      43.038  24.534  26.498  1.00  0.00    -0.460 OA
BRANCH  32  33
ATOM     33  C   UNL A   1      42.558  25.705  26.015  1.00  0.00     0.338 C 
ATOM     34  O   UNL A   1      42.423  26.028  24.853  1.00  0.00    -0.246 OA
BRANCH  33  35
ATOM     35  C   UNL A   1      42.132  26.553  27.145  1.00  0.00     0.060 A 
ATOM     36  C   UNL A   1      42.820  27.745  27.399  1.00  0.00     0.016 A 
ATOM     37  C   UNL A   1      41.112  26.131  27.996  1.00  0.00     0.016 A 
ATOM     38  C   UNL A   1      42.498  28.520  28.523  1.00  0.00     0.010 A 
ATOM     39  C   UNL A   1      40.788  26.913  29.110  1.00  0.00     0.010 A 
ATOM     40  C   UNL A   1      41.486  28.109  29.398  1.00  0.00    -0.014 A 
BRANCH  40  41
ATOM     41  C   UNL A   1      41.205  28.800  30.691  1.00  0.00     0.031 A 
ATOM     42  C   UNL A   1      40.209  29.925  30.680  1.00  0.00     0.074 A 
ATOM     43  C   UNL A   1      41.820  28.502  31.855  1.00  0.00     0.049 A 
ATOM     44  N   UNL A   1      39.893  30.754  31.636  1.00  0.00    -0.248 NA
ATOM     45  C   UNL A   1      39.446  30.112  29.434  1.00  0.00     0.031 C 
ATOM     46  C   UNL A   1      42.681  27.354  32.095  1.00  0.00     0.029 A 
ATOM     47  N   UNL A   1      41.866  29.191  33.049  1.00  0.00    -0.354 N 
ATOM     48  C   UNL A   1      38.851  31.515  31.132  1.00  0.00     0.074 A 
ATOM     49  C   UNL A   1      38.677  31.142  29.747  1.00  0.00     0.031 C 
ATOM     50  C   UNL A   1      43.295  27.496  33.284  1.00  0.00     0.029 A 
ATOM     51  C   UNL A   1      42.847  28.733  33.905  1.00  0.00     0.049 A 
ATOM     52  H   UNL A   1      41.260  29.935  33.269  1.00  0.00     0.167 HD
ATOM     53  C   UNL A   1      38.054  32.387  31.790  1.00  0.00     0.037 A 
ATOM     54  C   UNL A   1      43.345  29.254  35.045  1.00  0.00     0.037 A 
ATOM     55  C   UNL A   1      38.235  32.769  33.162  1.00  0.00     0.049 A 
ATOM     56  C   UNL A   1      42.624  30.415  35.674  1.00  0.00     0.074 A 
ATOM     57  C   UNL A   1      37.463  33.626  33.924  1.00  0.00     0.029 A 
ATOM     58  N   UNL A   1      39.277  32.340  33.972  1.00  0.00    -0.354 N 
ATOM     59  N   UNL A   1      41.582  31.070  35.222  1.00  0.00    -0.248 NA
ATOM     60  C   UNL A   1      43.078  30.849  37.003  1.00  0.00     0.031 C 
ATOM     61  C   UNL A   1      38.075  33.768  35.173  1.00  0.00     0.029 A 
ATOM     62  C   UNL A   1      39.194  32.951  35.212  1.00  0.00     0.049 A 
ATOM     63  H   UNL A   1      39.972  31.696  33.704  1.00  0.00     0.167 HD
ATOM     64  C   UNL A   1      41.195  31.922  36.248  1.00  0.00     0.074 A 
ATOM     65  C   UNL A   1      42.140  31.730  37.330  1.00  0.00     0.031 C 
ATOM     66  C   UNL A   1      40.124  32.751  36.297  1.00  0.00     0.037 A 
BRANCH  53  67
ATOM     67  C   UNL A   1      36.907  32.960  31.013  1.00  0.00     0.058 A 
ATOM     68  C   UNL A   1      37.114  33.926  30.012  1.00  0.00     0.135 A 
ATOM     69  C   UNL A   1      35.591  32.561  31.282  1.00  0.00     0.135 A 
ATOM     70  F   UNL A   1      38.354  34.359  29.734  1.00  0.00    -0.206 F 
ATOM     71  C   UNL A   1      36.051  34.506  29.334  1.00  0.00     0.059 A 
ATOM     72  C   UNL A   1      34.513  33.106  30.593  1.00  0.00     0.059 A 
ATOM     73  F   UNL A   1      35.340  31.650  32.235  1.00  0.00    -0.206 F 
ATOM     74  C   UNL A   1      34.752  34.090  29.634  1.00  0.00     0.060 A 
BRANCH  74  75
ATOM     75  S   UNL A   1      33.382  34.864  28.752  1.00  0.00     0.124 S 
ATOM     76  O   UNL A   1      33.079  33.856  27.742  1.00  0.00    -0.237 OA
ATOM     77  O   UNL A   1      32.386  35.023  29.807  1.00  0.00    -0.237 OA
ATOM     78  O   UNL A   1      33.960  36.105  28.247  1.00  0.00    -0.744 OA
ENDBRANCH  74  75
ENDBRANCH  53  67
BRANCH  54  79
ATOM     79  C   UNL A   1      44.537  28.658  35.714  1.00  0.00     0.058 A 
ATOM     80  C   UNL A   1      45.837  29.060  35.375  1.00  0.00     0.135 A 
ATOM     81  C   UNL A   1      44.404  27.639  36.672  1.00  0.00     0.135 A 
ATOM     82  F   UNL A   1      46.021  30.017  34.453  1.00  0.00    -0.206 F 
ATOM     83  C   UNL A   1      46.960  28.466  35.945  1.00  0.00     0.059 A 
ATOM     84  C   UNL A   1      45.513  27.039  37.269  1.00  0.00     0.059 A 
ATOM     85  F   UNL A   1      43.185  27.206  37.029  1.00  0.00    -0.206 F 
ATOM     86  C   UNL A   1      46.789  27.457  36.894  1.00  0.00     0.060 A 
BRANCH  86  87
ATOM     87  S   UNL A   1      48.263  26.724  37.643  1.00  0.00     0.124 S 
ATOM     88  O   UNL A   1      47.698  26.025  38.792  1.00  0.00    -0.237 OA
ATOM     89  O   UNL A   1      48.759  25.877  36.562  1.00  0.00    -0.237 OA
ATOM     90  O   UNL A   1      49.096  27.881  37.955  1.00  0.00    -0.744 OA
ENDBRANCH  86  87
ENDBRANCH  54  79
BRANCH  66  91
ATOM     91  C   UNL A   1      39.859  33.479  37.585  1.00  0.00     0.058 A 
ATOM     92  C   UNL A   1      40.425  34.731  37.863  1.00  0.00     0.135 A 
ATOM     93  C   UNL A   1      38.959  32.943  38.523  1.00  0.00     0.135 A 
ATOM     94  F   UNL A   1      41.300  35.283  37.007  1.00  0.00    -0.206 F 
ATOM     95  C   UNL A   1      40.117  35.423  39.029  1.00  0.00     0.059 A 
ATOM     96  C   UNL A   1      38.612  33.631  39.679  1.00  0.00     0.059 A 
ATOM     97  F   UNL A   1      38.385  31.749  38.305  1.00  0.00    -0.206 F 
ATOM     98  C   UNL A   1      39.201  34.870  39.927  1.00  0.00     0.060 A 
BRANCH  98  99
ATOM     99  S   UNL A   1      38.762  35.811  41.403  1.00  0.00     0.124 S 
ATOM    100  O   UNL A   1      38.853  37.183  40.917  1.00  0.00    -0.237 OA
ATOM    101  O   UNL A   1      37.416  35.327  41.690  1.00  0.00    -0.237 OA
ATOM    102  O   UNL A   1      39.782  35.419  42.373  1.00  0.00    -0.744 OA
ENDBRANCH  98  99
ENDBRANCH  66  91
ENDBRANCH  40  41
ENDBRANCH  33  35
ENDBRANCH  32  33
ENDBRANCH  31  32
ENDBRANCH  30  31
ENDBRANCH  29  30
ENDBRANCH  28  29
ENDBRANCH  27  28
ENDBRANCH   1  27
TORSDOF 26
ENDMDL
MODEL 2
REMARK VINA RESULT:      -8.0      5.319     13.376
REMARK SMILES CC1(C)CSC[C@@H]([N@H+]2CCC[C@H](CCC(=O)OCCOCCOCCOCCOC(=O)c3ccc(-c4c5nc(c(-c6c(F)cc(S(=O)(=O)[O-])cc6F)c6ccc([nH]6)c(-c6c(F)cc(S(=O)(=O)[O-])cc6F)c6nc(c(-c7c(F)cc(S(=O)(=O)[O-])cc7F)c7ccc4[nH]7)C=C6)C=C5)cc3)C2)C1
REMARK SMILES IDX 23 1 22 2 21 3 20 4 19 5 18 6 17 7 15 8 16 9 14 10 13 11
REMARK SMILES IDX 12 12 8 13 9 14 98 15 10 17 11 18 7 19 1 20 2 21 3 22 4 23
REMARK SMILES IDX 99 24 5 25 6 26 24 27 25 28 26 29 27 30 28 31 29 32 30 33
REMARK SMILES IDX 31 34 32 35 33 36 97 37 34 38 96 39 35 40 36 41 37 42 90 43
REMARK SMILES IDX 38 44 95 45 89 46 91 47 39 48 94 49 88 50 87 51 40 53 74 54
REMARK SMILES IDX 53 55 73 56 54 57 57 58 72 59 92 60 55 61 56 62 71 64 93 65
REMARK SMILES IDX 58 66 41 67 42 68 51 69 43 70 44 71 50 72 52 73 45 74 46 75
REMARK SMILES IDX 47 76 48 77 49 78 75 79 76 80 85 81 77 82 78 83 84 84 86 85
REMARK SMILES IDX 79 86 80 87 81 88 82 89 83 90 59 91 60 92 69 93 61 94 62 95
REMARK SMILES IDX 68 96 70 97 63 98 64 99 65 100 66 101 67 102
REMARK H PARENT 8 16 91 52 57 63
REMARK Flexibility Score: inf
ROOT
ATOM      1  O   UNL A   1      49.613  22.553  40.843  1.00  0.00    -0.377 OA
ENDROOT
BRANCH   1   2
ATOM      2  C   UNL A   1      50.296  21.356  40.505  1.00  0.00     0.188 C 
BRANCH   2   3
ATOM      3  C   UNL A   1      50.132  20.846  39.082  1.00  0.00     0.188 C 
BRANCH   3   4
ATOM      4  O   UNL A   1      50.891  19.675  38.877  1.00  0.00    -0.376 OA
BRANCH   4   5
ATOM      5  C   UNL A   1      50.927  19.219  37.534  1.00  0.00     0.202 C 
BRANCH   5   6
ATOM      6  C   UNL A   1      51.988  19.719  36.519  1.00  0.00     0.261 C 
BRANCH   6   7
ATOM      7  O   UNL A   1      52.304  18.962  35.323  1.00  0.00    -0.463 OA
BRANCH   7   8
ATOM      8  C   UNL A   1      52.937  19.615  34.322  1.00  0.00     0.305 C 
ATOM      9  O   UNL A   1      53.773  19.076  33.600  1.00  0.00    -0.252 OA
BRANCH   8  10
ATOM     10  C   UNL A   1      52.645  21.117  34.201  1.00  0.00     0.123 C 
BRANCH  10  11
ATOM     11  C   UNL A   1      51.602  21.713  33.235  1.00  0.00     0.021 C 
BRANCH  11  12
ATOM     12  C   UNL A   1      50.149  21.586  33.723  1.00  0.00     0.045 C 
ATOM     13  N   UNL A   1      48.617  22.102  35.594  1.00  0.00    -0.332 N 
ATOM     14  C   UNL A   1      47.957  20.811  35.528  1.00  0.00     0.262 C 
ATOM     15  C   UNL A   1      50.013  22.010  35.188  1.00  0.00     0.265 C 
ATOM     16  H   UNL A   1      48.588  22.305  36.593  1.00  0.00     0.348 HD
ATOM     17  C   UNL A   1      48.088  20.162  34.158  1.00  0.00     0.062 C 
ATOM     18  C   UNL A   1      49.507  20.196  33.567  1.00  0.00     0.015 C 
BRANCH  13  19
ATOM     19  C   UNL A   1      47.898  23.335  35.207  1.00  0.00     0.194 C 
ATOM     20  C   UNL A   1      44.560  22.215  35.039  1.00  0.00     0.012 C 
ATOM     21  C   UNL A   1      45.242  23.492  34.530  1.00  0.00    -0.021 C 
ATOM     22  C   UNL A   1      44.472  23.859  33.236  1.00  0.00     0.012 C 
ATOM     23  C   UNL A   1      45.046  24.597  35.567  1.00  0.00     0.076 C 
ATOM     24  C   UNL A   1      46.755  23.425  34.150  1.00  0.00     0.073 C 
ATOM     25  S   UNL A   1      45.995  24.251  37.085  1.00  0.00    -0.155 SA
ATOM     26  C   UNL A   1      47.646  24.308  36.362  1.00  0.00     0.134 C 
ENDBRANCH  13  19
ENDBRANCH  11  12
ENDBRANCH  10  11
ENDBRANCH   8  10
ENDBRANCH   7   8
ENDBRANCH   6   7
ENDBRANCH   5   6
ENDBRANCH   4   5
ENDBRANCH   3   4
ENDBRANCH   2   3
ENDBRANCH   1   2
BRANCH   1  27
ATOM     27  C   UNL A   1      49.039  23.367  39.830  1.00  0.00     0.188 C 
BRANCH  27  28
ATOM     28  C   UNL A   1      49.862  24.480  39.178  1.00  0.00     0.188 C 
BRANCH  28  29
ATOM     29  O   UNL A   1      50.275  25.600  39.951  1.00  0.00    -0.376 OA
BRANCH  29  30
ATOM     30  C   UNL A   1      49.316  26.585  40.319  1.00  0.00     0.202 C 
BRANCH  30  31
ATOM     31  C   UNL A   1      48.222  26.895  39.306  1.00  0.00     0.261 C 
BRANCH  31  32
ATOM     32  O   UNL A   1      48.226  28.273  38.905  1.00  0.00    -0.460 OA
BRANCH  32  33
ATOM     33  C   UNL A   1      48.634  28.504  37.634  1.00  0.00     0.338 C 
ATOM     34  O   UNL A   1      49.753  28.380  37.181  1.00  0.00    -0.246 OA
BRANCH  33  35
ATOM     35  C   UNL A   1      47.466  28.878  36.814  1.00  0.00     0.060 A 
ATOM     36  C   UNL A   1      47.467  30.108  36.147  1.00  0.00     0.016 A 
ATOM     37  C   UNL A   1      46.342  28.054  36.773  1.00  0.00     0.016 A 
ATOM     38  C   UNL A   1      46.331  30.530  35.441  1.00  0.00     0.010 A 
ATOM     39  C   UNL A   1      45.216  28.475  36.058  1.00  0.00     0.010 A 
ATOM     40  C   UNL A   1      45.188  29.724  35.396  1.00  0.00    -0.014 A 
BRANCH  40  41
ATOM     41  C   UNL A   1      43.899  30.183  34.800  1.00  0.00     0.031 A 
ATOM     42  C   UNL A   1      43.612  29.801  33.376  1.00  0.00     0.074 A 
ATOM     43  C   UNL A   1      42.998  30.951  35.450  1.00  0.00     0.049 A 
ATOM     44  N   UNL A   1      42.632  30.181  32.603  1.00  0.00    -0.248 NA
ATOM     45  C   UNL A   1      44.535  28.835  32.758  1.00  0.00     0.031 C 
ATOM     46  C   UNL A   1      43.024  31.280  36.867  1.00  0.00     0.029 A 
ATOM     47  N   UNL A   1      41.911  31.656  34.977  1.00  0.00    -0.354 N 
ATOM     48  C   UNL A   1      42.782  29.452  31.435  1.00  0.00     0.074 A 
ATOM     49  C   UNL A   1      44.017  28.709  31.547  1.00  0.00     0.031 C 
ATOM     50  C   UNL A   1      42.113  32.239  37.120  1.00  0.00     0.029 A 
ATOM     51  C   UNL A   1      41.418  32.570  35.885  1.00  0.00     0.049 A 
ATOM     52  H   UNL A   1      41.524  31.520  34.082  1.00  0.00     0.167 HD
ATOM     53  C   UNL A   1      41.924  29.345  30.396  1.00  0.00     0.037 A 
ATOM     54  C   UNL A   1      40.527  33.574  35.741  1.00  0.00     0.037 A 
ATOM     55  C   UNL A   1      40.705  30.094  30.276  1.00  0.00     0.049 A 
ATOM     56  C   UNL A   1      39.731  33.643  34.467  1.00  0.00     0.074 A 
ATOM     57  C   UNL A   1      39.757  30.035  29.272  1.00  0.00     0.029 A 
ATOM     58  N   UNL A   1      40.276  31.058  31.177  1.00  0.00    -0.354 N 
ATOM     59  N   UNL A   1      39.830  32.887  33.401  1.00  0.00    -0.248 NA
ATOM     60  C   UNL A   1      38.645  34.631  34.405  1.00  0.00     0.031 C 
ATOM     61  C   UNL A   1      38.789  31.010  29.531  1.00  0.00     0.029 A 
ATOM     62  C   UNL A   1      39.100  31.635  30.728  1.00  0.00     0.049 A 
ATOM     63  H   UNL A   1      40.741  31.297  32.012  1.00  0.00     0.167 HD
ATOM     64  C   UNL A   1      38.761  33.237  32.587  1.00  0.00     0.074 A 
ATOM     65  C   UNL A   1      38.052  34.304  33.264  1.00  0.00     0.031 C 
ATOM     66  C   UNL A   1      38.383  32.687  31.407  1.00  0.00     0.037 A 
BRANCH  53  67
ATOM     67  C   UNL A   1      42.290  28.362  29.325  1.00  0.00     0.058 A 
ATOM     68  C   UNL A   1      43.198  28.698  28.304  1.00  0.00     0.135 A 
ATOM     69  C   UNL A   1      41.718  27.083  29.302  1.00  0.00     0.135 A 
ATOM     70  F   UNL A   1      43.754  29.920  28.268  1.00  0.00    -0.206 F 
ATOM     71  C   UNL A   1      43.491  27.815  27.275  1.00  0.00     0.059 A 
ATOM     72  C   UNL A   1      42.023  26.170  28.299  1.00  0.00     0.059 A 
ATOM     73  F   UNL A   1      40.840  26.717  30.248  1.00  0.00    -0.206 F 
ATOM     74  C   UNL A   1      42.897  26.552  27.280  1.00  0.00     0.060 A 
BRANCH  74  75
ATOM     75  S   UNL A   1      43.280  25.420  25.929  1.00  0.00     0.124 S 
ATOM     76  O   UNL A   1      44.738  25.480  25.904  1.00  0.00    -0.237 OA
ATOM     77  O   UNL A   1      42.704  24.166  26.403  1.00  0.00    -0.237 OA
ATOM     78  O   UNL A   1      42.607  26.022  24.782  1.00  0.00    -0.744 OA
ENDBRANCH  74  75
ENDBRANCH  53  67
BRANCH  54  79
ATOM     79  C   UNL A   1      40.277  34.551  36.839  1.00  0.00     0.058 A 
ATOM     80  C   UNL A   1      39.240  34.358  37.762  1.00  0.00     0.135 A 
ATOM     81  C   UNL A   1      41.041  35.725  36.959  1.00  0.00     0.135 A 
ATOM     82  F   UNL A   1      38.469  33.263  37.681  1.00  0.00    -0.206 F 
ATOM     83  C   UNL A   1      38.955  35.295  38.752  1.00  0.00     0.059 A 
ATOM     84  C   UNL A   1      40.786  36.671  37.953  1.00  0.00     0.059 A 
ATOM     85  F   UNL A   1      42.041  35.969  36.099  1.00  0.00    -0.206 F 
ATOM     86  C   UNL A   1      39.735  36.449  38.842  1.00  0.00     0.060 A 
BRANCH  86  87
ATOM     87  S   UNL A   1      39.366  37.635  40.156  1.00  0.00     0.124 S 
ATOM     88  O   UNL A   1      38.959  36.757  41.247  1.00  0.00    -0.237 OA
ATOM     89  O   UNL A   1      40.652  38.306  40.323  1.00  0.00    -0.237 OA
ATOM     90  O   UNL A   1      38.308  38.461  39.580  1.00  0.00    -0.744 OA
ENDBRANCH  86  87
ENDBRANCH  54  79
BRANCH  66  91
ATOM     91  C   UNL A   1      37.104  33.173  30.784  1.00  0.00     0.058 A 
ATOM     92  C   UNL A   1      35.853  32.933  31.368  1.00  0.00     0.135 A 
ATOM     93  C   UNL A   1      37.145  33.959  29.619  1.00  0.00     0.135 A 
ATOM     94  F   UNL A   1      35.755  32.178  32.474  1.00  0.00    -0.206 F 
ATOM     95  C   UNL A   1      34.685  33.446  30.815  1.00  0.00     0.059 A 
ATOM     96  C   UNL A   1      35.995  34.510  29.068  1.00  0.00     0.059 A 
ATOM     97  F   UNL A   1      38.318  34.223  29.021  1.00  0.00    -0.206 F 
ATOM     98  C   UNL A   1      34.766  34.243  29.671  1.00  0.00     0.060 A 
BRANCH  98  99
ATOM     99  S   UNL A   1      33.248  34.956  29.005  1.00  0.00     0.124 S 
ATOM    100  O   UNL A   1      32.960  34.055  27.895  1.00  0.00    -0.237 OA
ATOM    101  O   UNL A   1      32.340  34.871  30.144  1.00  0.00    -0.237 OA
ATOM    102  O   UNL A   1      33.645  36.311  28.627  1.00  0.00    -0.744 OA
ENDBRANCH  98  99
ENDBRANCH  66  91
ENDBRANCH  40  41
ENDBRANCH  33  35
ENDBRANCH  32  33
ENDBRANCH  31  32
ENDBRANCH  30  31
ENDBRANCH  29  30
ENDBRANCH  28  29
ENDBRANCH  27  28
ENDBRANCH   1  27
TORSDOF 26
ENDMDL
MODEL 3
REMARK VINA RESULT:      -7.7      5.596      9.419
REMARK SMILES CC1(C)CSC[C@@H]([N@H+]2CCC[C@H](CCC(=O)OCCOCCOCCOCCOC(=O)c3ccc(-c4c5nc(c(-c6c(F)cc(S(=O)(=O)[O-])cc6F)c6ccc([nH]6)c(-c6c(F)cc(S(=O)(=O)[O-])cc6F)c6nc(c(-c7c(F)cc(S(=O)(=O)[O-])cc7F)c7ccc4[nH]7)C=C6)C=C5)cc3)C2)C1
REMARK SMILES IDX 23 1 22 2 21 3 20 4 19 5 18 6 17 7 15 8 16 9 14 10 13 11
REMARK SMILES IDX 12 12 8 13 9 14 98 15 10 17 11 18 7 19 1 20 2 21 3 22 4 23
REMARK SMILES IDX 99 24 5 25 6 26 24 27 25 28 26 29 27 30 28 31 29 32 30 33
REMARK SMILES IDX 31 34 32 35 33 36 97 37 34 38 96 39 35 40 36 41 37 42 90 43
REMARK SMILES IDX 38 44 95 45 89 46 91 47 39 48 94 49 88 50 87 51 40 53 74 54
REMARK SMILES IDX 53 55 73 56 54 57 57 58 72 59 92 60 55 61 56 62 71 64 93 65
REMARK SMILES IDX 58 66 41 67 42 68 51 69 43 70 44 71 50 72 52 73 45 74 46 75
REMARK SMILES IDX 47 76 48 77 49 78 75 79 76 80 85 81 77 82 78 83 84 84 86 85
REMARK SMILES IDX 79 86 80 87 81 88 82 89 83 90 59 91 60 92 69 93 61 94 62 95
REMARK SMILES IDX 68 96 70 97 63 98 64 99 65 100 66 101 67 102
REMARK H PARENT 8 16 91 52 57 63
REMARK Flexibility Score: inf
ROOT
ATOM      1  O   UNL A   1      35.231  33.649  30.700  1.00  0.00    -0.377 OA
ENDROOT
BRANCH   1   2
ATOM      2  C   UNL A   1      34.005  34.103  30.146  1.00  0.00     0.188 C 
BRANCH   2   3
ATOM      3  C   UNL A   1      34.091  34.999  28.921  1.00  0.00     0.188 C 
BRANCH   3   4
ATOM      4  O   UNL A   1      33.926  34.249  27.737  1.00  0.00    -0.376 OA
BRANCH   4   5
ATOM      5  C   UNL A   1      33.200  33.041  27.898  1.00  0.00     0.202 C 
BRANCH   5   6
ATOM      6  C   UNL A   1      33.663  31.706  27.259  1.00  0.00     0.261 C 
BRANCH   6   7
ATOM      7  O   UNL A   1      33.839  30.508  28.056  1.00  0.00    -0.463 OA
BRANCH   7   8
ATOM      8  C   UNL A   1      34.490  29.469  27.485  1.00  0.00     0.305 C 
ATOM      9  O   UNL A   1      35.714  29.425  27.386  1.00  0.00    -0.252 OA
BRANCH   8  10
ATOM     10  C   UNL A   1      33.609  28.383  26.851  1.00  0.00     0.123 C 
BRANCH  10  11
ATOM     11  C   UNL A   1      34.163  27.185  26.055  1.00  0.00     0.021 C 
BRANCH  11  12
ATOM     12  C   UNL A   1      33.126  26.084  25.776  1.00  0.00     0.045 C 
ATOM     13  N   UNL A   1      30.738  25.485  26.002  1.00  0.00    -0.332 N 
ATOM     14  C   UNL A   1      31.026  24.120  26.406  1.00  0.00     0.262 C 
ATOM     15  C   UNL A   1      31.782  26.403  26.437  1.00  0.00     0.265 C 
ATOM     16  H   UNL A   1      29.891  25.689  26.532  1.00  0.00     0.348 HD
ATOM     17  C   UNL A   1      32.396  23.653  25.938  1.00  0.00     0.062 C 
ATOM     18  C   UNL A   1      33.534  24.657  26.187  1.00  0.00     0.015 C 
BRANCH  13  19
ATOM     19  C   UNL A   1      30.119  25.765  24.688  1.00  0.00     0.194 C 
ATOM     20  C   UNL A   1      31.697  28.779  23.763  1.00  0.00     0.012 C 
ATOM     21  C   UNL A   1      30.454  28.061  23.219  1.00  0.00    -0.021 C 
ATOM     22  C   UNL A   1      29.511  29.202  22.759  1.00  0.00     0.012 C 
ATOM     23  C   UNL A   1      30.864  27.223  22.009  1.00  0.00     0.076 C 
ATOM     24  C   UNL A   1      29.631  27.161  24.194  1.00  0.00     0.073 C 
ATOM     25  S   UNL A   1      31.915  25.818  22.506  1.00  0.00    -0.155 SA
ATOM     26  C   UNL A   1      30.705  24.955  23.528  1.00  0.00     0.134 C 
ENDBRANCH  13  19
ENDBRANCH  11  12
ENDBRANCH  10  11
ENDBRANCH   8  10
ENDBRANCH   7   8
ENDBRANCH   6   7
ENDBRANCH   5   6
ENDBRANCH   4   5
ENDBRANCH   3   4
ENDBRANCH   2   3
ENDBRANCH   1   2
BRANCH   1  27
ATOM     27  C   UNL A   1      35.915  32.543  30.129  1.00  0.00     0.188 C 
BRANCH  27  28
ATOM     28  C   UNL A   1      36.918  32.760  28.994  1.00  0.00     0.188 C 
BRANCH  28  29
ATOM     29  O   UNL A   1      38.232  32.228  29.100  1.00  0.00    -0.376 OA
BRANCH  29  30
ATOM     30  C   UNL A   1      38.407  30.822  29.233  1.00  0.00     0.202 C 
BRANCH  30  31
ATOM     31  C   UNL A   1      39.209  30.337  30.432  1.00  0.00     0.261 C 
BRANCH  31  32
ATOM     32  O   UNL A   1      38.553  29.270  31.131  1.00  0.00    -0.460 OA
BRANCH  32  33
ATOM     33  C   UNL A   1      37.430  29.623  31.804  1.00  0.00     0.338 C 
ATOM     34  O   UNL A   1      36.283  29.340  31.530  1.00  0.00    -0.246 OA
BRANCH  33  35
ATOM     35  C   UNL A   1      37.812  30.376  33.014  1.00  0.00     0.060 A 
ATOM     36  C   UNL A   1      37.202  31.610  33.269  1.00  0.00     0.016 A 
ATOM     37  C   UNL A   1      38.825  29.905  33.846  1.00  0.00     0.016 A 
ATOM     38  C   UNL A   1      37.615  32.390  34.359  1.00  0.00     0.010 A 
ATOM     39  C   UNL A   1      39.227  30.682  34.938  1.00  0.00     0.010 A 
ATOM     40  C   UNL A   1      38.639  31.941  35.201  1.00  0.00    -0.014 A 
BRANCH  40  41
ATOM     41  C   UNL A   1      39.232  32.791  36.276  1.00  0.00     0.031 A 
ATOM     42  C   UNL A   1      40.491  33.544  35.955  1.00  0.00     0.074 A 
ATOM     43  C   UNL A   1      38.728  32.890  37.524  1.00  0.00     0.049 A 
ATOM     44  N   UNL A   1      41.260  34.239  36.748  1.00  0.00    -0.248 NA
ATOM     45  C   UNL A   1      40.918  33.539  34.545  1.00  0.00     0.031 C 
ATOM     46  C   UNL A   1      37.443  32.372  37.968  1.00  0.00     0.029 A 
ATOM     47  N   UNL A   1      39.278  33.410  38.676  1.00  0.00    -0.354 N 
ATOM     48  C   UNL A   1      42.218  34.807  35.925  1.00  0.00     0.074 A 
ATOM     49  C   UNL A   1      42.017  34.272  34.597  1.00  0.00     0.031 C 
ATOM     50  C   UNL A   1      37.368  32.449  39.309  1.00  0.00     0.029 A 
ATOM     51  C   UNL A   1      38.591  33.051  39.818  1.00  0.00     0.049 A 
ATOM     52  H   UNL A   1      40.080  33.981  38.685  1.00  0.00     0.167 HD
ATOM     53  C   UNL A   1      43.131  35.756  36.231  1.00  0.00     0.037 A 
ATOM     54  C   UNL A   1      38.913  33.171  41.123  1.00  0.00     0.037 A 
ATOM     55  C   UNL A   1      43.342  36.277  37.552  1.00  0.00     0.049 A 
ATOM     56  C   UNL A   1      40.102  34.017  41.490  1.00  0.00     0.074 A 
ATOM     57  C   UNL A   1      44.227  37.259  37.957  1.00  0.00     0.029 A 
ATOM     58  N   UNL A   1      42.679  35.840  38.690  1.00  0.00    -0.354 N 
ATOM     59  N   UNL A   1      40.951  34.620  40.694  1.00  0.00    -0.248 NA
ATOM     60  C   UNL A   1      40.326  34.279  42.919  1.00  0.00     0.031 C 
ATOM     61  C   UNL A   1      44.147  37.369  39.349  1.00  0.00     0.029 A 
ATOM     62  C   UNL A   1      43.168  36.501  39.805  1.00  0.00     0.049 A 
ATOM     63  H   UNL A   1      41.966  35.161  38.703  1.00  0.00     0.167 HD
ATOM     64  C   UNL A   1      41.745  35.410  41.515  1.00  0.00     0.074 A 
ATOM     65  C   UNL A   1      41.303  35.177  42.875  1.00  0.00     0.031 C 
ATOM     66  C   UNL A   1      42.720  36.282  41.159  1.00  0.00     0.037 A 
BRANCH  53  67
ATOM     67  C   UNL A   1      43.949  36.289  35.093  1.00  0.00     0.058 A 
ATOM     68  C   UNL A   1      45.216  35.756  34.793  1.00  0.00     0.135 A 
ATOM     69  C   UNL A   1      43.478  37.350  34.309  1.00  0.00     0.135 A 
ATOM     70  F   UNL A   1      45.722  34.755  35.531  1.00  0.00    -0.206 F 
ATOM     71  C   UNL A   1      46.004  36.287  33.781  1.00  0.00     0.059 A 
ATOM     72  C   UNL A   1      44.237  37.876  33.270  1.00  0.00     0.059 A 
ATOM     73  F   UNL A   1      42.280  37.898  34.561  1.00  0.00    -0.206 F 
ATOM     74  C   UNL A   1      45.506  37.349  33.026  1.00  0.00     0.060 A 
BRANCH  74  75
ATOM     75  S   UNL A   1      46.548  38.036  31.723  1.00  0.00     0.124 S 
ATOM     76  O   UNL A   1      45.596  38.871  30.999  1.00  0.00    -0.237 OA
ATOM     77  O   UNL A   1      47.567  38.749  32.485  1.00  0.00    -0.237 OA
ATOM     78  O   UNL A   1      47.017  36.854  31.006  1.00  0.00    -0.744 OA
ENDBRANCH  74  75
ENDBRANCH  53  67
BRANCH  54  79
ATOM     79  C   UNL A   1      38.077  32.547  42.188  1.00  0.00     0.058 A 
ATOM     80  C   UNL A   1      38.333  31.246  42.643  1.00  0.00     0.135 A 
ATOM     81  C   UNL A   1      36.974  33.221  42.740  1.00  0.00     0.135 A 
ATOM     82  F   UNL A   1      39.362  30.551  42.135  1.00  0.00    -0.206 F 
ATOM     83  C   UNL A   1      37.520  30.627  43.590  1.00  0.00     0.059 A 
ATOM     84  C   UNL A   1      36.155  32.629  43.702  1.00  0.00     0.059 A 
ATOM     85  F   UNL A   1      36.675  34.465  42.337  1.00  0.00    -0.206 F 
ATOM     86  C   UNL A   1      36.434  31.327  44.117  1.00  0.00     0.060 A 
BRANCH  86  87
ATOM     87  S   UNL A   1      35.414  30.514  45.369  1.00  0.00     0.124 S 
ATOM     88  O   UNL A   1      34.159  30.316  44.651  1.00  0.00    -0.237 OA
ATOM     89  O   UNL A   1      36.186  29.307  45.648  1.00  0.00    -0.237 OA
ATOM     90  O   UNL A   1      35.372  31.488  46.457  1.00  0.00    -0.744 OA
ENDBRANCH  86  87
ENDBRANCH  54  79
BRANCH  66  91
ATOM     91  C   UNL A   1      43.347  37.113  42.243  1.00  0.00     0.058 A 
ATOM     92  C   UNL A   1      42.816  38.350  42.636  1.00  0.00     0.135 A 
ATOM     93  C   UNL A   1      44.458  36.621  42.951  1.00  0.00     0.135 A 
ATOM     94  F   UNL A   1      41.764  38.871  41.985  1.00  0.00    -0.206 F 
ATOM     95  C   UNL A   1      43.368  39.075  43.686  1.00  0.00     0.059 A 
ATOM     96  C   UNL A   1      45.005  37.313  44.025  1.00  0.00     0.059 A 
ATOM     97  F   UNL A   1      45.004  35.440  42.620  1.00  0.00    -0.206 F 
ATOM     98  C   UNL A   1      44.456  38.544  44.382  1.00  0.00     0.060 A 
BRANCH  98  99
ATOM     99  S   UNL A   1      45.119  39.467  45.784  1.00  0.00     0.124 S 
ATOM    100  O   UNL A   1      45.326  38.407  46.764  1.00  0.00    -0.237 OA
ATOM    101  O   UNL A   1      46.330  40.057  45.222  1.00  0.00    -0.237 OA
ATOM    102  O   UNL A   1      44.055  40.417  46.100  1.00  0.00    -0.744 OA
ENDBRANCH  98  99
ENDBRANCH  66  91
ENDBRANCH  40  41
ENDBRANCH  33  35
ENDBRANCH  32  33
ENDBRANCH  31  32
ENDBRANCH  30  31
ENDBRANCH  29  30
ENDBRANCH  28  29
ENDBRANCH  27  28
ENDBRANCH   1  27
TORSDOF 26
ENDMDL
