MODEL 1
REMARK VINA RESULT:      -8.9      0.000      0.000
REMARK SMILES CC(C)[C@](C)(CC(=O)NC#N)C(=O)OCCOCCOCCOCCOC(=O)c1ccc(-c2c3nc(c(-c4c(F)cc(S(=O)(=O)[O-])cc4F)c4ccc([nH]4)c(-c4c(F)cc(S(=O)(=O)[O-])cc4F)c4nc(c(-c5c(F)cc(S(=O)(=O)[O-])cc5F)c5ccc2[nH]5)C=C4)C=C3)cc1
REMARK SMILES IDX 20 1 19 2 18 3 17 4 16 5 15 6 14 7 12 8 13 9 4 10 5 11 2 12
REMARK SMILES IDX 1 13 3 14 6 15 7 16 8 17 9 18 10 20 11 21 21 22 22 23 23 24
REMARK SMILES IDX 24 25 25 26 26 27 27 28 28 29 29 30 30 31 94 32 31 33 93 34
REMARK SMILES IDX 32 35 33 36 34 37 87 38 35 39 92 40 86 41 88 42 36 43 91 44
REMARK SMILES IDX 85 45 84 46 37 48 71 49 50 50 70 51 51 52 54 53 69 54 89 55
REMARK SMILES IDX 52 56 53 57 68 59 90 60 55 61 38 62 39 63 48 64 40 65 41 66
REMARK SMILES IDX 47 67 49 68 42 69 43 70 44 71 45 72 46 73 72 74 73 75 82 76
REMARK SMILES IDX 74 77 75 78 81 79 83 80 76 81 77 82 78 83 79 84 80 85 56 86
REMARK SMILES IDX 57 87 66 88 58 89 59 90 65 91 67 92 60 93 61 94 62 95 63 96
REMARK SMILES IDX 64 97
REMARK H PARENT 9 19 88 47 54 58
REMARK Flexibility Score: inf
ROOT
ATOM      1  O   UNL A   1      34.991  23.657  24.109  1.00  0.00    -0.377 OA
ENDROOT
BRANCH   1   2
ATOM      2  C   UNL A   1      34.431  22.414  23.759  1.00  0.00     0.188 C 
BRANCH   2   3
ATOM      3  C   UNL A   1      33.553  21.524  24.634  1.00  0.00     0.188 C 
BRANCH   3   4
ATOM      4  O   UNL A   1      32.172  21.701  24.507  1.00  0.00    -0.376 OA
BRANCH   4   5
ATOM      5  C   UNL A   1      31.361  22.178  25.557  1.00  0.00     0.202 C 
BRANCH   5   6
ATOM      6  C   UNL A   1      31.140  23.663  25.938  1.00  0.00     0.261 C 
BRANCH   6   7
ATOM      7  O   UNL A   1      32.106  24.667  25.558  1.00  0.00    -0.463 OA
BRANCH   7   8
ATOM      8  C   UNL A   1      31.604  25.923  25.495  1.00  0.00     0.312 C 
ATOM      9  O   UNL A   1      30.396  26.144  25.603  1.00  0.00    -0.252 OA
BRANCH   8  10
ATOM     10  C   UNL A   1      32.613  27.104  25.293  1.00  0.00     0.076 C 
ATOM     11  C   UNL A   1      33.732  26.751  26.292  1.00  0.00     0.024 C 
BRANCH  10  12
ATOM     12  C   UNL A   1      31.734  28.353  25.782  1.00  0.00     0.000 C 
ATOM     13  C   UNL A   1      31.781  28.589  27.292  1.00  0.00     0.008 C 
ATOM     14  C   UNL A   1      32.025  29.674  25.044  1.00  0.00     0.008 C 
ENDBRANCH  10  12
BRANCH  10  15
ATOM     15  C   UNL A   1      33.242  27.466  23.897  1.00  0.00     0.119 C 
BRANCH  15  16
ATOM     16  C   UNL A   1      32.736  27.239  22.459  1.00  0.00     0.234 C 
ATOM     17  O   UNL A   1      33.473  26.668  21.643  1.00  0.00    -0.274 OA
ATOM     18  N   UNL A   1      31.481  27.465  22.010  1.00  0.00    -0.263 N 
ATOM     19  H   UNL A   1      31.424  27.278  21.045  1.00  0.00     0.182 HD
BRANCH  18  20
ATOM     20  C   UNL A   1      30.298  27.860  22.474  1.00  0.00     0.183 C 
ATOM     21  N   UNL A   1      29.264  28.260  22.819  1.00  0.00    -0.172 NA
ENDBRANCH  18  20
ENDBRANCH  15  16
ENDBRANCH  10  15
ENDBRANCH   8  10
ENDBRANCH   7   8
ENDBRANCH   6   7
ENDBRANCH   5   6
ENDBRANCH   4   5
ENDBRANCH   3   4
ENDBRANCH   2   3
ENDBRANCH   1   2
BRANCH   1  22
ATOM     22  C   UNL A   1      36.144  23.733  24.910  1.00  0.00     0.188 C 
BRANCH  22  23
ATOM     23  C   UNL A   1      37.198  22.659  24.632  1.00  0.00     0.188 C 
BRANCH  23  24
ATOM     24  O   UNL A   1      37.628  21.832  25.695  1.00  0.00    -0.376 OA
BRANCH  24  25
ATOM     25  C   UNL A   1      38.992  21.517  25.909  1.00  0.00     0.202 C 
BRANCH  25  26
ATOM     26  C   UNL A   1      39.673  20.150  25.708  1.00  0.00     0.261 C 
BRANCH  26  27
ATOM     27  O   UNL A   1      40.617  19.693  26.669  1.00  0.00    -0.460 OA
BRANCH  27  28
ATOM     28  C   UNL A   1      41.879  19.532  26.222  1.00  0.00     0.338 C 
ATOM     29  O   UNL A   1      42.333  18.573  25.626  1.00  0.00    -0.246 OA
BRANCH  28  30
ATOM     30  C   UNL A   1      42.592  20.807  26.424  1.00  0.00     0.060 A 
ATOM     31  C   UNL A   1      42.680  21.335  27.719  1.00  0.00     0.016 A 
ATOM     32  C   UNL A   1      43.155  21.482  25.340  1.00  0.00     0.016 A 
ATOM     33  C   UNL A   1      43.302  22.559  27.932  1.00  0.00     0.010 A 
ATOM     34  C   UNL A   1      43.747  22.729  25.549  1.00  0.00     0.010 A 
ATOM     35  C   UNL A   1      43.787  23.284  26.840  1.00  0.00    -0.014 A 
BRANCH  35  36
ATOM     36  C   UNL A   1      44.139  24.708  27.029  1.00  0.00     0.031 A 
ATOM     37  C   UNL A   1      45.571  25.116  26.819  1.00  0.00     0.074 A 
ATOM     38  C   UNL A   1      43.199  25.617  27.334  1.00  0.00     0.049 A 
ATOM     39  N   UNL A   1      46.130  26.286  26.977  1.00  0.00    -0.248 NA
ATOM     40  C   UNL A   1      46.497  24.061  26.375  1.00  0.00     0.031 C 
ATOM     41  C   UNL A   1      41.774  25.335  27.495  1.00  0.00     0.029 A 
ATOM     42  N   UNL A   1      43.308  26.963  27.570  1.00  0.00    -0.354 N 
ATOM     43  C   UNL A   1      47.474  26.103  26.673  1.00  0.00     0.074 A 
ATOM     44  C   UNL A   1      47.652  24.705  26.349  1.00  0.00     0.031 C 
ATOM     45  C   UNL A   1      41.139  26.475  27.818  1.00  0.00     0.029 A 
ATOM     46  C   UNL A   1      42.120  27.553  27.929  1.00  0.00     0.049 A 
ATOM     47  H   UNL A   1      44.154  27.458  27.491  1.00  0.00     0.167 HD
ATOM     48  C   UNL A   1      48.466  27.023  26.663  1.00  0.00     0.037 A 
ATOM     49  C   UNL A   1      41.865  28.814  28.330  1.00  0.00     0.037 A 
ATOM     50  C   UNL A   1      48.267  28.411  26.992  1.00  0.00     0.049 A 
ATOM     51  C   UNL A   1      43.002  29.802  28.393  1.00  0.00     0.074 A 
ATOM     52  C   UNL A   1      49.198  29.434  26.997  1.00  0.00     0.029 A 
ATOM     53  N   UNL A   1      47.058  28.967  27.388  1.00  0.00    -0.354 N 
ATOM     54  N   UNL A   1      44.267  29.627  28.088  1.00  0.00    -0.248 NA
ATOM     55  C   UNL A   1      42.679  31.159  28.853  1.00  0.00     0.031 C 
ATOM     56  C   UNL A   1      48.570  30.590  27.471  1.00  0.00     0.029 A 
ATOM     57  C   UNL A   1      47.228  30.310  27.678  1.00  0.00     0.049 A 
ATOM     58  H   UNL A   1      46.207  28.479  27.454  1.00  0.00     0.167 HD
ATOM     59  C   UNL A   1      44.882  30.860  28.281  1.00  0.00     0.074 A 
ATOM     60  C   UNL A   1      43.847  31.773  28.720  1.00  0.00     0.031 C 
ATOM     61  C   UNL A   1      46.182  31.208  28.109  1.00  0.00     0.037 A 
BRANCH  48  62
ATOM     62  C   UNL A   1      49.858  26.553  26.335  1.00  0.00     0.058 A 
ATOM     63  C   UNL A   1      50.734  26.059  27.316  1.00  0.00     0.135 A 
ATOM     64  C   UNL A   1      50.312  26.568  25.005  1.00  0.00     0.135 A 
ATOM     65  F   UNL A   1      50.365  26.039  28.607  1.00  0.00    -0.206 F 
ATOM     66  C   UNL A   1      52.016  25.625  26.994  1.00  0.00     0.059 A 
ATOM     67  C   UNL A   1      51.575  26.105  24.656  1.00  0.00     0.059 A 
ATOM     68  F   UNL A   1      49.521  27.036  24.026  1.00  0.00    -0.206 F 
ATOM     69  C   UNL A   1      52.425  25.647  25.659  1.00  0.00     0.060 A 
BRANCH  69  70
ATOM     70  S   UNL A   1      54.086  25.064  25.258  1.00  0.00     0.124 S 
ATOM     71  O   UNL A   1      54.391  25.847  24.065  1.00  0.00    -0.237 OA
ATOM     72  O   UNL A   1      54.837  25.421  26.458  1.00  0.00    -0.237 OA
ATOM     73  O   UNL A   1      53.902  23.633  25.038  1.00  0.00    -0.744 OA
ENDBRANCH  69  70
ENDBRANCH  48  62
BRANCH  49  74
ATOM     74  C   UNL A   1      40.484  29.210  28.715  1.00  0.00     0.058 A 
ATOM     75  C   UNL A   1      39.513  29.497  27.744  1.00  0.00     0.135 A 
ATOM     76  C   UNL A   1      40.104  29.309  30.064  1.00  0.00     0.135 A 
ATOM     77  F   UNL A   1      39.829  29.429  26.441  1.00  0.00    -0.206 F 
ATOM     78  C   UNL A   1      38.223  29.881  28.092  1.00  0.00     0.059 A 
ATOM     79  C   UNL A   1      38.810  29.658  30.437  1.00  0.00     0.059 A 
ATOM     80  F   UNL A   1      40.989  29.036  31.035  1.00  0.00    -0.206 F 
ATOM     81  C   UNL A   1      37.879  29.951  29.443  1.00  0.00     0.060 A 
BRANCH  81  82
ATOM     82  S   UNL A   1      36.184  30.395  29.879  1.00  0.00     0.124 S 
ATOM     83  O   UNL A   1      36.177  31.829  29.618  1.00  0.00    -0.237 OA
ATOM     84  O   UNL A   1      35.410  29.572  28.955  1.00  0.00    -0.237 OA
ATOM     85  O   UNL A   1      36.087  30.008  31.284  1.00  0.00    -0.744 OA
ENDBRANCH  81  82
ENDBRANCH  49  74
BRANCH  61  86
ATOM     86  C   UNL A   1      46.556  32.649  28.343  1.00  0.00     0.058 A 
ATOM     87  C   UNL A   1      47.030  33.106  29.583  1.00  0.00     0.135 A 
ATOM     88  C   UNL A   1      46.495  33.575  27.287  1.00  0.00     0.135 A 
ATOM     89  F   UNL A   1      47.105  32.267  30.629  1.00  0.00    -0.206 F 
ATOM     90  C   UNL A   1      47.398  34.434  29.776  1.00  0.00     0.059 A 
ATOM     91  C   UNL A   1      46.896  34.896  27.445  1.00  0.00     0.059 A 
ATOM     92  F   UNL A   1      46.061  33.190  26.075  1.00  0.00    -0.206 F 
ATOM     93  C   UNL A   1      47.334  35.320  28.699  1.00  0.00     0.060 A 
BRANCH  93  94
ATOM     94  S   UNL A   1      47.850  37.029  28.956  1.00  0.00     0.124 S 
ATOM     95  O   UNL A   1      48.280  37.001  30.351  1.00  0.00    -0.237 OA
ATOM     96  O   UNL A   1      48.913  37.184  27.968  1.00  0.00    -0.237 OA
ATOM     97  O   UNL A   1      46.638  37.797  28.691  1.00  0.00    -0.744 OA
ENDBRANCH  93  94
ENDBRANCH  61  86
ENDBRANCH  35  36
ENDBRANCH  28  30
ENDBRANCH  27  28
ENDBRANCH  26  27
ENDBRANCH  25  26
ENDBRANCH  24  25
ENDBRANCH  23  24
ENDBRANCH  22  23
ENDBRANCH   1  22
TORSDOF 27
ENDMDL
MODEL 2
REMARK VINA RESULT:      -8.8      2.496      8.794
REMARK SMILES CC(C)[C@](C)(CC(=O)NC#N)C(=O)OCCOCCOCCOCCOC(=O)c1ccc(-c2c3nc(c(-c4c(F)cc(S(=O)(=O)[O-])cc4F)c4ccc([nH]4)c(-c4c(F)cc(S(=O)(=O)[O-])cc4F)c4nc(c(-c5c(F)cc(S(=O)(=O)[O-])cc5F)c5ccc2[nH]5)C=C4)C=C3)cc1
REMARK SMILES IDX 20 1 19 2 18 3 17 4 16 5 15 6 14 7 12 8 13 9 4 10 5 11 2 12
REMARK SMILES IDX 1 13 3 14 6 15 7 16 8 17 9 18 10 20 11 21 21 22 22 23 23 24
REMARK SMILES IDX 24 25 25 26 26 27 27 28 28 29 29 30 30 31 94 32 31 33 93 34
REMARK SMILES IDX 32 35 33 36 34 37 87 38 35 39 92 40 86 41 88 42 36 43 91 44
REMARK SMILES IDX 85 45 84 46 37 48 71 49 50 50 70 51 51 52 54 53 69 54 89 55
REMARK SMILES IDX 52 56 53 57 68 59 90 60 55 61 38 62 39 63 48 64 40 65 41 66
REMARK SMILES IDX 47 67 49 68 42 69 43 70 44 71 45 72 46 73 72 74 73 75 82 76
REMARK SMILES IDX 74 77 75 78 81 79 83 80 76 81 77 82 78 83 79 84 80 85 56 86
REMARK SMILES IDX 57 87 66 88 58 89 59 90 65 91 67 92 60 93 61 94 62 95 63 96
REMARK SMILES IDX 64 97
REMARK H PARENT 9 19 88 47 54 58
REMARK Flexibility Score: inf
ROOT
ATOM      1  O   UNL A   1      33.823  28.368  24.127  1.00  0.00    -0.377 OA
ENDROOT
BRANCH   1   2
ATOM      2  C   UNL A   1      32.972  27.366  23.623  1.00  0.00     0.188 C 
BRANCH   2   3
ATOM      3  C   UNL A   1      31.523  27.533  23.175  1.00  0.00     0.188 C 
BRANCH   3   4
ATOM      4  O   UNL A   1      30.597  26.645  23.731  1.00  0.00    -0.376 OA
BRANCH   4   5
ATOM      5  C   UNL A   1      30.609  26.278  25.092  1.00  0.00     0.202 C 
BRANCH   5   6
ATOM      6  C   UNL A   1      30.296  24.873  25.662  1.00  0.00     0.261 C 
BRANCH   6   7
ATOM      7  O   UNL A   1      31.178  23.761  25.395  1.00  0.00    -0.463 OA
BRANCH   7   8
ATOM      8  C   UNL A   1      31.995  23.442  26.426  1.00  0.00     0.312 C 
ATOM      9  O   UNL A   1      31.685  23.679  27.596  1.00  0.00    -0.252 OA
BRANCH   8  10
ATOM     10  C   UNL A   1      33.355  22.740  26.092  1.00  0.00     0.076 C 
ATOM     11  C   UNL A   1      34.074  22.754  27.456  1.00  0.00     0.024 C 
BRANCH  10  12
ATOM     12  C   UNL A   1      33.998  23.781  25.056  1.00  0.00     0.000 C 
ATOM     13  C   UNL A   1      35.459  24.122  25.348  1.00  0.00     0.008 C 
ATOM     14  C   UNL A   1      33.846  23.391  23.573  1.00  0.00     0.008 C 
ENDBRANCH  10  12
BRANCH  10  15
ATOM     15  C   UNL A   1      33.446  21.302  25.460  1.00  0.00     0.119 C 
BRANCH  15  16
ATOM     16  C   UNL A   1      34.656  20.400  25.144  1.00  0.00     0.234 C 
ATOM     17  O   UNL A   1      35.793  20.792  25.437  1.00  0.00    -0.274 OA
ATOM     18  N   UNL A   1      34.604  19.122  24.706  1.00  0.00    -0.263 N 
ATOM     19  H   UNL A   1      35.513  18.780  24.542  1.00  0.00     0.182 HD
BRANCH  18  20
ATOM     20  C   UNL A   1      33.701  18.185  24.429  1.00  0.00     0.183 C 
ATOM     21  N   UNL A   1      32.969  17.330  24.143  1.00  0.00    -0.172 NA
ENDBRANCH  18  20
ENDBRANCH  15  16
ENDBRANCH  10  15
ENDBRANCH   8  10
ENDBRANCH   7   8
ENDBRANCH   6   7
ENDBRANCH   5   6
ENDBRANCH   4   5
ENDBRANCH   3   4
ENDBRANCH   2   3
ENDBRANCH   1   2
BRANCH   1  22
ATOM     22  C   UNL A   1      33.847  28.674  25.499  1.00  0.00     0.188 C 
BRANCH  22  23
ATOM     23  C   UNL A   1      32.850  29.747  25.941  1.00  0.00     0.188 C 
BRANCH  23  24
ATOM     24  O   UNL A   1      32.952  30.278  27.248  1.00  0.00    -0.376 OA
BRANCH  24  25
ATOM     25  C   UNL A   1      33.837  31.335  27.571  1.00  0.00     0.202 C 
BRANCH  25  26
ATOM     26  C   UNL A   1      35.030  31.285  28.545  1.00  0.00     0.261 C 
BRANCH  26  27
ATOM     27  O   UNL A   1      35.807  30.098  28.634  1.00  0.00    -0.460 OA
BRANCH  27  28
ATOM     28  C   UNL A   1      36.472  29.917  29.795  1.00  0.00     0.338 C 
ATOM     29  O   UNL A   1      35.991  29.720  30.895  1.00  0.00    -0.246 OA
BRANCH  28  30
ATOM     30  C   UNL A   1      37.909  29.820  29.478  1.00  0.00     0.060 A 
ATOM     31  C   UNL A   1      38.299  29.693  28.138  1.00  0.00     0.016 A 
ATOM     32  C   UNL A   1      38.861  29.839  30.499  1.00  0.00     0.016 A 
ATOM     33  C   UNL A   1      39.643  29.551  27.814  1.00  0.00     0.010 A 
ATOM     34  C   UNL A   1      40.207  29.659  30.175  1.00  0.00     0.010 A 
ATOM     35  C   UNL A   1      40.593  29.477  28.836  1.00  0.00    -0.014 A 
BRANCH  35  36
ATOM     36  C   UNL A   1      41.954  28.998  28.511  1.00  0.00     0.031 A 
ATOM     37  C   UNL A   1      43.082  29.993  28.548  1.00  0.00     0.074 A 
ATOM     38  C   UNL A   1      42.183  27.704  28.236  1.00  0.00     0.049 A 
ATOM     39  N   UNL A   1      44.343  29.826  28.251  1.00  0.00    -0.248 NA
ATOM     40  C   UNL A   1      42.738  31.360  28.972  1.00  0.00     0.031 C 
ATOM     41  C   UNL A   1      41.171  26.649  28.238  1.00  0.00     0.029 A 
ATOM     42  N   UNL A   1      43.344  27.060  27.894  1.00  0.00    -0.354 N 
ATOM     43  C   UNL A   1      44.938  31.069  28.433  1.00  0.00     0.074 A 
ATOM     44  C   UNL A   1      43.896  31.986  28.837  1.00  0.00     0.031 C 
ATOM     45  C   UNL A   1      41.754  25.487  27.899  1.00  0.00     0.029 A 
ATOM     46  C   UNL A   1      43.168  25.726  27.614  1.00  0.00     0.049 A 
ATOM     47  H   UNL A   1      44.218  27.508  27.853  1.00  0.00     0.167 HD
ATOM     48  C   UNL A   1      46.238  31.409  28.277  1.00  0.00     0.037 A 
ATOM     49  C   UNL A   1      44.045  24.815  27.150  1.00  0.00     0.037 A 
ATOM     50  C   UNL A   1      47.260  30.479  27.871  1.00  0.00     0.049 A 
ATOM     51  C   UNL A   1      45.471  25.237  26.903  1.00  0.00     0.074 A 
ATOM     52  C   UNL A   1      48.613  30.711  27.700  1.00  0.00     0.029 A 
ATOM     53  N   UNL A   1      47.039  29.144  27.558  1.00  0.00    -0.354 N 
ATOM     54  N   UNL A   1      46.031  26.409  27.093  1.00  0.00    -0.248 NA
ATOM     55  C   UNL A   1      46.386  24.213  26.382  1.00  0.00     0.031 C 
ATOM     56  C   UNL A   1      49.195  29.539  27.208  1.00  0.00     0.029 A 
ATOM     57  C   UNL A   1      48.224  28.551  27.156  1.00  0.00     0.049 A 
ATOM     58  H   UNL A   1      46.169  28.688  27.612  1.00  0.00     0.167 HD
ATOM     59  C   UNL A   1      47.371  26.254  26.751  1.00  0.00     0.074 A 
ATOM     60  C   UNL A   1      47.537  24.871  26.353  1.00  0.00     0.031 C 
ATOM     61  C   UNL A   1      48.373  27.168  26.769  1.00  0.00     0.037 A 
BRANCH  48  62
ATOM     62  C   UNL A   1      46.620  32.848  28.498  1.00  0.00     0.058 A 
ATOM     63  C   UNL A   1      46.608  33.795  27.461  1.00  0.00     0.135 A 
ATOM     64  C   UNL A   1      46.975  33.293  29.783  1.00  0.00     0.135 A 
ATOM     65  F   UNL A   1      46.297  33.426  26.209  1.00  0.00    -0.206 F 
ATOM     66  C   UNL A   1      46.960  35.123  27.685  1.00  0.00     0.059 A 
ATOM     67  C   UNL A   1      47.295  34.622  30.036  1.00  0.00     0.059 A 
ATOM     68  F   UNL A   1      47.011  32.431  30.812  1.00  0.00    -0.206 F 
ATOM     69  C   UNL A   1      47.298  35.527  28.978  1.00  0.00     0.060 A 
BRANCH  69  70
ATOM     70  S   UNL A   1      47.736  37.257  29.252  1.00  0.00     0.124 S 
ATOM     71  O   UNL A   1      46.429  37.902  29.198  1.00  0.00    -0.237 OA
ATOM     72  O   UNL A   1      48.365  37.211  30.568  1.00  0.00    -0.237 OA
ATOM     73  O   UNL A   1      48.632  37.562  28.141  1.00  0.00    -0.744 OA
ENDBRANCH  69  70
ENDBRANCH  48  62
BRANCH  49  74
ATOM     74  C   UNL A   1      43.599  23.422  26.876  1.00  0.00     0.058 A 
ATOM     75  C   UNL A   1      43.358  22.519  27.922  1.00  0.00     0.135 A 
ATOM     76  C   UNL A   1      43.404  22.964  25.563  1.00  0.00     0.135 A 
ATOM     77  F   UNL A   1      43.541  22.902  29.195  1.00  0.00    -0.206 F 
ATOM     78  C   UNL A   1      42.955  21.210  27.678  1.00  0.00     0.059 A 
ATOM     79  C   UNL A   1      42.969  21.671  25.294  1.00  0.00     0.059 A 
ATOM     80  F   UNL A   1      43.612  23.789  24.524  1.00  0.00    -0.206 F 
ATOM     81  C   UNL A   1      42.755  20.799  26.359  1.00  0.00     0.060 A 
BRANCH  81  82
ATOM     82  S   UNL A   1      42.176  19.115  26.060  1.00  0.00     0.124 S 
ATOM     83  O   UNL A   1      40.752  19.328  25.835  1.00  0.00    -0.237 OA
ATOM     84  O   UNL A   1      42.958  18.731  24.889  1.00  0.00    -0.237 OA
ATOM     85  O   UNL A   1      42.523  18.416  27.294  1.00  0.00    -0.744 OA
ENDBRANCH  81  82
ENDBRANCH  49  74
BRANCH  61  86
ATOM     86  C   UNL A   1      49.755  26.697  26.395  1.00  0.00     0.058 A 
ATOM     87  C   UNL A   1      50.606  26.071  27.320  1.00  0.00     0.135 A 
ATOM     88  C   UNL A   1      50.209  26.821  25.071  1.00  0.00     0.135 A 
ATOM     89  F   UNL A   1      50.227  25.929  28.600  1.00  0.00    -0.206 F 
ATOM     90  C   UNL A   1      51.869  25.615  26.952  1.00  0.00     0.059 A 
ATOM     91  C   UNL A   1      51.450  26.337  24.672  1.00  0.00     0.059 A 
ATOM     92  F   UNL A   1      49.432  27.401  24.141  1.00  0.00    -0.206 F 
ATOM     93  C   UNL A   1      52.279  25.748  25.624  1.00  0.00     0.060 A 
BRANCH  93  94
ATOM     94  S   UNL A   1      53.904  25.118  25.157  1.00  0.00     0.124 S 
ATOM     95  O   UNL A   1      53.609  23.714  24.884  1.00  0.00    -0.237 OA
ATOM     96  O   UNL A   1      54.231  25.936  23.993  1.00  0.00    -0.237 OA
ATOM     97  O   UNL A   1      54.720  25.366  26.341  1.00  0.00    -0.744 OA
ENDBRANCH  93  94
ENDBRANCH  61  86
ENDBRANCH  35  36
ENDBRANCH  28  30
ENDBRANCH  27  28
ENDBRANCH  26  27
ENDBRANCH  25  26
ENDBRANCH  24  25
ENDBRANCH  23  24
ENDBRANCH  22  23
ENDBRANCH   1  22
TORSDOF 27
ENDMDL
MODEL 3
REMARK VINA RESULT:      -8.4      2.429      8.813
REMARK SMILES CC(C)[C@](C)(CC(=O)NC#N)C(=O)OCCOCCOCCOCCOC(=O)c1ccc(-c2c3nc(c(-c4c(F)cc(S(=O)(=O)[O-])cc4F)c4ccc([nH]4)c(-c4c(F)cc(S(=O)(=O)[O-])cc4F)c4nc(c(-c5c(F)cc(S(=O)(=O)[O-])cc5F)c5ccc2[nH]5)C=C4)C=C3)cc1
REMARK SMILES IDX 20 1 19 2 18 3 17 4 16 5 15 6 14 7 12 8 13 9 4 10 5 11 2 12
REMARK SMILES IDX 1 13 3 14 6 15 7 16 8 17 9 18 10 20 11 21 21 22 22 23 23 24
REMARK SMILES IDX 24 25 25 26 26 27 27 28 28 29 29 30 30 31 94 32 31 33 93 34
REMARK SMILES IDX 32 35 33 36 34 37 87 38 35 39 92 40 86 41 88 42 36 43 91 44
REMARK SMILES IDX 85 45 84 46 37 48 71 49 50 50 70 51 51 52 54 53 69 54 89 55
REMARK SMILES IDX 52 56 53 57 68 59 90 60 55 61 38 62 39 63 48 64 40 65 41 66
REMARK SMILES IDX 47 67 49 68 42 69 43 70 44 71 45 72 46 73 72 74 73 75 82 76
REMARK SMILES IDX 74 77 75 78 81 79 83 80 76 81 77 82 78 83 79 84 80 85 56 86
REMARK SMILES IDX 57 87 66 88 58 89 59 90 65 91 67 92 60 93 61 94 62 95 63 96
REMARK SMILES IDX 64 97
REMARK H PARENT 9 19 88 47 54 58
REMARK Flexibility Score: inf
ROOT
ATOM      1  O   UNL A   1      33.193  27.678  24.116  1.00  0.00    -0.377 OA
ENDROOT
BRANCH   1   2
ATOM      2  C   UNL A   1      32.252  26.682  24.441  1.00  0.00     0.188 C 
BRANCH   2   3
ATOM      3  C   UNL A   1      30.733  26.784  24.330  1.00  0.00     0.188 C 
BRANCH   3   4
ATOM      4  O   UNL A   1      30.000  25.739  24.902  1.00  0.00    -0.376 OA
BRANCH   4   5
ATOM      5  C   UNL A   1      30.363  25.124  26.117  1.00  0.00     0.202 C 
BRANCH   5   6
ATOM      6  C   UNL A   1      30.519  23.602  26.360  1.00  0.00     0.261 C 
BRANCH   6   7
ATOM      7  O   UNL A   1      31.390  22.813  25.521  1.00  0.00    -0.463 OA
BRANCH   7   8
ATOM      8  C   UNL A   1      32.701  22.900  25.847  1.00  0.00     0.312 C 
ATOM      9  O   UNL A   1      33.117  23.748  26.640  1.00  0.00    -0.252 OA
BRANCH   8  10
ATOM     10  C   UNL A   1      33.687  21.873  25.194  1.00  0.00     0.076 C 
ATOM     11  C   UNL A   1      34.063  22.574  23.874  1.00  0.00     0.024 C 
BRANCH  10  12
ATOM     12  C   UNL A   1      32.719  20.616  24.960  1.00  0.00     0.000 C 
ATOM     13  C   UNL A   1      32.775  20.048  23.541  1.00  0.00     0.008 C 
ATOM     14  C   UNL A   1      32.888  19.474  25.980  1.00  0.00     0.008 C 
ENDBRANCH  10  12
BRANCH  10  15
ATOM     15  C   UNL A   1      34.989  21.358  25.910  1.00  0.00     0.119 C 
BRANCH  15  16
ATOM     16  C   UNL A   1      36.296  20.763  25.350  1.00  0.00     0.234 C 
ATOM     17  O   UNL A   1      36.246  19.724  24.677  1.00  0.00    -0.274 OA
ATOM     18  N   UNL A   1      37.516  21.344  25.384  1.00  0.00    -0.263 N 
ATOM     19  H   UNL A   1      38.192  20.742  24.995  1.00  0.00     0.182 HD
BRANCH  18  20
ATOM     20  C   UNL A   1      38.083  22.481  25.779  1.00  0.00     0.183 C 
ATOM     21  N   UNL A   1      38.519  23.513  26.084  1.00  0.00    -0.172 NA
ENDBRANCH  18  20
ENDBRANCH  15  16
ENDBRANCH  10  15
ENDBRANCH   8  10
ENDBRANCH   7   8
ENDBRANCH   6   7
ENDBRANCH   5   6
ENDBRANCH   4   5
ENDBRANCH   3   4
ENDBRANCH   2   3
ENDBRANCH   1   2
BRANCH   1  22
ATOM     22  C   UNL A   1      33.906  28.356  25.121  1.00  0.00     0.188 C 
BRANCH  22  23
ATOM     23  C   UNL A   1      33.152  29.509  25.785  1.00  0.00     0.188 C 
BRANCH  23  24
ATOM     24  O   UNL A   1      33.444  29.831  27.131  1.00  0.00    -0.376 OA
BRANCH  24  25
ATOM     25  C   UNL A   1      34.120  31.020  27.498  1.00  0.00     0.202 C 
BRANCH  25  26
ATOM     26  C   UNL A   1      34.950  31.262  28.773  1.00  0.00     0.261 C 
BRANCH  26  27
ATOM     27  O   UNL A   1      35.789  30.226  29.267  1.00  0.00    -0.460 OA
BRANCH  27  28
ATOM     28  C   UNL A   1      36.564  30.550  30.322  1.00  0.00     0.338 C 
ATOM     29  O   UNL A   1      36.197  30.806  31.454  1.00  0.00    -0.246 OA
BRANCH  28  30
ATOM     30  C   UNL A   1      37.971  30.371  29.917  1.00  0.00     0.060 A 
ATOM     31  C   UNL A   1      38.256  30.061  28.581  1.00  0.00     0.016 A 
ATOM     32  C   UNL A   1      38.997  30.492  30.855  1.00  0.00     0.016 A 
ATOM     33  C   UNL A   1      39.567  29.838  28.181  1.00  0.00     0.010 A 
ATOM     34  C   UNL A   1      40.311  30.232  30.461  1.00  0.00     0.010 A 
ATOM     35  C   UNL A   1      40.591  29.868  29.132  1.00  0.00    -0.014 A 
BRANCH  35  36
ATOM     36  C   UNL A   1      41.914  29.311  28.774  1.00  0.00     0.031 A 
ATOM     37  C   UNL A   1      43.094  30.242  28.765  1.00  0.00     0.074 A 
ATOM     38  C   UNL A   1      42.063  28.003  28.511  1.00  0.00     0.049 A 
ATOM     39  N   UNL A   1      44.335  30.002  28.434  1.00  0.00    -0.248 NA
ATOM     40  C   UNL A   1      42.839  31.632  29.181  1.00  0.00     0.031 C 
ATOM     41  C   UNL A   1      40.995  27.006  28.556  1.00  0.00     0.029 A 
ATOM     42  N   UNL A   1      43.176  27.292  28.144  1.00  0.00    -0.354 N 
ATOM     43  C   UNL A   1      45.002  31.213  28.582  1.00  0.00     0.074 A 
ATOM     44  C   UNL A   1      44.025  32.191  29.004  1.00  0.00     0.031 C 
ATOM     45  C   UNL A   1      41.503  25.809  28.216  1.00  0.00     0.029 A 
ATOM     46  C   UNL A   1      42.919  25.967  27.887  1.00  0.00     0.049 A 
ATOM     47  H   UNL A   1      44.072  27.691  28.072  1.00  0.00     0.167 HD
ATOM     48  C   UNL A   1      46.314  31.479  28.384  1.00  0.00     0.037 A 
ATOM     49  C   UNL A   1      43.731  25.003  27.410  1.00  0.00     0.037 A 
ATOM     50  C   UNL A   1      47.271  30.489  27.962  1.00  0.00     0.049 A 
ATOM     51  C   UNL A   1      45.170  25.343  27.117  1.00  0.00     0.074 A 
ATOM     52  C   UNL A   1      48.629  30.644  27.748  1.00  0.00     0.029 A 
ATOM     53  N   UNL A   1      46.968  29.165  27.673  1.00  0.00    -0.354 N 
ATOM     54  N   UNL A   1      45.799  26.484  27.275  1.00  0.00    -0.248 NA
ATOM     55  C   UNL A   1      46.011  24.264  26.583  1.00  0.00     0.031 C 
ATOM     56  C   UNL A   1      49.131  29.436  27.256  1.00  0.00     0.029 A 
ATOM     57  C   UNL A   1      48.106  28.503  27.245  1.00  0.00     0.049 A 
ATOM     58  H   UNL A   1      46.077  28.758  27.758  1.00  0.00     0.167 HD
ATOM     59  C   UNL A   1      47.117  26.251  26.896  1.00  0.00     0.074 A 
ATOM     60  C   UNL A   1      47.196  24.857  26.512  1.00  0.00     0.031 C 
ATOM     61  C   UNL A   1      48.168  27.109  26.872  1.00  0.00     0.037 A 
BRANCH  48  62
ATOM     62  C   UNL A   1      46.781  32.897  28.575  1.00  0.00     0.058 A 
ATOM     63  C   UNL A   1      47.232  33.379  29.814  1.00  0.00     0.135 A 
ATOM     64  C   UNL A   1      46.804  33.783  27.484  1.00  0.00     0.135 A 
ATOM     65  F   UNL A   1      47.213  32.586  30.898  1.00  0.00    -0.206 F 
ATOM     66  C   UNL A   1      47.663  34.693  29.971  1.00  0.00     0.059 A 
ATOM     67  C   UNL A   1      47.266  35.088  27.609  1.00  0.00     0.059 A 
ATOM     68  F   UNL A   1      46.379  33.380  26.276  1.00  0.00    -0.206 F 
ATOM     69  C   UNL A   1      47.681  35.539  28.860  1.00  0.00     0.060 A 
BRANCH  69  70
ATOM     70  S   UNL A   1      48.259  37.235  29.079  1.00  0.00     0.124 S 
ATOM     71  O   UNL A   1      49.378  37.285  28.144  1.00  0.00    -0.237 OA
ATOM     72  O   UNL A   1      47.083  38.013  28.702  1.00  0.00    -0.237 OA
ATOM     73  O   UNL A   1      48.620  37.293  30.492  1.00  0.00    -0.744 OA
ENDBRANCH  69  70
ENDBRANCH  48  62
BRANCH  49  74
ATOM     74  C   UNL A   1      43.202  23.633  27.169  1.00  0.00     0.058 A 
ATOM     75  C   UNL A   1      43.129  22.690  28.204  1.00  0.00     0.135 A 
ATOM     76  C   UNL A   1      42.756  23.239  25.896  1.00  0.00     0.135 A 
ATOM     77  F   UNL A   1      43.554  23.013  29.436  1.00  0.00    -0.206 F 
ATOM     78  C   UNL A   1      42.650  21.403  27.987  1.00  0.00     0.059 A 
ATOM     79  C   UNL A   1      42.240  21.969  25.662  1.00  0.00     0.059 A 
ATOM     80  F   UNL A   1      42.794  24.104  24.871  1.00  0.00    -0.206 F 
ATOM     81  C   UNL A   1      42.200  21.054  26.713  1.00  0.00     0.060 A 
BRANCH  81  82
ATOM     82  S   UNL A   1      41.526  19.399  26.459  1.00  0.00     0.124 S 
ATOM     83  O   UNL A   1      40.141  19.693  26.111  1.00  0.00    -0.237 OA
ATOM     84  O   UNL A   1      42.364  18.895  25.375  1.00  0.00    -0.237 OA
ATOM     85  O   UNL A   1      41.729  18.751  27.752  1.00  0.00    -0.744 OA
ENDBRANCH  81  82
ENDBRANCH  49  74
BRANCH  61  86
ATOM     86  C   UNL A   1      49.510  26.558  26.465  1.00  0.00     0.058 A 
ATOM     87  C   UNL A   1      49.970  26.612  25.140  1.00  0.00     0.135 A 
ATOM     88  C   UNL A   1      50.374  26.018  27.434  1.00  0.00     0.135 A 
ATOM     89  F   UNL A   1      49.186  27.113  24.172  1.00  0.00    -0.206 F 
ATOM     90  C   UNL A   1      51.224  26.124  24.785  1.00  0.00     0.059 A 
ATOM     91  C   UNL A   1      51.647  25.561  27.109  1.00  0.00     0.059 A 
ATOM     92  F   UNL A   1      49.992  25.951  28.719  1.00  0.00    -0.206 F 
ATOM     93  C   UNL A   1      52.058  25.606  25.778  1.00  0.00     0.060 A 
BRANCH  93  94
ATOM     94  S   UNL A   1      53.695  25.012  25.307  1.00  0.00     0.124 S 
ATOM     95  O   UNL A   1      53.436  23.596  25.064  1.00  0.00    -0.237 OA
ATOM     96  O   UNL A   1      53.988  25.815  24.124  1.00  0.00    -0.237 OA
ATOM     97  O   UNL A   1      54.515  25.306  26.477  1.00  0.00    -0.744 OA
ENDBRANCH  93  94
ENDBRANCH  61  86
ENDBRANCH  35  36
ENDBRANCH  28  30
ENDBRANCH  27  28
ENDBRANCH  26  27
ENDBRANCH  25  26
ENDBRANCH  24  25
ENDBRANCH  23  24
ENDBRANCH  22  23
ENDBRANCH   1  22
TORSDOF 27
ENDMDL
