MODEL 1
REMARK VINA RESULT:     -10.4      0.000      0.000
REMARK SMILES C[C@@H](CCC(=O)OCCOCCOCCOCCOC(=O)c1ccc(-c2c3nc(c(-c4c(F)cc(S(=O)(=O)[O-])cc4F)c4ccc([nH]4)c(-c4c(F)cc(S(=O)(=O)[O-])cc4F)c4nc(c(-c5c(F)cc(S(=O)(=O)[O-])cc5F)c5ccc2[nH]5)C=C4)C=C3)cc1)[C@@H]1CC[C@H]2[C@@H]3CC[C@H]4CC(=O)CC[C@@]4(C)[C@H]3CC(=O)[C@@]21C
REMARK SMILES IDX 13 1 12 2 11 3 10 4 9 5 8 6 7 7 5 8 6 9 4 10 3 11 2 12 1 13
REMARK SMILES IDX 88 14 89 15 107 16 90 17 91 18 105 19 108 20 92 21 104 22
REMARK SMILES IDX 106 23 93 24 103 25 94 26 101 27 95 28 100 29 102 30 96 31
REMARK SMILES IDX 99 32 97 33 98 34 14 35 15 36 16 37 17 38 18 39 19 40 20 41
REMARK SMILES IDX 21 42 22 43 23 44 87 45 24 46 86 47 25 48 26 49 27 50 80 51
REMARK SMILES IDX 28 52 85 53 79 54 81 55 29 56 84 57 78 58 77 59 30 61 64 62
REMARK SMILES IDX 43 63 63 64 44 65 47 66 62 67 82 68 45 69 46 70 61 72 83 73
REMARK SMILES IDX 48 74 31 75 32 76 41 77 33 78 34 79 40 80 42 81 35 82 36 83
REMARK SMILES IDX 37 84 38 85 39 86 65 87 66 88 75 89 67 90 68 91 74 92 76 93
REMARK SMILES IDX 69 94 70 95 71 96 72 97 73 98 49 99 50 100 59 101 51 102
REMARK SMILES IDX 52 103 58 104 60 105 53 106 54 107 55 108 56 109 57 110
REMARK H PARENT 81 60 47 71
REMARK Flexibility Score: inf
ROOT
ATOM      1  O   UNL A   1      35.277  34.287  32.148  1.00  0.00    -0.377 OA
ENDROOT
BRANCH   1   2
ATOM      2  C   UNL A   1      36.691  34.287  31.950  1.00  0.00     0.188 C 
BRANCH   2   3
ATOM      3  C   UNL A   1      37.056  33.816  30.487  1.00  0.00     0.188 C 
BRANCH   3   4
ATOM      4  O   UNL A   1      35.982  33.980  29.561  1.00  0.00    -0.376 OA
BRANCH   4   5
ATOM      5  C   UNL A   1      35.973  33.377  28.254  1.00  0.00     0.202 C 
BRANCH   5   6
ATOM      6  C   UNL A   1      35.003  32.271  27.718  1.00  0.00     0.261 C 
BRANCH   6   7
ATOM      7  O   UNL A   1      33.648  32.173  28.242  1.00  0.00    -0.463 OA
BRANCH   7   8
ATOM      8  C   UNL A   1      32.649  32.903  27.660  1.00  0.00     0.305 C 
ATOM      9  O   UNL A   1      32.545  34.118  27.803  1.00  0.00    -0.252 OA
BRANCH   8  10
ATOM     10  C   UNL A   1      31.603  32.059  26.868  1.00  0.00     0.123 C 
BRANCH  10  11
ATOM     11  C   UNL A   1      31.956  30.736  26.097  1.00  0.00     0.015 C 
BRANCH  11  12
ATOM     12  C   UNL A   1      31.831  29.285  26.849  1.00  0.00    -0.010 C 
ATOM     13  C   UNL A   1      33.156  29.038  27.561  1.00  0.00     0.008 C 
BRANCH  12  14
ATOM     14  C   UNL A   1      31.376  28.164  25.864  1.00  0.00     0.005 C 
ATOM     15  C   UNL A   1      30.942  27.101  26.840  1.00  0.00     0.005 C 
ATOM     16  C   UNL A   1      32.024  27.162  24.655  1.00  0.00     0.032 C 
ATOM     17  C   UNL A   1      30.433  26.034  25.951  1.00  0.00     0.005 C 
ATOM     18  C   UNL A   1      31.686  25.747  25.252  1.00  0.00     0.006 C 
ATOM     19  C   UNL A   1      33.450  26.769  24.227  1.00  0.00     0.139 C 
ATOM     20  C   UNL A   1      31.292  27.543  23.349  1.00  0.00     0.020 C 
ATOM     21  C   UNL A   1      31.682  24.404  24.514  1.00  0.00    -0.003 C 
ATOM     22  C   UNL A   1      33.540  25.437  23.287  1.00  0.00     0.080 C 
ATOM     23  O   UNL A   1      34.437  27.368  24.640  1.00  0.00    -0.299 OA
ATOM     24  C   UNL A   1      31.130  23.299  25.458  1.00  0.00     0.004 C 
ATOM     25  C   UNL A   1      33.129  24.155  24.078  1.00  0.00     0.006 C 
ATOM     26  C   UNL A   1      31.742  21.917  25.501  1.00  0.00     0.005 C 
ATOM     27  C   UNL A   1      33.320  22.628  23.620  1.00  0.00    -0.025 C 
ATOM     28  C   UNL A   1      33.172  21.815  24.951  1.00  0.00     0.002 C 
ATOM     29  C   UNL A   1      32.273  22.042  22.628  1.00  0.00     0.015 C 
ATOM     30  C   UNL A   1      34.703  22.383  22.996  1.00  0.00     0.012 C 
ATOM     31  C   UNL A   1      33.540  20.342  24.809  1.00  0.00     0.079 C 
ATOM     32  C   UNL A   1      32.063  20.499  22.664  1.00  0.00     0.076 C 
ATOM     33  C   UNL A   1      32.612  19.684  23.830  1.00  0.00     0.133 C 
ATOM     34  O   UNL A   1      32.324  18.491  23.954  1.00  0.00    -0.300 OA
ENDBRANCH  12  14
ENDBRANCH  11  12
ENDBRANCH  10  11
ENDBRANCH   8  10
ENDBRANCH   7   8
ENDBRANCH   6   7
ENDBRANCH   5   6
ENDBRANCH   4   5
ENDBRANCH   3   4
ENDBRANCH   2   3
ENDBRANCH   1   2
BRANCH   1  35
ATOM     35  C   UNL A   1      34.743  33.851  33.395  1.00  0.00     0.188 C 
BRANCH  35  36
ATOM     36  C   UNL A   1      35.691  33.995  34.593  1.00  0.00     0.188 C 
BRANCH  36  37
ATOM     37  O   UNL A   1      36.242  32.771  35.076  1.00  0.00    -0.376 OA
BRANCH  37  38
ATOM     38  C   UNL A   1      37.657  32.708  35.204  1.00  0.00     0.202 C 
BRANCH  38  39
ATOM     39  C   UNL A   1      38.428  31.930  34.131  1.00  0.00     0.261 C 
BRANCH  39  40
ATOM     40  O   UNL A   1      37.924  30.614  33.819  1.00  0.00    -0.460 OA
BRANCH  40  41
ATOM     41  C   UNL A   1      37.454  30.505  32.551  1.00  0.00     0.338 C 
ATOM     42  O   UNL A   1      36.322  30.811  32.184  1.00  0.00    -0.246 OA
BRANCH  41  43
ATOM     43  C   UNL A   1      38.448  30.029  31.559  1.00  0.00     0.060 A 
ATOM     44  C   UNL A   1      39.476  29.249  32.082  1.00  0.00     0.016 A 
ATOM     45  C   UNL A   1      38.545  30.472  30.240  1.00  0.00     0.016 A 
ATOM     46  C   UNL A   1      40.600  28.914  31.328  1.00  0.00     0.010 A 
ATOM     47  C   UNL A   1      39.682  30.128  29.467  1.00  0.00     0.010 A 
ATOM     48  C   UNL A   1      40.721  29.348  30.008  1.00  0.00    -0.014 A 
BRANCH  48  49
ATOM     49  C   UNL A   1      42.042  29.173  29.335  1.00  0.00     0.031 A 
ATOM     50  C   UNL A   1      42.341  27.825  28.732  1.00  0.00     0.074 A 
ATOM     51  C   UNL A   1      42.916  30.181  29.139  1.00  0.00     0.049 A 
ATOM     52  N   UNL A   1      43.433  27.391  28.161  1.00  0.00    -0.248 NA
ATOM     53  C   UNL A   1      41.243  26.842  28.759  1.00  0.00     0.031 C 
ATOM     54  C   UNL A   1      42.704  31.575  29.517  1.00  0.00     0.029 A 
ATOM     55  N   UNL A   1      44.166  30.186  28.557  1.00  0.00    -0.354 N 
ATOM     56  C   UNL A   1      43.162  26.083  27.778  1.00  0.00     0.074 A 
ATOM     57  C   UNL A   1      41.798  25.799  28.164  1.00  0.00     0.031 C 
ATOM     58  C   UNL A   1      43.790  32.296  29.177  1.00  0.00     0.029 A 
ATOM     59  C   UNL A   1      44.802  31.407  28.609  1.00  0.00     0.049 A 
ATOM     60  H   UNL A   1      44.567  29.388  28.143  1.00  0.00     0.167 HD
ATOM     61  C   UNL A   1      43.981  25.186  27.181  1.00  0.00     0.037 A 
ATOM     62  C   UNL A   1      46.068  31.754  28.286  1.00  0.00     0.037 A 
ATOM     63  C   UNL A   1      45.349  25.448  26.828  1.00  0.00     0.049 A 
ATOM     64  C   UNL A   1      47.014  30.698  27.760  1.00  0.00     0.074 A 
ATOM     65  C   UNL A   1      46.280  24.577  26.292  1.00  0.00     0.029 A 
ATOM     66  N   UNL A   1      45.985  26.669  26.985  1.00  0.00    -0.354 N 
ATOM     67  N   UNL A   1      46.774  29.440  27.474  1.00  0.00    -0.248 NA
ATOM     68  C   UNL A   1      48.411  31.103  27.531  1.00  0.00     0.031 C 
ATOM     69  C   UNL A   1      47.496  25.259  26.170  1.00  0.00     0.029 A 
ATOM     70  C   UNL A   1      47.304  26.570  26.576  1.00  0.00     0.049 A 
ATOM     71  H   UNL A   1      45.561  27.486  27.335  1.00  0.00     0.167 HD
ATOM     72  C   UNL A   1      47.977  28.914  27.009  1.00  0.00     0.074 A 
ATOM     73  C   UNL A   1      48.943  29.991  27.041  1.00  0.00     0.031 C 
ATOM     74  C   UNL A   1      48.256  27.653  26.595  1.00  0.00     0.037 A 
BRANCH  61  75
ATOM     75  C   UNL A   1      43.430  23.806  26.963  1.00  0.00     0.058 A 
ATOM     76  C   UNL A   1      43.076  23.338  25.688  1.00  0.00     0.135 A 
ATOM     77  C   UNL A   1      43.237  22.949  28.058  1.00  0.00     0.135 A 
ATOM     78  F   UNL A   1      43.211  24.132  24.614  1.00  0.00    -0.206 F 
ATOM     79  C   UNL A   1      42.522  22.074  25.512  1.00  0.00     0.059 A 
ATOM     80  C   UNL A   1      42.709  21.672  27.900  1.00  0.00     0.059 A 
ATOM     81  F   UNL A   1      43.548  23.356  29.299  1.00  0.00    -0.206 F 
ATOM     82  C   UNL A   1      42.340  21.251  26.623  1.00  0.00     0.060 A 
BRANCH  82  83
ATOM     83  S   UNL A   1      41.610  19.616  26.393  1.00  0.00     0.124 S 
ATOM     84  O   UNL A   1      41.906  18.987  27.686  1.00  0.00    -0.237 OA
ATOM     85  O   UNL A   1      40.195  19.940  26.171  1.00  0.00    -0.237 OA
ATOM     86  O   UNL A   1      42.313  19.077  25.256  1.00  0.00    -0.744 OA
ENDBRANCH  82  83
ENDBRANCH  61  75
BRANCH  62  87
ATOM     87  C   UNL A   1      46.562  33.146  28.515  1.00  0.00     0.058 A 
ATOM     88  C   UNL A   1      47.051  33.557  29.765  1.00  0.00     0.135 A 
ATOM     89  C   UNL A   1      46.497  34.114  27.497  1.00  0.00     0.135 A 
ATOM     90  F   UNL A   1      47.108  32.684  30.782  1.00  0.00    -0.206 F 
ATOM     91  C   UNL A   1      47.446  34.873  30.003  1.00  0.00     0.059 A 
ATOM     92  C   UNL A   1      46.914  35.427  27.702  1.00  0.00     0.059 A 
ATOM     93  F   UNL A   1      46.028  33.786  26.284  1.00  0.00    -0.206 F 
ATOM     94  C   UNL A   1      47.377  35.801  28.963  1.00  0.00     0.060 A 
BRANCH  94  95
ATOM     95  S   UNL A   1      47.934  37.493  29.265  1.00  0.00     0.124 S 
ATOM     96  O   UNL A   1      47.076  38.253  28.364  1.00  0.00    -0.237 OA
ATOM     97  O   UNL A   1      47.666  37.654  30.691  1.00  0.00    -0.237 OA
ATOM     98  O   UNL A   1      49.349  37.450  28.904  1.00  0.00    -0.744 OA
ENDBRANCH  94  95
ENDBRANCH  62  87
BRANCH  74  99
ATOM     99  C   UNL A   1      49.645  27.366  26.092  1.00  0.00     0.058 A 
ATOM    100  C   UNL A   1      49.976  27.457  24.730  1.00  0.00     0.135 A 
ATOM    101  C   UNL A   1      50.679  27.069  26.997  1.00  0.00     0.135 A 
ATOM    102  F   UNL A   1      49.028  27.735  23.822  1.00  0.00    -0.206 F 
ATOM    103  C   UNL A   1      51.277  27.242  24.282  1.00  0.00     0.059 A 
ATOM    104  C   UNL A   1      51.990  26.878  26.574  1.00  0.00     0.059 A 
ATOM    105  F   UNL A   1      50.421  26.984  28.311  1.00  0.00    -0.206 F 
ATOM    106  C   UNL A   1      52.278  26.955  25.213  1.00  0.00     0.060 A 
BRANCH 106 107
ATOM    107  S   UNL A   1      53.969  26.716  24.623  1.00  0.00     0.124 S 
ATOM    108  O   UNL A   1      54.018  25.268  24.451  1.00  0.00    -0.237 OA
ATOM    109  O   UNL A   1      53.986  27.502  23.394  1.00  0.00    -0.237 OA
ATOM    110  O   UNL A   1      54.786  27.247  25.710  1.00  0.00    -0.744 OA
ENDBRANCH 106 107
ENDBRANCH  74  99
ENDBRANCH  48  49
ENDBRANCH  41  43
ENDBRANCH  40  41
ENDBRANCH  39  40
ENDBRANCH  38  39
ENDBRANCH  37  38
ENDBRANCH  36  37
ENDBRANCH  35  36
ENDBRANCH   1  35
TORSDOF 26
ENDMDL
MODEL 2
REMARK VINA RESULT:      -9.2      5.032     10.498
REMARK SMILES C[C@@H](CCC(=O)OCCOCCOCCOCCOC(=O)c1ccc(-c2c3nc(c(-c4c(F)cc(S(=O)(=O)[O-])cc4F)c4ccc([nH]4)c(-c4c(F)cc(S(=O)(=O)[O-])cc4F)c4nc(c(-c5c(F)cc(S(=O)(=O)[O-])cc5F)c5ccc2[nH]5)C=C4)C=C3)cc1)[C@@H]1CC[C@H]2[C@@H]3CC[C@H]4CC(=O)CC[C@@]4(C)[C@H]3CC(=O)[C@@]21C
REMARK SMILES IDX 13 1 12 2 11 3 10 4 9 5 8 6 7 7 5 8 6 9 4 10 3 11 2 12 1 13
REMARK SMILES IDX 88 14 89 15 107 16 90 17 91 18 105 19 108 20 92 21 104 22
REMARK SMILES IDX 106 23 93 24 103 25 94 26 101 27 95 28 100 29 102 30 96 31
REMARK SMILES IDX 99 32 97 33 98 34 14 35 15 36 16 37 17 38 18 39 19 40 20 41
REMARK SMILES IDX 21 42 22 43 23 44 87 45 24 46 86 47 25 48 26 49 27 50 80 51
REMARK SMILES IDX 28 52 85 53 79 54 81 55 29 56 84 57 78 58 77 59 30 61 64 62
REMARK SMILES IDX 43 63 63 64 44 65 47 66 62 67 82 68 45 69 46 70 61 72 83 73
REMARK SMILES IDX 48 74 31 75 32 76 41 77 33 78 34 79 40 80 42 81 35 82 36 83
REMARK SMILES IDX 37 84 38 85 39 86 65 87 66 88 75 89 67 90 68 91 74 92 76 93
REMARK SMILES IDX 69 94 70 95 71 96 72 97 73 98 49 99 50 100 59 101 51 102
REMARK SMILES IDX 52 103 58 104 60 105 53 106 54 107 55 108 56 109 57 110
REMARK H PARENT 81 60 47 71
REMARK Flexibility Score: inf
ROOT
ATOM      1  O   UNL A   1      44.497  28.536  25.826  1.00  0.00    -0.377 OA
ENDROOT
BRANCH   1   2
ATOM      2  C   UNL A   1      43.297  27.796  26.054  1.00  0.00     0.188 C 
BRANCH   2   3
ATOM      3  C   UNL A   1      43.601  26.456  26.834  1.00  0.00     0.188 C 
BRANCH   3   4
ATOM      4  O   UNL A   1      42.723  26.241  27.940  1.00  0.00    -0.376 OA
BRANCH   4   5
ATOM      5  C   UNL A   1      41.404  26.811  28.018  1.00  0.00     0.202 C 
BRANCH   5   6
ATOM      6  C   UNL A   1      40.049  26.057  28.237  1.00  0.00     0.261 C 
BRANCH   6   7
ATOM      7  O   UNL A   1      39.369  25.435  27.111  1.00  0.00    -0.463 OA
BRANCH   7   8
ATOM      8  C   UNL A   1      39.531  24.096  26.886  1.00  0.00     0.305 C 
ATOM      9  O   UNL A   1      40.629  23.546  26.910  1.00  0.00    -0.252 OA
BRANCH   8  10
ATOM     10  C   UNL A   1      38.221  23.336  26.513  1.00  0.00     0.123 C 
BRANCH  10  11
ATOM     11  C   UNL A   1      38.120  22.303  25.333  1.00  0.00     0.015 C 
BRANCH  11  12
ATOM     12  C   UNL A   1      36.976  21.130  25.360  1.00  0.00    -0.010 C 
ATOM     13  C   UNL A   1      37.611  19.877  24.768  1.00  0.00     0.008 C 
BRANCH  12  14
ATOM     14  C   UNL A   1      35.652  21.600  24.681  1.00  0.00     0.005 C 
ATOM     15  C   UNL A   1      36.189  22.620  23.711  1.00  0.00     0.005 C 
ATOM     16  C   UNL A   1      34.191  22.365  25.086  1.00  0.00     0.032 C 
ATOM     17  C   UNL A   1      34.973  23.050  22.989  1.00  0.00     0.005 C 
ATOM     18  C   UNL A   1      34.254  23.613  24.132  1.00  0.00     0.006 C 
ATOM     19  C   UNL A   1      33.695  23.174  26.300  1.00  0.00     0.139 C 
ATOM     20  C   UNL A   1      33.076  21.338  24.793  1.00  0.00     0.020 C 
ATOM     21  C   UNL A   1      33.098  24.538  23.734  1.00  0.00    -0.003 C 
ATOM     22  C   UNL A   1      32.357  24.067  26.026  1.00  0.00     0.080 C 
ATOM     23  O   UNL A   1      34.318  23.202  27.356  1.00  0.00    -0.299 OA
ATOM     24  C   UNL A   1      33.587  25.535  22.646  1.00  0.00     0.004 C 
ATOM     25  C   UNL A   1      32.645  25.230  25.023  1.00  0.00     0.006 C 
ATOM     26  C   UNL A   1      33.168  26.988  22.659  1.00  0.00     0.005 C 
ATOM     27  C   UNL A   1      31.694  26.477  24.683  1.00  0.00    -0.025 C 
ATOM     28  C   UNL A   1      32.658  27.512  24.009  1.00  0.00     0.002 C 
ATOM     29  C   UNL A   1      30.531  26.239  23.677  1.00  0.00     0.015 C 
ATOM     30  C   UNL A   1      31.064  27.082  25.949  1.00  0.00     0.012 C 
ATOM     31  C   UNL A   1      32.028  28.884  23.797  1.00  0.00     0.079 C 
ATOM     32  C   UNL A   1      30.027  27.481  22.884  1.00  0.00     0.076 C 
ATOM     33  C   UNL A   1      30.855  28.761  22.868  1.00  0.00     0.133 C 
ATOM     34  O   UNL A   1      30.552  29.697  22.124  1.00  0.00    -0.300 OA
ENDBRANCH  12  14
ENDBRANCH  11  12
ENDBRANCH  10  11
ENDBRANCH   8  10
ENDBRANCH   7   8
ENDBRANCH   6   7
ENDBRANCH   5   6
ENDBRANCH   4   5
ENDBRANCH   3   4
ENDBRANCH   2   3
ENDBRANCH   1   2
BRANCH   1  35
ATOM     35  C   UNL A   1      45.759  27.905  26.025  1.00  0.00     0.188 C 
BRANCH  35  36
ATOM     36  C   UNL A   1      46.771  28.105  24.889  1.00  0.00     0.188 C 
BRANCH  36  37
ATOM     37  O   UNL A   1      47.756  27.079  24.772  1.00  0.00    -0.376 OA
BRANCH  37  38
ATOM     38  C   UNL A   1      49.008  27.450  24.208  1.00  0.00     0.202 C 
BRANCH  38  39
ATOM     39  C   UNL A   1      50.274  26.927  24.898  1.00  0.00     0.261 C 
BRANCH  39  40
ATOM     40  O   UNL A   1      50.206  25.577  25.403  1.00  0.00    -0.460 OA
BRANCH  40  41
ATOM     41  C   UNL A   1      50.903  25.399  26.555  1.00  0.00     0.338 C 
ATOM     42  O   UNL A   1      52.055  24.979  26.630  1.00  0.00    -0.246 OA
BRANCH  41  43
ATOM     43  C   UNL A   1      50.187  25.816  27.784  1.00  0.00     0.060 A 
ATOM     44  C   UNL A   1      48.830  25.510  27.809  1.00  0.00     0.016 A 
ATOM     45  C   UNL A   1      50.706  26.653  28.773  1.00  0.00     0.016 A 
ATOM     46  C   UNL A   1      47.978  26.028  28.785  1.00  0.00     0.010 A 
ATOM     47  C   UNL A   1      49.846  27.175  29.771  1.00  0.00     0.010 A 
ATOM     48  C   UNL A   1      48.473  26.869  29.782  1.00  0.00    -0.014 A 
BRANCH  48  49
ATOM     49  C   UNL A   1      47.486  27.585  30.642  1.00  0.00     0.031 A 
ATOM     50  C   UNL A   1      47.092  26.929  31.940  1.00  0.00     0.074 A 
ATOM     51  C   UNL A   1      47.028  28.825  30.375  1.00  0.00     0.049 A 
ATOM     52  N   UNL A   1      46.208  27.302  32.828  1.00  0.00    -0.248 NA
ATOM     53  C   UNL A   1      47.817  25.697  32.293  1.00  0.00     0.031 C 
ATOM     54  C   UNL A   1      47.436  29.657  29.246  1.00  0.00     0.029 A 
ATOM     55  N   UNL A   1      46.118  29.611  31.048  1.00  0.00    -0.354 N 
ATOM     56  C   UNL A   1      46.256  26.342  33.831  1.00  0.00     0.074 A 
ATOM     57  C   UNL A   1      47.270  25.382  33.455  1.00  0.00     0.031 C 
ATOM     58  C   UNL A   1      46.768  30.825  29.293  1.00  0.00     0.029 A 
ATOM     59  C   UNL A   1      45.838  30.806  30.421  1.00  0.00     0.049 A 
ATOM     60  H   UNL A   1      45.704  29.342  31.901  1.00  0.00     0.167 HD
ATOM     61  C   UNL A   1      45.509  26.251  34.956  1.00  0.00     0.037 A 
ATOM     62  C   UNL A   1      44.907  31.747  30.695  1.00  0.00     0.037 A 
ATOM     63  C   UNL A   1      44.476  27.181  35.319  1.00  0.00     0.049 A 
ATOM     64  C   UNL A   1      43.979  31.550  31.873  1.00  0.00     0.074 A 
ATOM     65  C   UNL A   1      43.612  27.128  36.398  1.00  0.00     0.029 A 
ATOM     66  N   UNL A   1      44.158  28.327  34.607  1.00  0.00    -0.354 N 
ATOM     67  N   UNL A   1      43.979  30.597  32.776  1.00  0.00    -0.248 NA
ATOM     68  C   UNL A   1      42.911  32.546  32.060  1.00  0.00     0.031 C 
ATOM     69  C   UNL A   1      42.738  28.218  36.311  1.00  0.00     0.029 A 
ATOM     70  C   UNL A   1      43.097  28.980  35.211  1.00  0.00     0.049 A 
ATOM     71  H   UNL A   1      44.620  28.632  33.792  1.00  0.00     0.167 HD
ATOM     72  C   UNL A   1      42.933  30.894  33.647  1.00  0.00     0.074 A 
ATOM     73  C   UNL A   1      42.329  32.120  33.172  1.00  0.00     0.031 C 
ATOM     74  C   UNL A   1      42.512  30.210  34.741  1.00  0.00     0.037 A 
BRANCH  61  75
ATOM     75  C   UNL A   1      45.731  25.044  35.821  1.00  0.00     0.058 A 
ATOM     76  C   UNL A   1      45.170  23.795  35.515  1.00  0.00     0.135 A 
ATOM     77  C   UNL A   1      46.502  25.152  36.989  1.00  0.00     0.135 A 
ATOM     78  F   UNL A   1      44.397  23.648  34.427  1.00  0.00    -0.206 F 
ATOM     79  C   UNL A   1      45.347  22.699  36.353  1.00  0.00     0.059 A 
ATOM     80  C   UNL A   1      46.712  24.064  37.828  1.00  0.00     0.059 A 
ATOM     81  F   UNL A   1      47.049  26.330  37.332  1.00  0.00    -0.206 F 
ATOM     82  C   UNL A   1      46.115  22.844  37.508  1.00  0.00     0.060 A 
BRANCH  82  83
ATOM     83  S   UNL A   1      46.333  21.425  38.602  1.00  0.00     0.124 S 
ATOM     84  O   UNL A   1      47.783  21.457  38.827  1.00  0.00    -0.237 OA
ATOM     85  O   UNL A   1      45.517  21.804  39.762  1.00  0.00    -0.237 OA
ATOM     86  O   UNL A   1      45.842  20.311  37.830  1.00  0.00    -0.744 OA
ENDBRANCH  82  83
ENDBRANCH  61  75
BRANCH  62  87
ATOM     87  C   UNL A   1      44.735  32.935  29.806  1.00  0.00     0.058 A 
ATOM     88  C   UNL A   1      45.319  34.175  30.113  1.00  0.00     0.135 A 
ATOM     89  C   UNL A   1      43.930  32.869  28.655  1.00  0.00     0.135 A 
ATOM     90  F   UNL A   1      46.073  34.305  31.214  1.00  0.00    -0.206 F 
ATOM     91  C   UNL A   1      45.103  35.304  29.324  1.00  0.00     0.059 A 
ATOM     92  C   UNL A   1      43.724  33.975  27.836  1.00  0.00     0.059 A 
ATOM     93  F   UNL A   1      43.336  31.715  28.315  1.00  0.00    -0.206 F 
ATOM     94  C   UNL A   1      44.305  35.194  28.184  1.00  0.00     0.060 A 
BRANCH  94  95
ATOM     95  S   UNL A   1      44.067  36.649  27.141  1.00  0.00     0.124 S 
ATOM     96  O   UNL A   1      43.157  36.139  26.123  1.00  0.00    -0.237 OA
ATOM     97  O   UNL A   1      43.499  37.610  28.081  1.00  0.00    -0.237 OA
ATOM     98  O   UNL A   1      45.419  36.959  26.682  1.00  0.00    -0.744 OA
ENDBRANCH  94  95
ENDBRANCH  62  87
BRANCH  74  99
ATOM     99  C   UNL A   1      41.374  30.788  35.539  1.00  0.00     0.058 A 
ATOM    100  C   UNL A   1      41.581  31.755  36.536  1.00  0.00     0.135 A 
ATOM    101  C   UNL A   1      40.048  30.422  35.249  1.00  0.00     0.135 A 
ATOM    102  F   UNL A   1      42.825  32.140  36.855  1.00  0.00    -0.206 F 
ATOM    103  C   UNL A   1      40.515  32.322  37.231  1.00  0.00     0.059 A 
ATOM    104  C   UNL A   1      38.968  30.996  35.911  1.00  0.00     0.059 A 
ATOM    105  F   UNL A   1      39.792  29.513  34.295  1.00  0.00    -0.206 F 
ATOM    106  C   UNL A   1      39.211  31.938  36.909  1.00  0.00     0.060 A 
BRANCH 106 107
ATOM    107  S   UNL A   1      37.836  32.708  37.791  1.00  0.00     0.124 S 
ATOM    108  O   UNL A   1      36.962  31.565  38.030  1.00  0.00    -0.237 OA
ATOM    109  O   UNL A   1      38.492  33.262  38.971  1.00  0.00    -0.237 OA
ATOM    110  O   UNL A   1      37.334  33.696  36.841  1.00  0.00    -0.744 OA
ENDBRANCH 106 107
ENDBRANCH  74  99
ENDBRANCH  48  49
ENDBRANCH  41  43
ENDBRANCH  40  41
ENDBRANCH  39  40
ENDBRANCH  38  39
ENDBRANCH  37  38
ENDBRANCH  36  37
ENDBRANCH  35  36
ENDBRANCH   1  35
TORSDOF 26
ENDMDL
MODEL 3
REMARK VINA RESULT:      -8.8      3.984     11.037
REMARK SMILES C[C@@H](CCC(=O)OCCOCCOCCOCCOC(=O)c1ccc(-c2c3nc(c(-c4c(F)cc(S(=O)(=O)[O-])cc4F)c4ccc([nH]4)c(-c4c(F)cc(S(=O)(=O)[O-])cc4F)c4nc(c(-c5c(F)cc(S(=O)(=O)[O-])cc5F)c5ccc2[nH]5)C=C4)C=C3)cc1)[C@@H]1CC[C@H]2[C@@H]3CC[C@H]4CC(=O)CC[C@@]4(C)[C@H]3CC(=O)[C@@]21C
REMARK SMILES IDX 13 1 12 2 11 3 10 4 9 5 8 6 7 7 5 8 6 9 4 10 3 11 2 12 1 13
REMARK SMILES IDX 88 14 89 15 107 16 90 17 91 18 105 19 108 20 92 21 104 22
REMARK SMILES IDX 106 23 93 24 103 25 94 26 101 27 95 28 100 29 102 30 96 31
REMARK SMILES IDX 99 32 97 33 98 34 14 35 15 36 16 37 17 38 18 39 19 40 20 41
REMARK SMILES IDX 21 42 22 43 23 44 87 45 24 46 86 47 25 48 26 49 27 50 80 51
REMARK SMILES IDX 28 52 85 53 79 54 81 55 29 56 84 57 78 58 77 59 30 61 64 62
REMARK SMILES IDX 43 63 63 64 44 65 47 66 62 67 82 68 45 69 46 70 61 72 83 73
REMARK SMILES IDX 48 74 31 75 32 76 41 77 33 78 34 79 40 80 42 81 35 82 36 83
REMARK SMILES IDX 37 84 38 85 39 86 65 87 66 88 75 89 67 90 68 91 74 92 76 93
REMARK SMILES IDX 69 94 70 95 71 96 72 97 73 98 49 99 50 100 59 101 51 102
REMARK SMILES IDX 52 103 58 104 60 105 53 106 54 107 55 108 56 109 57 110
REMARK H PARENT 81 60 47 71
REMARK Flexibility Score: inf
ROOT
ATOM      1  O   UNL A   1      34.164  35.144  31.817  1.00  0.00    -0.377 OA
ENDROOT
BRANCH   1   2
ATOM      2  C   UNL A   1      34.636  35.699  33.044  1.00  0.00     0.188 C 
BRANCH   2   3
ATOM      3  C   UNL A   1      35.497  34.645  33.846  1.00  0.00     0.188 C 
BRANCH   3   4
ATOM      4  O   UNL A   1      36.430  33.942  33.025  1.00  0.00    -0.376 OA
BRANCH   4   5
ATOM      5  C   UNL A   1      37.622  33.323  33.544  1.00  0.00     0.202 C 
BRANCH   5   6
ATOM      6  C   UNL A   1      37.729  32.286  34.712  1.00  0.00     0.261 C 
BRANCH   6   7
ATOM      7  O   UNL A   1      37.087  32.558  35.990  1.00  0.00    -0.463 OA
BRANCH   7   8
ATOM      8  C   UNL A   1      37.829  33.072  37.017  1.00  0.00     0.305 C 
ATOM      9  O   UNL A   1      37.752  32.651  38.168  1.00  0.00    -0.252 OA
BRANCH   8  10
ATOM     10  C   UNL A   1      38.719  34.293  36.629  1.00  0.00     0.123 C 
BRANCH  10  11
ATOM     11  C   UNL A   1      40.088  34.165  35.867  1.00  0.00     0.015 C 
BRANCH  11  12
ATOM     12  C   UNL A   1      41.115  32.938  36.218  1.00  0.00    -0.010 C 
ATOM     13  C   UNL A   1      41.881  33.344  37.472  1.00  0.00     0.008 C 
BRANCH  12  14
ATOM     14  C   UNL A   1      41.994  32.552  34.988  1.00  0.00     0.005 C 
ATOM     15  C   UNL A   1      41.168  31.439  34.398  1.00  0.00     0.005 C 
ATOM     16  C   UNL A   1      43.542  31.942  34.643  1.00  0.00     0.032 C 
ATOM     17  C   UNL A   1      41.928  31.082  33.181  1.00  0.00     0.005 C 
ATOM     18  C   UNL A   1      43.159  30.646  33.840  1.00  0.00     0.006 C 
ATOM     19  C   UNL A   1      44.637  31.245  35.471  1.00  0.00     0.139 C 
ATOM     20  C   UNL A   1      44.268  33.048  33.847  1.00  0.00     0.020 C 
ATOM     21  C   UNL A   1      44.072  29.808  32.938  1.00  0.00    -0.003 C 
ATOM     22  C   UNL A   1      45.766  30.461  34.590  1.00  0.00     0.080 C 
ATOM     23  O   UNL A   1      44.602  31.216  36.696  1.00  0.00    -0.299 OA
ATOM     24  C   UNL A   1      43.229  28.717  32.222  1.00  0.00     0.004 C 
ATOM     25  C   UNL A   1      45.155  29.227  33.852  1.00  0.00     0.006 C 
ATOM     26  C   UNL A   1      43.750  27.309  32.035  1.00  0.00     0.005 C 
ATOM     27  C   UNL A   1      45.951  28.053  33.101  1.00  0.00    -0.025 C 
ATOM     28  C   UNL A   1      44.894  26.903  32.975  1.00  0.00     0.002 C 
ATOM     29  C   UNL A   1      46.460  28.342  31.658  1.00  0.00     0.015 C 
ATOM     30  C   UNL A   1      47.167  27.573  33.909  1.00  0.00     0.012 C 
ATOM     31  C   UNL A   1      45.484  25.583  32.491  1.00  0.00     0.079 C 
ATOM     32  C   UNL A   1      46.649  27.110  30.724  1.00  0.00     0.076 C 
ATOM     33  C   UNL A   1      46.050  25.762  31.112  1.00  0.00     0.133 C 
ATOM     34  O   UNL A   1      46.056  24.819  30.317  1.00  0.00    -0.300 OA
ENDBRANCH  12  14
ENDBRANCH  11  12
ENDBRANCH  10  11
ENDBRANCH   8  10
ENDBRANCH   7   8
ENDBRANCH   6   7
ENDBRANCH   5   6
ENDBRANCH   4   5
ENDBRANCH   3   4
ENDBRANCH   2   3
ENDBRANCH   1   2
BRANCH   1  35
ATOM     35  C   UNL A   1      33.054  35.746  31.156  1.00  0.00     0.188 C 
BRANCH  35  36
ATOM     36  C   UNL A   1      33.114  35.708  29.623  1.00  0.00     0.188 C 
BRANCH  36  37
ATOM     37  O   UNL A   1      32.886  34.426  29.042  1.00  0.00    -0.376 OA
BRANCH  37  38
ATOM     38  C   UNL A   1      33.984  33.816  28.375  1.00  0.00     0.202 C 
BRANCH  38  39
ATOM     39  C   UNL A   1      34.187  32.310  28.583  1.00  0.00     0.261 C 
BRANCH  39  40
ATOM     40  O   UNL A   1      34.982  31.932  29.727  1.00  0.00    -0.460 OA
BRANCH  40  41
ATOM     41  C   UNL A   1      36.234  32.456  29.709  1.00  0.00     0.338 C 
ATOM     42  O   UNL A   1      36.512  33.637  29.898  1.00  0.00    -0.246 OA
BRANCH  41  43
ATOM     43  C   UNL A   1      37.317  31.466  29.499  1.00  0.00     0.060 A 
ATOM     44  C   UNL A   1      38.341  31.503  30.441  1.00  0.00     0.016 A 
ATOM     45  C   UNL A   1      37.486  30.688  28.352  1.00  0.00     0.016 A 
ATOM     46  C   UNL A   1      39.531  30.797  30.260  1.00  0.00     0.010 A 
ATOM     47  C   UNL A   1      38.690  29.963  28.169  1.00  0.00     0.010 A 
ATOM     48  C   UNL A   1      39.724  30.016  29.122  1.00  0.00    -0.014 A 
BRANCH  48  49
ATOM     49  C   UNL A   1      41.096  29.487  28.864  1.00  0.00     0.031 A 
ATOM     50  C   UNL A   1      42.248  30.447  29.008  1.00  0.00     0.074 A 
ATOM     51  C   UNL A   1      41.360  28.185  28.631  1.00  0.00     0.049 A 
ATOM     52  N   UNL A   1      43.521  30.264  28.772  1.00  0.00    -0.248 NA
ATOM     53  C   UNL A   1      41.917  31.791  29.511  1.00  0.00     0.031 C 
ATOM     54  C   UNL A   1      40.375  27.107  28.621  1.00  0.00     0.029 A 
ATOM     55  N   UNL A   1      42.550  27.543  28.363  1.00  0.00    -0.354 N 
ATOM     56  C   UNL A   1      44.137  31.470  29.078  1.00  0.00     0.074 A 
ATOM     57  C   UNL A   1      43.104  32.373  29.536  1.00  0.00     0.031 C 
ATOM     58  C   UNL A   1      40.994  25.944  28.343  1.00  0.00     0.029 A 
ATOM     59  C   UNL A   1      42.413  26.199  28.096  1.00  0.00     0.049 A 
ATOM     60  H   UNL A   1      43.420  28.005  28.363  1.00  0.00     0.167 HD
ATOM     61  C   UNL A   1      45.443  31.809  28.968  1.00  0.00     0.037 A 
ATOM     62  C   UNL A   1      43.314  25.293  27.654  1.00  0.00     0.037 A 
ATOM     63  C   UNL A   1      46.469  30.930  28.479  1.00  0.00     0.049 A 
ATOM     64  C   UNL A   1      44.737  25.731  27.392  1.00  0.00     0.074 A 
ATOM     65  C   UNL A   1      47.805  31.209  28.257  1.00  0.00     0.029 A 
ATOM     66  N   UNL A   1      46.271  29.604  28.128  1.00  0.00    -0.354 N 
ATOM     67  N   UNL A   1      45.297  26.898  27.610  1.00  0.00    -0.248 NA
ATOM     68  C   UNL A   1      45.649  24.735  26.805  1.00  0.00     0.031 C 
ATOM     69  C   UNL A   1      48.406  30.063  27.723  1.00  0.00     0.029 A 
ATOM     70  C   UNL A   1      47.457  29.056  27.670  1.00  0.00     0.049 A 
ATOM     71  H   UNL A   1      45.415  29.123  28.195  1.00  0.00     0.167 HD
ATOM     72  C   UNL A   1      46.626  26.767  27.213  1.00  0.00     0.074 A 
ATOM     73  C   UNL A   1      46.791  25.406  26.751  1.00  0.00     0.031 C 
ATOM     74  C   UNL A   1      47.618  27.693  27.228  1.00  0.00     0.037 A 
BRANCH  61  75
ATOM     75  C   UNL A   1      45.804  33.229  29.298  1.00  0.00     0.058 A 
ATOM     76  C   UNL A   1      46.303  33.596  30.557  1.00  0.00     0.135 A 
ATOM     77  C   UNL A   1      45.626  34.238  28.339  1.00  0.00     0.135 A 
ATOM     78  F   UNL A   1      46.461  32.673  31.519  1.00  0.00    -0.206 F 
ATOM     79  C   UNL A   1      46.588  34.923  30.861  1.00  0.00     0.059 A 
ATOM     80  C   UNL A   1      45.928  35.566  28.613  1.00  0.00     0.059 A 
ATOM     81  F   UNL A   1      45.138  33.938  27.124  1.00  0.00    -0.206 F 
ATOM     82  C   UNL A   1      46.394  35.901  29.885  1.00  0.00     0.060 A 
BRANCH  82  83
ATOM     83  S   UNL A   1      46.752  37.624  30.285  1.00  0.00     0.124 S 
ATOM     84  O   UNL A   1      45.434  38.242  30.096  1.00  0.00    -0.237 OA
ATOM     85  O   UNL A   1      47.198  37.529  31.681  1.00  0.00    -0.237 OA
ATOM     86  O   UNL A   1      47.764  38.000  29.330  1.00  0.00    -0.744 OA
ENDBRANCH  82  83
ENDBRANCH  61  75
BRANCH  62  87
ATOM     87  C   UNL A   1      42.901  23.889  27.350  1.00  0.00     0.058 A 
ATOM     88  C   UNL A   1      43.031  22.862  28.299  1.00  0.00     0.135 A 
ATOM     89  C   UNL A   1      42.424  23.534  26.077  1.00  0.00     0.135 A 
ATOM     90  F   UNL A   1      43.509  23.137  29.522  1.00  0.00    -0.206 F 
ATOM     91  C   UNL A   1      42.715  21.538  27.997  1.00  0.00     0.059 A 
ATOM     92  C   UNL A   1      42.073  22.224  25.760  1.00  0.00     0.059 A 
ATOM     93  F   UNL A   1      42.289  24.468  25.123  1.00  0.00    -0.206 F 
ATOM     94  C   UNL A   1      42.233  21.229  26.724  1.00  0.00     0.060 A 
BRANCH  94  95
ATOM     95  S   UNL A   1      41.781  19.519  26.353  1.00  0.00     0.124 S 
ATOM     96  O   UNL A   1      41.344  19.039  27.658  1.00  0.00    -0.237 OA
ATOM     97  O   UNL A   1      40.732  19.691  25.352  1.00  0.00    -0.237 OA
ATOM     98  O   UNL A   1      43.026  18.944  25.851  1.00  0.00    -0.744 OA
ENDBRANCH  94  95
ENDBRANCH  62  87
BRANCH  74  99
ATOM     99  C   UNL A   1      48.990  27.264  26.780  1.00  0.00     0.058 A 
ATOM    100  C   UNL A   1      49.933  26.738  27.677  1.00  0.00     0.135 A 
ATOM    101  C   UNL A   1      49.338  27.312  25.419  1.00  0.00     0.135 A 
ATOM    102  F   UNL A   1      49.654  26.670  28.988  1.00  0.00    -0.206 F 
ATOM    103  C   UNL A   1      51.180  26.294  27.244  1.00  0.00     0.059 A 
ATOM    104  C   UNL A   1      50.567  26.850  24.961  1.00  0.00     0.059 A 
ATOM    105  F   UNL A   1      48.469  27.793  24.517  1.00  0.00    -0.206 F 
ATOM    106  C   UNL A   1      51.487  26.352  25.882  1.00  0.00     0.060 A 
BRANCH 106 107
ATOM    107  S   UNL A   1      53.093  25.738  25.327  1.00  0.00     0.124 S 
ATOM    108  O   UNL A   1      52.814  25.403  23.935  1.00  0.00    -0.237 OA
ATOM    109  O   UNL A   1      53.959  26.893  25.540  1.00  0.00    -0.237 OA
ATOM    110  O   UNL A   1      53.346  24.603  26.209  1.00  0.00    -0.744 OA
ENDBRANCH 106 107
ENDBRANCH  74  99
ENDBRANCH  48  49
ENDBRANCH  41  43
ENDBRANCH  40  41
ENDBRANCH  39  40
ENDBRANCH  38  39
ENDBRANCH  37  38
ENDBRANCH  36  37
ENDBRANCH  35  36
ENDBRANCH   1  35
TORSDOF 26
ENDMDL
