MODEL 1
REMARK VINA RESULT:     -10.0      0.000      0.000
REMARK SMILES C[C@@H](C(=O)OCCOCCOCCOCCOC(=O)c1ccc(-c2c3nc(c(-c4c(F)cc(S(=O)(=O)[O-])cc4F)c4ccc([nH]4)c(-c4c(F)cc(S(=O)(=O)[O-])cc4F)c4nc(c(-c5c(F)cc(S(=O)(=O)[O-])cc5F)c5ccc2[nH]5)C=C4)C=C3)cc1)c1cccc(C(=O)c2ccccc2)c1
REMARK SMILES IDX 11 1 10 2 9 3 8 4 7 5 6 6 5 7 3 8 4 9 2 10 1 11 86 12 87 13
REMARK SMILES IDX 99 14 88 15 90 16 89 17 91 18 92 19 93 20 94 21 98 22 95 23
REMARK SMILES IDX 97 24 96 25 12 26 13 27 14 28 15 29 16 30 17 31 18 32 19 33
REMARK SMILES IDX 20 34 21 35 85 36 22 37 84 38 23 39 24 40 25 41 78 42 26 43
REMARK SMILES IDX 83 44 77 45 79 46 27 47 82 48 76 49 75 50 28 52 62 53 41 54
REMARK SMILES IDX 61 55 42 56 45 57 60 58 80 59 43 60 44 61 59 63 81 64 46 65
REMARK SMILES IDX 29 66 30 67 39 68 31 69 32 70 38 71 40 72 33 73 34 74 35 75
REMARK SMILES IDX 36 76 37 77 63 78 64 79 73 80 65 81 66 82 72 83 74 84 67 85
REMARK SMILES IDX 68 86 69 87 70 88 71 89 47 90 48 91 57 92 49 93 50 94 56 95
REMARK SMILES IDX 58 96 51 97 52 98 53 99 54 100 55 101
REMARK H PARENT 79 51 45 62
REMARK Flexibility Score: inf
ROOT
ATOM      1  O   UNL A   1      34.861  33.423  29.544  1.00  0.00    -0.377 OA
ENDROOT
BRANCH   1   2
ATOM      2  C   UNL A   1      34.846  32.034  29.301  1.00  0.00     0.188 C 
BRANCH   2   3
ATOM      3  C   UNL A   1      34.915  31.627  27.818  1.00  0.00     0.188 C 
BRANCH   3   4
ATOM      4  O   UNL A   1      35.536  30.410  27.434  1.00  0.00    -0.376 OA
BRANCH   4   5
ATOM      5  C   UNL A   1      34.784  29.205  27.397  1.00  0.00     0.202 C 
BRANCH   5   6
ATOM      6  C   UNL A   1      33.272  29.190  27.087  1.00  0.00     0.261 C 
BRANCH   6   7
ATOM      7  O   UNL A   1      32.764  28.040  26.381  1.00  0.00    -0.463 OA
BRANCH   7   8
ATOM      8  C   UNL A   1      31.681  27.429  26.914  1.00  0.00     0.313 C 
ATOM      9  O   UNL A   1      31.087  27.844  27.909  1.00  0.00    -0.252 OA
BRANCH   8  10
ATOM     10  C   UNL A   1      31.191  26.183  26.131  1.00  0.00     0.126 C 
ATOM     11  C   UNL A   1      31.553  24.788  26.647  1.00  0.00     0.025 C 
BRANCH  10  12
ATOM     12  C   UNL A   1      31.403  26.413  24.630  1.00  0.00    -0.033 A 
ATOM     13  C   UNL A   1      30.765  27.383  23.846  1.00  0.00     0.004 A 
ATOM     14  C   UNL A   1      32.179  25.453  23.968  1.00  0.00     0.016 A 
ATOM     15  C   UNL A   1      30.846  27.340  22.446  1.00  0.00     0.001 A 
ATOM     16  C   UNL A   1      32.235  25.373  22.573  1.00  0.00     0.023 A 
ATOM     17  C   UNL A   1      31.566  26.328  21.807  1.00  0.00     0.012 A 
BRANCH  16  18
ATOM     18  C   UNL A   1      32.996  24.274  21.911  1.00  0.00     0.193 C 
ATOM     19  O   UNL A   1      33.259  24.317  20.714  1.00  0.00    -0.289 OA
BRANCH  18  20
ATOM     20  C   UNL A   1      33.506  23.150  22.731  1.00  0.00     0.022 A 
ATOM     21  C   UNL A   1      34.785  23.264  23.281  1.00  0.00     0.012 A 
ATOM     22  C   UNL A   1      32.680  22.069  23.066  1.00  0.00     0.012 A 
ATOM     23  C   UNL A   1      35.223  22.313  24.203  1.00  0.00     0.001 A 
ATOM     24  C   UNL A   1      33.121  21.127  23.995  1.00  0.00     0.001 A 
ATOM     25  C   UNL A   1      34.389  21.254  24.567  1.00  0.00     0.000 A 
ENDBRANCH  18  20
ENDBRANCH  16  18
ENDBRANCH  10  12
ENDBRANCH   8  10
ENDBRANCH   7   8
ENDBRANCH   6   7
ENDBRANCH   5   6
ENDBRANCH   4   5
ENDBRANCH   3   4
ENDBRANCH   2   3
ENDBRANCH   1   2
BRANCH   1  26
ATOM     26  C   UNL A   1      33.858  34.196  28.908  1.00  0.00     0.188 C 
BRANCH  26  27
ATOM     27  C   UNL A   1      34.287  35.498  28.202  1.00  0.00     0.188 C 
BRANCH  27  28
ATOM     28  O   UNL A   1      33.737  36.681  28.775  1.00  0.00    -0.376 OA
BRANCH  28  29
ATOM     29  C   UNL A   1      32.903  36.561  29.917  1.00  0.00     0.202 C 
BRANCH  29  30
ATOM     30  C   UNL A   1      33.123  37.556  31.071  1.00  0.00     0.261 C 
BRANCH  30  31
ATOM     31  O   UNL A   1      33.235  36.999  32.389  1.00  0.00    -0.460 OA
BRANCH  31  32
ATOM     32  C   UNL A   1      32.858  35.717  32.566  1.00  0.00     0.338 C 
ATOM     33  O   UNL A   1      31.722  35.273  32.506  1.00  0.00    -0.246 OA
BRANCH  32  34
ATOM     34  C   UNL A   1      34.082  34.889  32.641  1.00  0.00     0.060 A 
ATOM     35  C   UNL A   1      33.965  33.540  33.001  1.00  0.00     0.016 A 
ATOM     36  C   UNL A   1      35.333  35.434  32.341  1.00  0.00     0.016 A 
ATOM     37  C   UNL A   1      35.103  32.742  33.101  1.00  0.00     0.010 A 
ATOM     38  C   UNL A   1      36.476  34.640  32.467  1.00  0.00     0.010 A 
ATOM     39  C   UNL A   1      36.369  33.300  32.883  1.00  0.00    -0.014 A 
BRANCH  39  40
ATOM     40  C   UNL A   1      37.582  32.551  33.289  1.00  0.00     0.031 A 
ATOM     41  C   UNL A   1      38.237  32.916  34.594  1.00  0.00     0.074 A 
ATOM     42  C   UNL A   1      38.076  31.549  32.540  1.00  0.00     0.049 A 
ATOM     43  N   UNL A   1      39.335  32.453  35.129  1.00  0.00    -0.248 NA
ATOM     44  C   UNL A   1      37.561  33.947  35.402  1.00  0.00     0.031 C 
ATOM     45  C   UNL A   1      37.500  31.069  31.285  1.00  0.00     0.029 A 
ATOM     46  N   UNL A   1      39.185  30.761  32.727  1.00  0.00    -0.354 N 
ATOM     47  C   UNL A   1      39.485  33.136  36.331  1.00  0.00     0.074 A 
ATOM     48  C   UNL A   1      38.383  34.067  36.433  1.00  0.00     0.031 C 
ATOM     49  C   UNL A   1      38.270  30.075  30.806  1.00  0.00     0.029 A 
ATOM     50  C   UNL A   1      39.410  29.875  31.700  1.00  0.00     0.049 A 
ATOM     51  H   UNL A   1      39.764  30.825  33.520  1.00  0.00     0.167 HD
ATOM     52  C   UNL A   1      40.448  32.991  37.271  1.00  0.00     0.037 A 
ATOM     53  C   UNL A   1      40.433  29.019  31.494  1.00  0.00     0.037 A 
ATOM     54  C   UNL A   1      41.542  32.061  37.163  1.00  0.00     0.049 A 
ATOM     55  C   UNL A   1      41.535  28.925  32.519  1.00  0.00     0.074 A 
ATOM     56  C   UNL A   1      42.570  31.840  38.063  1.00  0.00     0.029 A 
ATOM     57  N   UNL A   1      41.754  31.203  36.094  1.00  0.00    -0.354 N 
ATOM     58  N   UNL A   1      41.672  29.582  33.647  1.00  0.00    -0.248 NA
ATOM     59  C   UNL A   1      42.621  27.971  32.246  1.00  0.00     0.031 C 
ATOM     60  C   UNL A   1      43.433  30.887  37.513  1.00  0.00     0.029 A 
ATOM     61  C   UNL A   1      42.907  30.465  36.302  1.00  0.00     0.049 A 
ATOM     62  H   UNL A   1      41.169  31.129  35.305  1.00  0.00     0.167 HD
ATOM     63  C   UNL A   1      42.840  29.101  34.231  1.00  0.00     0.074 A 
ATOM     64  C   UNL A   1      43.368  28.092  33.336  1.00  0.00     0.031 C 
ATOM     65  C   UNL A   1      43.421  29.460  35.404  1.00  0.00     0.037 A 
BRANCH  52  66
ATOM     66  C   UNL A   1      40.379  33.869  38.490  1.00  0.00     0.058 A 
ATOM     67  C   UNL A   1      41.112  35.062  38.583  1.00  0.00     0.135 A 
ATOM     68  C   UNL A   1      39.521  33.542  39.552  1.00  0.00     0.135 A 
ATOM     69  F   UNL A   1      41.968  35.409  37.607  1.00  0.00    -0.206 F 
ATOM     70  C   UNL A   1      41.000  35.898  39.688  1.00  0.00     0.059 A 
ATOM     71  C   UNL A   1      39.372  34.378  40.654  1.00  0.00     0.059 A 
ATOM     72  F   UNL A   1      38.806  32.407  39.519  1.00  0.00    -0.206 F 
ATOM     73  C   UNL A   1      40.119  35.552  40.715  1.00  0.00     0.060 A 
BRANCH  73  74
ATOM     74  S   UNL A   1      39.953  36.674  42.120  1.00  0.00     0.124 S 
ATOM     75  O   UNL A   1      39.010  35.947  42.964  1.00  0.00    -0.237 OA
ATOM     76  O   UNL A   1      41.322  36.750  42.618  1.00  0.00    -0.237 OA
ATOM     77  O   UNL A   1      39.438  37.900  41.517  1.00  0.00    -0.744 OA
ENDBRANCH  73  74
ENDBRANCH  52  66
BRANCH  53  78
ATOM     78  C   UNL A   1      40.464  28.191  30.258  1.00  0.00     0.058 A 
ATOM     79  C   UNL A   1      41.374  28.459  29.225  1.00  0.00     0.135 A 
ATOM     80  C   UNL A   1      39.601  27.095  30.099  1.00  0.00     0.135 A 
ATOM     81  F   UNL A   1      42.208  29.505  29.321  1.00  0.00    -0.206 F 
ATOM     82  C   UNL A   1      41.431  27.669  28.081  1.00  0.00     0.059 A 
ATOM     83  C   UNL A   1      39.656  26.274  28.978  1.00  0.00     0.059 A 
ATOM     84  F   UNL A   1      38.712  26.794  31.061  1.00  0.00    -0.206 F 
ATOM     85  C   UNL A   1      40.576  26.570  27.972  1.00  0.00     0.060 A 
BRANCH  85  86
ATOM     86  S   UNL A   1      40.723  25.499  26.526  1.00  0.00     0.124 S 
ATOM     87  O   UNL A   1      41.746  24.555  26.959  1.00  0.00    -0.237 OA
ATOM     88  O   UNL A   1      39.369  24.965  26.407  1.00  0.00    -0.237 OA
ATOM     89  O   UNL A   1      41.120  26.419  25.465  1.00  0.00    -0.744 OA
ENDBRANCH  85  86
ENDBRANCH  53  78
BRANCH  65  90
ATOM     90  C   UNL A   1      44.674  28.735  35.819  1.00  0.00     0.058 A 
ATOM     91  C   UNL A   1      44.632  27.554  36.577  1.00  0.00     0.135 A 
ATOM     92  C   UNL A   1      45.932  29.194  35.390  1.00  0.00     0.135 A 
ATOM     93  F   UNL A   1      43.459  27.072  37.014  1.00  0.00    -0.206 F 
ATOM     94  C   UNL A   1      45.795  26.868  36.916  1.00  0.00     0.059 A 
ATOM     95  C   UNL A   1      47.103  28.506  35.690  1.00  0.00     0.059 A 
ATOM     96  F   UNL A   1      46.028  30.310  34.651  1.00  0.00    -0.206 F 
ATOM     97  C   UNL A   1      47.026  27.350  36.464  1.00  0.00     0.060 A 
BRANCH  97  98
ATOM     98  S   UNL A   1      48.521  26.431  36.885  1.00  0.00     0.124 S 
ATOM     99  O   UNL A   1      49.403  27.498  37.344  1.00  0.00    -0.237 OA
ATOM    100  O   UNL A   1      48.043  25.516  37.918  1.00  0.00    -0.237 OA
ATOM    101  O   UNL A   1      48.901  25.800  35.624  1.00  0.00    -0.744 OA
ENDBRANCH  97  98
ENDBRANCH  65  90
ENDBRANCH  39  40
ENDBRANCH  32  34
ENDBRANCH  31  32
ENDBRANCH  30  31
ENDBRANCH  29  30
ENDBRANCH  28  29
ENDBRANCH  27  28
ENDBRANCH  26  27
ENDBRANCH   1  26
TORSDOF 26
ENDMDL
MODEL 2
REMARK VINA RESULT:      -9.9      6.279     10.880
REMARK SMILES C[C@@H](C(=O)OCCOCCOCCOCCOC(=O)c1ccc(-c2c3nc(c(-c4c(F)cc(S(=O)(=O)[O-])cc4F)c4ccc([nH]4)c(-c4c(F)cc(S(=O)(=O)[O-])cc4F)c4nc(c(-c5c(F)cc(S(=O)(=O)[O-])cc5F)c5ccc2[nH]5)C=C4)C=C3)cc1)c1cccc(C(=O)c2ccccc2)c1
REMARK SMILES IDX 11 1 10 2 9 3 8 4 7 5 6 6 5 7 3 8 4 9 2 10 1 11 86 12 87 13
REMARK SMILES IDX 99 14 88 15 90 16 89 17 91 18 92 19 93 20 94 21 98 22 95 23
REMARK SMILES IDX 97 24 96 25 12 26 13 27 14 28 15 29 16 30 17 31 18 32 19 33
REMARK SMILES IDX 20 34 21 35 85 36 22 37 84 38 23 39 24 40 25 41 78 42 26 43
REMARK SMILES IDX 83 44 77 45 79 46 27 47 82 48 76 49 75 50 28 52 62 53 41 54
REMARK SMILES IDX 61 55 42 56 45 57 60 58 80 59 43 60 44 61 59 63 81 64 46 65
REMARK SMILES IDX 29 66 30 67 39 68 31 69 32 70 38 71 40 72 33 73 34 74 35 75
REMARK SMILES IDX 36 76 37 77 63 78 64 79 73 80 65 81 66 82 72 83 74 84 67 85
REMARK SMILES IDX 68 86 69 87 70 88 71 89 47 90 48 91 57 92 49 93 50 94 56 95
REMARK SMILES IDX 58 96 51 97 52 98 53 99 54 100 55 101
REMARK H PARENT 79 51 45 62
REMARK Flexibility Score: inf
ROOT
ATOM      1  O   UNL A   1      33.366  30.975  26.997  1.00  0.00    -0.377 OA
ENDROOT
BRANCH   1   2
ATOM      2  C   UNL A   1      33.339  29.575  27.173  1.00  0.00     0.188 C 
BRANCH   2   3
ATOM      3  C   UNL A   1      31.956  28.919  27.007  1.00  0.00     0.188 C 
BRANCH   3   4
ATOM      4  O   UNL A   1      31.848  27.553  26.637  1.00  0.00    -0.376 OA
BRANCH   4   5
ATOM      5  C   UNL A   1      31.619  27.197  25.280  1.00  0.00     0.202 C 
BRANCH   5   6
ATOM      6  C   UNL A   1      32.759  26.732  24.350  1.00  0.00     0.261 C 
BRANCH   6   7
ATOM      7  O   UNL A   1      33.270  25.400  24.563  1.00  0.00    -0.463 OA
BRANCH   7   8
ATOM      8  C   UNL A   1      34.123  24.920  23.629  1.00  0.00     0.313 C 
ATOM      9  O   UNL A   1      34.128  25.294  22.457  1.00  0.00    -0.252 OA
BRANCH   8  10
ATOM     10  C   UNL A   1      35.154  23.893  24.165  1.00  0.00     0.126 C 
ATOM     11  C   UNL A   1      36.209  23.327  23.210  1.00  0.00     0.025 C 
BRANCH  10  12
ATOM     12  C   UNL A   1      34.436  22.864  25.046  1.00  0.00    -0.033 A 
ATOM     13  C   UNL A   1      34.423  22.844  26.447  1.00  0.00     0.004 A 
ATOM     14  C   UNL A   1      33.889  21.762  24.377  1.00  0.00     0.016 A 
ATOM     15  C   UNL A   1      33.947  21.723  27.143  1.00  0.00     0.001 A 
ATOM     16  C   UNL A   1      33.449  20.621  25.056  1.00  0.00     0.023 A 
ATOM     17  C   UNL A   1      33.474  20.605  26.450  1.00  0.00     0.012 A 
BRANCH  16  18
ATOM     18  C   UNL A   1      32.965  19.432  24.297  1.00  0.00     0.193 C 
ATOM     19  O   UNL A   1      32.304  19.561  23.272  1.00  0.00    -0.289 OA
BRANCH  18  20
ATOM     20  C   UNL A   1      33.355  18.076  24.749  1.00  0.00     0.022 A 
ATOM     21  C   UNL A   1      32.365  17.251  25.287  1.00  0.00     0.012 A 
ATOM     22  C   UNL A   1      34.645  17.581  24.513  1.00  0.00     0.012 A 
ATOM     23  C   UNL A   1      32.655  15.912  25.551  1.00  0.00     0.001 A 
ATOM     24  C   UNL A   1      34.925  16.240  24.771  1.00  0.00     0.001 A 
ATOM     25  C   UNL A   1      33.929  15.406  25.283  1.00  0.00     0.000 A 
ENDBRANCH  18  20
ENDBRANCH  16  18
ENDBRANCH  10  12
ENDBRANCH   8  10
ENDBRANCH   7   8
ENDBRANCH   6   7
ENDBRANCH   5   6
ENDBRANCH   4   5
ENDBRANCH   3   4
ENDBRANCH   2   3
ENDBRANCH   1   2
BRANCH   1  26
ATOM     26  C   UNL A   1      34.025  31.734  27.996  1.00  0.00     0.188 C 
BRANCH  26  27
ATOM     27  C   UNL A   1      33.693  33.236  28.098  1.00  0.00     0.188 C 
BRANCH  27  28
ATOM     28  O   UNL A   1      34.366  33.911  29.157  1.00  0.00    -0.376 OA
BRANCH  28  29
ATOM     29  C   UNL A   1      35.701  33.539  29.464  1.00  0.00     0.202 C 
BRANCH  29  30
ATOM     30  C   UNL A   1      36.072  33.365  30.948  1.00  0.00     0.261 C 
BRANCH  30  31
ATOM     31  O   UNL A   1      37.285  32.652  31.229  1.00  0.00    -0.460 OA
BRANCH  31  32
ATOM     32  C   UNL A   1      37.209  31.314  31.380  1.00  0.00     0.338 C 
ATOM     33  O   UNL A   1      36.254  30.677  31.796  1.00  0.00    -0.246 OA
BRANCH  32  34
ATOM     34  C   UNL A   1      38.411  30.718  30.759  1.00  0.00     0.060 A 
ATOM     35  C   UNL A   1      39.438  30.247  31.588  1.00  0.00     0.016 A 
ATOM     36  C   UNL A   1      38.519  30.607  29.370  1.00  0.00     0.016 A 
ATOM     37  C   UNL A   1      40.593  29.700  31.030  1.00  0.00     0.010 A 
ATOM     38  C   UNL A   1      39.687  30.083  28.811  1.00  0.00     0.010 A 
ATOM     39  C   UNL A   1      40.744  29.661  29.638  1.00  0.00    -0.014 A 
BRANCH  39  40
ATOM     40  C   UNL A   1      42.077  29.377  29.052  1.00  0.00     0.031 A 
ATOM     41  C   UNL A   1      42.353  27.983  28.560  1.00  0.00     0.074 A 
ATOM     42  C   UNL A   1      43.011  30.337  28.930  1.00  0.00     0.049 A 
ATOM     43  N   UNL A   1      43.455  27.478  28.071  1.00  0.00    -0.248 NA
ATOM     44  C   UNL A   1      41.232  27.028  28.629  1.00  0.00     0.031 C 
ATOM     45  C   UNL A   1      42.844  31.735  29.323  1.00  0.00     0.029 A 
ATOM     46  N   UNL A   1      44.294  30.273  28.446  1.00  0.00    -0.354 N 
ATOM     47  C   UNL A   1      43.164  26.150  27.780  1.00  0.00     0.074 A 
ATOM     48  C   UNL A   1      41.792  25.917  28.175  1.00  0.00     0.031 C 
ATOM     49  C   UNL A   1      43.989  32.396  29.076  1.00  0.00     0.029 A 
ATOM     50  C   UNL A   1      44.980  31.461  28.542  1.00  0.00     0.049 A 
ATOM     51  H   UNL A   1      44.687  29.454  28.065  1.00  0.00     0.167 HD
ATOM     52  C   UNL A   1      43.964  25.212  27.224  1.00  0.00     0.037 A 
ATOM     53  C   UNL A   1      46.266  31.752  28.258  1.00  0.00     0.037 A 
ATOM     54  C   UNL A   1      45.329  25.451  26.832  1.00  0.00     0.049 A 
ATOM     55  C   UNL A   1      47.163  30.674  27.706  1.00  0.00     0.074 A 
ATOM     56  C   UNL A   1      46.225  24.564  26.260  1.00  0.00     0.029 A 
ATOM     57  N   UNL A   1      45.998  26.658  26.976  1.00  0.00    -0.354 N 
ATOM     58  N   UNL A   1      46.881  29.419  27.443  1.00  0.00    -0.248 NA
ATOM     59  C   UNL A   1      48.553  31.049  27.407  1.00  0.00     0.031 C 
ATOM     60  C   UNL A   1      47.450  25.219  26.108  1.00  0.00     0.029 A 
ATOM     61  C   UNL A   1      47.300  26.533  26.521  1.00  0.00     0.049 A 
ATOM     62  H   UNL A   1      45.604  27.481  27.345  1.00  0.00     0.167 HD
ATOM     63  C   UNL A   1      48.046  28.865  26.923  1.00  0.00     0.074 A 
ATOM     64  C   UNL A   1      49.035  29.922  26.900  1.00  0.00     0.031 C 
ATOM     65  C   UNL A   1      48.275  27.596  26.499  1.00  0.00     0.037 A 
BRANCH  52  66
ATOM     66  C   UNL A   1      43.398  23.834  27.020  1.00  0.00     0.058 A 
ATOM     67  C   UNL A   1      43.241  22.935  28.088  1.00  0.00     0.135 A 
ATOM     68  C   UNL A   1      42.950  23.430  25.752  1.00  0.00     0.135 A 
ATOM     69  F   UNL A   1      43.676  23.260  29.316  1.00  0.00    -0.206 F 
ATOM     70  C   UNL A   1      42.664  21.684  27.903  1.00  0.00     0.059 A 
ATOM     71  C   UNL A   1      42.344  22.195  25.551  1.00  0.00     0.059 A 
ATOM     72  F   UNL A   1      43.088  24.247  24.696  1.00  0.00    -0.206 F 
ATOM     73  C   UNL A   1      42.209  21.327  26.632  1.00  0.00     0.060 A 
BRANCH  73  74
ATOM     74  S   UNL A   1      41.420  19.716  26.422  1.00  0.00     0.124 S 
ATOM     75  O   UNL A   1      40.046  20.102  26.117  1.00  0.00    -0.237 OA
ATOM     76  O   UNL A   1      42.178  19.142  25.316  1.00  0.00    -0.237 OA
ATOM     77  O   UNL A   1      41.616  19.070  27.717  1.00  0.00    -0.744 OA
ENDBRANCH  73  74
ENDBRANCH  52  66
BRANCH  53  78
ATOM     78  C   UNL A   1      46.782  33.127  28.501  1.00  0.00     0.058 A 
ATOM     79  C   UNL A   1      46.711  34.116  27.510  1.00  0.00     0.135 A 
ATOM     80  C   UNL A   1      47.330  33.485  29.743  1.00  0.00     0.135 A 
ATOM     81  F   UNL A   1      46.212  33.820  26.300  1.00  0.00    -0.206 F 
ATOM     82  C   UNL A   1      47.161  35.413  27.740  1.00  0.00     0.059 A 
ATOM     83  C   UNL A   1      47.762  34.781  30.007  1.00  0.00     0.059 A 
ATOM     84  F   UNL A   1      47.418  32.576  30.727  1.00  0.00    -0.206 F 
ATOM     85  C   UNL A   1      47.674  35.739  28.998  1.00  0.00     0.060 A 
BRANCH  85  86
ATOM     86  S   UNL A   1      48.169  37.446  29.315  1.00  0.00     0.124 S 
ATOM     87  O   UNL A   1      48.198  38.002  27.967  1.00  0.00    -0.237 OA
ATOM     88  O   UNL A   1      47.089  37.919  30.178  1.00  0.00    -0.237 OA
ATOM     89  O   UNL A   1      49.466  37.305  29.969  1.00  0.00    -0.744 OA
ENDBRANCH  85  86
ENDBRANCH  53  78
BRANCH  65  90
ATOM     90  C   UNL A   1      49.635  27.278  25.934  1.00  0.00     0.058 A 
ATOM     91  C   UNL A   1      49.903  27.355  24.558  1.00  0.00     0.135 A 
ATOM     92  C   UNL A   1      50.701  26.959  26.792  1.00  0.00     0.135 A 
ATOM     93  F   UNL A   1      48.921  27.654  23.694  1.00  0.00    -0.206 F 
ATOM     94  C   UNL A   1      51.175  27.103  24.051  1.00  0.00     0.059 A 
ATOM     95  C   UNL A   1      51.987  26.736  26.310  1.00  0.00     0.059 A 
ATOM     96  F   UNL A   1      50.504  26.886  28.117  1.00  0.00    -0.206 F 
ATOM     97  C   UNL A   1      52.212  26.798  24.935  1.00  0.00     0.060 A 
BRANCH  97  98
ATOM     98  S   UNL A   1      53.861  26.506  24.265  1.00  0.00     0.124 S 
ATOM     99  O   UNL A   1      54.438  27.846  24.307  1.00  0.00    -0.237 OA
ATOM    100  O   UNL A   1      54.418  25.547  25.215  1.00  0.00    -0.237 OA
ATOM    101  O   UNL A   1      53.599  25.978  22.929  1.00  0.00    -0.744 OA
ENDBRANCH  97  98
ENDBRANCH  65  90
ENDBRANCH  39  40
ENDBRANCH  32  34
ENDBRANCH  31  32
ENDBRANCH  30  31
ENDBRANCH  29  30
ENDBRANCH  28  29
ENDBRANCH  27  28
ENDBRANCH  26  27
ENDBRANCH   1  26
TORSDOF 26
ENDMDL
MODEL 3
REMARK VINA RESULT:      -9.8      2.601      9.419
REMARK SMILES C[C@@H](C(=O)OCCOCCOCCOCCOC(=O)c1ccc(-c2c3nc(c(-c4c(F)cc(S(=O)(=O)[O-])cc4F)c4ccc([nH]4)c(-c4c(F)cc(S(=O)(=O)[O-])cc4F)c4nc(c(-c5c(F)cc(S(=O)(=O)[O-])cc5F)c5ccc2[nH]5)C=C4)C=C3)cc1)c1cccc(C(=O)c2ccccc2)c1
REMARK SMILES IDX 11 1 10 2 9 3 8 4 7 5 6 6 5 7 3 8 4 9 2 10 1 11 86 12 87 13
REMARK SMILES IDX 99 14 88 15 90 16 89 17 91 18 92 19 93 20 94 21 98 22 95 23
REMARK SMILES IDX 97 24 96 25 12 26 13 27 14 28 15 29 16 30 17 31 18 32 19 33
REMARK SMILES IDX 20 34 21 35 85 36 22 37 84 38 23 39 24 40 25 41 78 42 26 43
REMARK SMILES IDX 83 44 77 45 79 46 27 47 82 48 76 49 75 50 28 52 62 53 41 54
REMARK SMILES IDX 61 55 42 56 45 57 60 58 80 59 43 60 44 61 59 63 81 64 46 65
REMARK SMILES IDX 29 66 30 67 39 68 31 69 32 70 38 71 40 72 33 73 34 74 35 75
REMARK SMILES IDX 36 76 37 77 63 78 64 79 73 80 65 81 66 82 72 83 74 84 67 85
REMARK SMILES IDX 68 86 69 87 70 88 71 89 47 90 48 91 57 92 49 93 50 94 56 95
REMARK SMILES IDX 58 96 51 97 52 98 53 99 54 100 55 101
REMARK H PARENT 79 51 45 62
REMARK Flexibility Score: inf
ROOT
ATOM      1  O   UNL A   1      39.418  21.841  26.953  1.00  0.00    -0.377 OA
ENDROOT
BRANCH   1   2
ATOM      2  C   UNL A   1      39.335  23.176  26.506  1.00  0.00     0.188 C 
BRANCH   2   3
ATOM      3  C   UNL A   1      37.928  23.641  26.087  1.00  0.00     0.188 C 
BRANCH   3   4
ATOM      4  O   UNL A   1      36.907  22.692  25.817  1.00  0.00    -0.376 OA
BRANCH   4   5
ATOM      5  C   UNL A   1      35.606  23.127  25.448  1.00  0.00     0.202 C 
BRANCH   5   6
ATOM      6  C   UNL A   1      34.424  23.111  26.441  1.00  0.00     0.261 C 
BRANCH   6   7
ATOM      7  O   UNL A   1      33.232  22.415  26.021  1.00  0.00    -0.463 OA
BRANCH   7   8
ATOM      8  C   UNL A   1      32.052  22.919  26.449  1.00  0.00     0.313 C 
ATOM      9  O   UNL A   1      31.715  22.952  27.632  1.00  0.00    -0.252 OA
BRANCH   8  10
ATOM     10  C   UNL A   1      31.164  23.523  25.330  1.00  0.00     0.126 C 
ATOM     11  C   UNL A   1      31.130  22.845  23.957  1.00  0.00     0.025 C 
BRANCH  10  12
ATOM     12  C   UNL A   1      31.334  25.047  25.314  1.00  0.00    -0.033 A 
ATOM     13  C   UNL A   1      31.556  25.863  26.431  1.00  0.00     0.004 A 
ATOM     14  C   UNL A   1      31.076  25.679  24.091  1.00  0.00     0.016 A 
ATOM     15  C   UNL A   1      31.446  27.259  26.332  1.00  0.00     0.001 A 
ATOM     16  C   UNL A   1      30.923  27.065  23.986  1.00  0.00     0.023 A 
ATOM     17  C   UNL A   1      31.115  27.860  25.115  1.00  0.00     0.012 A 
BRANCH  16  18
ATOM     18  C   UNL A   1      30.552  27.685  22.681  1.00  0.00     0.193 C 
ATOM     19  O   UNL A   1      31.035  27.282  21.628  1.00  0.00    -0.289 OA
BRANCH  18  20
ATOM     20  C   UNL A   1      29.526  28.753  22.653  1.00  0.00     0.022 A 
ATOM     21  C   UNL A   1      28.241  28.445  23.108  1.00  0.00     0.012 A 
ATOM     22  C   UNL A   1      29.866  30.070  22.316  1.00  0.00     0.012 A 
ATOM     23  C   UNL A   1      27.306  29.468  23.267  1.00  0.00     0.001 A 
ATOM     24  C   UNL A   1      28.929  31.088  22.486  1.00  0.00     0.001 A 
ATOM     25  C   UNL A   1      27.653  30.787  22.967  1.00  0.00     0.000 A 
ENDBRANCH  18  20
ENDBRANCH  16  18
ENDBRANCH  10  12
ENDBRANCH   8  10
ENDBRANCH   7   8
ENDBRANCH   6   7
ENDBRANCH   5   6
ENDBRANCH   4   5
ENDBRANCH   3   4
ENDBRANCH   2   3
ENDBRANCH   1   2
BRANCH   1  26
ATOM     26  C   UNL A   1      40.480  21.057  26.437  1.00  0.00     0.188 C 
BRANCH  26  27
ATOM     27  C   UNL A   1      41.740  21.788  25.936  1.00  0.00     0.188 C 
BRANCH  27  28
ATOM     28  O   UNL A   1      42.712  22.036  26.947  1.00  0.00    -0.376 OA
BRANCH  28  29
ATOM     29  C   UNL A   1      43.704  23.025  26.712  1.00  0.00     0.202 C 
BRANCH  29  30
ATOM     30  C   UNL A   1      43.580  23.872  25.432  1.00  0.00     0.261 C 
BRANCH  30  31
ATOM     31  O   UNL A   1      43.430  25.288  25.609  1.00  0.00    -0.460 OA
BRANCH  31  32
ATOM     32  C   UNL A   1      42.181  25.779  25.741  1.00  0.00     0.338 C 
ATOM     33  O   UNL A   1      41.223  25.542  25.023  1.00  0.00    -0.246 OA
BRANCH  32  34
ATOM     34  C   UNL A   1      42.108  26.494  27.033  1.00  0.00     0.060 A 
ATOM     35  C   UNL A   1      41.097  26.150  27.940  1.00  0.00     0.016 A 
ATOM     36  C   UNL A   1      43.039  27.485  27.355  1.00  0.00     0.016 A 
ATOM     37  C   UNL A   1      40.990  26.823  29.157  1.00  0.00     0.010 A 
ATOM     38  C   UNL A   1      42.914  28.176  28.564  1.00  0.00     0.010 A 
ATOM     39  C   UNL A   1      41.868  27.872  29.453  1.00  0.00    -0.014 A 
BRANCH  39  40
ATOM     40  C   UNL A   1      41.567  28.784  30.584  1.00  0.00     0.031 A 
ATOM     41  C   UNL A   1      42.429  28.696  31.814  1.00  0.00     0.074 A 
ATOM     42  C   UNL A   1      40.576  29.690  30.514  1.00  0.00     0.049 A 
ATOM     43  N   UNL A   1      42.325  29.336  32.948  1.00  0.00    -0.248 NA
ATOM     44  C   UNL A   1      43.562  27.755  31.756  1.00  0.00     0.031 C 
ATOM     45  C   UNL A   1      39.708  29.906  29.358  1.00  0.00     0.029 A 
ATOM     46  N   UNL A   1      40.129  30.594  31.446  1.00  0.00    -0.354 N 
ATOM     47  C   UNL A   1      43.371  28.875  33.739  1.00  0.00     0.074 A 
ATOM     48  C   UNL A   1      44.080  27.878  32.968  1.00  0.00     0.031 C 
ATOM     49  C   UNL A   1      38.821  30.873  29.655  1.00  0.00     0.029 A 
ATOM     50  C   UNL A   1      39.036  31.317  31.032  1.00  0.00     0.049 A 
ATOM     51  H   UNL A   1      40.551  30.712  32.327  1.00  0.00     0.167 HD
ATOM     52  C   UNL A   1      43.716  29.256  34.990  1.00  0.00     0.037 A 
ATOM     53  C   UNL A   1      38.280  32.215  31.698  1.00  0.00     0.037 A 
ATOM     54  C   UNL A   1      43.005  30.250  35.752  1.00  0.00     0.049 A 
ATOM     55  C   UNL A   1      38.638  32.574  33.118  1.00  0.00     0.074 A 
ATOM     56  C   UNL A   1      43.276  30.706  37.031  1.00  0.00     0.029 A 
ATOM     57  N   UNL A   1      41.884  30.938  35.311  1.00  0.00    -0.354 N 
ATOM     58  N   UNL A   1      39.624  32.125  33.860  1.00  0.00    -0.248 NA
ATOM     59  C   UNL A   1      37.785  33.563  33.793  1.00  0.00     0.031 C 
ATOM     60  C   UNL A   1      42.287  31.629  37.383  1.00  0.00     0.029 A 
ATOM     61  C   UNL A   1      41.439  31.800  36.299  1.00  0.00     0.049 A 
ATOM     62  H   UNL A   1      41.467  30.829  34.425  1.00  0.00     0.167 HD
ATOM     63  C   UNL A   1      39.526  32.797  35.074  1.00  0.00     0.074 A 
ATOM     64  C   UNL A   1      38.391  33.689  34.966  1.00  0.00     0.031 C 
ATOM     65  C   UNL A   1      40.309  32.687  36.178  1.00  0.00     0.037 A 
BRANCH  52  66
ATOM     66  C   UNL A   1      44.901  28.587  35.629  1.00  0.00     0.058 A 
ATOM     67  C   UNL A   1      46.211  29.050  35.424  1.00  0.00     0.135 A 
ATOM     68  C   UNL A   1      44.718  27.506  36.506  1.00  0.00     0.135 A 
ATOM     69  F   UNL A   1      46.445  30.063  34.575  1.00  0.00    -0.206 F 
ATOM     70  C   UNL A   1      47.296  28.462  36.063  1.00  0.00     0.059 A 
ATOM     71  C   UNL A   1      45.787  26.921  37.178  1.00  0.00     0.059 A 
ATOM     72  F   UNL A   1      43.488  27.016  36.728  1.00  0.00    -0.206 F 
ATOM     73  C   UNL A   1      47.073  27.404  36.946  1.00  0.00     0.060 A 
BRANCH  73  74
ATOM     74  S   UNL A   1      48.491  26.685  37.802  1.00  0.00     0.124 S 
ATOM     75  O   UNL A   1      47.963  26.517  39.152  1.00  0.00    -0.237 OA
ATOM     76  O   UNL A   1      48.714  25.454  37.051  1.00  0.00    -0.237 OA
ATOM     77  O   UNL A   1      49.528  27.702  37.658  1.00  0.00    -0.744 OA
ENDBRANCH  73  74
ENDBRANCH  52  66
BRANCH  53  78
ATOM     78  C   UNL A   1      37.103  32.831  31.027  1.00  0.00     0.058 A 
ATOM     79  C   UNL A   1      37.246  33.937  30.178  1.00  0.00     0.135 A 
ATOM     80  C   UNL A   1      35.814  32.303  31.200  1.00  0.00     0.135 A 
ATOM     81  F   UNL A   1      38.455  34.489  29.992  1.00  0.00    -0.206 F 
ATOM     82  C   UNL A   1      36.155  34.497  29.520  1.00  0.00     0.059 A 
ATOM     83  C   UNL A   1      34.711  32.828  30.534  1.00  0.00     0.059 A 
ATOM     84  F   UNL A   1      35.623  31.242  32.001  1.00  0.00    -0.206 F 
ATOM     85  C   UNL A   1      34.892  33.927  29.695  1.00  0.00     0.060 A 
BRANCH  85  86
ATOM     86  S   UNL A   1      33.500  34.605  28.766  1.00  0.00     0.124 S 
ATOM     87  O   UNL A   1      32.555  34.916  29.832  1.00  0.00    -0.237 OA
ATOM     88  O   UNL A   1      34.111  35.751  28.098  1.00  0.00    -0.237 OA
ATOM     89  O   UNL A   1      33.118  33.507  27.883  1.00  0.00    -0.744 OA
ENDBRANCH  85  86
ENDBRANCH  53  78
BRANCH  65  90
ATOM     90  C   UNL A   1      39.998  33.579  37.351  1.00  0.00     0.058 A 
ATOM     91  C   UNL A   1      40.706  34.768  37.588  1.00  0.00     0.135 A 
ATOM     92  C   UNL A   1      38.928  33.271  38.210  1.00  0.00     0.135 A 
ATOM     93  F   UNL A   1      41.737  35.109  36.800  1.00  0.00    -0.206 F 
ATOM     94  C   UNL A   1      40.380  35.608  38.650  1.00  0.00     0.059 A 
ATOM     95  C   UNL A   1      38.565  34.112  39.257  1.00  0.00     0.059 A 
ATOM     96  F   UNL A   1      38.209  32.154  38.021  1.00  0.00    -0.206 F 
ATOM     97  C   UNL A   1      39.305  35.273  39.477  1.00  0.00     0.060 A 
BRANCH  97  98
ATOM     98  S   UNL A   1      38.875  36.389  40.829  1.00  0.00     0.124 S 
ATOM     99  O   UNL A   1      38.471  37.588  40.103  1.00  0.00    -0.237 OA
ATOM    100  O   UNL A   1      37.802  35.662  41.502  1.00  0.00    -0.237 OA
ATOM    101  O   UNL A   1      40.119  36.503  41.586  1.00  0.00    -0.744 OA
ENDBRANCH  97  98
ENDBRANCH  65  90
ENDBRANCH  39  40
ENDBRANCH  32  34
ENDBRANCH  31  32
ENDBRANCH  30  31
ENDBRANCH  29  30
ENDBRANCH  28  29
ENDBRANCH  27  28
ENDBRANCH  26  27
ENDBRANCH   1  26
TORSDOF 26
ENDMDL
