MODEL 1
REMARK VINA RESULT:      -7.4      0.000      0.000
REMARK SMILES COCCCOc1cccc(F)c1C(=O)OCCOCCOCCOCCOC(=O)c1ccc(-c2c3nc(c(-c4c(F)cc(S(=O)(=O)[O-])cc4F)c4ccc([nH]4)c(-c4c(F)cc(S(=O)(=O)[O-])cc4F)c4nc(c(-c5c(F)cc(S(=O)(=O)[O-])cc5F)c5ccc2[nH]5)C=C4)C=C3)cc1
REMARK SMILES IDX 21 1 20 2 19 3 18 4 17 5 16 6 14 7 15 8 13 9 7 10 8 11 9 12
REMARK SMILES IDX 11 13 10 14 12 15 6 16 5 17 4 18 3 19 2 20 1 21 22 22 23 23
REMARK SMILES IDX 24 24 25 25 26 26 27 27 28 28 29 29 30 30 31 31 32 32 96 33
REMARK SMILES IDX 33 34 95 35 34 36 35 37 36 38 89 39 37 40 94 41 88 42 90 43
REMARK SMILES IDX 38 44 93 45 87 46 86 47 39 49 73 50 52 51 72 52 53 53 56 54
REMARK SMILES IDX 71 55 91 56 54 57 55 58 70 60 92 61 57 62 40 63 41 64 50 65
REMARK SMILES IDX 42 66 43 67 49 68 51 69 44 70 45 71 46 72 47 73 48 74 74 75
REMARK SMILES IDX 75 76 84 77 76 78 77 79 83 80 85 81 78 82 79 83 80 84 81 85
REMARK SMILES IDX 82 86 58 87 59 88 68 89 60 90 61 91 67 92 69 93 62 94 63 95
REMARK SMILES IDX 64 96 65 97 66 98
REMARK H PARENT 90 48 56 59
REMARK Flexibility Score: inf
ROOT
ATOM      1  C   UNL A   1      37.174  22.099  24.909  1.00  0.00     0.188 C 
ENDROOT
BRANCH   1   2
ATOM      2  C   UNL A   1      35.629  22.202  24.944  1.00  0.00     0.188 C 
BRANCH   2   3
ATOM      3  O   UNL A   1      35.121  23.068  25.944  1.00  0.00    -0.376 OA
BRANCH   3   4
ATOM      4  C   UNL A   1      34.246  22.533  26.918  1.00  0.00     0.202 C 
BRANCH   4   5
ATOM      5  C   UNL A   1      33.641  21.144  26.675  1.00  0.00     0.261 C 
BRANCH   5   6
ATOM      6  O   UNL A   1      32.834  21.020  25.497  1.00  0.00    -0.459 OA
BRANCH   6   7
ATOM      7  C   UNL A   1      31.781  21.853  25.333  1.00  0.00     0.345 C 
ATOM      8  O   UNL A   1      30.809  21.964  26.055  1.00  0.00    -0.246 OA
BRANCH   7   9
ATOM      9  C   UNL A   1      32.101  22.717  24.180  1.00  0.00     0.137 A 
ATOM     10  C   UNL A   1      32.265  24.105  24.295  1.00  0.00     0.136 A 
ATOM     11  C   UNL A   1      32.800  24.832  23.220  1.00  0.00     0.047 A 
ATOM     12  C   UNL A   1      33.089  24.203  22.011  1.00  0.00     0.007 A 
ATOM     13  C   UNL A   1      32.405  22.097  22.965  1.00  0.00     0.141 A 
ATOM     14  C   UNL A   1      32.886  22.832  21.882  1.00  0.00     0.040 A 
ATOM     15  F   UNL A   1      32.267  20.771  22.820  1.00  0.00    -0.206 F 
BRANCH  10  16
ATOM     16  O   UNL A   1      32.163  24.801  25.467  1.00  0.00    -0.492 OA
BRANCH  16  17
ATOM     17  C   UNL A   1      31.165  25.828  25.482  1.00  0.00     0.232 C 
BRANCH  17  18
ATOM     18  C   UNL A   1      31.723  27.248  25.601  1.00  0.00     0.070 C 
BRANCH  18  19
ATOM     19  C   UNL A   1      33.126  27.389  26.193  1.00  0.00     0.163 C 
BRANCH  19  20
ATOM     20  O   UNL A   1      33.258  28.492  27.083  1.00  0.00    -0.385 OA
ATOM     21  C   UNL A   1      32.031  29.133  27.416  1.00  0.00     0.194 C 
ENDBRANCH  19  20
ENDBRANCH  18  19
ENDBRANCH  17  18
ENDBRANCH  16  17
ENDBRANCH  10  16
ENDBRANCH   7   9
ENDBRANCH   6   7
ENDBRANCH   5   6
ENDBRANCH   4   5
ENDBRANCH   3   4
ENDBRANCH   2   3
ENDBRANCH   1   2
BRANCH   1  22
ATOM     22  O   UNL A   1      37.881  21.169  25.718  1.00  0.00    -0.377 OA
BRANCH  22  23
ATOM     23  C   UNL A   1      39.219  21.447  26.101  1.00  0.00     0.188 C 
BRANCH  23  24
ATOM     24  C   UNL A   1      39.527  22.785  26.808  1.00  0.00     0.188 C 
BRANCH  24  25
ATOM     25  O   UNL A   1      40.732  23.408  26.385  1.00  0.00    -0.376 OA
BRANCH  25  26
ATOM     26  C   UNL A   1      41.944  22.948  26.959  1.00  0.00     0.202 C 
BRANCH  26  27
ATOM     27  C   UNL A   1      43.231  23.728  26.652  1.00  0.00     0.261 C 
BRANCH  27  28
ATOM     28  O   UNL A   1      43.204  25.139  26.911  1.00  0.00    -0.460 OA
BRANCH  28  29
ATOM     29  C   UNL A   1      44.378  25.752  27.173  1.00  0.00     0.338 C 
ATOM     30  O   UNL A   1      45.382  25.749  26.481  1.00  0.00    -0.246 OA
BRANCH  29  31
ATOM     31  C   UNL A   1      44.170  26.593  28.370  1.00  0.00     0.060 A 
ATOM     32  C   UNL A   1      43.484  26.066  29.473  1.00  0.00     0.016 A 
ATOM     33  C   UNL A   1      44.688  27.889  28.409  1.00  0.00     0.016 A 
ATOM     34  C   UNL A   1      43.301  26.844  30.617  1.00  0.00     0.010 A 
ATOM     35  C   UNL A   1      44.478  28.677  29.543  1.00  0.00     0.010 A 
ATOM     36  C   UNL A   1      43.761  28.167  30.640  1.00  0.00    -0.014 A 
BRANCH  36  37
ATOM     37  C   UNL A   1      43.334  29.085  31.722  1.00  0.00     0.031 A 
ATOM     38  C   UNL A   1      42.079  29.887  31.514  1.00  0.00     0.074 A 
ATOM     39  C   UNL A   1      44.036  29.201  32.863  1.00  0.00     0.049 A 
ATOM     40  N   UNL A   1      41.550  30.811  32.270  1.00  0.00    -0.248 NA
ATOM     41  C   UNL A   1      41.320  29.607  30.282  1.00  0.00     0.031 C 
ATOM     42  C   UNL A   1      45.236  28.438  33.199  1.00  0.00     0.029 A 
ATOM     43  N   UNL A   1      43.841  30.019  33.948  1.00  0.00    -0.354 N 
ATOM     44  C   UNL A   1      40.403  31.228  31.607  1.00  0.00     0.074 A 
ATOM     45  C   UNL A   1      40.327  30.479  30.373  1.00  0.00     0.031 C 
ATOM     46  C   UNL A   1      45.678  28.833  34.406  1.00  0.00     0.029 A 
ATOM     47  C   UNL A   1      44.817  29.903  34.909  1.00  0.00     0.049 A 
ATOM     48  H   UNL A   1      43.076  30.633  34.031  1.00  0.00     0.167 HD
ATOM     49  C   UNL A   1      39.489  32.145  31.999  1.00  0.00     0.037 A 
ATOM     50  C   UNL A   1      45.005  30.599  36.051  1.00  0.00     0.037 A 
ATOM     51  C   UNL A   1      39.576  32.887  33.228  1.00  0.00     0.049 A 
ATOM     52  C   UNL A   1      44.026  31.683  36.424  1.00  0.00     0.074 A 
ATOM     53  C   UNL A   1      38.695  33.835  33.721  1.00  0.00     0.029 A 
ATOM     54  N   UNL A   1      40.602  32.773  34.155  1.00  0.00    -0.354 N 
ATOM     55  N   UNL A   1      42.940  32.064  35.794  1.00  0.00    -0.248 NA
ATOM     56  C   UNL A   1      44.298  32.434  37.657  1.00  0.00     0.031 C 
ATOM     57  C   UNL A   1      39.221  34.335  34.916  1.00  0.00     0.029 A 
ATOM     58  C   UNL A   1      40.394  33.655  35.201  1.00  0.00     0.049 A 
ATOM     59  H   UNL A   1      41.365  32.156  34.079  1.00  0.00     0.167 HD
ATOM     60  C   UNL A   1      42.386  33.082  36.566  1.00  0.00     0.074 A 
ATOM     61  C   UNL A   1      43.252  33.250  37.715  1.00  0.00     0.031 C 
ATOM     62  C   UNL A   1      41.263  33.809  36.344  1.00  0.00     0.037 A 
BRANCH  49  63
ATOM     63  C   UNL A   1      38.328  32.416  31.084  1.00  0.00     0.058 A 
ATOM     64  C   UNL A   1      37.064  31.872  31.359  1.00  0.00     0.135 A 
ATOM     65  C   UNL A   1      38.476  33.164  29.905  1.00  0.00     0.135 A 
ATOM     66  F   UNL A   1      36.863  31.158  32.479  1.00  0.00    -0.206 F 
ATOM     67  C   UNL A   1      35.992  32.041  30.489  1.00  0.00     0.059 A 
ATOM     68  C   UNL A   1      37.410  33.371  29.033  1.00  0.00     0.059 A 
ATOM     69  F   UNL A   1      39.657  33.728  29.606  1.00  0.00    -0.206 F 
ATOM     70  C   UNL A   1      36.176  32.791  29.326  1.00  0.00     0.060 A 
BRANCH  70  71
ATOM     71  S   UNL A   1      34.768  33.020  28.220  1.00  0.00     0.124 S 
ATOM     72  O   UNL A   1      35.128  34.250  27.525  1.00  0.00    -0.237 OA
ATOM     73  O   UNL A   1      34.808  31.799  27.420  1.00  0.00    -0.237 OA
ATOM     74  O   UNL A   1      33.633  33.122  29.134  1.00  0.00    -0.744 OA
ENDBRANCH  70  71
ENDBRANCH  49  63
BRANCH  50  75
ATOM     75  C   UNL A   1      46.175  30.290  36.918  1.00  0.00     0.058 A 
ATOM     76  C   UNL A   1      46.116  29.275  37.887  1.00  0.00     0.135 A 
ATOM     77  C   UNL A   1      47.365  31.026  36.817  1.00  0.00     0.135 A 
ATOM     78  F   UNL A   1      45.004  28.538  38.025  1.00  0.00    -0.206 F 
ATOM     79  C   UNL A   1      47.181  29.025  38.747  1.00  0.00     0.059 A 
ATOM     80  C   UNL A   1      48.454  30.777  37.648  1.00  0.00     0.059 A 
ATOM     81  F   UNL A   1      47.477  31.992  35.893  1.00  0.00    -0.206 F 
ATOM     82  C   UNL A   1      48.344  29.787  38.624  1.00  0.00     0.060 A 
BRANCH  82  83
ATOM     83  S   UNL A   1      49.701  29.468  39.772  1.00  0.00     0.124 S 
ATOM     84  O   UNL A   1      50.602  30.576  39.474  1.00  0.00    -0.237 OA
ATOM     85  O   UNL A   1      49.027  29.527  41.064  1.00  0.00    -0.237 OA
ATOM     86  O   UNL A   1      50.178  28.148  39.374  1.00  0.00    -0.744 OA
ENDBRANCH  82  83
ENDBRANCH  50  75
BRANCH  62  87
ATOM     87  C   UNL A   1      40.876  34.848  37.362  1.00  0.00     0.058 A 
ATOM     88  C   UNL A   1      39.812  34.610  38.249  1.00  0.00     0.135 A 
ATOM     89  C   UNL A   1      41.479  36.113  37.389  1.00  0.00     0.135 A 
ATOM     90  F   UNL A   1      39.193  33.419  38.260  1.00  0.00    -0.206 F 
ATOM     91  C   UNL A   1      39.342  35.601  39.105  1.00  0.00     0.059 A 
ATOM     92  C   UNL A   1      41.045  37.111  38.259  1.00  0.00     0.059 A 
ATOM     93  F   UNL A   1      42.507  36.389  36.569  1.00  0.00    -0.206 F 
ATOM     94  C   UNL A   1      39.962  36.851  39.098  1.00  0.00     0.060 A 
BRANCH  94  95
ATOM     95  S   UNL A   1      39.331  38.127  40.208  1.00  0.00     0.124 S 
ATOM     96  O   UNL A   1      39.187  37.392  41.460  1.00  0.00    -0.237 OA
ATOM     97  O   UNL A   1      40.401  39.119  40.174  1.00  0.00    -0.237 OA
ATOM     98  O   UNL A   1      38.082  38.541  39.576  1.00  0.00    -0.744 OA
ENDBRANCH  94  95
ENDBRANCH  62  87
ENDBRANCH  36  37
ENDBRANCH  29  31
ENDBRANCH  28  29
ENDBRANCH  27  28
ENDBRANCH  26  27
ENDBRANCH  25  26
ENDBRANCH  24  25
ENDBRANCH  23  24
ENDBRANCH  22  23
ENDBRANCH   1  22
TORSDOF 28
ENDMDL
MODEL 2
REMARK VINA RESULT:      -7.3      4.778      7.179
REMARK SMILES COCCCOc1cccc(F)c1C(=O)OCCOCCOCCOCCOC(=O)c1ccc(-c2c3nc(c(-c4c(F)cc(S(=O)(=O)[O-])cc4F)c4ccc([nH]4)c(-c4c(F)cc(S(=O)(=O)[O-])cc4F)c4nc(c(-c5c(F)cc(S(=O)(=O)[O-])cc5F)c5ccc2[nH]5)C=C4)C=C3)cc1
REMARK SMILES IDX 21 1 20 2 19 3 18 4 17 5 16 6 14 7 15 8 13 9 7 10 8 11 9 12
REMARK SMILES IDX 11 13 10 14 12 15 6 16 5 17 4 18 3 19 2 20 1 21 22 22 23 23
REMARK SMILES IDX 24 24 25 25 26 26 27 27 28 28 29 29 30 30 31 31 32 32 96 33
REMARK SMILES IDX 33 34 95 35 34 36 35 37 36 38 89 39 37 40 94 41 88 42 90 43
REMARK SMILES IDX 38 44 93 45 87 46 86 47 39 49 73 50 52 51 72 52 53 53 56 54
REMARK SMILES IDX 71 55 91 56 54 57 55 58 70 60 92 61 57 62 40 63 41 64 50 65
REMARK SMILES IDX 42 66 43 67 49 68 51 69 44 70 45 71 46 72 47 73 48 74 74 75
REMARK SMILES IDX 75 76 84 77 76 78 77 79 83 80 85 81 78 82 79 83 80 84 81 85
REMARK SMILES IDX 82 86 58 87 59 88 68 89 60 90 61 91 67 92 69 93 62 94 63 95
REMARK SMILES IDX 64 96 65 97 66 98
REMARK H PARENT 90 48 56 59
REMARK Flexibility Score: inf
ROOT
ATOM      1  C   UNL A   1      40.704  22.590  26.509  1.00  0.00     0.188 C 
ENDROOT
BRANCH   1   2
ATOM      2  C   UNL A   1      39.263  22.325  26.006  1.00  0.00     0.188 C 
BRANCH   2   3
ATOM      3  O   UNL A   1      38.327  23.331  26.352  1.00  0.00    -0.376 OA
BRANCH   3   4
ATOM      4  C   UNL A   1      37.007  23.223  25.854  1.00  0.00     0.202 C 
BRANCH   4   5
ATOM      5  C   UNL A   1      36.645  22.004  24.998  1.00  0.00     0.261 C 
BRANCH   5   6
ATOM      6  O   UNL A   1      35.798  21.035  25.630  1.00  0.00    -0.459 OA
BRANCH   6   7
ATOM      7  C   UNL A   1      34.598  21.430  26.114  1.00  0.00     0.345 C 
ATOM      8  O   UNL A   1      34.367  21.918  27.203  1.00  0.00    -0.246 OA
BRANCH   7   9
ATOM      9  C   UNL A   1      33.630  21.290  25.009  1.00  0.00     0.137 A 
ATOM     10  C   UNL A   1      33.172  22.385  24.259  1.00  0.00     0.136 A 
ATOM     11  C   UNL A   1      32.446  22.162  23.080  1.00  0.00     0.047 A 
ATOM     12  C   UNL A   1      32.102  20.870  22.690  1.00  0.00     0.007 A 
ATOM     13  C   UNL A   1      33.286  19.999  24.601  1.00  0.00     0.141 A 
ATOM     14  C   UNL A   1      32.519  19.785  23.456  1.00  0.00     0.040 A 
ATOM     15  F   UNL A   1      33.712  18.929  25.288  1.00  0.00    -0.206 F 
BRANCH  10  16
ATOM     16  O   UNL A   1      33.572  23.677  24.455  1.00  0.00    -0.492 OA
BRANCH  16  17
ATOM     17  C   UNL A   1      32.672  24.485  25.222  1.00  0.00     0.232 C 
BRANCH  17  18
ATOM     18  C   UNL A   1      32.027  25.629  24.437  1.00  0.00     0.070 C 
BRANCH  18  19
ATOM     19  C   UNL A   1      32.643  25.965  23.079  1.00  0.00     0.163 C 
BRANCH  19  20
ATOM     20  O   UNL A   1      31.686  26.384  22.110  1.00  0.00    -0.385 OA
ATOM     21  C   UNL A   1      30.965  27.559  22.462  1.00  0.00     0.194 C 
ENDBRANCH  19  20
ENDBRANCH  18  19
ENDBRANCH  17  18
ENDBRANCH  16  17
ENDBRANCH  10  16
ENDBRANCH   7   9
ENDBRANCH   6   7
ENDBRANCH   5   6
ENDBRANCH   4   5
ENDBRANCH   3   4
ENDBRANCH   2   3
ENDBRANCH   1   2
BRANCH   1  22
ATOM     22  O   UNL A   1      41.776  21.707  26.209  1.00  0.00    -0.377 OA
BRANCH  22  23
ATOM     23  C   UNL A   1      41.554  20.305  26.219  1.00  0.00     0.188 C 
BRANCH  23  24
ATOM     24  C   UNL A   1      42.766  19.361  26.378  1.00  0.00     0.188 C 
BRANCH  24  25
ATOM     25  O   UNL A   1      43.095  18.629  25.206  1.00  0.00    -0.376 OA
BRANCH  25  26
ATOM     26  C   UNL A   1      44.164  19.111  24.410  1.00  0.00     0.202 C 
BRANCH  26  27
ATOM     27  C   UNL A   1      45.391  19.697  25.124  1.00  0.00     0.261 C 
BRANCH  27  28
ATOM     28  O   UNL A   1      45.920  20.921  24.591  1.00  0.00    -0.460 OA
BRANCH  28  29
ATOM     29  C   UNL A   1      45.054  21.929  24.355  1.00  0.00     0.338 C 
ATOM     30  O   UNL A   1      44.166  21.957  23.520  1.00  0.00    -0.246 OA
BRANCH  29  31
ATOM     31  C   UNL A   1      45.252  22.930  25.423  1.00  0.00     0.060 A 
ATOM     32  C   UNL A   1      45.456  24.273  25.080  1.00  0.00     0.016 A 
ATOM     33  C   UNL A   1      45.197  22.540  26.762  1.00  0.00     0.016 A 
ATOM     34  C   UNL A   1      45.622  25.231  26.082  1.00  0.00     0.010 A 
ATOM     35  C   UNL A   1      45.393  23.494  27.763  1.00  0.00     0.010 A 
ATOM     36  C   UNL A   1      45.633  24.838  27.426  1.00  0.00    -0.014 A 
BRANCH  36  37
ATOM     37  C   UNL A   1      46.083  25.783  28.474  1.00  0.00     0.031 A 
ATOM     38  C   UNL A   1      45.036  26.559  29.224  1.00  0.00     0.074 A 
ATOM     39  C   UNL A   1      47.387  25.947  28.760  1.00  0.00     0.049 A 
ATOM     40  N   UNL A   1      45.182  27.498  30.119  1.00  0.00    -0.248 NA
ATOM     41  C   UNL A   1      43.633  26.229  28.918  1.00  0.00     0.031 C 
ATOM     42  C   UNL A   1      48.487  25.213  28.138  1.00  0.00     0.029 A 
ATOM     43  N   UNL A   1      48.005  26.796  29.644  1.00  0.00    -0.354 N 
ATOM     44  C   UNL A   1      43.894  27.876  30.480  1.00  0.00     0.074 A 
ATOM     45  C   UNL A   1      42.979  27.088  29.687  1.00  0.00     0.031 C 
ATOM     46  C   UNL A   1      49.649  25.653  28.653  1.00  0.00     0.029 A 
ATOM     47  C   UNL A   1      49.377  26.725  29.610  1.00  0.00     0.049 A 
ATOM     48  H   UNL A   1      47.512  27.400  30.246  1.00  0.00     0.167 HD
ATOM     49  C   UNL A   1      43.512  28.792  31.400  1.00  0.00     0.037 A 
ATOM     50  C   UNL A   1      50.305  27.460  30.259  1.00  0.00     0.037 A 
ATOM     51  C   UNL A   1      44.431  29.574  32.183  1.00  0.00     0.049 A 
ATOM     52  C   UNL A   1      49.858  28.540  31.211  1.00  0.00     0.074 A 
ATOM     53  C   UNL A   1      44.143  30.523  33.148  1.00  0.00     0.029 A 
ATOM     54  N   UNL A   1      45.813  29.505  32.088  1.00  0.00    -0.354 N 
ATOM     55  N   UNL A   1      48.638  28.884  31.552  1.00  0.00    -0.248 NA
ATOM     56  C   UNL A   1      50.908  29.334  31.863  1.00  0.00     0.031 C 
ATOM     57  C   UNL A   1      45.349  31.069  33.593  1.00  0.00     0.029 A 
ATOM     58  C   UNL A   1      46.392  30.416  32.955  1.00  0.00     0.049 A 
ATOM     59  H   UNL A   1      46.309  28.897  31.493  1.00  0.00     0.167 HD
ATOM     60  C   UNL A   1      48.775  29.918  32.474  1.00  0.00     0.074 A 
ATOM     61  C   UNL A   1      50.197  30.136  32.646  1.00  0.00     0.031 C 
ATOM     62  C   UNL A   1      47.811  30.620  33.120  1.00  0.00     0.037 A 
BRANCH  49  63
ATOM     63  C   UNL A   1      42.039  29.016  31.597  1.00  0.00     0.058 A 
ATOM     64  C   UNL A   1      41.329  28.274  32.554  1.00  0.00     0.135 A 
ATOM     65  C   UNL A   1      41.316  29.921  30.803  1.00  0.00     0.135 A 
ATOM     66  F   UNL A   1      41.971  27.401  33.348  1.00  0.00    -0.206 F 
ATOM     67  C   UNL A   1      39.952  28.404  32.703  1.00  0.00     0.059 A 
ATOM     68  C   UNL A   1      39.942  30.090  30.954  1.00  0.00     0.059 A 
ATOM     69  F   UNL A   1      41.950  30.675  29.891  1.00  0.00    -0.206 F 
ATOM     70  C   UNL A   1      39.267  29.314  31.896  1.00  0.00     0.060 A 
BRANCH  70  71
ATOM     71  S   UNL A   1      37.484  29.488  32.120  1.00  0.00     0.124 S 
ATOM     72  O   UNL A   1      37.237  28.613  33.260  1.00  0.00    -0.237 OA
ATOM     73  O   UNL A   1      37.347  30.920  32.372  1.00  0.00    -0.237 OA
ATOM     74  O   UNL A   1      36.937  29.031  30.845  1.00  0.00    -0.744 OA
ENDBRANCH  70  71
ENDBRANCH  49  63
BRANCH  50  75
ATOM     75  C   UNL A   1      51.751  27.196  30.023  1.00  0.00     0.058 A 
ATOM     76  C   UNL A   1      52.469  26.297  30.827  1.00  0.00     0.135 A 
ATOM     77  C   UNL A   1      52.452  27.865  29.007  1.00  0.00     0.135 A 
ATOM     78  F   UNL A   1      51.849  25.629  31.811  1.00  0.00    -0.206 F 
ATOM     79  C   UNL A   1      53.835  26.096  30.656  1.00  0.00     0.059 A 
ATOM     80  C   UNL A   1      53.813  27.660  28.799  1.00  0.00     0.059 A 
ATOM     81  F   UNL A   1      51.805  28.718  28.199  1.00  0.00    -0.206 F 
ATOM     82  C   UNL A   1      54.500  26.788  29.643  1.00  0.00     0.060 A 
BRANCH  82  83
ATOM     83  S   UNL A   1      56.280  26.537  29.460  1.00  0.00     0.124 S 
ATOM     84  O   UNL A   1      56.812  27.590  30.318  1.00  0.00    -0.237 OA
ATOM     85  O   UNL A   1      56.446  25.173  29.950  1.00  0.00    -0.237 OA
ATOM     86  O   UNL A   1      56.502  26.721  28.029  1.00  0.00    -0.744 OA
ENDBRANCH  82  83
ENDBRANCH  50  75
BRANCH  62  87
ATOM     87  C   UNL A   1      48.240  31.685  34.094  1.00  0.00     0.058 A 
ATOM     88  C   UNL A   1      48.481  32.996  33.651  1.00  0.00     0.135 A 
ATOM     89  C   UNL A   1      48.518  31.387  35.436  1.00  0.00     0.135 A 
ATOM     90  F   UNL A   1      48.241  33.335  32.374  1.00  0.00    -0.206 F 
ATOM     91  C   UNL A   1      49.011  33.965  34.497  1.00  0.00     0.059 A 
ATOM     92  C   UNL A   1      49.020  32.349  36.309  1.00  0.00     0.059 A 
ATOM     93  F   UNL A   1      48.296  30.151  35.914  1.00  0.00    -0.206 F 
ATOM     94  C   UNL A   1      49.283  33.630  35.823  1.00  0.00     0.060 A 
BRANCH  94  95
ATOM     95  S   UNL A   1      49.979  34.898  36.903  1.00  0.00     0.124 S 
ATOM     96  O   UNL A   1      48.921  35.902  36.910  1.00  0.00    -0.237 OA
ATOM     97  O   UNL A   1      50.168  34.167  38.152  1.00  0.00    -0.237 OA
ATOM     98  O   UNL A   1      51.209  35.288  36.221  1.00  0.00    -0.744 OA
ENDBRANCH  94  95
ENDBRANCH  62  87
ENDBRANCH  36  37
ENDBRANCH  29  31
ENDBRANCH  28  29
ENDBRANCH  27  28
ENDBRANCH  26  27
ENDBRANCH  25  26
ENDBRANCH  24  25
ENDBRANCH  23  24
ENDBRANCH  22  23
ENDBRANCH   1  22
TORSDOF 28
ENDMDL
MODEL 3
REMARK VINA RESULT:      -7.2      5.008      5.945
REMARK SMILES COCCCOc1cccc(F)c1C(=O)OCCOCCOCCOCCOC(=O)c1ccc(-c2c3nc(c(-c4c(F)cc(S(=O)(=O)[O-])cc4F)c4ccc([nH]4)c(-c4c(F)cc(S(=O)(=O)[O-])cc4F)c4nc(c(-c5c(F)cc(S(=O)(=O)[O-])cc5F)c5ccc2[nH]5)C=C4)C=C3)cc1
REMARK SMILES IDX 21 1 20 2 19 3 18 4 17 5 16 6 14 7 15 8 13 9 7 10 8 11 9 12
REMARK SMILES IDX 11 13 10 14 12 15 6 16 5 17 4 18 3 19 2 20 1 21 22 22 23 23
REMARK SMILES IDX 24 24 25 25 26 26 27 27 28 28 29 29 30 30 31 31 32 32 96 33
REMARK SMILES IDX 33 34 95 35 34 36 35 37 36 38 89 39 37 40 94 41 88 42 90 43
REMARK SMILES IDX 38 44 93 45 87 46 86 47 39 49 73 50 52 51 72 52 53 53 56 54
REMARK SMILES IDX 71 55 91 56 54 57 55 58 70 60 92 61 57 62 40 63 41 64 50 65
REMARK SMILES IDX 42 66 43 67 49 68 51 69 44 70 45 71 46 72 47 73 48 74 74 75
REMARK SMILES IDX 75 76 84 77 76 78 77 79 83 80 85 81 78 82 79 83 80 84 81 85
REMARK SMILES IDX 82 86 58 87 59 88 68 89 60 90 61 91 67 92 69 93 62 94 63 95
REMARK SMILES IDX 64 96 65 97 66 98
REMARK H PARENT 90 48 56 59
REMARK Flexibility Score: inf
ROOT
ATOM      1  C   UNL A   1      36.617  21.794  24.291  1.00  0.00     0.188 C 
ENDROOT
BRANCH   1   2
ATOM      2  C   UNL A   1      35.218  22.455  24.360  1.00  0.00     0.188 C 
BRANCH   2   3
ATOM      3  O   UNL A   1      35.084  23.437  25.373  1.00  0.00    -0.376 OA
BRANCH   3   4
ATOM      4  C   UNL A   1      34.308  23.126  26.514  1.00  0.00     0.202 C 
BRANCH   4   5
ATOM      5  C   UNL A   1      32.956  22.431  26.314  1.00  0.00     0.261 C 
BRANCH   5   6
ATOM      6  O   UNL A   1      32.043  23.098  25.434  1.00  0.00    -0.459 OA
BRANCH   6   7
ATOM      7  C   UNL A   1      31.645  24.356  25.732  1.00  0.00     0.345 C 
ATOM      8  O   UNL A   1      31.204  24.758  26.791  1.00  0.00    -0.246 OA
BRANCH   7   9
ATOM      9  C   UNL A   1      31.984  25.194  24.565  1.00  0.00     0.137 A 
ATOM     10  C   UNL A   1      33.020  26.141  24.586  1.00  0.00     0.136 A 
ATOM     11  C   UNL A   1      33.445  26.729  23.386  1.00  0.00     0.047 A 
ATOM     12  C   UNL A   1      32.795  26.449  22.186  1.00  0.00     0.007 A 
ATOM     13  C   UNL A   1      31.347  24.915  23.354  1.00  0.00     0.141 A 
ATOM     14  C   UNL A   1      31.738  25.542  22.172  1.00  0.00     0.040 A 
ATOM     15  F   UNL A   1      30.357  24.011  23.294  1.00  0.00    -0.206 F 
BRANCH  10  16
ATOM     16  O   UNL A   1      33.825  26.380  25.664  1.00  0.00    -0.492 OA
BRANCH  16  17
ATOM     17  C   UNL A   1      33.840  27.736  26.126  1.00  0.00     0.232 C 
BRANCH  17  18
ATOM     18  C   UNL A   1      32.489  28.245  26.630  1.00  0.00     0.070 C 
BRANCH  18  19
ATOM     19  C   UNL A   1      31.690  29.136  25.678  1.00  0.00     0.163 C 
BRANCH  19  20
ATOM     20  O   UNL A   1      31.986  30.523  25.817  1.00  0.00    -0.385 OA
ATOM     21  C   UNL A   1      32.549  30.883  27.074  1.00  0.00     0.194 C 
ENDBRANCH  19  20
ENDBRANCH  18  19
ENDBRANCH  17  18
ENDBRANCH  16  17
ENDBRANCH  10  16
ENDBRANCH   7   9
ENDBRANCH   6   7
ENDBRANCH   5   6
ENDBRANCH   4   5
ENDBRANCH   3   4
ENDBRANCH   2   3
ENDBRANCH   1   2
BRANCH   1  22
ATOM     22  O   UNL A   1      37.142  21.036  25.372  1.00  0.00    -0.377 OA
BRANCH  22  23
ATOM     23  C   UNL A   1      37.921  19.879  25.104  1.00  0.00     0.188 C 
BRANCH  23  24
ATOM     24  C   UNL A   1      39.448  19.943  25.327  1.00  0.00     0.188 C 
BRANCH  24  25
ATOM     25  O   UNL A   1      39.844  19.892  26.690  1.00  0.00    -0.376 OA
BRANCH  25  26
ATOM     26  C   UNL A   1      41.190  20.216  26.994  1.00  0.00     0.202 C 
BRANCH  26  27
ATOM     27  C   UNL A   1      41.505  21.649  27.448  1.00  0.00     0.261 C 
BRANCH  27  28
ATOM     28  O   UNL A   1      41.307  22.688  26.477  1.00  0.00    -0.460 OA
BRANCH  28  29
ATOM     29  C   UNL A   1      40.376  23.628  26.744  1.00  0.00     0.338 C 
ATOM     30  O   UNL A   1      39.165  23.483  26.759  1.00  0.00    -0.246 OA
BRANCH  29  31
ATOM     31  C   UNL A   1      41.096  24.833  27.203  1.00  0.00     0.060 A 
ATOM     32  C   UNL A   1      41.711  24.831  28.463  1.00  0.00     0.016 A 
ATOM     33  C   UNL A   1      41.191  25.948  26.369  1.00  0.00     0.016 A 
ATOM     34  C   UNL A   1      42.412  25.957  28.898  1.00  0.00     0.010 A 
ATOM     35  C   UNL A   1      41.869  27.084  26.817  1.00  0.00     0.010 A 
ATOM     36  C   UNL A   1      42.458  27.102  28.094  1.00  0.00    -0.014 A 
BRANCH  36  37
ATOM     37  C   UNL A   1      42.951  28.384  28.651  1.00  0.00     0.031 A 
ATOM     38  C   UNL A   1      41.935  29.377  29.144  1.00  0.00     0.074 A 
ATOM     39  C   UNL A   1      44.265  28.659  28.725  1.00  0.00     0.049 A 
ATOM     40  N   UNL A   1      42.112  30.591  29.592  1.00  0.00    -0.248 NA
ATOM     41  C   UNL A   1      40.528  28.939  29.124  1.00  0.00     0.031 C 
ATOM     42  C   UNL A   1      45.342  27.754  28.329  1.00  0.00     0.029 A 
ATOM     43  N   UNL A   1      44.915  29.790  29.153  1.00  0.00    -0.354 N 
ATOM     44  C   UNL A   1      40.843  31.065  29.902  1.00  0.00     0.074 A 
ATOM     45  C   UNL A   1      39.902  30.021  29.563  1.00  0.00     0.031 C 
ATOM     46  C   UNL A   1      46.521  28.371  28.522  1.00  0.00     0.029 A 
ATOM     47  C   UNL A   1      46.281  29.727  29.017  1.00  0.00     0.049 A 
ATOM     48  H   UNL A   1      44.447  30.574  29.522  1.00  0.00     0.167 HD
ATOM     49  C   UNL A   1      40.497  32.260  30.433  1.00  0.00     0.037 A 
ATOM     50  C   UNL A   1      47.225  30.665  29.242  1.00  0.00     0.037 A 
ATOM     51  C   UNL A   1      41.441  33.294  30.764  1.00  0.00     0.049 A 
ATOM     52  C   UNL A   1      46.809  32.024  29.746  1.00  0.00     0.074 A 
ATOM     53  C   UNL A   1      41.191  34.539  31.315  1.00  0.00     0.029 A 
ATOM     54  N   UNL A   1      42.812  33.209  30.571  1.00  0.00    -0.354 N 
ATOM     55  N   UNL A   1      45.608  32.460  30.044  1.00  0.00    -0.248 NA
ATOM     56  C   UNL A   1      47.872  33.020  29.940  1.00  0.00     0.031 C 
ATOM     57  C   UNL A   1      42.404  35.227  31.399  1.00  0.00     0.029 A 
ATOM     58  C   UNL A   1      43.418  34.390  30.962  1.00  0.00     0.049 A 
ATOM     59  H   UNL A   1      43.284  32.424  30.209  1.00  0.00     0.167 HD
ATOM     60  C   UNL A   1      45.773  33.771  30.483  1.00  0.00     0.074 A 
ATOM     61  C   UNL A   1      47.193  34.054  30.420  1.00  0.00     0.031 C 
ATOM     62  C   UNL A   1      44.835  34.657  30.900  1.00  0.00     0.037 A 
BRANCH  49  63
ATOM     63  C   UNL A   1      39.037  32.527  30.670  1.00  0.00     0.058 A 
ATOM     64  C   UNL A   1      38.312  33.350  29.794  1.00  0.00     0.135 A 
ATOM     65  C   UNL A   1      38.367  32.017  31.794  1.00  0.00     0.135 A 
ATOM     66  F   UNL A   1      38.900  33.855  28.698  1.00  0.00    -0.206 F 
ATOM     67  C   UNL A   1      36.982  33.677  30.033  1.00  0.00     0.059 A 
ATOM     68  C   UNL A   1      37.027  32.307  32.039  1.00  0.00     0.059 A 
ATOM     69  F   UNL A   1      39.005  31.204  32.651  1.00  0.00    -0.206 F 
ATOM     70  C   UNL A   1      36.348  33.151  31.160  1.00  0.00     0.060 A 
BRANCH  70  71
ATOM     71  S   UNL A   1      34.614  33.566  31.442  1.00  0.00     0.124 S 
ATOM     72  O   UNL A   1      34.181  32.478  32.309  1.00  0.00    -0.237 OA
ATOM     73  O   UNL A   1      34.714  34.881  32.069  1.00  0.00    -0.237 OA
ATOM     74  O   UNL A   1      34.043  33.566  30.097  1.00  0.00    -0.744 OA
ENDBRANCH  70  71
ENDBRANCH  49  63
BRANCH  50  75
ATOM     75  C   UNL A   1      48.657  30.347  28.988  1.00  0.00     0.058 A 
ATOM     76  C   UNL A   1      49.460  29.756  29.976  1.00  0.00     0.135 A 
ATOM     77  C   UNL A   1      49.259  30.657  27.758  1.00  0.00     0.135 A 
ATOM     78  F   UNL A   1      48.935  29.437  31.169  1.00  0.00    -0.206 F 
ATOM     79  C   UNL A   1      50.815  29.517  29.769  1.00  0.00     0.059 A 
ATOM     80  C   UNL A   1      50.607  30.403  27.518  1.00  0.00     0.059 A 
ATOM     81  F   UNL A   1      48.528  31.203  26.775  1.00  0.00    -0.206 F 
ATOM     82  C   UNL A   1      51.381  29.851  28.538  1.00  0.00     0.060 A 
BRANCH  82  83
ATOM     83  S   UNL A   1      53.148  29.563  28.302  1.00  0.00     0.124 S 
ATOM     84  O   UNL A   1      53.286  29.757  26.863  1.00  0.00    -0.237 OA
ATOM     85  O   UNL A   1      53.739  30.600  29.142  1.00  0.00    -0.237 OA
ATOM     86  O   UNL A   1      53.334  28.195  28.772  1.00  0.00    -0.744 OA
ENDBRANCH  82  83
ENDBRANCH  50  75
BRANCH  62  87
ATOM     87  C   UNL A   1      45.295  36.020  31.345  1.00  0.00     0.058 A 
ATOM     88  C   UNL A   1      45.561  36.270  32.702  1.00  0.00     0.135 A 
ATOM     89  C   UNL A   1      45.365  37.101  30.455  1.00  0.00     0.135 A 
ATOM     90  F   UNL A   1      45.501  35.274  33.599  1.00  0.00    -0.206 F 
ATOM     91  C   UNL A   1      45.851  37.551  33.163  1.00  0.00     0.059 A 
ATOM     92  C   UNL A   1      45.683  38.385  30.889  1.00  0.00     0.059 A 
ATOM     93  F   UNL A   1      45.129  36.914  29.146  1.00  0.00    -0.206 F 
ATOM     94  C   UNL A   1      45.904  38.603  32.249  1.00  0.00     0.060 A 
BRANCH  94  95
ATOM     95  S   UNL A   1      46.271  40.259  32.868  1.00  0.00     0.124 S 
ATOM     96  O   UNL A   1      46.905  40.879  31.709  1.00  0.00    -0.237 OA
ATOM     97  O   UNL A   1      44.944  40.761  33.209  1.00  0.00    -0.237 OA
ATOM     98  O   UNL A   1      47.151  40.010  34.006  1.00  0.00    -0.744 OA
ENDBRANCH  94  95
ENDBRANCH  62  87
ENDBRANCH  36  37
ENDBRANCH  29  31
ENDBRANCH  28  29
ENDBRANCH  27  28
ENDBRANCH  26  27
ENDBRANCH  25  26
ENDBRANCH  24  25
ENDBRANCH  23  24
ENDBRANCH  22  23
ENDBRANCH   1  22
TORSDOF 28
ENDMDL
