MODEL 1
REMARK VINA RESULT:     -10.0      0.000      0.000
REMARK SMILES CC1(C)CCC[C@H]1NS(=O)(=O)c1cccc(C(=O)OCCOCCOCCOCCOC(=O)c2ccc(-c3c4nc(c(-c5c(F)cc(S(=O)(=O)[O-])cc5F)c5ccc([nH]5)c(-c5c(F)cc(S(=O)(=O)[O-])cc5F)c5nc(c(-c6c(F)cc(S(=O)(=O)[O-])cc6F)c6ccc3[nH]6)C=C5)C=C4)cc2)c1
REMARK SMILES IDX 25 1 24 2 23 3 22 4 21 5 20 6 19 7 17 8 18 9 16 10 12 11
REMARK SMILES IDX 13 12 100 13 14 14 15 15 9 16 10 17 11 18 8 19 7 21 1 22
REMARK SMILES IDX 2 23 3 24 4 25 5 26 6 27 26 28 27 29 28 30 29 31 30 32 31 33
REMARK SMILES IDX 32 34 33 35 34 36 35 37 99 38 36 39 98 40 37 41 38 42 39 43
REMARK SMILES IDX 92 44 40 45 97 46 91 47 93 48 41 49 96 50 90 51 89 52 42 54
REMARK SMILES IDX 76 55 55 56 75 57 56 58 59 59 74 60 94 61 57 62 58 63 73 65
REMARK SMILES IDX 95 66 60 67 43 68 44 69 53 70 45 71 46 72 52 73 54 74 47 75
REMARK SMILES IDX 48 76 49 77 50 78 51 79 77 80 78 81 87 82 79 83 80 84 86 85
REMARK SMILES IDX 88 86 81 87 82 88 83 89 84 90 85 91 61 92 62 93 71 94 63 95
REMARK SMILES IDX 64 96 70 97 72 98 65 99 66 100 67 101 68 102 69 103
REMARK H PARENT 8 20 93 53 59 64
REMARK Flexibility Score: inf
ROOT
ATOM      1  O   UNL A   1      33.195  36.830  31.763  1.00  0.00    -0.377 OA
ENDROOT
BRANCH   1   2
ATOM      2  C   UNL A   1      32.519  35.939  30.896  1.00  0.00     0.188 C 
BRANCH   2   3
ATOM      3  C   UNL A   1      33.451  35.260  29.879  1.00  0.00     0.188 C 
BRANCH   3   4
ATOM      4  O   UNL A   1      32.843  34.164  29.195  1.00  0.00    -0.376 OA
BRANCH   4   5
ATOM      5  C   UNL A   1      33.559  33.641  28.080  1.00  0.00     0.202 C 
BRANCH   5   6
ATOM      6  C   UNL A   1      34.203  32.260  28.278  1.00  0.00     0.261 C 
BRANCH   6   7
ATOM      7  O   UNL A   1      33.683  31.222  27.432  1.00  0.00    -0.460 OA
BRANCH   7   8
ATOM      8  C   UNL A   1      34.456  30.148  27.167  1.00  0.00     0.338 C 
ATOM      9  O   UNL A   1      35.662  30.046  27.299  1.00  0.00    -0.246 OA
BRANCH   8  10
ATOM     10  C   UNL A   1      33.528  29.017  26.931  1.00  0.00     0.061 A 
ATOM     11  C   UNL A   1      32.743  27.204  25.546  1.00  0.00     0.083 A 
ATOM     12  C   UNL A   1      31.536  27.174  26.250  1.00  0.00     0.022 A 
ATOM     13  C   UNL A   1      33.739  28.129  25.874  1.00  0.00     0.037 A 
ATOM     14  C   UNL A   1      31.350  28.033  27.335  1.00  0.00     0.002 A 
ATOM     15  C   UNL A   1      32.351  28.945  27.686  1.00  0.00     0.016 A 
BRANCH  11  16
ATOM     16  S   UNL A   1      33.096  26.047  24.256  1.00  0.00     0.240 S 
ATOM     17  O   UNL A   1      33.973  26.698  23.312  1.00  0.00    -0.207 OA
ATOM     18  O   UNL A   1      31.837  25.466  23.844  1.00  0.00    -0.207 OA
BRANCH  16  19
ATOM     19  N   UNL A   1      33.956  24.790  24.969  1.00  0.00    -0.208 NA
ATOM     20  H   UNL A   1      34.773  24.642  24.375  1.00  0.00     0.141 HD
BRANCH  19  21
ATOM     21  C   UNL A   1      33.399  23.451  25.221  1.00  0.00     0.075 C 
ATOM     22  C   UNL A   1      35.519  22.725  23.864  1.00  0.00     0.013 C 
ATOM     23  C   UNL A   1      34.471  22.358  24.926  1.00  0.00    -0.019 C 
ATOM     24  C   UNL A   1      33.781  21.056  24.468  1.00  0.00     0.013 C 
ATOM     25  C   UNL A   1      35.138  22.169  26.298  1.00  0.00     0.008 C 
ATOM     26  C   UNL A   1      33.991  22.247  27.292  1.00  0.00     0.002 C 
ATOM     27  C   UNL A   1      32.988  23.222  26.682  1.00  0.00     0.020 C 
ENDBRANCH  19  21
ENDBRANCH  16  19
ENDBRANCH  11  16
ENDBRANCH   8  10
ENDBRANCH   7   8
ENDBRANCH   6   7
ENDBRANCH   5   6
ENDBRANCH   4   5
ENDBRANCH   3   4
ENDBRANCH   2   3
ENDBRANCH   1   2
BRANCH   1  28
ATOM     28  C   UNL A   1      34.420  36.397  32.349  1.00  0.00     0.188 C 
BRANCH  28  29
ATOM     29  C   UNL A   1      34.453  35.322  33.459  1.00  0.00     0.188 C 
BRANCH  29  30
ATOM     30  O   UNL A   1      35.354  34.242  33.213  1.00  0.00    -0.376 OA
BRANCH  30  31
ATOM     31  C   UNL A   1      34.765  32.983  32.911  1.00  0.00     0.202 C 
BRANCH  31  32
ATOM     32  C   UNL A   1      35.238  32.394  31.576  1.00  0.00     0.261 C 
BRANCH  32  33
ATOM     33  O   UNL A   1      36.585  31.901  31.584  1.00  0.00    -0.460 OA
BRANCH  33  34
ATOM     34  C   UNL A   1      36.758  30.599  31.271  1.00  0.00     0.338 C 
ATOM     35  O   UNL A   1      35.905  29.732  31.226  1.00  0.00    -0.246 OA
BRANCH  34  36
ATOM     36  C   UNL A   1      38.147  30.427  30.808  1.00  0.00     0.060 A 
ATOM     37  C   UNL A   1      38.390  30.319  29.434  1.00  0.00     0.016 A 
ATOM     38  C   UNL A   1      39.196  30.363  31.728  1.00  0.00     0.016 A 
ATOM     39  C   UNL A   1      39.689  30.094  28.978  1.00  0.00     0.010 A 
ATOM     40  C   UNL A   1      40.492  30.125  31.272  1.00  0.00     0.010 A 
ATOM     41  C   UNL A   1      40.736  29.952  29.899  1.00  0.00    -0.014 A 
BRANCH  41  42
ATOM     42  C   UNL A   1      42.043  29.422  29.450  1.00  0.00     0.031 A 
ATOM     43  C   UNL A   1      43.216  30.363  29.417  1.00  0.00     0.074 A 
ATOM     44  C   UNL A   1      42.184  28.141  29.071  1.00  0.00     0.049 A 
ATOM     45  N   UNL A   1      44.446  30.143  29.034  1.00  0.00    -0.248 NA
ATOM     46  C   UNL A   1      42.964  31.739  29.875  1.00  0.00     0.031 C 
ATOM     47  C   UNL A   1      41.122  27.136  29.072  1.00  0.00     0.029 A 
ATOM     48  N   UNL A   1      43.284  27.472  28.596  1.00  0.00    -0.354 N 
ATOM     49  C   UNL A   1      45.113  31.351  29.198  1.00  0.00     0.074 A 
ATOM     50  C   UNL A   1      44.145  32.307  29.690  1.00  0.00     0.031 C 
ATOM     51  C   UNL A   1      41.620  25.980  28.601  1.00  0.00     0.029 A 
ATOM     52  C   UNL A   1      43.026  26.169  28.247  1.00  0.00     0.049 A 
ATOM     53  H   UNL A   1      44.173  27.887  28.514  1.00  0.00     0.167 HD
ATOM     54  C   UNL A   1      46.415  31.636  28.967  1.00  0.00     0.037 A 
ATOM     55  C   UNL A   1      43.832  25.244  27.687  1.00  0.00     0.037 A 
ATOM     56  C   UNL A   1      47.370  30.685  28.467  1.00  0.00     0.049 A 
ATOM     57  C   UNL A   1      45.268  25.595  27.395  1.00  0.00     0.074 A 
ATOM     58  C   UNL A   1      48.720  30.866  28.224  1.00  0.00     0.029 A 
ATOM     59  N   UNL A   1      47.071  29.376  28.118  1.00  0.00    -0.354 N 
ATOM     60  N   UNL A   1      45.900  26.727  27.601  1.00  0.00    -0.248 NA
ATOM     61  C   UNL A   1      46.103  24.542  26.799  1.00  0.00     0.031 C 
ATOM     62  C   UNL A   1      49.229  29.678  27.688  1.00  0.00     0.029 A 
ATOM     63  C   UNL A   1      48.205  28.743  27.639  1.00  0.00     0.049 A 
ATOM     64  H   UNL A   1      46.183  28.959  28.199  1.00  0.00     0.167 HD
ATOM     65  C   UNL A   1      47.209  26.515  27.182  1.00  0.00     0.074 A 
ATOM     66  C   UNL A   1      47.282  25.144  26.719  1.00  0.00     0.031 C 
ATOM     67  C   UNL A   1      48.259  27.375  27.184  1.00  0.00     0.037 A 
BRANCH  54  68
ATOM     68  C   UNL A   1      46.866  33.045  29.229  1.00  0.00     0.058 A 
ATOM     69  C   UNL A   1      46.799  34.037  28.237  1.00  0.00     0.135 A 
ATOM     70  C   UNL A   1      47.375  33.407  30.487  1.00  0.00     0.135 A 
ATOM     71  F   UNL A   1      46.341  33.738  27.012  1.00  0.00    -0.206 F 
ATOM     72  C   UNL A   1      47.251  35.331  28.474  1.00  0.00     0.059 A 
ATOM     73  C   UNL A   1      47.810  34.701  30.752  1.00  0.00     0.059 A 
ATOM     74  F   UNL A   1      47.465  32.494  31.467  1.00  0.00    -0.206 F 
ATOM     75  C   UNL A   1      47.761  35.651  29.734  1.00  0.00     0.060 A 
BRANCH  75  76
ATOM     76  S   UNL A   1      48.359  37.330  30.022  1.00  0.00     0.124 S 
ATOM     77  O   UNL A   1      49.585  37.076  30.771  1.00  0.00    -0.237 OA
ATOM     78  O   UNL A   1      48.540  37.837  28.665  1.00  0.00    -0.237 OA
ATOM     79  O   UNL A   1      47.277  37.950  30.780  1.00  0.00    -0.744 OA
ENDBRANCH  75  76
ENDBRANCH  54  68
BRANCH  55  80
ATOM     80  C   UNL A   1      43.295  23.896  27.367  1.00  0.00     0.058 A 
ATOM     81  C   UNL A   1      42.836  23.586  26.079  1.00  0.00     0.135 A 
ATOM     82  C   UNL A   1      43.245  22.886  28.341  1.00  0.00     0.135 A 
ATOM     83  F   UNL A   1      42.851  24.523  25.118  1.00  0.00    -0.206 F 
ATOM     84  C   UNL A   1      42.341  22.324  25.766  1.00  0.00     0.059 A 
ATOM     85  C   UNL A   1      42.775  21.610  28.047  1.00  0.00     0.059 A 
ATOM     86  F   UNL A   1      43.678  23.132  29.586  1.00  0.00    -0.206 F 
ATOM     87  C   UNL A   1      42.319  21.340  26.757  1.00  0.00     0.060 A 
BRANCH  87  88
ATOM     88  S   UNL A   1      41.734  19.686  26.323  1.00  0.00     0.124 S 
ATOM     89  O   UNL A   1      42.498  19.414  25.111  1.00  0.00    -0.237 OA
ATOM     90  O   UNL A   1      42.110  18.910  27.501  1.00  0.00    -0.237 OA
ATOM     91  O   UNL A   1      40.300  19.875  26.137  1.00  0.00    -0.744 OA
ENDBRANCH  87  88
ENDBRANCH  55  80
BRANCH  67  92
ATOM     92  C   UNL A   1      49.583  26.857  26.697  1.00  0.00     0.058 A 
ATOM     93  C   UNL A   1      50.503  26.251  27.566  1.00  0.00     0.135 A 
ATOM     94  C   UNL A   1      49.908  26.911  25.331  1.00  0.00     0.135 A 
ATOM     95  F   UNL A   1      50.242  26.177  28.881  1.00  0.00    -0.206 F 
ATOM     96  C   UNL A   1      51.708  25.734  27.102  1.00  0.00     0.059 A 
ATOM     97  C   UNL A   1      51.097  26.379  24.841  1.00  0.00     0.059 A 
ATOM     98  F   UNL A   1      49.058  27.470  24.455  1.00  0.00    -0.206 F 
ATOM     99  C   UNL A   1      51.996  25.801  25.737  1.00  0.00     0.060 A 
BRANCH  99 100
ATOM    100  S   UNL A   1      53.546  25.094  25.139  1.00  0.00     0.124 S 
ATOM    101  O   UNL A   1      53.668  25.719  23.827  1.00  0.00    -0.237 OA
ATOM    102  O   UNL A   1      54.505  25.541  26.146  1.00  0.00    -0.237 OA
ATOM    103  O   UNL A   1      53.283  23.659  25.130  1.00  0.00    -0.744 OA
ENDBRANCH  99 100
ENDBRANCH  67  92
ENDBRANCH  41  42
ENDBRANCH  34  36
ENDBRANCH  33  34
ENDBRANCH  32  33
ENDBRANCH  31  32
ENDBRANCH  30  31
ENDBRANCH  29  30
ENDBRANCH  28  29
ENDBRANCH   1  28
TORSDOF 26
ENDMDL
MODEL 2
REMARK VINA RESULT:      -9.6      2.035      8.503
REMARK SMILES CC1(C)CCC[C@H]1NS(=O)(=O)c1cccc(C(=O)OCCOCCOCCOCCOC(=O)c2ccc(-c3c4nc(c(-c5c(F)cc(S(=O)(=O)[O-])cc5F)c5ccc([nH]5)c(-c5c(F)cc(S(=O)(=O)[O-])cc5F)c5nc(c(-c6c(F)cc(S(=O)(=O)[O-])cc6F)c6ccc3[nH]6)C=C5)C=C4)cc2)c1
REMARK SMILES IDX 25 1 24 2 23 3 22 4 21 5 20 6 19 7 17 8 18 9 16 10 12 11
REMARK SMILES IDX 13 12 100 13 14 14 15 15 9 16 10 17 11 18 8 19 7 21 1 22
REMARK SMILES IDX 2 23 3 24 4 25 5 26 6 27 26 28 27 29 28 30 29 31 30 32 31 33
REMARK SMILES IDX 32 34 33 35 34 36 35 37 99 38 36 39 98 40 37 41 38 42 39 43
REMARK SMILES IDX 92 44 40 45 97 46 91 47 93 48 41 49 96 50 90 51 89 52 42 54
REMARK SMILES IDX 76 55 55 56 75 57 56 58 59 59 74 60 94 61 57 62 58 63 73 65
REMARK SMILES IDX 95 66 60 67 43 68 44 69 53 70 45 71 46 72 52 73 54 74 47 75
REMARK SMILES IDX 48 76 49 77 50 78 51 79 77 80 78 81 87 82 79 83 80 84 86 85
REMARK SMILES IDX 88 86 81 87 82 88 83 89 84 90 85 91 61 92 62 93 71 94 63 95
REMARK SMILES IDX 64 96 70 97 72 98 65 99 66 100 67 101 68 102 69 103
REMARK H PARENT 8 20 93 53 59 64
REMARK Flexibility Score: inf
ROOT
ATOM      1  O   UNL A   1      33.321  34.942  31.335  1.00  0.00    -0.377 OA
ENDROOT
BRANCH   1   2
ATOM      2  C   UNL A   1      33.080  35.422  30.026  1.00  0.00     0.188 C 
BRANCH   2   3
ATOM      3  C   UNL A   1      33.532  34.444  28.930  1.00  0.00     0.188 C 
BRANCH   3   4
ATOM      4  O   UNL A   1      32.618  34.354  27.837  1.00  0.00    -0.376 OA
BRANCH   4   5
ATOM      5  C   UNL A   1      32.252  33.039  27.429  1.00  0.00     0.202 C 
BRANCH   5   6
ATOM      6  C   UNL A   1      33.388  32.009  27.366  1.00  0.00     0.261 C 
BRANCH   6   7
ATOM      7  O   UNL A   1      32.968  30.637  27.438  1.00  0.00    -0.460 OA
BRANCH   7   8
ATOM      8  C   UNL A   1      33.799  29.675  26.984  1.00  0.00     0.338 C 
ATOM      9  O   UNL A   1      34.987  29.544  27.217  1.00  0.00    -0.246 OA
BRANCH   8  10
ATOM     10  C   UNL A   1      32.939  28.646  26.354  1.00  0.00     0.061 A 
ATOM     11  C   UNL A   1      31.474  27.944  24.570  1.00  0.00     0.083 A 
ATOM     12  C   UNL A   1      30.976  26.912  25.369  1.00  0.00     0.022 A 
ATOM     13  C   UNL A   1      32.447  28.822  25.059  1.00  0.00     0.037 A 
ATOM     14  C   UNL A   1      31.506  26.713  26.646  1.00  0.00     0.002 A 
ATOM     15  C   UNL A   1      32.497  27.570  27.135  1.00  0.00     0.016 A 
BRANCH  11  16
ATOM     16  S   UNL A   1      30.948  28.160  22.896  1.00  0.00     0.240 S 
ATOM     17  O   UNL A   1      29.813  27.296  22.678  1.00  0.00    -0.207 OA
ATOM     18  O   UNL A   1      32.127  28.086  22.061  1.00  0.00    -0.207 OA
BRANCH  16  19
ATOM     19  N   UNL A   1      30.411  29.749  22.768  1.00  0.00    -0.208 NA
ATOM     20  H   UNL A   1      30.790  30.236  23.581  1.00  0.00     0.141 HD
BRANCH  19  21
ATOM     21  C   UNL A   1      28.992  30.135  22.698  1.00  0.00     0.075 C 
ATOM     22  C   UNL A   1      29.738  31.787  24.590  1.00  0.00     0.013 C 
ATOM     23  C   UNL A   1      28.766  31.490  23.437  1.00  0.00    -0.019 C 
ATOM     24  C   UNL A   1      27.336  31.543  24.011  1.00  0.00     0.013 C 
ATOM     25  C   UNL A   1      28.941  32.517  22.307  1.00  0.00     0.008 C 
ATOM     26  C   UNL A   1      28.271  31.875  21.104  1.00  0.00     0.002 C 
ATOM     27  C   UNL A   1      28.489  30.374  21.268  1.00  0.00     0.020 C 
ENDBRANCH  19  21
ENDBRANCH  16  19
ENDBRANCH  11  16
ENDBRANCH   8  10
ENDBRANCH   7   8
ENDBRANCH   6   7
ENDBRANCH   5   6
ENDBRANCH   4   5
ENDBRANCH   3   4
ENDBRANCH   2   3
ENDBRANCH   1   2
BRANCH   1  28
ATOM     28  C   UNL A   1      34.551  35.297  31.964  1.00  0.00     0.188 C 
BRANCH  28  29
ATOM     29  C   UNL A   1      34.862  34.892  33.422  1.00  0.00     0.188 C 
BRANCH  29  30
ATOM     30  O   UNL A   1      34.872  33.483  33.658  1.00  0.00    -0.376 OA
BRANCH  30  31
ATOM     31  C   UNL A   1      36.131  32.831  33.540  1.00  0.00     0.202 C 
BRANCH  31  32
ATOM     32  C   UNL A   1      36.050  31.476  32.826  1.00  0.00     0.261 C 
BRANCH  32  33
ATOM     33  O   UNL A   1      36.917  31.348  31.690  1.00  0.00    -0.460 OA
BRANCH  33  34
ATOM     34  C   UNL A   1      37.181  30.093  31.264  1.00  0.00     0.338 C 
ATOM     35  O   UNL A   1      36.386  29.183  31.118  1.00  0.00    -0.246 OA
BRANCH  34  36
ATOM     36  C   UNL A   1      38.587  30.052  30.825  1.00  0.00     0.060 A 
ATOM     37  C   UNL A   1      38.903  30.497  29.536  1.00  0.00     0.016 A 
ATOM     38  C   UNL A   1      39.581  29.566  31.678  1.00  0.00     0.016 A 
ATOM     39  C   UNL A   1      40.217  30.409  29.078  1.00  0.00     0.010 A 
ATOM     40  C   UNL A   1      40.892  29.467  31.213  1.00  0.00     0.010 A 
ATOM     41  C   UNL A   1      41.206  29.853  29.899  1.00  0.00    -0.014 A 
BRANCH  41  42
ATOM     42  C   UNL A   1      42.519  29.483  29.324  1.00  0.00     0.031 A 
ATOM     43  C   UNL A   1      42.686  28.092  28.776  1.00  0.00     0.074 A 
ATOM     44  C   UNL A   1      43.541  30.355  29.299  1.00  0.00     0.049 A 
ATOM     45  N   UNL A   1      43.743  27.527  28.255  1.00  0.00    -0.248 NA
ATOM     46  C   UNL A   1      41.500  27.221  28.828  1.00  0.00     0.031 C 
ATOM     47  C   UNL A   1      43.492  31.731  29.791  1.00  0.00     0.029 A 
ATOM     48  N   UNL A   1      44.828  30.200  28.851  1.00  0.00    -0.354 N 
ATOM     49  C   UNL A   1      43.353  26.236  27.922  1.00  0.00     0.074 A 
ATOM     50  C   UNL A   1      41.971  26.091  28.324  1.00  0.00     0.031 C 
ATOM     51  C   UNL A   1      44.704  32.290  29.633  1.00  0.00     0.029 A 
ATOM     52  C   UNL A   1      45.616  31.307  29.050  1.00  0.00     0.049 A 
ATOM     53  H   UNL A   1      45.156  29.374  28.426  1.00  0.00     0.167 HD
ATOM     54  C   UNL A   1      44.079  25.260  27.328  1.00  0.00     0.037 A 
ATOM     55  C   UNL A   1      46.929  31.494  28.805  1.00  0.00     0.037 A 
ATOM     56  C   UNL A   1      45.456  25.405  26.940  1.00  0.00     0.049 A 
ATOM     57  C   UNL A   1      47.731  30.380  28.185  1.00  0.00     0.074 A 
ATOM     58  C   UNL A   1      46.273  24.487  26.307  1.00  0.00     0.029 A 
ATOM     59  N   UNL A   1      46.223  26.539  27.164  1.00  0.00    -0.354 N 
ATOM     60  N   UNL A   1      47.339  29.179  27.829  1.00  0.00    -0.248 NA
ATOM     61  C   UNL A   1      49.154  30.647  27.928  1.00  0.00     0.031 C 
ATOM     62  C   UNL A   1      47.549  25.050  26.185  1.00  0.00     0.029 A 
ATOM     63  C   UNL A   1      47.513  26.336  26.702  1.00  0.00     0.049 A 
ATOM     64  H   UNL A   1      45.899  27.366  27.588  1.00  0.00     0.167 HD
ATOM     65  C   UNL A   1      48.458  28.556  27.286  1.00  0.00     0.074 A 
ATOM     66  C   UNL A   1      49.542  29.516  27.352  1.00  0.00     0.031 C 
ATOM     67  C   UNL A   1      48.578  27.305  26.775  1.00  0.00     0.037 A 
BRANCH  54  68
ATOM     68  C   UNL A   1      43.395  23.944  27.092  1.00  0.00     0.058 A 
ATOM     69  C   UNL A   1      42.827  23.621  25.849  1.00  0.00     0.135 A 
ATOM     70  C   UNL A   1      43.303  22.995  28.123  1.00  0.00     0.135 A 
ATOM     71  F   UNL A   1      42.868  24.501  24.837  1.00  0.00    -0.206 F 
ATOM     72  C   UNL A   1      42.162  22.415  25.647  1.00  0.00     0.059 A 
ATOM     73  C   UNL A   1      42.664  21.774  27.935  1.00  0.00     0.059 A 
ATOM     74  F   UNL A   1      43.825  23.259  29.331  1.00  0.00    -0.206 F 
ATOM     75  C   UNL A   1      42.082  21.501  26.699  1.00  0.00     0.060 A 
BRANCH  75  76
ATOM     76  S   UNL A   1      41.202  19.948  26.428  1.00  0.00     0.124 S 
ATOM     77  O   UNL A   1      42.056  19.299  25.439  1.00  0.00    -0.237 OA
ATOM     78  O   UNL A   1      41.206  19.347  27.759  1.00  0.00    -0.237 OA
ATOM     79  O   UNL A   1      39.895  20.379  25.943  1.00  0.00    -0.744 OA
ENDBRANCH  75  76
ENDBRANCH  54  68
BRANCH  55  80
ATOM     80  C   UNL A   1      47.565  32.793  29.150  1.00  0.00     0.058 A 
ATOM     81  C   UNL A   1      47.632  33.837  28.217  1.00  0.00     0.135 A 
ATOM     82  C   UNL A   1      48.105  33.019  30.425  1.00  0.00     0.135 A 
ATOM     83  F   UNL A   1      47.141  33.664  26.980  1.00  0.00    -0.206 F 
ATOM     84  C   UNL A   1      48.215  35.060  28.533  1.00  0.00     0.059 A 
ATOM     85  C   UNL A   1      48.674  34.240  30.773  1.00  0.00     0.059 A 
ATOM     86  F   UNL A   1      48.060  32.053  31.355  1.00  0.00    -0.206 F 
ATOM     87  C   UNL A   1      48.730  35.254  29.816  1.00  0.00     0.060 A 
BRANCH  87  88
ATOM     88  S   UNL A   1      49.428  36.866  30.235  1.00  0.00     0.124 S 
ATOM     89  O   UNL A   1      48.586  37.763  29.451  1.00  0.00    -0.237 OA
ATOM     90  O   UNL A   1      49.237  36.916  31.682  1.00  0.00    -0.237 OA
ATOM     91  O   UNL A   1      50.815  36.757  29.797  1.00  0.00    -0.744 OA
ENDBRANCH  87  88
ENDBRANCH  55  80
BRANCH  67  92
ATOM     92  C   UNL A   1      49.918  26.907  26.221  1.00  0.00     0.058 A 
ATOM     93  C   UNL A   1      50.271  27.164  24.887  1.00  0.00     0.135 A 
ATOM     94  C   UNL A   1      50.884  26.317  27.053  1.00  0.00     0.135 A 
ATOM     95  F   UNL A   1      49.383  27.723  24.050  1.00  0.00    -0.206 F 
ATOM     96  C   UNL A   1      51.527  26.833  24.392  1.00  0.00     0.059 A 
ATOM     97  C   UNL A   1      52.155  25.999  26.585  1.00  0.00     0.059 A 
ATOM     98  F   UNL A   1      50.603  26.060  28.340  1.00  0.00    -0.206 F 
ATOM     99  C   UNL A   1      52.464  26.252  25.249  1.00  0.00     0.060 A 
BRANCH  99 100
ATOM    100  S   UNL A   1      54.105  25.859  24.606  1.00  0.00     0.124 S 
ATOM    101  O   UNL A   1      54.206  24.435  24.906  1.00  0.00    -0.237 OA
ATOM    102  O   UNL A   1      53.980  26.201  23.192  1.00  0.00    -0.237 OA
ATOM    103  O   UNL A   1      54.989  26.728  25.377  1.00  0.00    -0.744 OA
ENDBRANCH  99 100
ENDBRANCH  67  92
ENDBRANCH  41  42
ENDBRANCH  34  36
ENDBRANCH  33  34
ENDBRANCH  32  33
ENDBRANCH  31  32
ENDBRANCH  30  31
ENDBRANCH  29  30
ENDBRANCH  28  29
ENDBRANCH   1  28
TORSDOF 26
ENDMDL
MODEL 3
REMARK VINA RESULT:      -9.0      5.737     14.095
REMARK SMILES CC1(C)CCC[C@H]1NS(=O)(=O)c1cccc(C(=O)OCCOCCOCCOCCOC(=O)c2ccc(-c3c4nc(c(-c5c(F)cc(S(=O)(=O)[O-])cc5F)c5ccc([nH]5)c(-c5c(F)cc(S(=O)(=O)[O-])cc5F)c5nc(c(-c6c(F)cc(S(=O)(=O)[O-])cc6F)c6ccc3[nH]6)C=C5)C=C4)cc2)c1
REMARK SMILES IDX 25 1 24 2 23 3 22 4 21 5 20 6 19 7 17 8 18 9 16 10 12 11
REMARK SMILES IDX 13 12 100 13 14 14 15 15 9 16 10 17 11 18 8 19 7 21 1 22
REMARK SMILES IDX 2 23 3 24 4 25 5 26 6 27 26 28 27 29 28 30 29 31 30 32 31 33
REMARK SMILES IDX 32 34 33 35 34 36 35 37 99 38 36 39 98 40 37 41 38 42 39 43
REMARK SMILES IDX 92 44 40 45 97 46 91 47 93 48 41 49 96 50 90 51 89 52 42 54
REMARK SMILES IDX 76 55 55 56 75 57 56 58 59 59 74 60 94 61 57 62 58 63 73 65
REMARK SMILES IDX 95 66 60 67 43 68 44 69 53 70 45 71 46 72 52 73 54 74 47 75
REMARK SMILES IDX 48 76 49 77 50 78 51 79 77 80 78 81 87 82 79 83 80 84 86 85
REMARK SMILES IDX 88 86 81 87 82 88 83 89 84 90 85 91 61 92 62 93 71 94 63 95
REMARK SMILES IDX 64 96 70 97 72 98 65 99 66 100 67 101 68 102 69 103
REMARK H PARENT 8 20 93 53 59 64
REMARK Flexibility Score: inf
ROOT
ATOM      1  O   UNL A   1      43.723  20.284  24.702  1.00  0.00    -0.377 OA
ENDROOT
BRANCH   1   2
ATOM      2  C   UNL A   1      43.142  19.952  25.949  1.00  0.00     0.188 C 
BRANCH   2   3
ATOM      3  C   UNL A   1      42.105  20.981  26.428  1.00  0.00     0.188 C 
BRANCH   3   4
ATOM      4  O   UNL A   1      42.251  21.336  27.803  1.00  0.00    -0.376 OA
BRANCH   4   5
ATOM      5  C   UNL A   1      42.544  22.704  28.074  1.00  0.00     0.202 C 
BRANCH   5   6
ATOM      6  C   UNL A   1      44.025  23.050  28.283  1.00  0.00     0.261 C 
BRANCH   6   7
ATOM      7  O   UNL A   1      44.337  24.450  28.214  1.00  0.00    -0.460 OA
BRANCH   7   8
ATOM      8  C   UNL A   1      44.650  25.106  29.351  1.00  0.00     0.338 C 
ATOM      9  O   UNL A   1      44.282  24.853  30.484  1.00  0.00    -0.246 OA
BRANCH   8  10
ATOM     10  C   UNL A   1      45.744  26.043  29.003  1.00  0.00     0.061 A 
ATOM     11  C   UNL A   1      47.455  26.793  27.476  1.00  0.00     0.083 A 
ATOM     12  C   UNL A   1      48.081  27.498  28.507  1.00  0.00     0.022 A 
ATOM     13  C   UNL A   1      46.292  26.055  27.719  1.00  0.00     0.037 A 
ATOM     14  C   UNL A   1      47.502  27.520  29.778  1.00  0.00     0.002 A 
ATOM     15  C   UNL A   1      46.326  26.806  30.024  1.00  0.00     0.016 A 
BRANCH  11  16
ATOM     16  S   UNL A   1      48.059  26.841  25.815  1.00  0.00     0.240 S 
ATOM     17  O   UNL A   1      47.452  27.975  25.161  1.00  0.00    -0.207 OA
ATOM     18  O   UNL A   1      47.942  25.504  25.276  1.00  0.00    -0.207 OA
BRANCH  16  19
ATOM     19  N   UNL A   1      49.712  27.138  25.920  1.00  0.00    -0.208 NA
ATOM     20  H   UNL A   1      49.937  27.731  25.122  1.00  0.00     0.141 HD
BRANCH  19  21
ATOM     21  C   UNL A   1      50.737  26.081  25.935  1.00  0.00     0.075 C 
ATOM     22  C   UNL A   1      51.975  27.787  24.378  1.00  0.00     0.013 C 
ATOM     23  C   UNL A   1      52.089  26.638  25.393  1.00  0.00    -0.019 C 
ATOM     24  C   UNL A   1      52.893  25.505  24.723  1.00  0.00     0.013 C 
ATOM     25  C   UNL A   1      52.788  27.119  26.675  1.00  0.00     0.008 C 
ATOM     26  C   UNL A   1      52.449  26.060  27.712  1.00  0.00     0.002 C 
ATOM     27  C   UNL A   1      51.058  25.556  27.341  1.00  0.00     0.020 C 
ENDBRANCH  19  21
ENDBRANCH  16  19
ENDBRANCH  11  16
ENDBRANCH   8  10
ENDBRANCH   7   8
ENDBRANCH   6   7
ENDBRANCH   5   6
ENDBRANCH   4   5
ENDBRANCH   3   4
ENDBRANCH   2   3
ENDBRANCH   1   2
BRANCH   1  28
ATOM     28  C   UNL A   1      44.741  21.282  24.681  1.00  0.00     0.188 C 
BRANCH  28  29
ATOM     29  C   UNL A   1      44.636  22.529  23.776  1.00  0.00     0.188 C 
BRANCH  29  30
ATOM     30  O   UNL A   1      45.352  23.670  24.251  1.00  0.00    -0.376 OA
BRANCH  30  31
ATOM     31  C   UNL A   1      44.593  24.648  24.952  1.00  0.00     0.202 C 
BRANCH  31  32
ATOM     32  C   UNL A   1      43.078  24.470  24.794  1.00  0.00     0.261 C 
BRANCH  32  33
ATOM     33  O   UNL A   1      42.287  25.256  25.696  1.00  0.00    -0.460 OA
BRANCH  33  34
ATOM     34  C   UNL A   1      42.425  26.597  25.615  1.00  0.00     0.338 C 
ATOM     35  O   UNL A   1      42.428  27.278  24.606  1.00  0.00    -0.246 OA
BRANCH  34  36
ATOM     36  C   UNL A   1      42.391  27.138  26.986  1.00  0.00     0.060 A 
ATOM     37  C   UNL A   1      41.551  26.532  27.928  1.00  0.00     0.016 A 
ATOM     38  C   UNL A   1      43.175  28.242  27.330  1.00  0.00     0.016 A 
ATOM     39  C   UNL A   1      41.457  27.066  29.213  1.00  0.00     0.010 A 
ATOM     40  C   UNL A   1      43.070  28.781  28.611  1.00  0.00     0.010 A 
ATOM     41  C   UNL A   1      42.183  28.218  29.544  1.00  0.00    -0.014 A 
BRANCH  41  42
ATOM     42  C   UNL A   1      41.866  28.956  30.788  1.00  0.00     0.031 A 
ATOM     43  C   UNL A   1      40.670  29.868  30.786  1.00  0.00     0.074 A 
ATOM     44  C   UNL A   1      42.627  28.828  31.888  1.00  0.00     0.049 A 
ATOM     45  N   UNL A   1      40.213  30.639  31.737  1.00  0.00    -0.248 NA
ATOM     46  C   UNL A   1      39.888  29.919  29.539  1.00  0.00     0.031 C 
ATOM     47  C   UNL A   1      43.801  27.967  32.010  1.00  0.00     0.029 A 
ATOM     48  N   UNL A   1      42.526  29.441  33.111  1.00  0.00    -0.354 N 
ATOM     49  C   UNL A   1      39.095  31.270  31.204  1.00  0.00     0.074 A 
ATOM     50  C   UNL A   1      38.959  30.813  29.838  1.00  0.00     0.031 C 
ATOM     51  C   UNL A   1      44.325  28.120  33.239  1.00  0.00     0.029 A 
ATOM     52  C   UNL A   1      43.536  29.105  33.979  1.00  0.00     0.049 A 
ATOM     53  H   UNL A   1      41.800  30.064  33.345  1.00  0.00     0.167 HD
ATOM     54  C   UNL A   1      38.254  32.146  31.801  1.00  0.00     0.037 A 
ATOM     55  C   UNL A   1      43.800  29.556  35.222  1.00  0.00     0.037 A 
ATOM     56  C   UNL A   1      38.401  32.606  33.155  1.00  0.00     0.049 A 
ATOM     57  C   UNL A   1      42.877  30.566  35.853  1.00  0.00     0.074 A 
ATOM     58  C   UNL A   1      37.587  33.471  33.864  1.00  0.00     0.029 A 
ATOM     59  N   UNL A   1      39.440  32.247  34.002  1.00  0.00    -0.354 N 
ATOM     60  N   UNL A   1      41.795  31.119  35.357  1.00  0.00    -0.248 NA
ATOM     61  C   UNL A   1      43.207  31.011  37.215  1.00  0.00     0.031 C 
ATOM     62  C   UNL A   1      38.157  33.671  35.126  1.00  0.00     0.029 A 
ATOM     63  C   UNL A   1      39.302  32.893  35.219  1.00  0.00     0.049 A 
ATOM     64  H   UNL A   1      40.167  31.626  33.772  1.00  0.00     0.167 HD
ATOM     65  C   UNL A   1      41.303  31.957  36.352  1.00  0.00     0.074 A 
ATOM     66  C   UNL A   1      42.201  31.833  37.482  1.00  0.00     0.031 C 
ATOM     67  C   UNL A   1      40.206  32.755  36.335  1.00  0.00     0.037 A 
BRANCH  54  68
ATOM     68  C   UNL A   1      37.119  32.680  30.973  1.00  0.00     0.058 A 
ATOM     69  C   UNL A   1      37.305  33.729  30.059  1.00  0.00     0.135 A 
ATOM     70  C   UNL A   1      35.830  32.138  31.100  1.00  0.00     0.135 A 
ATOM     71  F   UNL A   1      38.512  34.297  29.917  1.00  0.00    -0.206 F 
ATOM     72  C   UNL A   1      36.244  34.245  29.322  1.00  0.00     0.059 A 
ATOM     73  C   UNL A   1      34.760  32.622  30.355  1.00  0.00     0.059 A 
ATOM     74  F   UNL A   1      35.600  31.138  31.964  1.00  0.00    -0.206 F 
ATOM     75  C   UNL A   1      34.973  33.688  29.482  1.00  0.00     0.060 A 
BRANCH  75  76
ATOM     76  S   UNL A   1      33.602  34.377  28.531  1.00  0.00     0.124 S 
ATOM     77  O   UNL A   1      33.185  33.221  27.744  1.00  0.00    -0.237 OA
ATOM     78  O   UNL A   1      32.675  34.798  29.577  1.00  0.00    -0.237 OA
ATOM     79  O   UNL A   1      34.224  35.460  27.776  1.00  0.00    -0.744 OA
ENDBRANCH  75  76
ENDBRANCH  54  68
BRANCH  55  80
ATOM     80  C   UNL A   1      44.995  29.054  35.950  1.00  0.00     0.058 A 
ATOM     81  C   UNL A   1      44.961  27.836  36.645  1.00  0.00     0.135 A 
ATOM     82  C   UNL A   1      46.198  29.776  35.952  1.00  0.00     0.135 A 
ATOM     83  F   UNL A   1      43.828  27.117  36.683  1.00  0.00    -0.206 F 
ATOM     84  C   UNL A   1      46.076  27.352  37.321  1.00  0.00     0.059 A 
ATOM     85  C   UNL A   1      47.334  29.302  36.602  1.00  0.00     0.059 A 
ATOM     86  F   UNL A   1      46.283  30.943  35.297  1.00  0.00    -0.206 F 
ATOM     87  C   UNL A   1      47.261  28.090  37.290  1.00  0.00     0.060 A 
BRANCH  87  88
ATOM     88  S   UNL A   1      48.721  27.421  38.116  1.00  0.00     0.124 S 
ATOM     89  O   UNL A   1      48.217  27.199  39.467  1.00  0.00    -0.237 OA
ATOM     90  O   UNL A   1      48.995  26.221  37.332  1.00  0.00    -0.237 OA
ATOM     91  O   UNL A   1      49.705  28.490  37.977  1.00  0.00    -0.744 OA
ENDBRANCH  87  88
ENDBRANCH  55  80
BRANCH  67  92
ATOM     92  C   UNL A   1      39.895  33.536  37.581  1.00  0.00     0.058 A 
ATOM     93  C   UNL A   1      40.507  34.770  37.850  1.00  0.00     0.135 A 
ATOM     94  C   UNL A   1      38.924  33.073  38.485  1.00  0.00     0.135 A 
ATOM     95  F   UNL A   1      41.443  35.255  37.020  1.00  0.00    -0.206 F 
ATOM     96  C   UNL A   1      40.182  35.509  38.983  1.00  0.00     0.059 A 
ATOM     97  C   UNL A   1      38.567  33.807  39.612  1.00  0.00     0.059 A 
ATOM     98  F   UNL A   1      38.299  31.905  38.268  1.00  0.00    -0.206 F 
ATOM     99  C   UNL A   1      39.210  35.020  39.858  1.00  0.00     0.060 A 
BRANCH  99 100
ATOM    100  S   UNL A   1      38.769  36.005  41.307  1.00  0.00     0.124 S 
ATOM    101  O   UNL A   1      38.582  37.326  40.718  1.00  0.00    -0.237 OA
ATOM    102  O   UNL A   1      37.557  35.343  41.780  1.00  0.00    -0.237 OA
ATOM    103  O   UNL A   1      39.931  35.864  42.178  1.00  0.00    -0.744 OA
ENDBRANCH  99 100
ENDBRANCH  67  92
ENDBRANCH  41  42
ENDBRANCH  34  36
ENDBRANCH  33  34
ENDBRANCH  32  33
ENDBRANCH  31  32
ENDBRANCH  30  31
ENDBRANCH  29  30
ENDBRANCH  28  29
ENDBRANCH   1  28
TORSDOF 26
ENDMDL
