MODEL 1
REMARK VINA RESULT:     -10.1      0.000      0.000
REMARK SMILES Cc1c(Cl)cc2c(c1C)O[C@H](C(F)(F)F)C(C(=O)OCCOCCOCCOCCOC(=O)c1ccc(-c3c4nc(c(-c5c(F)cc(S(=O)(=O)[O-])cc5F)c5ccc([nH]5)c(-c5c(F)cc(S(=O)(=O)[O-])cc5F)c5nc(c(-c6c(F)cc(S(=O)(=O)[O-])cc6F)c6ccc3[nH]6)C=C5)C=C4)cc1)=C2
REMARK SMILES IDX 26 1 25 2 24 3 23 4 22 5 21 6 20 7 19 8 17 9 18 10 16 11
REMARK SMILES IDX 1 12 2 13 3 14 8 15 4 16 5 17 7 18 9 19 6 20 10 21 100 22
REMARK SMILES IDX 11 23 12 24 13 25 14 26 15 27 27 28 28 29 29 30 30 31 31 32
REMARK SMILES IDX 32 33 33 34 34 35 35 36 99 37 36 38 98 39 37 40 38 41 39 42
REMARK SMILES IDX 92 43 40 44 97 45 91 46 93 47 41 48 96 49 90 50 89 51 42 53
REMARK SMILES IDX 76 54 55 55 75 56 56 57 59 58 74 59 94 60 57 61 58 62 73 64
REMARK SMILES IDX 95 65 60 66 43 67 44 68 53 69 45 70 46 71 52 72 54 73 47 74
REMARK SMILES IDX 48 75 49 76 50 77 51 78 77 79 78 80 87 81 79 82 80 83 86 84
REMARK SMILES IDX 88 85 81 86 82 87 83 88 84 89 85 90 61 91 62 92 71 93 63 94
REMARK SMILES IDX 64 95 70 96 72 97 65 98 66 99 67 100 68 101 69 102
REMARK H PARENT 93 52 59 63
REMARK Flexibility Score: inf
ROOT
ATOM      1  C   UNL A   1      38.507  21.984  25.693  1.00  0.00     0.188 C 
ENDROOT
BRANCH   1   2
ATOM      2  O   UNL A   1      37.677  21.906  24.535  1.00  0.00    -0.377 OA
BRANCH   2   3
ATOM      3  C   UNL A   1      36.278  21.826  24.767  1.00  0.00     0.188 C 
BRANCH   3   4
ATOM      4  C   UNL A   1      35.955  21.611  26.255  1.00  0.00     0.188 C 
BRANCH   4   5
ATOM      5  O   UNL A   1      34.566  21.481  26.516  1.00  0.00    -0.376 OA
BRANCH   5   6
ATOM      6  C   UNL A   1      33.706  20.839  25.586  1.00  0.00     0.202 C 
BRANCH   6   7
ATOM      7  C   UNL A   1      32.407  21.457  25.026  1.00  0.00     0.261 C 
BRANCH   7   8
ATOM      8  O   UNL A   1      32.300  22.884  25.031  1.00  0.00    -0.460 OA
BRANCH   8   9
ATOM      9  C   UNL A   1      32.862  23.570  24.025  1.00  0.00     0.338 C 
ATOM     10  O   UNL A   1      33.293  23.121  22.975  1.00  0.00    -0.246 OA
BRANCH   9  11
ATOM     11  C   UNL A   1      32.703  25.009  24.333  1.00  0.00     0.087 C 
ATOM     12  C   UNL A   1      32.727  30.975  26.948  1.00  0.00     0.046 C 
ATOM     13  C   UNL A   1      33.016  29.614  26.368  1.00  0.00    -0.026 A 
ATOM     14  C   UNL A   1      34.100  28.855  26.854  1.00  0.00     0.045 A 
ATOM     15  C   UNL A   1      32.152  29.021  25.410  1.00  0.00    -0.004 A 
ATOM     16  Cl  UNL A   1      35.198  29.468  28.045  1.00  0.00    -0.084 Cl
ATOM     17  C   UNL A   1      34.316  27.543  26.426  1.00  0.00     0.032 A 
ATOM     18  C   UNL A   1      32.403  27.702  24.969  1.00  0.00     0.131 A 
ATOM     19  C   UNL A   1      30.959  29.744  24.830  1.00  0.00     0.049 C 
ATOM     20  C   UNL A   1      33.446  26.952  25.512  1.00  0.00     0.019 A 
ATOM     21  O   UNL A   1      31.564  27.206  24.008  1.00  0.00    -0.475 OA
ATOM     22  C   UNL A   1      33.580  25.542  25.193  1.00  0.00     0.027 C 
ATOM     23  C   UNL A   1      31.650  25.810  23.612  1.00  0.00     0.316 C 
BRANCH  23  24
ATOM     24  C   UNL A   1      30.248  25.200  23.748  1.00  0.00     0.430 C 
ATOM     25  F   UNL A   1      30.111  24.109  22.955  1.00  0.00    -0.167 F 
ATOM     26  F   UNL A   1      29.984  24.804  25.012  1.00  0.00    -0.167 F 
ATOM     27  F   UNL A   1      29.286  26.082  23.390  1.00  0.00    -0.167 F 
ENDBRANCH  23  24
ENDBRANCH   9  11
ENDBRANCH   8   9
ENDBRANCH   7   8
ENDBRANCH   6   7
ENDBRANCH   5   6
ENDBRANCH   4   5
ENDBRANCH   3   4
ENDBRANCH   2   3
ENDBRANCH   1   2
BRANCH   1  28
ATOM     28  C   UNL A   1      39.448  20.809  26.034  1.00  0.00     0.188 C 
BRANCH  28  29
ATOM     29  O   UNL A   1      40.584  21.198  26.810  1.00  0.00    -0.376 OA
BRANCH  29  30
ATOM     30  C   UNL A   1      41.862  20.930  26.242  1.00  0.00     0.202 C 
BRANCH  30  31
ATOM     31  C   UNL A   1      42.610  22.183  25.764  1.00  0.00     0.261 C 
BRANCH  31  32
ATOM     32  O   UNL A   1      41.896  23.418  25.931  1.00  0.00    -0.460 OA
BRANCH  32  33
ATOM     33  C   UNL A   1      42.603  24.560  25.791  1.00  0.00     0.338 C 
ATOM     34  O   UNL A   1      43.466  24.791  24.964  1.00  0.00    -0.246 OA
BRANCH  33  35
ATOM     35  C   UNL A   1      42.011  25.574  26.684  1.00  0.00     0.060 A 
ATOM     36  C   UNL A   1      42.394  26.913  26.526  1.00  0.00     0.016 A 
ATOM     37  C   UNL A   1      41.112  25.201  27.685  1.00  0.00     0.016 A 
ATOM     38  C   UNL A   1      41.922  27.879  27.412  1.00  0.00     0.010 A 
ATOM     39  C   UNL A   1      40.661  26.164  28.589  1.00  0.00     0.010 A 
ATOM     40  C   UNL A   1      41.105  27.495  28.484  1.00  0.00    -0.014 A 
BRANCH  40  41
ATOM     41  C   UNL A   1      40.951  28.403  29.642  1.00  0.00     0.031 A 
ATOM     42  C   UNL A   1      41.893  28.214  30.801  1.00  0.00     0.074 A 
ATOM     43  C   UNL A   1      40.022  29.373  29.668  1.00  0.00     0.049 A 
ATOM     44  N   UNL A   1      41.913  28.808  31.964  1.00  0.00    -0.248 NA
ATOM     45  C   UNL A   1      42.963  27.217  30.616  1.00  0.00     0.031 C 
ATOM     46  C   UNL A   1      39.101  29.696  28.580  1.00  0.00     0.029 A 
ATOM     47  N   UNL A   1      39.702  30.266  30.659  1.00  0.00    -0.354 N 
ATOM     48  C   UNL A   1      42.991  28.259  32.648  1.00  0.00     0.074 A 
ATOM     49  C   UNL A   1      43.588  27.267  31.783  1.00  0.00     0.031 C 
ATOM     50  C   UNL A   1      38.308  30.712  28.970  1.00  0.00     0.029 A 
ATOM     51  C   UNL A   1      38.642  31.082  30.345  1.00  0.00     0.049 A 
ATOM     52  H   UNL A   1      40.186  30.317  31.515  1.00  0.00     0.167 HD
ATOM     53  C   UNL A   1      43.448  28.560  33.885  1.00  0.00     0.037 A 
ATOM     54  C   UNL A   1      38.005  32.003  31.096  1.00  0.00     0.037 A 
ATOM     55  C   UNL A   1      42.840  29.533  34.750  1.00  0.00     0.049 A 
ATOM     56  C   UNL A   1      38.465  32.244  32.512  1.00  0.00     0.074 A 
ATOM     57  C   UNL A   1      43.209  29.897  36.032  1.00  0.00     0.029 A 
ATOM     58  N   UNL A   1      41.728  30.295  34.420  1.00  0.00    -0.354 N 
ATOM     59  N   UNL A   1      39.469  31.701  33.160  1.00  0.00    -0.248 NA
ATOM     60  C   UNL A   1      37.696  33.216  33.302  1.00  0.00     0.031 C 
ATOM     61  C   UNL A   1      42.294  30.849  36.494  1.00  0.00     0.029 A 
ATOM     62  C   UNL A   1      41.383  31.112  35.483  1.00  0.00     0.049 A 
ATOM     63  H   UNL A   1      41.255  30.258  33.558  1.00  0.00     0.167 HD
ATOM     64  C   UNL A   1      39.459  32.274  34.429  1.00  0.00     0.074 A 
ATOM     65  C   UNL A   1      38.363  33.221  34.448  1.00  0.00     0.031 C 
ATOM     66  C   UNL A   1      40.278  32.036  35.485  1.00  0.00     0.037 A 
BRANCH  53  67
ATOM     67  C   UNL A   1      44.647  27.803  34.378  1.00  0.00     0.058 A 
ATOM     68  C   UNL A   1      45.951  28.288  34.193  1.00  0.00     0.135 A 
ATOM     69  C   UNL A   1      44.491  26.583  35.056  1.00  0.00     0.135 A 
ATOM     70  F   UNL A   1      46.158  29.435  33.524  1.00  0.00    -0.206 F 
ATOM     71  C   UNL A   1      47.060  27.584  34.650  1.00  0.00     0.059 A 
ATOM     72  C   UNL A   1      45.584  25.873  35.542  1.00  0.00     0.059 A 
ATOM     73  F   UNL A   1      43.267  26.068  35.246  1.00  0.00    -0.206 F 
ATOM     74  C   UNL A   1      46.866  26.378  35.325  1.00  0.00     0.060 A 
BRANCH  74  75
ATOM     75  S   UNL A   1      48.316  25.483  35.922  1.00  0.00     0.124 S 
ATOM     76  O   UNL A   1      48.730  26.318  37.047  1.00  0.00    -0.237 OA
ATOM     77  O   UNL A   1      47.755  24.182  36.272  1.00  0.00    -0.237 OA
ATOM     78  O   UNL A   1      49.216  25.487  34.775  1.00  0.00    -0.744 OA
ENDBRANCH  74  75
ENDBRANCH  53  67
BRANCH  54  79
ATOM     79  C   UNL A   1      36.846  32.750  30.538  1.00  0.00     0.058 A 
ATOM     80  C   UNL A   1      35.530  32.359  30.821  1.00  0.00     0.135 A 
ATOM     81  C   UNL A   1      37.031  33.867  29.706  1.00  0.00     0.135 A 
ATOM     82  F   UNL A   1      35.302  31.287  31.596  1.00  0.00    -0.206 F 
ATOM     83  C   UNL A   1      34.437  33.041  30.296  1.00  0.00     0.059 A 
ATOM     84  C   UNL A   1      35.955  34.581  29.189  1.00  0.00     0.059 A 
ATOM     85  F   UNL A   1      38.271  34.284  29.405  1.00  0.00    -0.206 F 
ATOM     86  C   UNL A   1      34.660  34.156  29.485  1.00  0.00     0.060 A 
BRANCH  86  87
ATOM     87  S   UNL A   1      33.232  35.068  28.858  1.00  0.00     0.124 S 
ATOM     88  O   UNL A   1      33.865  36.250  28.286  1.00  0.00    -0.237 OA
ATOM     89  O   UNL A   1      32.664  34.121  27.904  1.00  0.00    -0.237 OA
ATOM     90  O   UNL A   1      32.429  35.297  30.056  1.00  0.00    -0.744 OA
ENDBRANCH  86  87
ENDBRANCH  54  79
BRANCH  66  91
ATOM     91  C   UNL A   1      40.019  32.815  36.745  1.00  0.00     0.058 A 
ATOM     92  C   UNL A   1      38.994  32.452  37.634  1.00  0.00     0.135 A 
ATOM     93  C   UNL A   1      40.825  33.912  37.087  1.00  0.00     0.135 A 
ATOM     94  F   UNL A   1      38.194  31.411  37.353  1.00  0.00    -0.206 F 
ATOM     95  C   UNL A   1      38.755  33.171  38.800  1.00  0.00     0.059 A 
ATOM     96  C   UNL A   1      40.622  34.629  38.262  1.00  0.00     0.059 A 
ATOM     97  F   UNL A   1      41.828  34.291  36.281  1.00  0.00    -0.206 F 
ATOM     98  C   UNL A   1      39.573  34.262  39.103  1.00  0.00     0.060 A 
BRANCH  98  99
ATOM     99  S   UNL A   1      39.253  35.184  40.622  1.00  0.00     0.124 S 
ATOM    100  O   UNL A   1      40.558  35.140  41.272  1.00  0.00    -0.237 OA
ATOM    101  O   UNL A   1      38.841  36.488  40.115  1.00  0.00    -0.237 OA
ATOM    102  O   UNL A   1      38.201  34.410  41.274  1.00  0.00    -0.744 OA
ENDBRANCH  98  99
ENDBRANCH  66  91
ENDBRANCH  40  41
ENDBRANCH  33  35
ENDBRANCH  32  33
ENDBRANCH  31  32
ENDBRANCH  30  31
ENDBRANCH  29  30
ENDBRANCH  28  29
ENDBRANCH   1  28
TORSDOF 24
ENDMDL
MODEL 2
REMARK VINA RESULT:      -9.8      1.923      8.225
REMARK SMILES Cc1c(Cl)cc2c(c1C)O[C@H](C(F)(F)F)C(C(=O)OCCOCCOCCOCCOC(=O)c1ccc(-c3c4nc(c(-c5c(F)cc(S(=O)(=O)[O-])cc5F)c5ccc([nH]5)c(-c5c(F)cc(S(=O)(=O)[O-])cc5F)c5nc(c(-c6c(F)cc(S(=O)(=O)[O-])cc6F)c6ccc3[nH]6)C=C5)C=C4)cc1)=C2
REMARK SMILES IDX 26 1 25 2 24 3 23 4 22 5 21 6 20 7 19 8 17 9 18 10 16 11
REMARK SMILES IDX 1 12 2 13 3 14 8 15 4 16 5 17 7 18 9 19 6 20 10 21 100 22
REMARK SMILES IDX 11 23 12 24 13 25 14 26 15 27 27 28 28 29 29 30 30 31 31 32
REMARK SMILES IDX 32 33 33 34 34 35 35 36 99 37 36 38 98 39 37 40 38 41 39 42
REMARK SMILES IDX 92 43 40 44 97 45 91 46 93 47 41 48 96 49 90 50 89 51 42 53
REMARK SMILES IDX 76 54 55 55 75 56 56 57 59 58 74 59 94 60 57 61 58 62 73 64
REMARK SMILES IDX 95 65 60 66 43 67 44 68 53 69 45 70 46 71 52 72 54 73 47 74
REMARK SMILES IDX 48 75 49 76 50 77 51 78 77 79 78 80 87 81 79 82 80 83 86 84
REMARK SMILES IDX 88 85 81 86 82 87 83 88 84 89 85 90 61 91 62 92 71 93 63 94
REMARK SMILES IDX 64 95 70 96 72 97 65 98 66 99 67 100 68 101 69 102
REMARK H PARENT 93 52 59 63
REMARK Flexibility Score: inf
ROOT
ATOM      1  C   UNL A   1      38.362  23.206  26.249  1.00  0.00     0.188 C 
ENDROOT
BRANCH   1   2
ATOM      2  O   UNL A   1      37.091  22.875  25.691  1.00  0.00    -0.377 OA
BRANCH   2   3
ATOM      3  C   UNL A   1      36.913  21.525  25.287  1.00  0.00     0.188 C 
BRANCH   3   4
ATOM      4  C   UNL A   1      35.501  21.273  24.732  1.00  0.00     0.188 C 
BRANCH   4   5
ATOM      5  O   UNL A   1      34.771  22.464  24.489  1.00  0.00    -0.376 OA
BRANCH   5   6
ATOM      6  C   UNL A   1      34.516  22.908  23.164  1.00  0.00     0.202 C 
BRANCH   6   7
ATOM      7  C   UNL A   1      33.611  24.104  22.802  1.00  0.00     0.261 C 
BRANCH   7   8
ATOM      8  O   UNL A   1      32.223  24.006  23.137  1.00  0.00    -0.460 OA
BRANCH   8   9
ATOM      9  C   UNL A   1      31.856  24.224  24.408  1.00  0.00     0.338 C 
ATOM     10  O   UNL A   1      31.933  23.444  25.343  1.00  0.00    -0.246 OA
BRANCH   9  11
ATOM     11  C   UNL A   1      31.505  25.657  24.524  1.00  0.00     0.087 C 
ATOM     12  C   UNL A   1      29.483  31.784  23.622  1.00  0.00     0.046 C 
ATOM     13  C   UNL A   1      29.670  30.294  23.765  1.00  0.00    -0.026 A 
ATOM     14  C   UNL A   1      28.959  29.410  22.930  1.00  0.00     0.045 A 
ATOM     15  C   UNL A   1      30.636  29.755  24.655  1.00  0.00    -0.004 A 
ATOM     16  Cl  UNL A   1      27.781  29.963  21.787  1.00  0.00    -0.084 Cl
ATOM     17  C   UNL A   1      29.206  28.035  22.953  1.00  0.00     0.032 A 
ATOM     18  C   UNL A   1      30.852  28.358  24.684  1.00  0.00     0.131 A 
ATOM     19  C   UNL A   1      31.457  30.615  25.588  1.00  0.00     0.049 C 
ATOM     20  C   UNL A   1      30.178  27.512  23.802  1.00  0.00     0.019 A 
ATOM     21  O   UNL A   1      31.759  27.896  25.597  1.00  0.00    -0.475 OA
ATOM     22  C   UNL A   1      30.543  26.110  23.709  1.00  0.00     0.027 C 
ATOM     23  C   UNL A   1      32.159  26.499  25.589  1.00  0.00     0.316 C 
BRANCH  23  24
ATOM     24  C   UNL A   1      33.692  26.452  25.519  1.00  0.00     0.430 C 
ATOM     25  F   UNL A   1      34.166  25.272  25.986  1.00  0.00    -0.167 F 
ATOM     26  F   UNL A   1      34.149  26.588  24.255  1.00  0.00    -0.167 F 
ATOM     27  F   UNL A   1      34.252  27.435  26.262  1.00  0.00    -0.167 F 
ENDBRANCH  23  24
ENDBRANCH   9  11
ENDBRANCH   8   9
ENDBRANCH   7   8
ENDBRANCH   6   7
ENDBRANCH   5   6
ENDBRANCH   4   5
ENDBRANCH   3   4
ENDBRANCH   2   3
ENDBRANCH   1   2
BRANCH   1  28
ATOM     28  C   UNL A   1      39.437  22.108  26.395  1.00  0.00     0.188 C 
BRANCH  28  29
ATOM     29  O   UNL A   1      40.338  22.336  27.481  1.00  0.00    -0.376 OA
BRANCH  29  30
ATOM     30  C   UNL A   1      41.668  21.858  27.313  1.00  0.00     0.202 C 
BRANCH  30  31
ATOM     31  C   UNL A   1      42.593  22.827  26.560  1.00  0.00     0.261 C 
BRANCH  31  32
ATOM     32  O   UNL A   1      42.197  24.207  26.612  1.00  0.00    -0.460 OA
BRANCH  32  33
ATOM     33  C   UNL A   1      43.150  25.107  26.938  1.00  0.00     0.338 C 
ATOM     34  O   UNL A   1      44.269  25.193  26.466  1.00  0.00    -0.246 OA
BRANCH  33  35
ATOM     35  C   UNL A   1      42.541  26.114  27.827  1.00  0.00     0.060 A 
ATOM     36  C   UNL A   1      43.152  27.370  27.937  1.00  0.00     0.016 A 
ATOM     37  C   UNL A   1      41.395  25.809  28.565  1.00  0.00     0.016 A 
ATOM     38  C   UNL A   1      42.651  28.309  28.836  1.00  0.00     0.010 A 
ATOM     39  C   UNL A   1      40.911  26.740  29.486  1.00  0.00     0.010 A 
ATOM     40  C   UNL A   1      41.568  27.972  29.658  1.00  0.00    -0.014 A 
BRANCH  40  41
ATOM     41  C   UNL A   1      41.304  28.768  30.877  1.00  0.00     0.031 A 
ATOM     42  C   UNL A   1      40.189  29.778  30.817  1.00  0.00     0.074 A 
ATOM     43  C   UNL A   1      42.011  28.597  32.006  1.00  0.00     0.049 A 
ATOM     44  N   UNL A   1      39.815  30.659  31.705  1.00  0.00    -0.248 NA
ATOM     45  C   UNL A   1      39.385  29.790  29.582  1.00  0.00     0.031 C 
ATOM     46  C   UNL A   1      43.066  27.605  32.206  1.00  0.00     0.029 A 
ATOM     47  N   UNL A   1      41.945  29.266  33.203  1.00  0.00    -0.354 N 
ATOM     48  C   UNL A   1      38.736  31.328  31.139  1.00  0.00     0.074 A 
ATOM     49  C   UNL A   1      38.530  30.772  29.822  1.00  0.00     0.031 C 
ATOM     50  C   UNL A   1      43.557  27.739  33.452  1.00  0.00     0.029 A 
ATOM     51  C   UNL A   1      42.877  28.848  34.120  1.00  0.00     0.049 A 
ATOM     52  H   UNL A   1      41.290  29.978  33.385  1.00  0.00     0.167 HD
ATOM     53  C   UNL A   1      37.980  32.315  31.672  1.00  0.00     0.037 A 
ATOM     54  C   UNL A   1      43.160  29.329  35.348  1.00  0.00     0.037 A 
ATOM     55  C   UNL A   1      38.202  32.880  32.975  1.00  0.00     0.049 A 
ATOM     56  C   UNL A   1      42.375  30.502  35.878  1.00  0.00     0.074 A 
ATOM     57  C   UNL A   1      37.509  33.900  33.602  1.00  0.00     0.029 A 
ATOM     58  N   UNL A   1      39.199  32.474  33.851  1.00  0.00    -0.354 N 
ATOM     59  N   UNL A   1      41.374  31.147  35.325  1.00  0.00    -0.248 NA
ATOM     60  C   UNL A   1      42.767  31.020  37.197  1.00  0.00     0.031 C 
ATOM     61  C   UNL A   1      38.115  34.140  34.840  1.00  0.00     0.029 A 
ATOM     62  C   UNL A   1      39.155  33.238  35.004  1.00  0.00     0.049 A 
ATOM     63  H   UNL A   1      39.842  31.750  33.677  1.00  0.00     0.167 HD
ATOM     64  C   UNL A   1      41.010  32.137  36.232  1.00  0.00     0.074 A 
ATOM     65  C   UNL A   1      41.883  31.992  37.379  1.00  0.00     0.031 C 
ATOM     66  C   UNL A   1      40.045  33.086  36.127  1.00  0.00     0.037 A 
BRANCH  53  67
ATOM     67  C   UNL A   1      36.865  32.860  30.828  1.00  0.00     0.058 A 
ATOM     68  C   UNL A   1      37.102  33.800  29.813  1.00  0.00     0.135 A 
ATOM     69  C   UNL A   1      35.543  32.428  31.028  1.00  0.00     0.135 A 
ATOM     70  F   UNL A   1      38.344  34.268  29.601  1.00  0.00    -0.206 F 
ATOM     71  C   UNL A   1      36.067  34.304  29.033  1.00  0.00     0.059 A 
ATOM     72  C   UNL A   1      34.496  32.902  30.244  1.00  0.00     0.059 A 
ATOM     73  F   UNL A   1      35.261  31.543  31.996  1.00  0.00    -0.206 F 
ATOM     74  C   UNL A   1      34.767  33.847  29.256  1.00  0.00     0.060 A 
BRANCH  74  75
ATOM     75  S   UNL A   1      33.437  34.503  28.226  1.00  0.00     0.124 S 
ATOM     76  O   UNL A   1      32.624  35.207  29.213  1.00  0.00    -0.237 OA
ATOM     77  O   UNL A   1      34.163  35.348  27.283  1.00  0.00    -0.237 OA
ATOM     78  O   UNL A   1      32.829  33.307  27.653  1.00  0.00    -0.744 OA
ENDBRANCH  74  75
ENDBRANCH  53  67
BRANCH  54  79
ATOM     79  C   UNL A   1      44.253  28.721  36.154  1.00  0.00     0.058 A 
ATOM     80  C   UNL A   1      45.573  29.179  36.043  1.00  0.00     0.135 A 
ATOM     81  C   UNL A   1      44.000  27.667  37.047  1.00  0.00     0.135 A 
ATOM     82  F   UNL A   1      45.868  30.172  35.189  1.00  0.00    -0.206 F 
ATOM     83  C   UNL A   1      46.607  28.612  36.782  1.00  0.00     0.059 A 
ATOM     84  C   UNL A   1      45.012  27.100  37.816  1.00  0.00     0.059 A 
ATOM     85  F   UNL A   1      42.753  27.192  37.193  1.00  0.00    -0.206 F 
ATOM     86  C   UNL A   1      46.315  27.576  37.671  1.00  0.00     0.060 A 
BRANCH  86  87
ATOM     87  S   UNL A   1      47.656  26.888  38.667  1.00  0.00     0.124 S 
ATOM     88  O   UNL A   1      48.356  28.095  39.092  1.00  0.00    -0.237 OA
ATOM     89  O   UNL A   1      46.924  26.174  39.708  1.00  0.00    -0.237 OA
ATOM     90  O   UNL A   1      48.375  26.040  37.721  1.00  0.00    -0.744 OA
ENDBRANCH  86  87
ENDBRANCH  54  79
BRANCH  66  91
ATOM     91  C   UNL A   1      39.883  34.035  37.282  1.00  0.00     0.058 A 
ATOM     92  C   UNL A   1      40.593  35.244  37.342  1.00  0.00     0.135 A 
ATOM     93  C   UNL A   1      38.984  33.751  38.322  1.00  0.00     0.135 A 
ATOM     94  F   UNL A   1      41.467  35.564  36.374  1.00  0.00    -0.206 F 
ATOM     95  C   UNL A   1      40.443  36.123  38.410  1.00  0.00     0.059 A 
ATOM     96  C   UNL A   1      38.797  34.627  39.386  1.00  0.00     0.059 A 
ATOM     97  F   UNL A   1      38.268  32.615  38.306  1.00  0.00    -0.206 F 
ATOM     98  C   UNL A   1      39.545  35.803  39.430  1.00  0.00     0.060 A 
BRANCH  98  99
ATOM     99  S   UNL A   1      39.358  36.954  40.808  1.00  0.00     0.124 S 
ATOM    100  O   UNL A   1      38.785  36.091  41.835  1.00  0.00    -0.237 OA
ATOM    101  O   UNL A   1      40.731  37.391  41.040  1.00  0.00    -0.237 OA
ATOM    102  O   UNL A   1      38.462  37.977  40.276  1.00  0.00    -0.744 OA
ENDBRANCH  98  99
ENDBRANCH  66  91
ENDBRANCH  40  41
ENDBRANCH  33  35
ENDBRANCH  32  33
ENDBRANCH  31  32
ENDBRANCH  30  31
ENDBRANCH  29  30
ENDBRANCH  28  29
ENDBRANCH   1  28
TORSDOF 24
ENDMDL
MODEL 3
REMARK VINA RESULT:      -9.6      6.104     11.394
REMARK SMILES Cc1c(Cl)cc2c(c1C)O[C@H](C(F)(F)F)C(C(=O)OCCOCCOCCOCCOC(=O)c1ccc(-c3c4nc(c(-c5c(F)cc(S(=O)(=O)[O-])cc5F)c5ccc([nH]5)c(-c5c(F)cc(S(=O)(=O)[O-])cc5F)c5nc(c(-c6c(F)cc(S(=O)(=O)[O-])cc6F)c6ccc3[nH]6)C=C5)C=C4)cc1)=C2
REMARK SMILES IDX 26 1 25 2 24 3 23 4 22 5 21 6 20 7 19 8 17 9 18 10 16 11
REMARK SMILES IDX 1 12 2 13 3 14 8 15 4 16 5 17 7 18 9 19 6 20 10 21 100 22
REMARK SMILES IDX 11 23 12 24 13 25 14 26 15 27 27 28 28 29 29 30 30 31 31 32
REMARK SMILES IDX 32 33 33 34 34 35 35 36 99 37 36 38 98 39 37 40 38 41 39 42
REMARK SMILES IDX 92 43 40 44 97 45 91 46 93 47 41 48 96 49 90 50 89 51 42 53
REMARK SMILES IDX 76 54 55 55 75 56 56 57 59 58 74 59 94 60 57 61 58 62 73 64
REMARK SMILES IDX 95 65 60 66 43 67 44 68 53 69 45 70 46 71 52 72 54 73 47 74
REMARK SMILES IDX 48 75 49 76 50 77 51 78 77 79 78 80 87 81 79 82 80 83 86 84
REMARK SMILES IDX 88 85 81 86 82 87 83 88 84 89 85 90 61 91 62 92 71 93 63 94
REMARK SMILES IDX 64 95 70 96 72 97 65 98 66 99 67 100 68 101 69 102
REMARK H PARENT 93 52 59 63
REMARK Flexibility Score: inf
ROOT
ATOM      1  C   UNL A   1      32.809  30.046  25.953  1.00  0.00     0.188 C 
ENDROOT
BRANCH   1   2
ATOM      2  O   UNL A   1      31.443  29.670  25.783  1.00  0.00    -0.377 OA
BRANCH   2   3
ATOM      3  C   UNL A   1      30.902  29.839  24.480  1.00  0.00     0.188 C 
BRANCH   3   4
ATOM      4  C   UNL A   1      31.702  29.063  23.420  1.00  0.00     0.188 C 
BRANCH   4   5
ATOM      5  O   UNL A   1      30.884  28.328  22.524  1.00  0.00    -0.376 OA
BRANCH   5   6
ATOM      6  C   UNL A   1      29.675  27.726  22.966  1.00  0.00     0.202 C 
BRANCH   6   7
ATOM      7  C   UNL A   1      29.600  26.483  23.877  1.00  0.00     0.261 C 
BRANCH   7   8
ATOM      8  O   UNL A   1      30.743  26.188  24.686  1.00  0.00    -0.460 OA
BRANCH   8   9
ATOM      9  C   UNL A   1      30.649  25.201  25.589  1.00  0.00     0.338 C 
ATOM     10  O   UNL A   1      29.781  25.054  26.435  1.00  0.00    -0.246 OA
BRANCH   9  11
ATOM     11  C   UNL A   1      31.695  24.206  25.262  1.00  0.00     0.087 C 
ATOM     12  C   UNL A   1      35.525  18.960  24.769  1.00  0.00     0.046 C 
ATOM     13  C   UNL A   1      34.424  19.991  24.793  1.00  0.00    -0.026 A 
ATOM     14  C   UNL A   1      33.114  19.615  25.152  1.00  0.00     0.045 A 
ATOM     15  C   UNL A   1      34.695  21.365  24.565  1.00  0.00    -0.004 A 
ATOM     16  Cl  UNL A   1      32.680  17.971  25.481  1.00  0.00    -0.084 Cl
ATOM     17  C   UNL A   1      32.103  20.568  25.305  1.00  0.00     0.032 A 
ATOM     18  C   UNL A   1      33.653  22.311  24.698  1.00  0.00     0.131 A 
ATOM     19  C   UNL A   1      36.066  21.874  24.182  1.00  0.00     0.049 C 
ATOM     20  C   UNL A   1      32.381  21.920  25.115  1.00  0.00     0.019 A 
ATOM     21  O   UNL A   1      33.967  23.613  24.417  1.00  0.00    -0.475 OA
ATOM     22  C   UNL A   1      31.374  22.917  25.430  1.00  0.00     0.027 C 
ATOM     23  C   UNL A   1      33.004  24.670  24.678  1.00  0.00     0.316 C 
BRANCH  23  24
ATOM     24  C   UNL A   1      33.697  25.727  25.550  1.00  0.00     0.430 C 
ATOM     25  F   UNL A   1      35.014  25.448  25.702  1.00  0.00    -0.167 F 
ATOM     26  F   UNL A   1      33.615  26.964  25.013  1.00  0.00    -0.167 F 
ATOM     27  F   UNL A   1      33.150  25.785  26.787  1.00  0.00    -0.167 F 
ENDBRANCH  23  24
ENDBRANCH   9  11
ENDBRANCH   8   9
ENDBRANCH   7   8
ENDBRANCH   6   7
ENDBRANCH   5   6
ENDBRANCH   4   5
ENDBRANCH   3   4
ENDBRANCH   2   3
ENDBRANCH   1   2
BRANCH   1  28
ATOM     28  C   UNL A   1      33.366  30.257  27.377  1.00  0.00     0.188 C 
BRANCH  28  29
ATOM     29  O   UNL A   1      33.982  31.535  27.562  1.00  0.00    -0.376 OA
BRANCH  29  30
ATOM     30  C   UNL A   1      35.363  31.529  27.911  1.00  0.00     0.202 C 
BRANCH  30  31
ATOM     31  C   UNL A   1      35.654  32.051  29.325  1.00  0.00     0.261 C 
BRANCH  31  32
ATOM     32  O   UNL A   1      36.439  31.173  30.148  1.00  0.00    -0.460 OA
BRANCH  32  33
ATOM     33  C   UNL A   1      37.547  31.693  30.718  1.00  0.00     0.338 C 
ATOM     34  O   UNL A   1      37.594  32.541  31.590  1.00  0.00    -0.246 OA
BRANCH  33  35
ATOM     35  C   UNL A   1      38.708  30.911  30.252  1.00  0.00     0.060 A 
ATOM     36  C   UNL A   1      39.767  30.688  31.142  1.00  0.00     0.016 A 
ATOM     37  C   UNL A   1      38.762  30.430  28.942  1.00  0.00     0.016 A 
ATOM     38  C   UNL A   1      40.916  30.030  30.704  1.00  0.00     0.010 A 
ATOM     39  C   UNL A   1      39.923  29.797  28.496  1.00  0.00     0.010 A 
ATOM     40  C   UNL A   1      41.020  29.641  29.363  1.00  0.00    -0.014 A 
BRANCH  40  41
ATOM     41  C   UNL A   1      42.353  29.341  28.795  1.00  0.00     0.031 A 
ATOM     42  C   UNL A   1      42.617  27.926  28.354  1.00  0.00     0.074 A 
ATOM     43  C   UNL A   1      43.297  30.287  28.654  1.00  0.00     0.049 A 
ATOM     44  N   UNL A   1      43.720  27.382  27.914  1.00  0.00    -0.248 NA
ATOM     45  C   UNL A   1      41.474  26.998  28.420  1.00  0.00     0.031 C 
ATOM     46  C   UNL A   1      43.135  31.703  28.979  1.00  0.00     0.029 A 
ATOM     47  N   UNL A   1      44.588  30.190  28.201  1.00  0.00    -0.354 N 
ATOM     48  C   UNL A   1      43.405  26.054  27.651  1.00  0.00     0.074 A 
ATOM     49  C   UNL A   1      42.017  25.864  28.004  1.00  0.00     0.031 C 
ATOM     50  C   UNL A   1      44.292  32.342  28.724  1.00  0.00     0.029 A 
ATOM     51  C   UNL A   1      45.283  31.374  28.255  1.00  0.00     0.049 A 
ATOM     52  H   UNL A   1      44.980  29.350  27.868  1.00  0.00     0.167 HD
ATOM     53  C   UNL A   1      44.201  25.080  27.152  1.00  0.00     0.037 A 
ATOM     54  C   UNL A   1      46.577  31.632  27.980  1.00  0.00     0.037 A 
ATOM     55  C   UNL A   1      45.587  25.269  26.821  1.00  0.00     0.049 A 
ATOM     56  C   UNL A   1      47.473  30.507  27.529  1.00  0.00     0.074 A 
ATOM     57  C   UNL A   1      46.489  24.341  26.332  1.00  0.00     0.029 A 
ATOM     58  N   UNL A   1      46.272  26.467  26.950  1.00  0.00    -0.354 N 
ATOM     59  N   UNL A   1      47.174  29.247  27.309  1.00  0.00    -0.248 NA
ATOM     60  C   UNL A   1      48.888  30.835  27.301  1.00  0.00     0.031 C 
ATOM     61  C   UNL A   1      47.733  24.970  26.206  1.00  0.00     0.029 A 
ATOM     62  C   UNL A   1      47.593  26.300  26.573  1.00  0.00     0.049 A 
ATOM     63  H   UNL A   1      45.877  27.312  27.266  1.00  0.00     0.167 HD
ATOM     64  C   UNL A   1      48.359  28.638  26.906  1.00  0.00     0.074 A 
ATOM     65  C   UNL A   1      49.373  29.672  26.890  1.00  0.00     0.031 C 
ATOM     66  C   UNL A   1      48.589  27.340  26.581  1.00  0.00     0.037 A 
BRANCH  53  67
ATOM     67  C   UNL A   1      43.590  23.721  26.966  1.00  0.00     0.058 A 
ATOM     68  C   UNL A   1      43.226  23.246  25.697  1.00  0.00     0.135 A 
ATOM     69  C   UNL A   1      43.379  22.878  28.069  1.00  0.00     0.135 A 
ATOM     70  F   UNL A   1      43.379  24.025  24.613  1.00  0.00    -0.206 F 
ATOM     71  C   UNL A   1      42.660  21.987  25.528  1.00  0.00     0.059 A 
ATOM     72  C   UNL A   1      42.836  21.606  27.921  1.00  0.00     0.059 A 
ATOM     73  F   UNL A   1      43.696  23.291  29.306  1.00  0.00    -0.206 F 
ATOM     74  C   UNL A   1      42.470  21.173  26.646  1.00  0.00     0.060 A 
BRANCH  74  75
ATOM     75  S   UNL A   1      41.745  19.537  26.407  1.00  0.00     0.124 S 
ATOM     76  O   UNL A   1      40.320  19.852  26.371  1.00  0.00    -0.237 OA
ATOM     77  O   UNL A   1      42.335  19.120  25.139  1.00  0.00    -0.237 OA
ATOM     78  O   UNL A   1      42.192  18.792  27.578  1.00  0.00    -0.744 OA
ENDBRANCH  74  75
ENDBRANCH  53  67
BRANCH  54  79
ATOM     79  C   UNL A   1      47.115  33.009  28.146  1.00  0.00     0.058 A 
ATOM     80  C   UNL A   1      47.049  33.941  27.101  1.00  0.00     0.135 A 
ATOM     81  C   UNL A   1      47.712  33.419  29.349  1.00  0.00     0.135 A 
ATOM     82  F   UNL A   1      46.505  33.591  25.925  1.00  0.00    -0.206 F 
ATOM     83  C   UNL A   1      47.560  35.228  27.236  1.00  0.00     0.059 A 
ATOM     84  C   UNL A   1      48.208  34.708  29.519  1.00  0.00     0.059 A 
ATOM     85  F   UNL A   1      47.800  32.566  30.382  1.00  0.00    -0.206 F 
ATOM     86  C   UNL A   1      48.133  35.604  28.454  1.00  0.00     0.060 A 
BRANCH  86  87
ATOM     87  S   UNL A   1      48.738  37.296  28.637  1.00  0.00     0.124 S 
ATOM     88  O   UNL A   1      47.517  38.010  28.991  1.00  0.00    -0.237 OA
ATOM     89  O   UNL A   1      49.726  37.151  29.701  1.00  0.00    -0.237 OA
ATOM     90  O   UNL A   1      49.288  37.600  27.319  1.00  0.00    -0.744 OA
ENDBRANCH  86  87
ENDBRANCH  54  79
BRANCH  66  91
ATOM     91  C   UNL A   1      49.991  26.970  26.181  1.00  0.00     0.058 A 
ATOM     92  C   UNL A   1      50.430  27.091  24.852  1.00  0.00     0.135 A 
ATOM     93  C   UNL A   1      50.916  26.524  27.138  1.00  0.00     0.135 A 
ATOM     94  F   UNL A   1      49.585  27.512  23.898  1.00  0.00    -0.206 F 
ATOM     95  C   UNL A   1      51.726  26.749  24.481  1.00  0.00     0.059 A 
ATOM     96  C   UNL A   1      52.225  26.203  26.795  1.00  0.00     0.059 A 
ATOM     97  F   UNL A   1      50.553  26.406  28.425  1.00  0.00    -0.206 F 
ATOM     98  C   UNL A   1      52.616  26.302  25.460  1.00  0.00     0.060 A 
BRANCH  98  99
ATOM     99  S   UNL A   1      54.296  25.865  24.965  1.00  0.00     0.124 S 
ATOM    100  O   UNL A   1      54.282  24.416  25.129  1.00  0.00    -0.237 OA
ATOM    101  O   UNL A   1      54.352  26.348  23.589  1.00  0.00    -0.237 OA
ATOM    102  O   UNL A   1      55.131  26.596  25.914  1.00  0.00    -0.744 OA
ENDBRANCH  98  99
ENDBRANCH  66  91
ENDBRANCH  40  41
ENDBRANCH  33  35
ENDBRANCH  32  33
ENDBRANCH  31  32
ENDBRANCH  30  31
ENDBRANCH  29  30
ENDBRANCH  28  29
ENDBRANCH   1  28
TORSDOF 24
ENDMDL
