MODEL 1
REMARK VINA RESULT:      -9.1      0.000      0.000
REMARK SMILES C[NH+]1CCN(C(=O)c2ccc3c(c2)N(CC(=O)OCCOCCOCCOCCOC(=O)c2ccc(-c4c5nc(c(-c6c(F)cc(S(=O)(=O)[O-])cc6F)c6ccc([nH]6)c(-c6c(F)cc(S(=O)(=O)[O-])cc6F)c6nc(c(-c7c(F)cc(S(=O)(=O)[O-])cc7F)c7ccc4[nH]7)C=C6)C=C5)cc2)C(=O)CO3)CC1
REMARK SMILES IDX 25 1 24 2 23 3 22 4 21 5 20 6 19 7 18 8 16 9 17 10 15 11
REMARK SMILES IDX 14 12 8 13 9 14 13 15 10 16 12 17 11 18 102 19 99 20 101 21
REMARK SMILES IDX 100 22 6 23 1 24 2 25 3 26 104 27 4 29 103 30 5 31 7 32
REMARK SMILES IDX 26 33 27 34 28 35 29 36 30 37 31 38 32 39 33 40 34 41 98 42
REMARK SMILES IDX 35 43 97 44 36 45 37 46 38 47 91 48 39 49 96 50 90 51 92 52
REMARK SMILES IDX 40 53 95 54 89 55 88 56 41 58 75 59 54 60 74 61 55 62 58 63
REMARK SMILES IDX 73 64 93 65 56 66 57 67 72 69 94 70 59 71 42 72 43 73 52 74
REMARK SMILES IDX 44 75 45 76 51 77 53 78 46 79 47 80 48 81 49 82 50 83 76 84
REMARK SMILES IDX 77 85 86 86 78 87 79 88 85 89 87 90 80 91 81 92 82 93 83 94
REMARK SMILES IDX 84 95 60 96 61 97 70 98 62 99 63 100 69 101 71 102 64 103
REMARK SMILES IDX 65 104 66 105 67 106 68 107
REMARK H PARENT 2 28 92 57 58 68
REMARK Flexibility Score: inf
ROOT
ATOM      1  C   UNL A   1      43.353  23.309  29.156  1.00  0.00     0.188 C 
ENDROOT
BRANCH   1   2
ATOM      2  O   UNL A   1      43.240  24.664  29.573  1.00  0.00    -0.377 OA
BRANCH   2   3
ATOM      3  C   UNL A   1      44.242  25.499  29.038  1.00  0.00     0.188 C 
BRANCH   3   4
ATOM      4  C   UNL A   1      45.557  24.747  28.927  1.00  0.00     0.188 C 
BRANCH   4   5
ATOM      5  O   UNL A   1      46.799  25.403  28.966  1.00  0.00    -0.376 OA
BRANCH   5   6
ATOM      6  C   UNL A   1      47.895  24.792  28.308  1.00  0.00     0.202 C 
BRANCH   6   7
ATOM      7  C   UNL A   1      49.292  25.456  28.313  1.00  0.00     0.261 C 
BRANCH   7   8
ATOM      8  O   UNL A   1      49.483  26.532  27.366  1.00  0.00    -0.462 OA
BRANCH   8   9
ATOM      9  C   UNL A   1      49.861  26.239  26.101  1.00  0.00     0.326 C 
ATOM     10  O   UNL A   1      50.901  25.653  25.821  1.00  0.00    -0.250 OA
BRANCH   9  11
ATOM     11  C   UNL A   1      48.826  26.663  25.016  1.00  0.00     0.248 C 
BRANCH  11  12
ATOM     12  N   UNL A   1      47.377  26.822  25.286  1.00  0.00    -0.295 N 
ATOM     13  C   UNL A   1      45.728  23.381  24.896  1.00  0.00     0.042 A 
ATOM     14  C   UNL A   1      44.393  23.739  25.104  1.00  0.00     0.018 A 
ATOM     15  C   UNL A   1      46.712  24.402  24.848  1.00  0.00     0.044 A 
ATOM     16  C   UNL A   1      44.058  25.066  25.367  1.00  0.00     0.049 A 
ATOM     17  C   UNL A   1      46.396  25.763  25.145  1.00  0.00     0.087 A 
ATOM     18  C   UNL A   1      45.046  26.059  25.414  1.00  0.00     0.143 A 
ATOM     19  O   UNL A   1      44.565  27.275  25.805  1.00  0.00    -0.482 OA
ATOM     20  C   UNL A   1      46.968  28.110  25.626  1.00  0.00     0.265 C 
ATOM     21  C   UNL A   1      45.466  28.350  25.709  1.00  0.00     0.330 C 
ATOM     22  O   UNL A   1      47.761  29.039  25.792  1.00  0.00    -0.270 OA
BRANCH  13  23
ATOM     23  C   UNL A   1      45.986  21.933  24.584  1.00  0.00     0.254 C 
ATOM     24  C   UNL A   1      42.912  18.043  26.965  1.00  0.00     0.332 C 
ATOM     25  N   UNL A   1      43.320  18.865  25.830  1.00  0.00    -0.334 N 
ATOM     26  C   UNL A   1      44.718  18.591  25.419  1.00  0.00     0.283 C 
ATOM     27  C   UNL A   1      43.139  20.295  26.140  1.00  0.00     0.283 C 
ATOM     28  H   UNL A   1      42.720  18.619  25.042  1.00  0.00     0.347 HD
ATOM     29  C   UNL A   1      45.277  19.555  24.333  1.00  0.00     0.181 C 
ATOM     30  C   UNL A   1      43.576  21.127  24.934  1.00  0.00     0.181 C 
ATOM     31  N   UNL A   1      44.992  20.954  24.657  1.00  0.00    -0.327 N 
ATOM     32  O   UNL A   1      47.125  21.676  24.196  1.00  0.00    -0.269 OA
ENDBRANCH  13  23
ENDBRANCH  11  12
ENDBRANCH   9  11
ENDBRANCH   8   9
ENDBRANCH   7   8
ENDBRANCH   6   7
ENDBRANCH   5   6
ENDBRANCH   4   5
ENDBRANCH   3   4
ENDBRANCH   2   3
ENDBRANCH   1   2
BRANCH   1  33
ATOM     33  C   UNL A   1      42.420  22.897  28.001  1.00  0.00     0.188 C 
BRANCH  33  34
ATOM     34  O   UNL A   1      41.004  22.803  28.205  1.00  0.00    -0.376 OA
BRANCH  34  35
ATOM     35  C   UNL A   1      40.151  22.227  27.230  1.00  0.00     0.202 C 
BRANCH  35  36
ATOM     36  C   UNL A   1      39.656  23.232  26.195  1.00  0.00     0.261 C 
BRANCH  36  37
ATOM     37  O   UNL A   1      39.411  24.489  26.810  1.00  0.00    -0.460 OA
BRANCH  37  38
ATOM     38  C   UNL A   1      40.280  25.465  26.451  1.00  0.00     0.338 C 
ATOM     39  O   UNL A   1      40.712  25.716  25.337  1.00  0.00    -0.246 OA
BRANCH  38  40
ATOM     40  C   UNL A   1      40.447  26.323  27.630  1.00  0.00     0.060 A 
ATOM     41  C   UNL A   1      39.643  26.079  28.752  1.00  0.00     0.016 A 
ATOM     42  C   UNL A   1      41.466  27.281  27.655  1.00  0.00     0.016 A 
ATOM     43  C   UNL A   1      39.851  26.815  29.911  1.00  0.00     0.010 A 
ATOM     44  C   UNL A   1      41.655  28.036  28.799  1.00  0.00     0.010 A 
ATOM     45  C   UNL A   1      40.816  27.829  29.904  1.00  0.00    -0.014 A 
BRANCH  45  46
ATOM     46  C   UNL A   1      40.713  28.912  30.889  1.00  0.00     0.031 A 
ATOM     47  C   UNL A   1      41.646  28.818  32.061  1.00  0.00     0.074 A 
ATOM     48  C   UNL A   1      39.812  29.895  30.746  1.00  0.00     0.049 A 
ATOM     49  N   UNL A   1      41.685  29.536  33.147  1.00  0.00    -0.248 NA
ATOM     50  C   UNL A   1      42.666  27.750  32.008  1.00  0.00     0.031 C 
ATOM     51  C   UNL A   1      38.908  30.059  29.607  1.00  0.00     0.029 A 
ATOM     52  N   UNL A   1      39.499  30.929  31.582  1.00  0.00    -0.354 N 
ATOM     53  C   UNL A   1      42.729  29.010  33.898  1.00  0.00     0.074 A 
ATOM     54  C   UNL A   1      43.272  27.887  33.174  1.00  0.00     0.031 C 
ATOM     55  C   UNL A   1      38.122  31.129  29.829  1.00  0.00     0.029 A 
ATOM     56  C   UNL A   1      38.444  31.689  31.139  1.00  0.00     0.049 A 
ATOM     57  H   UNL A   1      39.983  31.113  32.420  1.00  0.00     0.167 HD
ATOM     58  C   UNL A   1      43.196  29.443  35.087  1.00  0.00     0.037 A 
ATOM     59  C   UNL A   1      37.804  32.700  31.759  1.00  0.00     0.037 A 
ATOM     60  C   UNL A   1      42.617  30.555  35.784  1.00  0.00     0.049 A 
ATOM     61  C   UNL A   1      38.290  33.110  33.128  1.00  0.00     0.074 A 
ATOM     62  C   UNL A   1      42.975  31.086  37.007  1.00  0.00     0.029 A 
ATOM     63  N   UNL A   1      41.550  31.305  35.309  1.00  0.00    -0.354 N 
ATOM     64  N   UNL A   1      39.278  32.610  33.837  1.00  0.00    -0.248 NA
ATOM     65  C   UNL A   1      37.582  34.216  33.783  1.00  0.00     0.031 C 
ATOM     66  C   UNL A   1      42.092  32.131  37.292  1.00  0.00     0.029 A 
ATOM     67  C   UNL A   1      41.230  32.292  36.217  1.00  0.00     0.049 A 
ATOM     68  H   UNL A   1      41.090  31.154  34.450  1.00  0.00     0.167 HD
ATOM     69  C   UNL A   1      39.344  33.377  34.995  1.00  0.00     0.074 A 
ATOM     70  C   UNL A   1      38.290  34.367  34.895  1.00  0.00     0.031 C 
ATOM     71  C   UNL A   1      40.198  33.284  36.045  1.00  0.00     0.037 A 
BRANCH  58  72
ATOM     72  C   UNL A   1      44.358  28.714  35.693  1.00  0.00     0.058 A 
ATOM     73  C   UNL A   1      45.685  29.079  35.411  1.00  0.00     0.135 A 
ATOM     74  C   UNL A   1      44.147  27.657  36.593  1.00  0.00     0.135 A 
ATOM     75  F   UNL A   1      45.944  30.057  34.528  1.00  0.00    -0.206 F 
ATOM     76  C   UNL A   1      46.761  28.422  35.997  1.00  0.00     0.059 A 
ATOM     77  C   UNL A   1      45.208  27.005  37.214  1.00  0.00     0.059 A 
ATOM     78  F   UNL A   1      42.901  27.252  36.879  1.00  0.00    -0.206 F 
ATOM     79  C   UNL A   1      46.511  27.393  36.907  1.00  0.00     0.060 A 
BRANCH  79  80
ATOM     80  S   UNL A   1      47.919  26.589  37.700  1.00  0.00     0.124 S 
ATOM     81  O   UNL A   1      47.277  25.920  38.827  1.00  0.00    -0.237 OA
ATOM     82  O   UNL A   1      48.411  25.715  36.642  1.00  0.00    -0.237 OA
ATOM     83  O   UNL A   1      48.795  27.703  38.049  1.00  0.00    -0.744 OA
ENDBRANCH  79  80
ENDBRANCH  58  72
BRANCH  59  84
ATOM     84  C   UNL A   1      36.649  33.377  31.112  1.00  0.00     0.058 A 
ATOM     85  C   UNL A   1      35.352  33.245  31.630  1.00  0.00     0.135 A 
ATOM     86  C   UNL A   1      36.809  34.149  29.951  1.00  0.00     0.135 A 
ATOM     87  F   UNL A   1      35.143  32.520  32.739  1.00  0.00    -0.206 F 
ATOM     88  C   UNL A   1      34.252  33.818  31.000  1.00  0.00     0.059 A 
ATOM     89  C   UNL A   1      35.729  34.759  29.319  1.00  0.00     0.059 A 
ATOM     90  F   UNL A   1      38.031  34.325  29.422  1.00  0.00    -0.206 F 
ATOM     91  C   UNL A   1      34.451  34.569  29.840  1.00  0.00     0.060 A 
BRANCH  91  92
ATOM     92  S   UNL A   1      33.015  35.301  29.027  1.00  0.00     0.124 S 
ATOM     93  O   UNL A   1      33.600  36.490  28.417  1.00  0.00    -0.237 OA
ATOM     94  O   UNL A   1      32.612  34.244  28.106  1.00  0.00    -0.237 OA
ATOM     95  O   UNL A   1      32.092  35.549  30.131  1.00  0.00    -0.744 OA
ENDBRANCH  91  92
ENDBRANCH  59  84
BRANCH  71  96
ATOM     96  C   UNL A   1      40.094  34.324  37.122  1.00  0.00     0.058 A 
ATOM     97  C   UNL A   1      40.779  35.543  37.045  1.00  0.00     0.135 A 
ATOM     98  C   UNL A   1      39.194  34.134  38.184  1.00  0.00     0.135 A 
ATOM     99  F   UNL A   1      41.653  35.768  36.050  1.00  0.00    -0.206 F 
ATOM    100  C   UNL A   1      40.581  36.541  37.990  1.00  0.00     0.059 A 
ATOM    101  C   UNL A   1      38.956  35.129  39.122  1.00  0.00     0.059 A 
ATOM    102  F   UNL A   1      38.505  32.986  38.290  1.00  0.00    -0.206 F 
ATOM    103  C   UNL A   1      39.658  36.330  39.018  1.00  0.00     0.060 A 
BRANCH 103 104
ATOM    104  S   UNL A   1      39.349  37.666  40.189  1.00  0.00     0.124 S 
ATOM    105  O   UNL A   1      40.630  38.367  40.178  1.00  0.00    -0.237 OA
ATOM    106  O   UNL A   1      38.234  38.372  39.566  1.00  0.00    -0.237 OA
ATOM    107  O   UNL A   1      39.027  36.967  41.429  1.00  0.00    -0.744 OA
ENDBRANCH 103 104
ENDBRANCH  71  96
ENDBRANCH  45  46
ENDBRANCH  38  40
ENDBRANCH  37  38
ENDBRANCH  36  37
ENDBRANCH  35  36
ENDBRANCH  34  35
ENDBRANCH  33  34
ENDBRANCH   1  33
TORSDOF 25
ENDMDL
MODEL 2
REMARK VINA RESULT:      -8.9      6.474     13.810
REMARK SMILES C[NH+]1CCN(C(=O)c2ccc3c(c2)N(CC(=O)OCCOCCOCCOCCOC(=O)c2ccc(-c4c5nc(c(-c6c(F)cc(S(=O)(=O)[O-])cc6F)c6ccc([nH]6)c(-c6c(F)cc(S(=O)(=O)[O-])cc6F)c6nc(c(-c7c(F)cc(S(=O)(=O)[O-])cc7F)c7ccc4[nH]7)C=C6)C=C5)cc2)C(=O)CO3)CC1
REMARK SMILES IDX 25 1 24 2 23 3 22 4 21 5 20 6 19 7 18 8 16 9 17 10 15 11
REMARK SMILES IDX 14 12 8 13 9 14 13 15 10 16 12 17 11 18 102 19 99 20 101 21
REMARK SMILES IDX 100 22 6 23 1 24 2 25 3 26 104 27 4 29 103 30 5 31 7 32
REMARK SMILES IDX 26 33 27 34 28 35 29 36 30 37 31 38 32 39 33 40 34 41 98 42
REMARK SMILES IDX 35 43 97 44 36 45 37 46 38 47 91 48 39 49 96 50 90 51 92 52
REMARK SMILES IDX 40 53 95 54 89 55 88 56 41 58 75 59 54 60 74 61 55 62 58 63
REMARK SMILES IDX 73 64 93 65 56 66 57 67 72 69 94 70 59 71 42 72 43 73 52 74
REMARK SMILES IDX 44 75 45 76 51 77 53 78 46 79 47 80 48 81 49 82 50 83 76 84
REMARK SMILES IDX 77 85 86 86 78 87 79 88 85 89 87 90 80 91 81 92 82 93 83 94
REMARK SMILES IDX 84 95 60 96 61 97 70 98 62 99 63 100 69 101 71 102 64 103
REMARK SMILES IDX 65 104 66 105 67 106 68 107
REMARK H PARENT 2 28 92 57 58 68
REMARK Flexibility Score: inf
ROOT
ATOM      1  C   UNL A   1      35.032  32.072  27.629  1.00  0.00     0.188 C 
ENDROOT
BRANCH   1   2
ATOM      2  O   UNL A   1      33.795  31.374  27.711  1.00  0.00    -0.377 OA
BRANCH   2   3
ATOM      3  C   UNL A   1      33.804  30.139  27.032  1.00  0.00     0.188 C 
BRANCH   3   4
ATOM      4  C   UNL A   1      32.541  29.354  27.340  1.00  0.00     0.188 C 
BRANCH   4   5
ATOM      5  O   UNL A   1      32.399  27.999  26.992  1.00  0.00    -0.376 OA
BRANCH   5   6
ATOM      6  C   UNL A   1      31.155  27.373  27.252  1.00  0.00     0.202 C 
BRANCH   6   7
ATOM      7  C   UNL A   1      30.663  26.196  26.377  1.00  0.00     0.261 C 
BRANCH   7   8
ATOM      8  O   UNL A   1      30.726  24.886  26.988  1.00  0.00    -0.462 OA
BRANCH   8   9
ATOM      9  C   UNL A   1      31.576  23.963  26.483  1.00  0.00     0.326 C 
ATOM     10  O   UNL A   1      32.607  23.610  27.043  1.00  0.00    -0.250 OA
BRANCH   9  11
ATOM     11  C   UNL A   1      31.102  23.336  25.137  1.00  0.00     0.248 C 
BRANCH  11  12
ATOM     12  N   UNL A   1      31.859  23.453  23.868  1.00  0.00    -0.295 N 
ATOM     13  C   UNL A   1      32.321  27.186  23.118  1.00  0.00     0.042 A 
ATOM     14  C   UNL A   1      32.968  27.096  21.882  1.00  0.00     0.018 A 
ATOM     15  C   UNL A   1      31.856  25.997  23.736  1.00  0.00     0.044 A 
ATOM     16  C   UNL A   1      33.240  25.847  21.326  1.00  0.00     0.049 A 
ATOM     17  C   UNL A   1      32.151  24.707  23.199  1.00  0.00     0.087 A 
ATOM     18  C   UNL A   1      32.864  24.670  21.986  1.00  0.00     0.143 A 
ATOM     19  O   UNL A   1      33.316  23.541  21.368  1.00  0.00    -0.482 OA
ATOM     20  C   UNL A   1      32.234  22.246  23.280  1.00  0.00     0.265 C 
ATOM     21  C   UNL A   1      32.831  22.325  21.880  1.00  0.00     0.330 C 
ATOM     22  O   UNL A   1      32.042  21.154  23.818  1.00  0.00    -0.270 OA
BRANCH  13  23
ATOM     23  C   UNL A   1      32.038  28.575  23.619  1.00  0.00     0.254 C 
ATOM     24  C   UNL A   1      27.404  31.127  22.114  1.00  0.00     0.332 C 
ATOM     25  N   UNL A   1      28.250  30.424  23.075  1.00  0.00    -0.334 N 
ATOM     26  C   UNL A   1      29.474  31.193  23.403  1.00  0.00     0.283 C 
ATOM     27  C   UNL A   1      28.596  29.083  22.571  1.00  0.00     0.283 C 
ATOM     28  H   UNL A   1      27.715  30.326  23.938  1.00  0.00     0.347 HD
ATOM     29  C   UNL A   1      30.506  30.428  24.282  1.00  0.00     0.181 C 
ATOM     30  C   UNL A   1      29.482  28.376  23.598  1.00  0.00     0.181 C 
ATOM     31  N   UNL A   1      30.743  29.074  23.777  1.00  0.00    -0.327 N 
ATOM     32  O   UNL A   1      33.031  29.226  23.945  1.00  0.00    -0.269 OA
ENDBRANCH  13  23
ENDBRANCH  11  12
ENDBRANCH   9  11
ENDBRANCH   8   9
ENDBRANCH   7   8
ENDBRANCH   6   7
ENDBRANCH   5   6
ENDBRANCH   4   5
ENDBRANCH   3   4
ENDBRANCH   2   3
ENDBRANCH   1   2
BRANCH   1  33
ATOM     33  C   UNL A   1      34.976  33.557  28.037  1.00  0.00     0.188 C 
BRANCH  33  34
ATOM     34  O   UNL A   1      33.947  34.035  28.913  1.00  0.00    -0.376 OA
BRANCH  34  35
ATOM     35  C   UNL A   1      34.107  34.020  30.322  1.00  0.00     0.202 C 
BRANCH  35  36
ATOM     36  C   UNL A   1      35.514  33.632  30.764  1.00  0.00     0.261 C 
BRANCH  36  37
ATOM     37  O   UNL A   1      35.651  32.218  30.780  1.00  0.00    -0.460 OA
BRANCH  37  38
ATOM     38  C   UNL A   1      36.381  31.739  31.816  1.00  0.00     0.338 C 
ATOM     39  O   UNL A   1      36.084  31.720  33.001  1.00  0.00    -0.246 OA
BRANCH  38  40
ATOM     40  C   UNL A   1      37.524  31.035  31.225  1.00  0.00     0.060 A 
ATOM     41  C   UNL A   1      38.246  30.140  32.028  1.00  0.00     0.016 A 
ATOM     42  C   UNL A   1      37.802  31.179  29.862  1.00  0.00     0.016 A 
ATOM     43  C   UNL A   1      39.269  29.392  31.465  1.00  0.00     0.010 A 
ATOM     44  C   UNL A   1      38.841  30.455  29.304  1.00  0.00     0.010 A 
ATOM     45  C   UNL A   1      39.597  29.600  30.120  1.00  0.00    -0.014 A 
BRANCH  45  46
ATOM     46  C   UNL A   1      40.936  29.224  29.650  1.00  0.00     0.031 A 
ATOM     47  C   UNL A   1      41.949  30.330  29.614  1.00  0.00     0.074 A 
ATOM     48  C   UNL A   1      41.204  27.971  29.253  1.00  0.00     0.049 A 
ATOM     49  N   UNL A   1      43.152  30.334  29.117  1.00  0.00    -0.248 NA
ATOM     50  C   UNL A   1      41.538  31.621  30.207  1.00  0.00     0.031 C 
ATOM     51  C   UNL A   1      40.270  26.846  29.305  1.00  0.00     0.029 A 
ATOM     52  N   UNL A   1      42.340  27.446  28.706  1.00  0.00    -0.354 N 
ATOM     53  C   UNL A   1      43.637  31.618  29.338  1.00  0.00     0.074 A 
ATOM     54  C   UNL A   1      42.592  32.382  29.972  1.00  0.00     0.031 C 
ATOM     55  C   UNL A   1      40.872  25.760  28.786  1.00  0.00     0.029 A 
ATOM     56  C   UNL A   1      42.210  26.131  28.333  1.00  0.00     0.049 A 
ATOM     57  H   UNL A   1      43.173  27.960  28.592  1.00  0.00     0.167 HD
ATOM     58  C   UNL A   1      44.860  32.104  29.044  1.00  0.00     0.037 A 
ATOM     59  C   UNL A   1      43.078  25.345  27.667  1.00  0.00     0.037 A 
ATOM     60  C   UNL A   1      45.869  31.316  28.397  1.00  0.00     0.049 A 
ATOM     61  C   UNL A   1      44.408  25.939  27.271  1.00  0.00     0.074 A 
ATOM     62  C   UNL A   1      47.143  31.688  28.019  1.00  0.00     0.029 A 
ATOM     63  N   UNL A   1      45.706  29.986  28.033  1.00  0.00    -0.354 N 
ATOM     64  N   UNL A   1      44.865  27.154  27.482  1.00  0.00    -0.248 NA
ATOM     65  C   UNL A   1      45.341  25.065  26.551  1.00  0.00     0.031 C 
ATOM     66  C   UNL A   1      47.736  30.595  27.384  1.00  0.00     0.029 A 
ATOM     67  C   UNL A   1      46.855  29.522  27.426  1.00  0.00     0.049 A 
ATOM     68  H   UNL A   1      44.891  29.454  28.184  1.00  0.00     0.167 HD
ATOM     69  C   UNL A   1      46.158  27.171  26.970  1.00  0.00     0.074 A 
ATOM     70  C   UNL A   1      46.405  25.848  26.431  1.00  0.00     0.031 C 
ATOM     71  C   UNL A   1      47.065  28.179  26.949  1.00  0.00     0.037 A 
BRANCH  58  72
ATOM     72  C   UNL A   1      45.155  33.530  29.404  1.00  0.00     0.058 A 
ATOM     73  C   UNL A   1      45.748  33.872  30.630  1.00  0.00     0.135 A 
ATOM     74  C   UNL A   1      44.870  34.567  28.502  1.00  0.00     0.135 A 
ATOM     75  F   UNL A   1      46.005  32.925  31.546  1.00  0.00    -0.206 F 
ATOM     76  C   UNL A   1      46.048  35.192  30.950  1.00  0.00     0.059 A 
ATOM     77  C   UNL A   1      45.189  35.891  28.789  1.00  0.00     0.059 A 
ATOM     78  F   UNL A   1      44.281  34.298  27.327  1.00  0.00    -0.206 F 
ATOM     79  C   UNL A   1      45.775  36.194  30.017  1.00  0.00     0.060 A 
BRANCH  79  80
ATOM     80  S   UNL A   1      46.222  37.893  30.427  1.00  0.00     0.124 S 
ATOM     81  O   UNL A   1      47.606  37.735  30.863  1.00  0.00    -0.237 OA
ATOM     82  O   UNL A   1      46.035  38.577  29.152  1.00  0.00    -0.237 OA
ATOM     83  O   UNL A   1      45.272  38.252  31.475  1.00  0.00    -0.744 OA
ENDBRANCH  79  80
ENDBRANCH  58  72
BRANCH  59  84
ATOM     84  C   UNL A   1      42.725  23.942  27.327  1.00  0.00     0.058 A 
ATOM     85  C   UNL A   1      42.742  22.935  28.304  1.00  0.00     0.135 A 
ATOM     86  C   UNL A   1      42.387  23.568  26.017  1.00  0.00     0.135 A 
ATOM     87  F   UNL A   1      43.057  23.238  29.573  1.00  0.00    -0.206 F 
ATOM     88  C   UNL A   1      42.478  21.606  27.990  1.00  0.00     0.059 A 
ATOM     89  C   UNL A   1      42.088  22.251  25.683  1.00  0.00     0.059 A 
ATOM     90  F   UNL A   1      42.335  24.493  25.045  1.00  0.00    -0.206 F 
ATOM     91  C   UNL A   1      42.157  21.274  26.673  1.00  0.00     0.060 A 
BRANCH  91  92
ATOM     92  S   UNL A   1      41.824  19.544  26.274  1.00  0.00     0.124 S 
ATOM     93  O   UNL A   1      42.256  18.875  27.496  1.00  0.00    -0.237 OA
ATOM     94  O   UNL A   1      40.386  19.558  26.028  1.00  0.00    -0.237 OA
ATOM     95  O   UNL A   1      42.654  19.304  25.097  1.00  0.00    -0.744 OA
ENDBRANCH  91  92
ENDBRANCH  59  84
BRANCH  71  96
ATOM     96  C   UNL A   1      48.434  27.873  26.413  1.00  0.00     0.058 A 
ATOM     97  C   UNL A   1      49.494  27.506  27.252  1.00  0.00     0.135 A 
ATOM     98  C   UNL A   1      48.641  27.833  25.024  1.00  0.00     0.135 A 
ATOM     99  F   UNL A   1      49.344  27.534  28.586  1.00  0.00    -0.206 F 
ATOM    100  C   UNL A   1      50.721  27.113  26.731  1.00  0.00     0.059 A 
ATOM    101  C   UNL A   1      49.847  27.413  24.481  1.00  0.00     0.059 A 
ATOM    102  F   UNL A   1      47.648  28.163  24.183  1.00  0.00    -0.206 F 
ATOM    103  C   UNL A   1      50.883  27.058  25.344  1.00  0.00     0.060 A 
BRANCH 103 104
ATOM    104  S   UNL A   1      52.453  26.466  24.682  1.00  0.00     0.124 S 
ATOM    105  O   UNL A   1      52.617  25.206  25.401  1.00  0.00    -0.237 OA
ATOM    106  O   UNL A   1      52.164  26.350  23.256  1.00  0.00    -0.237 OA
ATOM    107  O   UNL A   1      53.395  27.521  25.042  1.00  0.00    -0.744 OA
ENDBRANCH 103 104
ENDBRANCH  71  96
ENDBRANCH  45  46
ENDBRANCH  38  40
ENDBRANCH  37  38
ENDBRANCH  36  37
ENDBRANCH  35  36
ENDBRANCH  34  35
ENDBRANCH  33  34
ENDBRANCH   1  33
TORSDOF 25
ENDMDL
MODEL 3
REMARK VINA RESULT:      -8.4      6.357     13.524
REMARK SMILES C[NH+]1CCN(C(=O)c2ccc3c(c2)N(CC(=O)OCCOCCOCCOCCOC(=O)c2ccc(-c4c5nc(c(-c6c(F)cc(S(=O)(=O)[O-])cc6F)c6ccc([nH]6)c(-c6c(F)cc(S(=O)(=O)[O-])cc6F)c6nc(c(-c7c(F)cc(S(=O)(=O)[O-])cc7F)c7ccc4[nH]7)C=C6)C=C5)cc2)C(=O)CO3)CC1
REMARK SMILES IDX 25 1 24 2 23 3 22 4 21 5 20 6 19 7 18 8 16 9 17 10 15 11
REMARK SMILES IDX 14 12 8 13 9 14 13 15 10 16 12 17 11 18 102 19 99 20 101 21
REMARK SMILES IDX 100 22 6 23 1 24 2 25 3 26 104 27 4 29 103 30 5 31 7 32
REMARK SMILES IDX 26 33 27 34 28 35 29 36 30 37 31 38 32 39 33 40 34 41 98 42
REMARK SMILES IDX 35 43 97 44 36 45 37 46 38 47 91 48 39 49 96 50 90 51 92 52
REMARK SMILES IDX 40 53 95 54 89 55 88 56 41 58 75 59 54 60 74 61 55 62 58 63
REMARK SMILES IDX 73 64 93 65 56 66 57 67 72 69 94 70 59 71 42 72 43 73 52 74
REMARK SMILES IDX 44 75 45 76 51 77 53 78 46 79 47 80 48 81 49 82 50 83 76 84
REMARK SMILES IDX 77 85 86 86 78 87 79 88 85 89 87 90 80 91 81 92 82 93 83 94
REMARK SMILES IDX 84 95 60 96 61 97 70 98 62 99 63 100 69 101 71 102 64 103
REMARK SMILES IDX 65 104 66 105 67 106 68 107
REMARK H PARENT 2 28 92 57 58 68
REMARK Flexibility Score: inf
ROOT
ATOM      1  C   UNL A   1      35.244  31.970  27.970  1.00  0.00     0.188 C 
ENDROOT
BRANCH   1   2
ATOM      2  O   UNL A   1      33.986  31.310  27.879  1.00  0.00    -0.377 OA
BRANCH   2   3
ATOM      3  C   UNL A   1      34.061  30.048  27.257  1.00  0.00     0.188 C 
BRANCH   3   4
ATOM      4  C   UNL A   1      32.731  29.322  27.366  1.00  0.00     0.188 C 
BRANCH   4   5
ATOM      5  O   UNL A   1      32.532  28.041  26.823  1.00  0.00    -0.376 OA
BRANCH   5   6
ATOM      6  C   UNL A   1      31.412  27.296  27.270  1.00  0.00     0.202 C 
BRANCH   6   7
ATOM      7  C   UNL A   1      30.796  26.186  26.386  1.00  0.00     0.261 C 
BRANCH   7   8
ATOM      8  O   UNL A   1      30.766  24.862  26.966  1.00  0.00    -0.462 OA
BRANCH   8   9
ATOM      9  C   UNL A   1      31.572  23.901  26.459  1.00  0.00     0.326 C 
ATOM     10  O   UNL A   1      32.576  23.487  27.026  1.00  0.00    -0.250 OA
BRANCH   9  11
ATOM     11  C   UNL A   1      31.081  23.317  25.099  1.00  0.00     0.248 C 
BRANCH  11  12
ATOM     12  N   UNL A   1      31.847  23.432  23.836  1.00  0.00    -0.295 N 
ATOM     13  C   UNL A   1      32.325  27.164  23.089  1.00  0.00     0.042 A 
ATOM     14  C   UNL A   1      32.979  27.072  21.857  1.00  0.00     0.018 A 
ATOM     15  C   UNL A   1      31.852  25.976  23.705  1.00  0.00     0.044 A 
ATOM     16  C   UNL A   1      33.252  25.823  21.302  1.00  0.00     0.049 A 
ATOM     17  C   UNL A   1      32.147  24.685  23.169  1.00  0.00     0.087 A 
ATOM     18  C   UNL A   1      32.868  24.646  21.960  1.00  0.00     0.143 A 
ATOM     19  O   UNL A   1      33.320  23.517  21.344  1.00  0.00    -0.482 OA
ATOM     20  C   UNL A   1      32.222  22.224  23.249  1.00  0.00     0.265 C 
ATOM     21  C   UNL A   1      32.828  22.302  21.854  1.00  0.00     0.330 C 
ATOM     22  O   UNL A   1      32.023  21.133  23.786  1.00  0.00    -0.270 OA
BRANCH  13  23
ATOM     23  C   UNL A   1      32.044  28.554  23.589  1.00  0.00     0.254 C 
ATOM     24  C   UNL A   1      27.391  31.091  22.115  1.00  0.00     0.332 C 
ATOM     25  N   UNL A   1      28.246  30.393  23.071  1.00  0.00    -0.334 N 
ATOM     26  C   UNL A   1      29.472  31.166  23.387  1.00  0.00     0.283 C 
ATOM     27  C   UNL A   1      28.591  29.051  22.569  1.00  0.00     0.283 C 
ATOM     28  H   UNL A   1      27.719  30.296  23.939  1.00  0.00     0.347 HD
ATOM     29  C   UNL A   1      30.512  30.405  24.260  1.00  0.00     0.181 C 
ATOM     30  C   UNL A   1      29.487  28.349  23.590  1.00  0.00     0.181 C 
ATOM     31  N   UNL A   1      30.748  29.050  23.757  1.00  0.00    -0.327 N 
ATOM     32  O   UNL A   1      33.037  29.208  23.904  1.00  0.00    -0.269 OA
ENDBRANCH  13  23
ENDBRANCH  11  12
ENDBRANCH   9  11
ENDBRANCH   8   9
ENDBRANCH   7   8
ENDBRANCH   6   7
ENDBRANCH   5   6
ENDBRANCH   4   5
ENDBRANCH   3   4
ENDBRANCH   2   3
ENDBRANCH   1   2
BRANCH   1  33
ATOM     33  C   UNL A   1      35.176  33.509  28.020  1.00  0.00     0.188 C 
BRANCH  33  34
ATOM     34  O   UNL A   1      33.937  34.176  28.288  1.00  0.00    -0.376 OA
BRANCH  34  35
ATOM     35  C   UNL A   1      33.552  34.524  29.608  1.00  0.00     0.202 C 
BRANCH  35  36
ATOM     36  C   UNL A   1      34.661  34.309  30.634  1.00  0.00     0.261 C 
BRANCH  36  37
ATOM     37  O   UNL A   1      34.545  33.019  31.219  1.00  0.00    -0.460 OA
BRANCH  37  38
ATOM     38  C   UNL A   1      35.023  32.935  32.484  1.00  0.00     0.338 C 
ATOM     39  O   UNL A   1      34.401  33.009  33.531  1.00  0.00    -0.246 OA
BRANCH  38  40
ATOM     40  C   UNL A   1      36.424  32.510  32.367  1.00  0.00     0.060 A 
ATOM     41  C   UNL A   1      37.319  32.878  33.381  1.00  0.00     0.016 A 
ATOM     42  C   UNL A   1      36.811  31.664  31.322  1.00  0.00     0.016 A 
ATOM     43  C   UNL A   1      38.624  32.407  33.341  1.00  0.00     0.010 A 
ATOM     44  C   UNL A   1      38.119  31.218  31.264  1.00  0.00     0.010 A 
ATOM     45  C   UNL A   1      39.029  31.629  32.250  1.00  0.00    -0.014 A 
BRANCH  45  46
ATOM     46  C   UNL A   1      40.458  31.548  31.928  1.00  0.00     0.031 A 
ATOM     47  C   UNL A   1      41.004  32.671  31.095  1.00  0.00     0.074 A 
ATOM     48  C   UNL A   1      41.202  30.510  32.337  1.00  0.00     0.049 A 
ATOM     49  N   UNL A   1      42.175  32.795  30.540  1.00  0.00    -0.248 NA
ATOM     50  C   UNL A   1      40.091  33.804  30.836  1.00  0.00     0.031 C 
ATOM     51  C   UNL A   1      40.735  29.412  33.184  1.00  0.00     0.029 A 
ATOM     52  N   UNL A   1      42.507  30.205  32.072  1.00  0.00    -0.354 N 
ATOM     53  C   UNL A   1      42.138  34.014  29.874  1.00  0.00     0.074 A 
ATOM     54  C   UNL A   1      40.822  34.574  30.051  1.00  0.00     0.031 C 
ATOM     55  C   UNL A   1      41.743  28.536  33.352  1.00  0.00     0.029 A 
ATOM     56  C   UNL A   1      42.902  28.996  32.592  1.00  0.00     0.049 A 
ATOM     57  H   UNL A   1      43.107  30.794  31.561  1.00  0.00     0.167 HD
ATOM     58  C   UNL A   1      43.131  34.613  29.185  1.00  0.00     0.037 A 
ATOM     59  C   UNL A   1      44.066  28.339  32.427  1.00  0.00     0.037 A 
ATOM     60  C   UNL A   1      44.424  34.014  29.017  1.00  0.00     0.049 A 
ATOM     61  C   UNL A   1      45.132  28.989  31.577  1.00  0.00     0.074 A 
ATOM     62  C   UNL A   1      45.515  34.499  28.324  1.00  0.00     0.029 A 
ATOM     63  N   UNL A   1      44.793  32.789  29.556  1.00  0.00    -0.354 N 
ATOM     64  N   UNL A   1      45.094  30.143  30.948  1.00  0.00    -0.248 NA
ATOM     65  C   UNL A   1      46.394  28.259  31.415  1.00  0.00     0.031 C 
ATOM     66  C   UNL A   1      46.530  33.543  28.406  1.00  0.00     0.029 A 
ATOM     67  C   UNL A   1      46.094  32.496  29.206  1.00  0.00     0.049 A 
ATOM     68  H   UNL A   1      44.211  32.215  30.107  1.00  0.00     0.167 HD
ATOM     69  C   UNL A   1      46.345  30.300  30.362  1.00  0.00     0.074 A 
ATOM     70  C   UNL A   1      47.112  29.118  30.705  1.00  0.00     0.031 C 
ATOM     71  C   UNL A   1      46.827  31.324  29.615  1.00  0.00     0.037 A 
BRANCH  58  72
ATOM     72  C   UNL A   1      42.850  35.950  28.566  1.00  0.00     0.058 A 
ATOM     73  C   UNL A   1      43.034  37.145  29.281  1.00  0.00     0.135 A 
ATOM     74  C   UNL A   1      42.422  36.044  27.233  1.00  0.00     0.135 A 
ATOM     75  F   UNL A   1      43.404  37.112  30.571  1.00  0.00    -0.206 F 
ATOM     76  C   UNL A   1      42.802  38.385  28.696  1.00  0.00     0.059 A 
ATOM     77  C   UNL A   1      42.212  37.275  26.618  1.00  0.00     0.059 A 
ATOM     78  F   UNL A   1      42.207  34.932  26.512  1.00  0.00    -0.206 F 
ATOM     79  C   UNL A   1      42.402  38.440  27.360  1.00  0.00     0.060 A 
BRANCH  79  80
ATOM     80  S   UNL A   1      42.159  40.059  26.603  1.00  0.00     0.124 S 
ATOM     81  O   UNL A   1      43.348  40.171  25.762  1.00  0.00    -0.237 OA
ATOM     82  O   UNL A   1      40.897  39.882  25.893  1.00  0.00    -0.237 OA
ATOM     83  O   UNL A   1      42.113  40.966  27.745  1.00  0.00    -0.744 OA
ENDBRANCH  79  80
ENDBRANCH  58  72
BRANCH  59  84
ATOM     84  C   UNL A   1      44.283  27.009  33.055  1.00  0.00     0.058 A 
ATOM     85  C   UNL A   1      44.650  26.898  34.405  1.00  0.00     0.135 A 
ATOM     86  C   UNL A   1      44.152  25.820  32.319  1.00  0.00     0.135 A 
ATOM     87  F   UNL A   1      44.786  28.002  35.155  1.00  0.00    -0.206 F 
ATOM     88  C   UNL A   1      44.919  25.666  34.991  1.00  0.00     0.059 A 
ATOM     89  C   UNL A   1      44.386  24.573  32.890  1.00  0.00     0.059 A 
ATOM     90  F   UNL A   1      43.784  25.865  31.029  1.00  0.00    -0.206 F 
ATOM     91  C   UNL A   1      44.790  24.508  34.222  1.00  0.00     0.060 A 
BRANCH  91  92
ATOM     92  S   UNL A   1      45.150  22.914  34.991  1.00  0.00     0.124 S 
ATOM     93  O   UNL A   1      46.514  22.673  34.536  1.00  0.00    -0.237 OA
ATOM     94  O   UNL A   1      44.993  23.217  36.410  1.00  0.00    -0.237 OA
ATOM     95  O   UNL A   1      44.133  22.031  34.428  1.00  0.00    -0.744 OA
ENDBRANCH  91  92
ENDBRANCH  59  84
BRANCH  71  96
ATOM     96  C   UNL A   1      48.266  31.263  29.195  1.00  0.00     0.058 A 
ATOM     97  C   UNL A   1      49.302  31.702  30.029  1.00  0.00     0.135 A 
ATOM     98  C   UNL A   1      48.609  30.641  27.982  1.00  0.00     0.135 A 
ATOM     99  F   UNL A   1      49.023  32.306  31.195  1.00  0.00    -0.206 F 
ATOM    100  C   UNL A   1      50.634  31.531  29.674  1.00  0.00     0.059 A 
ATOM    101  C   UNL A   1      49.932  30.431  27.622  1.00  0.00     0.059 A 
ATOM    102  F   UNL A   1      47.649  30.193  27.157  1.00  0.00    -0.206 F 
ATOM    103  C   UNL A   1      50.939  30.883  28.474  1.00  0.00     0.060 A 
BRANCH 103 104
ATOM    104  S   UNL A   1      52.672  30.593  28.066  1.00  0.00     0.124 S 
ATOM    105  O   UNL A   1      53.319  31.730  28.714  1.00  0.00    -0.237 OA
ATOM    106  O   UNL A   1      52.920  29.290  28.675  1.00  0.00    -0.237 OA
ATOM    107  O   UNL A   1      52.687  30.610  26.607  1.00  0.00    -0.744 OA
ENDBRANCH 103 104
ENDBRANCH  71  96
ENDBRANCH  45  46
ENDBRANCH  38  40
ENDBRANCH  37  38
ENDBRANCH  36  37
ENDBRANCH  35  36
ENDBRANCH  34  35
ENDBRANCH  33  34
ENDBRANCH   1  33
TORSDOF 25
ENDMDL
