MODEL 1
REMARK VINA RESULT:      -9.1      0.000      0.000
REMARK SMILES CC[C@](C)(NC(=O)N[C@@H]1C[C@@H]1C)C(=O)OCCOCCOCCOCCOC(=O)c1ccc(-c2c3nc(c(-c4c(F)cc(S(=O)(=O)[O-])cc4F)c4ccc([nH]4)c(-c4c(F)cc(S(=O)(=O)[O-])cc4F)c4nc(c(-c5c(F)cc(S(=O)(=O)[O-])cc5F)c5ccc2[nH]5)C=C4)C=C3)cc1
REMARK SMILES IDX 22 1 21 2 20 3 19 4 18 5 17 6 16 7 15 8 13 9 14 10 3 11 4 12
REMARK SMILES IDX 2 13 1 14 5 15 6 16 7 18 8 19 9 21 10 22 11 23 12 24 23 25
REMARK SMILES IDX 24 26 25 27 26 28 27 29 28 30 29 31 30 32 31 33 95 34 32 35
REMARK SMILES IDX 94 36 33 37 34 38 35 39 88 40 36 41 93 42 87 43 89 44 37 45
REMARK SMILES IDX 92 46 86 47 85 48 38 50 72 51 51 52 71 53 52 54 55 55 70 56
REMARK SMILES IDX 90 57 53 58 54 59 69 61 91 62 56 63 39 64 40 65 49 66 41 67
REMARK SMILES IDX 42 68 48 69 50 70 43 71 44 72 45 73 46 74 47 75 73 76 74 77
REMARK SMILES IDX 83 78 75 79 76 80 82 81 84 82 77 83 78 84 79 85 80 86 81 87
REMARK SMILES IDX 57 88 58 89 67 90 59 91 60 92 66 93 68 94 61 95 62 96 63 97
REMARK SMILES IDX 64 98 65 99
REMARK H PARENT 5 17 8 20 89 49 55 60
REMARK Flexibility Score: inf
ROOT
ATOM      1  C   UNL A   1      39.669  21.607  26.657  1.00  0.00     0.188 C 
ENDROOT
BRANCH   1   2
ATOM      2  O   UNL A   1      39.053  21.976  25.448  1.00  0.00    -0.377 OA
BRANCH   2   3
ATOM      3  C   UNL A   1      37.641  22.024  25.433  1.00  0.00     0.188 C 
BRANCH   3   4
ATOM      4  C   UNL A   1      36.861  22.143  24.095  1.00  0.00     0.188 C 
BRANCH   4   5
ATOM      5  O   UNL A   1      35.994  23.251  23.795  1.00  0.00    -0.376 OA
BRANCH   5   6
ATOM      6  C   UNL A   1      35.250  24.272  24.493  1.00  0.00     0.202 C 
BRANCH   6   7
ATOM      7  C   UNL A   1      33.679  24.700  24.108  1.00  0.00     0.261 C 
BRANCH   7   8
ATOM      8  O   UNL A   1      32.930  26.082  24.451  1.00  0.00    -0.462 OA
BRANCH   8   9
ATOM      9  C   UNL A   1      31.929  26.919  24.944  1.00  0.00     0.331 C 
ATOM     10  O   UNL A   1      31.544  26.702  26.102  1.00  0.00    -0.249 OA
BRANCH   9  11
ATOM     11  C   UNL A   1      31.230  28.205  24.155  1.00  0.00     0.136 C 
ATOM     12  C   UNL A   1      31.113  29.684  24.667  1.00  0.00     0.047 C 
BRANCH  11  13
ATOM     13  C   UNL A   1      29.759  27.798  23.782  1.00  0.00     0.037 C 
ATOM     14  C   UNL A   1      28.946  28.771  22.899  1.00  0.00     0.007 C 
ENDBRANCH  11  13
BRANCH  11  15
ATOM     15  N   UNL A   1      32.099  28.329  23.060  1.00  0.00    -0.322 N 
ATOM     16  C   UNL A   1      33.332  28.779  23.316  1.00  0.00     0.315 C 
ATOM     17  H   UNL A   1      31.814  28.097  22.147  1.00  0.00     0.166 HD
ATOM     18  O   UNL A   1      34.122  28.665  22.383  1.00  0.00    -0.249 OA
ATOM     19  N   UNL A   1      33.723  29.176  24.591  1.00  0.00    -0.335 N 
ATOM     20  H   UNL A   1      34.683  29.395  24.538  1.00  0.00     0.165 HD
BRANCH  19  21
ATOM     21  C   UNL A   1      33.307  29.408  25.992  1.00  0.00     0.087 C 
ATOM     22  C   UNL A   1      33.701  30.645  26.771  1.00  0.00     0.030 C 
ATOM     23  C   UNL A   1      34.029  29.320  27.366  1.00  0.00     0.010 C 
ATOM     24  C   UNL A   1      35.451  29.247  27.862  1.00  0.00     0.010 C 
ENDBRANCH  19  21
ENDBRANCH  11  15
ENDBRANCH   9  11
ENDBRANCH   8   9
ENDBRANCH   7   8
ENDBRANCH   6   7
ENDBRANCH   5   6
ENDBRANCH   4   5
ENDBRANCH   3   4
ENDBRANCH   2   3
ENDBRANCH   1   2
BRANCH   1  25
ATOM     25  C   UNL A   1      40.488  20.324  26.531  1.00  0.00     0.188 C 
BRANCH  25  26
ATOM     26  O   UNL A   1      41.816  20.291  27.035  1.00  0.00    -0.376 OA
BRANCH  26  27
ATOM     27  C   UNL A   1      42.899  20.545  26.158  1.00  0.00     0.202 C 
BRANCH  27  28
ATOM     28  C   UNL A   1      43.457  21.979  26.053  1.00  0.00     0.261 C 
BRANCH  28  29
ATOM     29  O   UNL A   1      42.583  23.079  26.355  1.00  0.00    -0.460 OA
BRANCH  29  30
ATOM     30  C   UNL A   1      42.861  24.294  25.808  1.00  0.00     0.338 C 
ATOM     31  O   UNL A   1      43.308  24.514  24.719  1.00  0.00    -0.246 OA
BRANCH  30  32
ATOM     32  C   UNL A   1      42.322  25.337  26.740  1.00  0.00     0.060 A 
ATOM     33  C   UNL A   1      42.721  26.673  26.572  1.00  0.00     0.016 A 
ATOM     34  C   UNL A   1      41.438  25.007  27.769  1.00  0.00     0.016 A 
ATOM     35  C   UNL A   1      42.254  27.673  27.431  1.00  0.00     0.010 A 
ATOM     36  C   UNL A   1      41.016  25.997  28.666  1.00  0.00     0.010 A 
ATOM     37  C   UNL A   1      41.446  27.330  28.519  1.00  0.00    -0.014 A 
BRANCH  37  38
ATOM     38  C   UNL A   1      41.266  28.293  29.637  1.00  0.00     0.031 A 
ATOM     39  C   UNL A   1      42.139  28.118  30.855  1.00  0.00     0.074 A 
ATOM     40  C   UNL A   1      40.361  29.288  29.594  1.00  0.00     0.049 A 
ATOM     41  N   UNL A   1      42.090  28.734  32.006  1.00  0.00    -0.248 NA
ATOM     42  C   UNL A   1      43.208  27.110  30.757  1.00  0.00     0.031 C 
ATOM     43  C   UNL A   1      39.502  29.606  28.455  1.00  0.00     0.029 A 
ATOM     44  N   UNL A   1      40.000  30.205  30.553  1.00  0.00    -0.354 N 
ATOM     45  C   UNL A   1      43.101  28.170  32.776  1.00  0.00     0.074 A 
ATOM     46  C   UNL A   1      43.750  27.167  31.964  1.00  0.00     0.031 C 
ATOM     47  C   UNL A   1      38.684  30.619  28.796  1.00  0.00     0.029 A 
ATOM     48  C   UNL A   1      38.931  30.993  30.189  1.00  0.00     0.049 A 
ATOM     49  H   UNL A   1      40.462  30.290  31.418  1.00  0.00     0.167 HD
ATOM     50  C   UNL A   1      43.447  28.457  34.052  1.00  0.00     0.037 A 
ATOM     51  C   UNL A   1      38.205  31.872  30.914  1.00  0.00     0.037 A 
ATOM     52  C   UNL A   1      42.810  29.466  34.855  1.00  0.00     0.049 A 
ATOM     53  C   UNL A   1      38.565  32.116  32.363  1.00  0.00     0.074 A 
ATOM     54  C   UNL A   1      43.127  29.862  36.142  1.00  0.00     0.029 A 
ATOM     55  N   UNL A   1      41.719  30.223  34.458  1.00  0.00    -0.354 N 
ATOM     56  N   UNL A   1      39.548  31.609  33.068  1.00  0.00    -0.248 NA
ATOM     57  C   UNL A   1      37.707  33.043  33.119  1.00  0.00     0.031 C 
ATOM     58  C   UNL A   1      42.186  30.811  36.549  1.00  0.00     0.029 A 
ATOM     59  C   UNL A   1      41.321  31.050  35.493  1.00  0.00     0.049 A 
ATOM     60  H   UNL A   1      41.292  30.178  33.573  1.00  0.00     0.167 HD
ATOM     61  C   UNL A   1      39.437  32.169  34.339  1.00  0.00     0.074 A 
ATOM     62  C   UNL A   1      38.306  33.069  34.303  1.00  0.00     0.031 C 
ATOM     63  C   UNL A   1      40.199  31.953  35.440  1.00  0.00     0.037 A 
BRANCH  50  64
ATOM     64  C   UNL A   1      44.539  27.646  34.689  1.00  0.00     0.058 A 
ATOM     65  C   UNL A   1      44.293  26.397  35.276  1.00  0.00     0.135 A 
ATOM     66  C   UNL A   1      45.869  28.093  34.625  1.00  0.00     0.135 A 
ATOM     67  F   UNL A   1      43.038  25.935  35.384  1.00  0.00    -0.206 F 
ATOM     68  C   UNL A   1      45.331  25.616  35.777  1.00  0.00     0.059 A 
ATOM     69  C   UNL A   1      46.924  27.318  35.095  1.00  0.00     0.059 A 
ATOM     70  F   UNL A   1      46.155  29.287  34.080  1.00  0.00    -0.206 F 
ATOM     71  C   UNL A   1      46.644  26.080  35.670  1.00  0.00     0.060 A 
BRANCH  71  72
ATOM     72  S   UNL A   1      47.983  25.027  36.267  1.00  0.00     0.124 S 
ATOM     73  O   UNL A   1      49.081  25.982  36.374  1.00  0.00    -0.237 OA
ATOM     74  O   UNL A   1      47.447  24.534  37.532  1.00  0.00    -0.237 OA
ATOM     75  O   UNL A   1      48.124  24.025  35.215  1.00  0.00    -0.744 OA
ENDBRANCH  71  72
ENDBRANCH  50  64
BRANCH  51  76
ATOM     76  C   UNL A   1      37.010  32.539  30.320  1.00  0.00     0.058 A 
ATOM     77  C   UNL A   1      37.114  33.764  29.645  1.00  0.00     0.135 A 
ATOM     78  C   UNL A   1      35.726  31.991  30.477  1.00  0.00     0.135 A 
ATOM     79  F   UNL A   1      38.316  34.341  29.484  1.00  0.00    -0.206 F 
ATOM     80  C   UNL A   1      35.990  34.437  29.175  1.00  0.00     0.059 A 
ATOM     81  C   UNL A   1      34.590  32.629  29.987  1.00  0.00     0.059 A 
ATOM     82  F   UNL A   1      35.567  30.819  31.113  1.00  0.00    -0.206 F 
ATOM     83  C   UNL A   1      34.731  33.862  29.354  1.00  0.00     0.060 A 
BRANCH  83  84
ATOM     84  S   UNL A   1      33.278  34.742  28.741  1.00  0.00     0.124 S 
ATOM     85  O   UNL A   1      33.888  35.884  28.070  1.00  0.00    -0.237 OA
ATOM     86  O   UNL A   1      32.661  33.745  27.871  1.00  0.00    -0.237 OA
ATOM     87  O   UNL A   1      32.533  35.049  29.958  1.00  0.00    -0.744 OA
ENDBRANCH  83  84
ENDBRANCH  51  76
BRANCH  63  88
ATOM     88  C   UNL A   1      39.862  32.713  36.694  1.00  0.00     0.058 A 
ATOM     89  C   UNL A   1      38.812  32.315  37.536  1.00  0.00     0.135 A 
ATOM     90  C   UNL A   1      40.656  33.796  37.106  1.00  0.00     0.135 A 
ATOM     91  F   UNL A   1      38.019  31.290  37.188  1.00  0.00    -0.206 F 
ATOM     92  C   UNL A   1      38.554  32.972  38.736  1.00  0.00     0.059 A 
ATOM     93  C   UNL A   1      40.434  34.449  38.316  1.00  0.00     0.059 A 
ATOM     94  F   UNL A   1      41.682  34.211  36.345  1.00  0.00    -0.206 F 
ATOM     95  C   UNL A   1      39.376  34.032  39.121  1.00  0.00     0.060 A 
BRANCH  95  96
ATOM     96  S   UNL A   1      39.065  34.836  40.709  1.00  0.00     0.124 S 
ATOM     97  O   UNL A   1      38.669  36.175  40.289  1.00  0.00    -0.237 OA
ATOM     98  O   UNL A   1      38.003  34.009  41.274  1.00  0.00    -0.237 OA
ATOM     99  O   UNL A   1      40.351  34.747  41.394  1.00  0.00    -0.744 OA
ENDBRANCH  95  96
ENDBRANCH  63  88
ENDBRANCH  37  38
ENDBRANCH  30  32
ENDBRANCH  29  30
ENDBRANCH  28  29
ENDBRANCH  27  28
ENDBRANCH  26  27
ENDBRANCH  25  26
ENDBRANCH   1  25
TORSDOF 26
ENDMDL
MODEL 2
REMARK VINA RESULT:      -8.8      6.076     11.529
REMARK SMILES CC[C@](C)(NC(=O)N[C@@H]1C[C@@H]1C)C(=O)OCCOCCOCCOCCOC(=O)c1ccc(-c2c3nc(c(-c4c(F)cc(S(=O)(=O)[O-])cc4F)c4ccc([nH]4)c(-c4c(F)cc(S(=O)(=O)[O-])cc4F)c4nc(c(-c5c(F)cc(S(=O)(=O)[O-])cc5F)c5ccc2[nH]5)C=C4)C=C3)cc1
REMARK SMILES IDX 22 1 21 2 20 3 19 4 18 5 17 6 16 7 15 8 13 9 14 10 3 11 4 12
REMARK SMILES IDX 2 13 1 14 5 15 6 16 7 18 8 19 9 21 10 22 11 23 12 24 23 25
REMARK SMILES IDX 24 26 25 27 26 28 27 29 28 30 29 31 30 32 31 33 95 34 32 35
REMARK SMILES IDX 94 36 33 37 34 38 35 39 88 40 36 41 93 42 87 43 89 44 37 45
REMARK SMILES IDX 92 46 86 47 85 48 38 50 72 51 51 52 71 53 52 54 55 55 70 56
REMARK SMILES IDX 90 57 53 58 54 59 69 61 91 62 56 63 39 64 40 65 49 66 41 67
REMARK SMILES IDX 42 68 48 69 50 70 43 71 44 72 45 73 46 74 47 75 73 76 74 77
REMARK SMILES IDX 83 78 75 79 76 80 82 81 84 82 77 83 78 84 79 85 80 86 81 87
REMARK SMILES IDX 57 88 58 89 67 90 59 91 60 92 66 93 68 94 61 95 62 96 63 97
REMARK SMILES IDX 64 98 65 99
REMARK H PARENT 5 17 8 20 89 49 55 60
REMARK Flexibility Score: inf
ROOT
ATOM      1  C   UNL A   1      33.508  31.568  27.603  1.00  0.00     0.188 C 
ENDROOT
BRANCH   1   2
ATOM      2  O   UNL A   1      32.691  30.425  27.578  1.00  0.00    -0.377 OA
BRANCH   2   3
ATOM      3  C   UNL A   1      31.897  30.225  26.426  1.00  0.00     0.188 C 
BRANCH   3   4
ATOM      4  C   UNL A   1      32.526  29.705  25.104  1.00  0.00     0.188 C 
BRANCH   4   5
ATOM      5  O   UNL A   1      32.572  28.309  24.761  1.00  0.00    -0.376 OA
BRANCH   5   6
ATOM      6  C   UNL A   1      33.549  27.301  24.425  1.00  0.00     0.202 C 
BRANCH   6   7
ATOM      7  C   UNL A   1      34.017  26.080  25.470  1.00  0.00     0.261 C 
BRANCH   7   8
ATOM      8  O   UNL A   1      33.329  24.639  25.660  1.00  0.00    -0.462 OA
BRANCH   8   9
ATOM      9  C   UNL A   1      32.580  23.511  25.320  1.00  0.00     0.331 C 
ATOM     10  O   UNL A   1      32.092  22.866  26.259  1.00  0.00    -0.249 OA
BRANCH   9  11
ATOM     11  C   UNL A   1      32.239  22.970  23.786  1.00  0.00     0.136 C 
ATOM     12  C   UNL A   1      33.185  23.000  22.535  1.00  0.00     0.047 C 
BRANCH  11  13
ATOM     13  C   UNL A   1      30.925  23.685  23.305  1.00  0.00     0.037 C 
ATOM     14  C   UNL A   1      30.489  24.966  24.049  1.00  0.00     0.007 C 
ENDBRANCH  11  13
BRANCH  11  15
ATOM     15  N   UNL A   1      32.101  21.594  24.031  1.00  0.00    -0.322 N 
ATOM     16  C   UNL A   1      33.216  20.921  24.332  1.00  0.00     0.315 C 
ATOM     17  H   UNL A   1      31.226  21.147  23.983  1.00  0.00     0.166 HD
ATOM     18  O   UNL A   1      33.029  19.782  24.751  1.00  0.00    -0.249 OA
ATOM     19  N   UNL A   1      34.468  21.527  24.333  1.00  0.00    -0.335 N 
ATOM     20  H   UNL A   1      35.111  20.852  24.652  1.00  0.00     0.165 HD
BRANCH  19  21
ATOM     21  C   UNL A   1      35.241  22.759  24.060  1.00  0.00     0.087 C 
ATOM     22  C   UNL A   1      36.624  22.741  23.444  1.00  0.00     0.030 C 
ATOM     23  C   UNL A   1      36.456  23.451  24.742  1.00  0.00     0.010 C 
ATOM     24  C   UNL A   1      37.516  23.078  25.745  1.00  0.00     0.010 C 
ENDBRANCH  19  21
ENDBRANCH  11  15
ENDBRANCH   9  11
ENDBRANCH   8   9
ENDBRANCH   7   8
ENDBRANCH   6   7
ENDBRANCH   5   6
ENDBRANCH   4   5
ENDBRANCH   3   4
ENDBRANCH   2   3
ENDBRANCH   1   2
BRANCH   1  25
ATOM     25  C   UNL A   1      34.995  31.227  27.674  1.00  0.00     0.188 C 
BRANCH  25  26
ATOM     26  O   UNL A   1      35.942  32.266  27.869  1.00  0.00    -0.376 OA
BRANCH  26  27
ATOM     27  C   UNL A   1      35.658  33.299  28.798  1.00  0.00     0.202 C 
BRANCH  27  28
ATOM     28  C   UNL A   1      35.877  33.034  30.302  1.00  0.00     0.261 C 
BRANCH  28  29
ATOM     29  O   UNL A   1      37.168  32.573  30.737  1.00  0.00    -0.460 OA
BRANCH  29  30
ATOM     30  C   UNL A   1      37.264  31.319  31.256  1.00  0.00     0.338 C 
ATOM     31  O   UNL A   1      36.482  30.771  31.979  1.00  0.00    -0.246 OA
BRANCH  30  32
ATOM     32  C   UNL A   1      38.440  30.656  30.605  1.00  0.00     0.060 A 
ATOM     33  C   UNL A   1      39.518  30.242  31.404  1.00  0.00     0.016 A 
ATOM     34  C   UNL A   1      38.485  30.444  29.225  1.00  0.00     0.016 A 
ATOM     35  C   UNL A   1      40.640  29.633  30.833  1.00  0.00     0.010 A 
ATOM     36  C   UNL A   1      39.633  29.890  28.645  1.00  0.00     0.010 A 
ATOM     37  C   UNL A   1      40.729  29.509  29.443  1.00  0.00    -0.014 A 
BRANCH  37  38
ATOM     38  C   UNL A   1      42.044  29.233  28.809  1.00  0.00     0.031 A 
ATOM     39  C   UNL A   1      42.302  27.828  28.322  1.00  0.00     0.074 A 
ATOM     40  C   UNL A   1      42.990  30.179  28.667  1.00  0.00     0.049 A 
ATOM     41  N   UNL A   1      43.403  27.299  27.859  1.00  0.00    -0.248 NA
ATOM     42  C   UNL A   1      41.161  26.897  28.369  1.00  0.00     0.031 C 
ATOM     43  C   UNL A   1      42.846  31.586  29.034  1.00  0.00     0.029 A 
ATOM     44  N   UNL A   1      44.278  30.086  28.192  1.00  0.00    -0.354 N 
ATOM     45  C   UNL A   1      43.096  25.971  27.586  1.00  0.00     0.074 A 
ATOM     46  C   UNL A   1      41.706  25.773  27.930  1.00  0.00     0.031 C 
ATOM     47  C   UNL A   1      44.014  32.217  28.809  1.00  0.00     0.029 A 
ATOM     48  C   UNL A   1      45.000  31.251  28.324  1.00  0.00     0.049 A 
ATOM     49  H   UNL A   1      44.648  29.265  27.795  1.00  0.00     0.167 HD
ATOM     50  C   UNL A   1      43.905  25.001  27.103  1.00  0.00     0.037 A 
ATOM     51  C   UNL A   1      46.314  31.492  28.126  1.00  0.00     0.037 A 
ATOM     52  C   UNL A   1      45.284  25.203  26.747  1.00  0.00     0.049 A 
ATOM     53  C   UNL A   1      47.215  30.369  27.661  1.00  0.00     0.074 A 
ATOM     54  C   UNL A   1      46.169  24.290  26.202  1.00  0.00     0.029 A 
ATOM     55  N   UNL A   1      45.981  26.388  26.918  1.00  0.00    -0.354 N 
ATOM     56  N   UNL A   1      46.905  29.129  27.366  1.00  0.00    -0.248 NA
ATOM     57  C   UNL A   1      48.647  30.675  27.514  1.00  0.00     0.031 C 
ATOM     58  C   UNL A   1      47.421  24.904  26.104  1.00  0.00     0.029 A 
ATOM     59  C   UNL A   1      47.299  26.216  26.532  1.00  0.00     0.049 A 
ATOM     60  H   UNL A   1      45.597  27.226  27.262  1.00  0.00     0.167 HD
ATOM     61  C   UNL A   1      48.096  28.517  26.982  1.00  0.00     0.074 A 
ATOM     62  C   UNL A   1      49.129  29.526  27.061  1.00  0.00     0.031 C 
ATOM     63  C   UNL A   1      48.317  27.233  26.604  1.00  0.00     0.037 A 
BRANCH  50  64
ATOM     64  C   UNL A   1      43.345  23.614  26.965  1.00  0.00     0.058 A 
ATOM     65  C   UNL A   1      43.214  22.751  28.062  1.00  0.00     0.135 A 
ATOM     66  C   UNL A   1      42.848  23.182  25.724  1.00  0.00     0.135 A 
ATOM     67  F   UNL A   1      43.694  23.106  29.264  1.00  0.00    -0.206 F 
ATOM     68  C   UNL A   1      42.605  21.506  27.934  1.00  0.00     0.059 A 
ATOM     69  C   UNL A   1      42.213  21.954  25.579  1.00  0.00     0.059 A 
ATOM     70  F   UNL A   1      42.959  23.969  24.641  1.00  0.00    -0.206 F 
ATOM     71  C   UNL A   1      42.097  21.122  26.691  1.00  0.00     0.060 A 
BRANCH  71  72
ATOM     72  S   UNL A   1      41.256  19.531  26.557  1.00  0.00     0.124 S 
ATOM     73  O   UNL A   1      42.297  18.697  25.967  1.00  0.00    -0.237 OA
ATOM     74  O   UNL A   1      40.924  19.238  27.949  1.00  0.00    -0.237 OA
ATOM     75  O   UNL A   1      40.116  19.819  25.691  1.00  0.00    -0.744 OA
ENDBRANCH  71  72
ENDBRANCH  50  64
BRANCH  51  76
ATOM     76  C   UNL A   1      46.894  32.830  28.439  1.00  0.00     0.058 A 
ATOM     77  C   UNL A   1      47.354  33.148  29.726  1.00  0.00     0.135 A 
ATOM     78  C   UNL A   1      46.937  33.844  27.467  1.00  0.00     0.135 A 
ATOM     79  F   UNL A   1      47.318  32.222  30.698  1.00  0.00    -0.206 F 
ATOM     80  C   UNL A   1      47.805  34.425  30.047  1.00  0.00     0.059 A 
ATOM     81  C   UNL A   1      47.414  35.119  27.755  1.00  0.00     0.059 A 
ATOM     82  F   UNL A   1      46.512  33.596  26.218  1.00  0.00    -0.206 F 
ATOM     83  C   UNL A   1      47.828  35.406  29.054  1.00  0.00     0.060 A 
BRANCH  83  84
ATOM     84  S   UNL A   1      48.414  37.060  29.479  1.00  0.00     0.124 S 
ATOM     85  O   UNL A   1      48.386  37.723  28.181  1.00  0.00    -0.237 OA
ATOM     86  O   UNL A   1      47.411  37.502  30.443  1.00  0.00    -0.237 OA
ATOM     87  O   UNL A   1      49.742  36.814  30.033  1.00  0.00    -0.744 OA
ENDBRANCH  83  84
ENDBRANCH  51  76
BRANCH  63  88
ATOM     88  C   UNL A   1      49.718  26.839  26.221  1.00  0.00     0.058 A 
ATOM     89  C   UNL A   1      50.599  26.262  27.148  1.00  0.00     0.135 A 
ATOM     90  C   UNL A   1      50.153  26.956  24.890  1.00  0.00     0.135 A 
ATOM     91  F   UNL A   1      50.237  26.132  28.434  1.00  0.00    -0.206 F 
ATOM     92  C   UNL A   1      51.867  25.825  26.772  1.00  0.00     0.059 A 
ATOM     93  C   UNL A   1      51.405  26.498  24.486  1.00  0.00     0.059 A 
ATOM     94  F   UNL A   1      49.346  27.489  23.959  1.00  0.00    -0.206 F 
ATOM     95  C   UNL A   1      52.257  25.940  25.437  1.00  0.00     0.060 A 
BRANCH  95  96
ATOM     96  S   UNL A   1      53.880  25.314  24.953  1.00  0.00     0.124 S 
ATOM     97  O   UNL A   1      53.609  23.891  24.782  1.00  0.00    -0.237 OA
ATOM     98  O   UNL A   1      54.149  26.060  23.727  1.00  0.00    -0.237 OA
ATOM     99  O   UNL A   1      54.731  25.659  26.088  1.00  0.00    -0.744 OA
ENDBRANCH  95  96
ENDBRANCH  63  88
ENDBRANCH  37  38
ENDBRANCH  30  32
ENDBRANCH  29  30
ENDBRANCH  28  29
ENDBRANCH  27  28
ENDBRANCH  26  27
ENDBRANCH  25  26
ENDBRANCH   1  25
TORSDOF 26
ENDMDL
MODEL 3
REMARK VINA RESULT:      -8.7      1.661      2.906
REMARK SMILES CC[C@](C)(NC(=O)N[C@@H]1C[C@@H]1C)C(=O)OCCOCCOCCOCCOC(=O)c1ccc(-c2c3nc(c(-c4c(F)cc(S(=O)(=O)[O-])cc4F)c4ccc([nH]4)c(-c4c(F)cc(S(=O)(=O)[O-])cc4F)c4nc(c(-c5c(F)cc(S(=O)(=O)[O-])cc5F)c5ccc2[nH]5)C=C4)C=C3)cc1
REMARK SMILES IDX 22 1 21 2 20 3 19 4 18 5 17 6 16 7 15 8 13 9 14 10 3 11 4 12
REMARK SMILES IDX 2 13 1 14 5 15 6 16 7 18 8 19 9 21 10 22 11 23 12 24 23 25
REMARK SMILES IDX 24 26 25 27 26 28 27 29 28 30 29 31 30 32 31 33 95 34 32 35
REMARK SMILES IDX 94 36 33 37 34 38 35 39 88 40 36 41 93 42 87 43 89 44 37 45
REMARK SMILES IDX 92 46 86 47 85 48 38 50 72 51 51 52 71 53 52 54 55 55 70 56
REMARK SMILES IDX 90 57 53 58 54 59 69 61 91 62 56 63 39 64 40 65 49 66 41 67
REMARK SMILES IDX 42 68 48 69 50 70 43 71 44 72 45 73 46 74 47 75 73 76 74 77
REMARK SMILES IDX 83 78 75 79 76 80 82 81 84 82 77 83 78 84 79 85 80 86 81 87
REMARK SMILES IDX 57 88 58 89 67 90 59 91 60 92 66 93 68 94 61 95 62 96 63 97
REMARK SMILES IDX 64 98 65 99
REMARK H PARENT 5 17 8 20 89 49 55 60
REMARK Flexibility Score: inf
ROOT
ATOM      1  C   UNL A   1      35.695  21.149  25.556  1.00  0.00     0.188 C 
ENDROOT
BRANCH   1   2
ATOM      2  O   UNL A   1      34.978  20.141  24.889  1.00  0.00    -0.377 OA
BRANCH   2   3
ATOM      3  C   UNL A   1      33.580  20.314  24.771  1.00  0.00     0.188 C 
BRANCH   3   4
ATOM      4  C   UNL A   1      32.947  21.732  24.804  1.00  0.00     0.188 C 
BRANCH   4   5
ATOM      5  O   UNL A   1      31.542  21.953  25.019  1.00  0.00    -0.376 OA
BRANCH   5   6
ATOM      6  C   UNL A   1      30.647  22.303  26.095  1.00  0.00     0.202 C 
BRANCH   6   7
ATOM      7  C   UNL A   1      30.323  23.880  26.554  1.00  0.00     0.261 C 
BRANCH   7   8
ATOM      8  O   UNL A   1      31.258  25.171  26.341  1.00  0.00    -0.462 OA
BRANCH   8   9
ATOM      9  C   UNL A   1      31.661  26.504  26.441  1.00  0.00     0.331 C 
ATOM     10  O   UNL A   1      31.012  27.223  27.213  1.00  0.00    -0.249 OA
BRANCH   9  11
ATOM     11  C   UNL A   1      32.948  27.214  25.664  1.00  0.00     0.136 C 
ATOM     12  C   UNL A   1      33.062  27.562  24.138  1.00  0.00     0.047 C 
BRANCH  11  13
ATOM     13  C   UNL A   1      34.228  26.355  25.970  1.00  0.00     0.037 C 
ATOM     14  C   UNL A   1      34.546  25.175  25.027  1.00  0.00     0.007 C 
ENDBRANCH  11  13
BRANCH  11  15
ATOM     15  N   UNL A   1      32.935  28.482  26.265  1.00  0.00    -0.322 N 
ATOM     16  C   UNL A   1      32.012  29.346  25.831  1.00  0.00     0.315 C 
ATOM     17  H   UNL A   1      33.574  28.723  26.973  1.00  0.00     0.166 HD
ATOM     18  O   UNL A   1      31.888  30.353  26.523  1.00  0.00    -0.249 OA
ATOM     19  N   UNL A   1      31.149  29.041  24.783  1.00  0.00    -0.335 N 
ATOM     20  H   UNL A   1      30.525  29.799  24.699  1.00  0.00     0.165 HD
BRANCH  19  21
ATOM     21  C   UNL A   1      30.773  28.058  23.743  1.00  0.00     0.087 C 
ATOM     22  C   UNL A   1      29.946  28.424  22.528  1.00  0.00     0.030 C 
ATOM     23  C   UNL A   1      29.458  27.308  23.386  1.00  0.00     0.010 C 
ATOM     24  C   UNL A   1      27.993  27.434  23.715  1.00  0.00     0.010 C 
ENDBRANCH  19  21
ENDBRANCH  11  15
ENDBRANCH   9  11
ENDBRANCH   8   9
ENDBRANCH   7   8
ENDBRANCH   6   7
ENDBRANCH   5   6
ENDBRANCH   4   5
ENDBRANCH   3   4
ENDBRANCH   2   3
ENDBRANCH   1   2
BRANCH   1  25
ATOM     25  C   UNL A   1      37.002  21.505  24.850  1.00  0.00     0.188 C 
BRANCH  25  26
ATOM     26  O   UNL A   1      37.883  22.446  25.445  1.00  0.00    -0.376 OA
BRANCH  26  27
ATOM     27  C   UNL A   1      39.057  21.986  26.093  1.00  0.00     0.202 C 
BRANCH  27  28
ATOM     28  C   UNL A   1      40.049  23.019  26.665  1.00  0.00     0.261 C 
BRANCH  28  29
ATOM     29  O   UNL A   1      39.777  24.417  26.465  1.00  0.00    -0.460 OA
BRANCH  29  30
ATOM     30  C   UNL A   1      40.828  25.258  26.269  1.00  0.00     0.338 C 
ATOM     31  O   UNL A   1      41.446  25.422  25.256  1.00  0.00    -0.246 OA
BRANCH  30  32
ATOM     32  C   UNL A   1      40.961  26.101  27.501  1.00  0.00     0.060 A 
ATOM     33  C   UNL A   1      40.017  25.955  28.531  1.00  0.00     0.016 A 
ATOM     34  C   UNL A   1      41.997  27.025  27.645  1.00  0.00     0.016 A 
ATOM     35  C   UNL A   1      40.096  26.733  29.691  1.00  0.00     0.010 A 
ATOM     36  C   UNL A   1      42.043  27.847  28.778  1.00  0.00     0.010 A 
ATOM     37  C   UNL A   1      41.075  27.726  29.793  1.00  0.00    -0.014 A 
BRANCH  37  38
ATOM     38  C   UNL A   1      40.937  28.796  30.815  1.00  0.00     0.031 A 
ATOM     39  C   UNL A   1      41.815  28.708  32.039  1.00  0.00     0.074 A 
ATOM     40  C   UNL A   1      40.066  29.812  30.682  1.00  0.00     0.049 A 
ATOM     41  N   UNL A   1      41.797  29.432  33.126  1.00  0.00    -0.248 NA
ATOM     42  C   UNL A   1      42.849  27.660  32.031  1.00  0.00     0.031 C 
ATOM     43  C   UNL A   1      39.207  30.050  29.524  1.00  0.00     0.029 A 
ATOM     44  N   UNL A   1      39.744  30.829  31.552  1.00  0.00    -0.354 N 
ATOM     45  C   UNL A   1      42.795  28.910  33.941  1.00  0.00     0.074 A 
ATOM     46  C   UNL A   1      43.403  27.813  33.224  1.00  0.00     0.031 C 
ATOM     47  C   UNL A   1      38.427  31.119  29.771  1.00  0.00     0.029 A 
ATOM     48  C   UNL A   1      38.699  31.614  31.121  1.00  0.00     0.049 A 
ATOM     49  H   UNL A   1      40.216  30.980  32.402  1.00  0.00     0.167 HD
ATOM     50  C   UNL A   1      43.163  29.305  35.182  1.00  0.00     0.037 A 
ATOM     51  C   UNL A   1      38.009  32.582  31.763  1.00  0.00     0.037 A 
ATOM     52  C   UNL A   1      42.566  30.407  35.888  1.00  0.00     0.049 A 
ATOM     53  C   UNL A   1      38.390  32.951  33.179  1.00  0.00     0.074 A 
ATOM     54  C   UNL A   1      42.908  30.912  37.130  1.00  0.00     0.029 A 
ATOM     55  N   UNL A   1      41.498  31.159  35.427  1.00  0.00    -0.354 N 
ATOM     56  N   UNL A   1      39.361  32.480  33.924  1.00  0.00    -0.248 NA
ATOM     57  C   UNL A   1      37.571  33.974  33.849  1.00  0.00     0.031 C 
ATOM     58  C   UNL A   1      42.003  31.928  37.450  1.00  0.00     0.029 A 
ATOM     59  C   UNL A   1      41.137  32.094  36.381  1.00  0.00     0.049 A 
ATOM     60  H   UNL A   1      41.061  31.045  34.553  1.00  0.00     0.167 HD
ATOM     61  C   UNL A   1      39.281  33.162  35.136  1.00  0.00     0.074 A 
ATOM     62  C   UNL A   1      38.180  34.092  35.021  1.00  0.00     0.031 C 
ATOM     63  C   UNL A   1      40.045  33.026  36.249  1.00  0.00     0.037 A 
BRANCH  50  64
ATOM     64  C   UNL A   1      44.232  28.521  35.887  1.00  0.00     0.058 A 
ATOM     65  C   UNL A   1      43.933  27.431  36.716  1.00  0.00     0.135 A 
ATOM     66  C   UNL A   1      45.585  28.817  35.651  1.00  0.00     0.135 A 
ATOM     67  F   UNL A   1      42.657  27.121  36.993  1.00  0.00    -0.206 F 
ATOM     68  C   UNL A   1      44.940  26.657  37.285  1.00  0.00     0.059 A 
ATOM     69  C   UNL A   1      46.607  28.042  36.187  1.00  0.00     0.059 A 
ATOM     70  F   UNL A   1      45.923  29.857  34.871  1.00  0.00    -0.206 F 
ATOM     71  C   UNL A   1      46.274  26.964  37.004  1.00  0.00     0.060 A 
BRANCH  71  72
ATOM     72  S   UNL A   1      47.566  25.912  37.700  1.00  0.00     0.124 S 
ATOM     73  O   UNL A   1      47.657  24.857  36.696  1.00  0.00    -0.237 OA
ATOM     74  O   UNL A   1      48.704  26.823  37.767  1.00  0.00    -0.237 OA
ATOM     75  O   UNL A   1      47.015  25.504  38.989  1.00  0.00    -0.744 OA
ENDBRANCH  71  72
ENDBRANCH  50  64
BRANCH  51  76
ATOM     76  C   UNL A   1      36.832  33.230  31.115  1.00  0.00     0.058 A 
ATOM     77  C   UNL A   1      35.520  32.918  31.499  1.00  0.00     0.135 A 
ATOM     78  C   UNL A   1      36.999  34.130  30.049  1.00  0.00     0.135 A 
ATOM     79  F   UNL A   1      35.303  32.049  32.500  1.00  0.00    -0.206 F 
ATOM     80  C   UNL A   1      34.417  33.446  30.833  1.00  0.00     0.059 A 
ATOM     81  C   UNL A   1      35.913  34.696  29.387  1.00  0.00     0.059 A 
ATOM     82  F   UNL A   1      38.232  34.467  29.640  1.00  0.00    -0.206 F 
ATOM     83  C   UNL A   1      34.625  34.332  29.775  1.00  0.00     0.060 A 
BRANCH  83  84
ATOM     84  S   UNL A   1      33.189  35.012  28.916  1.00  0.00     0.124 S 
ATOM     85  O   UNL A   1      32.274  35.258  30.024  1.00  0.00    -0.237 OA
ATOM     86  O   UNL A   1      33.750  36.199  28.275  1.00  0.00    -0.237 OA
ATOM     87  O   UNL A   1      32.804  33.939  28.005  1.00  0.00    -0.744 OA
ENDBRANCH  83  84
ENDBRANCH  51  76
BRANCH  63  88
ATOM     88  C   UNL A   1      39.745  33.913  37.427  1.00  0.00     0.058 A 
ATOM     89  C   UNL A   1      38.873  33.508  38.449  1.00  0.00     0.135 A 
ATOM     90  C   UNL A   1      40.408  35.141  37.581  1.00  0.00     0.135 A 
ATOM     91  F   UNL A   1      38.209  32.346  38.350  1.00  0.00    -0.206 F 
ATOM     92  C   UNL A   1      38.659  34.296  39.576  1.00  0.00     0.059 A 
ATOM     93  C   UNL A   1      40.232  35.932  38.714  1.00  0.00     0.059 A 
ATOM     94  F   UNL A   1      41.264  35.571  36.639  1.00  0.00    -0.206 F 
ATOM     95  C   UNL A   1      39.350  35.502  39.704  1.00  0.00     0.060 A 
BRANCH  95  96
ATOM     96  S   UNL A   1      39.107  36.485  41.200  1.00  0.00     0.124 S 
ATOM     97  O   UNL A   1      38.796  37.797  40.644  1.00  0.00    -0.237 OA
ATOM     98  O   UNL A   1      37.999  35.793  41.850  1.00  0.00    -0.237 OA
ATOM     99  O   UNL A   1      40.392  36.383  41.886  1.00  0.00    -0.744 OA
ENDBRANCH  95  96
ENDBRANCH  63  88
ENDBRANCH  37  38
ENDBRANCH  30  32
ENDBRANCH  29  30
ENDBRANCH  28  29
ENDBRANCH  27  28
ENDBRANCH  26  27
ENDBRANCH  25  26
ENDBRANCH   1  25
TORSDOF 26
ENDMDL
