MODEL 1
REMARK VINA RESULT:      -7.9      0.000      0.000
REMARK SMILES C[C@@H](C(=O)OCCOCCOCCOCCOC(=O)c1ccc(-c2c3nc(c(-c4c(F)cc(S(=O)(=O)[O-])cc4F)c4ccc([nH]4)c(-c4c(F)cc(S(=O)(=O)[O-])cc4F)c4nc(c(-c5c(F)cc(S(=O)(=O)[O-])cc5F)c5ccc2[nH]5)C=C4)C=C3)cc1)c1ccc(OC2CCCC2)cc1F
REMARK SMILES IDX 11 1 10 2 9 3 8 4 7 5 6 6 5 7 3 8 4 9 2 10 1 11 86 12 87 13
REMARK SMILES IDX 97 14 88 15 96 16 98 17 89 18 90 19 91 20 92 21 95 22 93 23
REMARK SMILES IDX 94 24 12 25 13 26 14 27 15 28 16 29 17 30 18 31 19 32 20 33
REMARK SMILES IDX 21 34 85 35 22 36 84 37 23 38 24 39 25 40 78 41 26 42 83 43
REMARK SMILES IDX 77 44 79 45 27 46 82 47 76 48 75 49 28 51 62 52 41 53 61 54
REMARK SMILES IDX 42 55 45 56 60 57 80 58 43 59 44 60 59 62 81 63 46 64 29 65
REMARK SMILES IDX 30 66 39 67 31 68 32 69 38 70 40 71 33 72 34 73 35 74 36 75
REMARK SMILES IDX 37 76 63 77 64 78 73 79 65 80 66 81 72 82 74 83 67 84 68 85
REMARK SMILES IDX 69 86 70 87 71 88 47 89 48 90 57 91 49 92 50 93 56 94 58 95
REMARK SMILES IDX 51 96 52 97 53 98 54 99 55 100
REMARK H PARENT 79 50 45 61
REMARK Flexibility Score: inf
ROOT
ATOM      1  O   UNL A   1      45.770  23.397  33.663  1.00  0.00    -0.377 OA
ENDROOT
BRANCH   1   2
ATOM      2  C   UNL A   1      45.512  22.216  34.383  1.00  0.00     0.188 C 
BRANCH   2   3
ATOM      3  C   UNL A   1      46.757  21.519  34.963  1.00  0.00     0.188 C 
BRANCH   3   4
ATOM      4  O   UNL A   1      46.688  20.162  35.362  1.00  0.00    -0.376 OA
BRANCH   4   5
ATOM      5  C   UNL A   1      46.175  19.824  36.644  1.00  0.00     0.202 C 
BRANCH   5   6
ATOM      6  C   UNL A   1      46.241  20.788  37.849  1.00  0.00     0.261 C 
BRANCH   6   7
ATOM      7  O   UNL A   1      47.337  21.725  37.899  1.00  0.00    -0.463 OA
BRANCH   7   8
ATOM      8  C   UNL A   1      48.130  21.667  38.997  1.00  0.00     0.313 C 
ATOM      9  O   UNL A   1      47.986  22.396  39.976  1.00  0.00    -0.252 OA
BRANCH   8  10
ATOM     10  C   UNL A   1      49.226  20.584  38.940  1.00  0.00     0.129 C 
ATOM     11  C   UNL A   1      49.737  20.070  37.590  1.00  0.00     0.025 C 
BRANCH  10  12
ATOM     12  C   UNL A   1      48.871  19.454  39.901  1.00  0.00     0.002 A 
ATOM     13  C   UNL A   1      48.010  18.392  39.576  1.00  0.00     0.011 A 
ATOM     14  C   UNL A   1      49.298  19.547  41.222  1.00  0.00     0.130 A 
ATOM     15  C   UNL A   1      47.529  17.525  40.561  1.00  0.00     0.047 A 
ATOM     16  C   UNL A   1      48.854  18.664  42.197  1.00  0.00     0.086 A 
ATOM     17  F   UNL A   1      50.150  20.516  41.583  1.00  0.00    -0.207 F 
ATOM     18  C   UNL A   1      47.952  17.654  41.880  1.00  0.00     0.122 A 
BRANCH  18  19
ATOM     19  O   UNL A   1      47.409  16.750  42.746  1.00  0.00    -0.490 OA
BRANCH  19  20
ATOM     20  C   UNL A   1      46.032  16.821  43.097  1.00  0.00     0.173 C 
ATOM     21  C   UNL A   1      45.528  15.701  44.003  1.00  0.00     0.045 C 
ATOM     22  C   UNL A   1      45.579  18.151  43.698  1.00  0.00     0.045 C 
ATOM     23  C   UNL A   1      44.308  16.289  44.687  1.00  0.00     0.004 C 
ATOM     24  C   UNL A   1      44.534  17.797  44.752  1.00  0.00     0.004 C 
ENDBRANCH  19  20
ENDBRANCH  18  19
ENDBRANCH  10  12
ENDBRANCH   8  10
ENDBRANCH   7   8
ENDBRANCH   6   7
ENDBRANCH   5   6
ENDBRANCH   4   5
ENDBRANCH   3   4
ENDBRANCH   2   3
ENDBRANCH   1   2
BRANCH   1  25
ATOM     25  C   UNL A   1      44.650  24.049  33.087  1.00  0.00     0.188 C 
BRANCH  25  26
ATOM     26  C   UNL A   1      43.800  23.272  32.066  1.00  0.00     0.188 C 
BRANCH  26  27
ATOM     27  O   UNL A   1      44.479  22.959  30.852  1.00  0.00    -0.376 OA
BRANCH  27  28
ATOM     28  C   UNL A   1      44.186  23.720  29.689  1.00  0.00     0.202 C 
BRANCH  28  29
ATOM     29  C   UNL A   1      43.239  23.097  28.650  1.00  0.00     0.261 C 
BRANCH  29  30
ATOM     30  O   UNL A   1      43.004  23.858  27.456  1.00  0.00    -0.460 OA
BRANCH  30  31
ATOM     31  C   UNL A   1      41.734  24.210  27.166  1.00  0.00     0.338 C 
ATOM     32  O   UNL A   1      40.930  23.575  26.504  1.00  0.00    -0.246 OA
BRANCH  31  33
ATOM     33  C   UNL A   1      41.403  25.405  27.973  1.00  0.00     0.060 A 
ATOM     34  C   UNL A   1      42.315  26.470  28.011  1.00  0.00     0.016 A 
ATOM     35  C   UNL A   1      40.191  25.489  28.661  1.00  0.00     0.016 A 
ATOM     36  C   UNL A   1      42.032  27.606  28.768  1.00  0.00     0.010 A 
ATOM     37  C   UNL A   1      39.922  26.615  29.442  1.00  0.00     0.010 A 
ATOM     38  C   UNL A   1      40.857  27.663  29.527  1.00  0.00    -0.014 A 
BRANCH  38  39
ATOM     39  C   UNL A   1      40.713  28.701  30.576  1.00  0.00     0.031 A 
ATOM     40  C   UNL A   1      41.646  28.644  31.756  1.00  0.00     0.074 A 
ATOM     41  C   UNL A   1      39.800  29.684  30.478  1.00  0.00     0.049 A 
ATOM     42  N   UNL A   1      41.687  29.398  32.822  1.00  0.00    -0.248 NA
ATOM     43  C   UNL A   1      42.670  27.584  31.729  1.00  0.00     0.031 C 
ATOM     44  C   UNL A   1      38.878  29.874  29.361  1.00  0.00     0.029 A 
ATOM     45  N   UNL A   1      39.497  30.706  31.343  1.00  0.00    -0.354 N 
ATOM     46  C   UNL A   1      42.729  28.900  33.596  1.00  0.00     0.074 A 
ATOM     47  C   UNL A   1      43.277  27.762  32.892  1.00  0.00     0.031 C 
ATOM     48  C   UNL A   1      38.101  30.942  29.615  1.00  0.00     0.029 A 
ATOM     49  C   UNL A   1      38.446  31.489  30.927  1.00  0.00     0.049 A 
ATOM     50  H   UNL A   1      39.985  30.863  32.183  1.00  0.00     0.167 HD
ATOM     51  C   UNL A   1      43.191  29.354  34.784  1.00  0.00     0.037 A 
ATOM     52  C   UNL A   1      37.822  32.510  31.548  1.00  0.00     0.037 A 
ATOM     53  C   UNL A   1      42.640  30.488  35.478  1.00  0.00     0.049 A 
ATOM     54  C   UNL A   1      38.305  32.950  32.908  1.00  0.00     0.074 A 
ATOM     55  C   UNL A   1      43.048  31.042  36.678  1.00  0.00     0.029 A 
ATOM     56  N   UNL A   1      41.555  31.234  35.041  1.00  0.00    -0.354 N 
ATOM     57  N   UNL A   1      39.306  32.488  33.621  1.00  0.00    -0.248 NA
ATOM     58  C   UNL A   1      37.575  34.053  33.550  1.00  0.00     0.031 C 
ATOM     59  C   UNL A   1      42.172  32.084  36.997  1.00  0.00     0.029 A 
ATOM     60  C   UNL A   1      41.259  32.224  35.963  1.00  0.00     0.049 A 
ATOM     61  H   UNL A   1      41.066  31.083  34.200  1.00  0.00     0.167 HD
ATOM     62  C   UNL A   1      39.347  33.266  34.775  1.00  0.00     0.074 A 
ATOM     63  C   UNL A   1      38.276  34.233  34.661  1.00  0.00     0.031 C 
ATOM     64  C   UNL A   1      40.196  33.189  35.831  1.00  0.00     0.037 A 
BRANCH  51  65
ATOM     65  C   UNL A   1      44.323  28.602  35.429  1.00  0.00     0.058 A 
ATOM     66  C   UNL A   1      45.666  28.936  35.198  1.00  0.00     0.135 A 
ATOM     67  C   UNL A   1      44.055  27.549  36.320  1.00  0.00     0.135 A 
ATOM     68  F   UNL A   1      45.981  29.918  34.338  1.00  0.00    -0.206 F 
ATOM     69  C   UNL A   1      46.705  28.239  35.809  1.00  0.00     0.059 A 
ATOM     70  C   UNL A   1      45.077  26.859  36.965  1.00  0.00     0.059 A 
ATOM     71  F   UNL A   1      42.789  27.182  36.572  1.00  0.00    -0.206 F 
ATOM     72  C   UNL A   1      46.398  27.204  36.693  1.00  0.00     0.060 A 
BRANCH  72  73
ATOM     73  S   UNL A   1      47.757  26.320  37.488  1.00  0.00     0.124 S 
ATOM     74  O   UNL A   1      47.764  26.929  38.815  1.00  0.00    -0.237 OA
ATOM     75  O   UNL A   1      47.305  24.935  37.427  1.00  0.00    -0.237 OA
ATOM     76  O   UNL A   1      48.908  26.639  36.648  1.00  0.00    -0.744 OA
ENDBRANCH  72  73
ENDBRANCH  51  65
BRANCH  52  77
ATOM     77  C   UNL A   1      36.662  33.185  30.902  1.00  0.00     0.058 A 
ATOM     78  C   UNL A   1      35.363  33.043  31.411  1.00  0.00     0.135 A 
ATOM     79  C   UNL A   1      36.828  33.974  29.751  1.00  0.00     0.135 A 
ATOM     80  F   UNL A   1      35.148  32.289  32.499  1.00  0.00    -0.206 F 
ATOM     81  C   UNL A   1      34.268  33.643  30.796  1.00  0.00     0.059 A 
ATOM     82  C   UNL A   1      35.753  34.608  29.135  1.00  0.00     0.059 A 
ATOM     83  F   UNL A   1      38.050  34.147  29.225  1.00  0.00    -0.206 F 
ATOM     84  C   UNL A   1      34.474  34.427  29.659  1.00  0.00     0.060 A 
BRANCH  84  85
ATOM     85  S   UNL A   1      33.051  35.237  28.897  1.00  0.00     0.124 S 
ATOM     86  O   UNL A   1      32.590  34.209  27.970  1.00  0.00    -0.237 OA
ATOM     87  O   UNL A   1      32.192  35.491  30.049  1.00  0.00    -0.237 OA
ATOM     88  O   UNL A   1      33.631  36.427  28.282  1.00  0.00    -0.744 OA
ENDBRANCH  84  85
ENDBRANCH  52  77
BRANCH  64  89
ATOM     89  C   UNL A   1      40.039  34.207  36.931  1.00  0.00     0.058 A 
ATOM     90  C   UNL A   1      40.685  35.452  36.890  1.00  0.00     0.135 A 
ATOM     91  C   UNL A   1      39.177  33.953  38.010  1.00  0.00     0.135 A 
ATOM     92  F   UNL A   1      41.523  35.746  35.883  1.00  0.00    -0.206 F 
ATOM     93  C   UNL A   1      40.504  36.398  37.894  1.00  0.00     0.059 A 
ATOM     94  C   UNL A   1      38.954  34.898  39.008  1.00  0.00     0.059 A 
ATOM     95  F   UNL A   1      38.521  32.784  38.094  1.00  0.00    -0.206 F 
ATOM     96  C   UNL A   1      39.632  36.114  38.948  1.00  0.00     0.060 A 
BRANCH  96  97
ATOM     97  S   UNL A   1      39.378  37.365  40.223  1.00  0.00     0.124 S 
ATOM     98  O   UNL A   1      40.744  37.820  40.464  1.00  0.00    -0.237 OA
ATOM     99  O   UNL A   1      38.501  38.319  39.554  1.00  0.00    -0.237 OA
ATOM    100  O   UNL A   1      38.765  36.617  41.317  1.00  0.00    -0.744 OA
ENDBRANCH  96  97
ENDBRANCH  64  89
ENDBRANCH  38  39
ENDBRANCH  31  33
ENDBRANCH  30  31
ENDBRANCH  29  30
ENDBRANCH  28  29
ENDBRANCH  27  28
ENDBRANCH  26  27
ENDBRANCH  25  26
ENDBRANCH   1  25
TORSDOF 26
ENDMDL
MODEL 2
REMARK VINA RESULT:      -7.8      2.756      8.503
REMARK SMILES C[C@@H](C(=O)OCCOCCOCCOCCOC(=O)c1ccc(-c2c3nc(c(-c4c(F)cc(S(=O)(=O)[O-])cc4F)c4ccc([nH]4)c(-c4c(F)cc(S(=O)(=O)[O-])cc4F)c4nc(c(-c5c(F)cc(S(=O)(=O)[O-])cc5F)c5ccc2[nH]5)C=C4)C=C3)cc1)c1ccc(OC2CCCC2)cc1F
REMARK SMILES IDX 11 1 10 2 9 3 8 4 7 5 6 6 5 7 3 8 4 9 2 10 1 11 86 12 87 13
REMARK SMILES IDX 97 14 88 15 96 16 98 17 89 18 90 19 91 20 92 21 95 22 93 23
REMARK SMILES IDX 94 24 12 25 13 26 14 27 15 28 16 29 17 30 18 31 19 32 20 33
REMARK SMILES IDX 21 34 85 35 22 36 84 37 23 38 24 39 25 40 78 41 26 42 83 43
REMARK SMILES IDX 77 44 79 45 27 46 82 47 76 48 75 49 28 51 62 52 41 53 61 54
REMARK SMILES IDX 42 55 45 56 60 57 80 58 43 59 44 60 59 62 81 63 46 64 29 65
REMARK SMILES IDX 30 66 39 67 31 68 32 69 38 70 40 71 33 72 34 73 35 74 36 75
REMARK SMILES IDX 37 76 63 77 64 78 73 79 65 80 66 81 72 82 74 83 67 84 68 85
REMARK SMILES IDX 69 86 70 87 71 88 47 89 48 90 57 91 49 92 50 93 56 94 58 95
REMARK SMILES IDX 51 96 52 97 53 98 54 99 55 100
REMARK H PARENT 79 50 45 61
REMARK Flexibility Score: inf
ROOT
ATOM      1  O   UNL A   1      50.097  20.484  38.770  1.00  0.00    -0.377 OA
ENDROOT
BRANCH   1   2
ATOM      2  C   UNL A   1      48.755  20.378  39.184  1.00  0.00     0.188 C 
BRANCH   2   3
ATOM      3  C   UNL A   1      47.947  19.259  38.501  1.00  0.00     0.188 C 
BRANCH   3   4
ATOM      4  O   UNL A   1      46.531  19.302  38.509  1.00  0.00    -0.376 OA
BRANCH   4   5
ATOM      5  C   UNL A   1      45.789  18.161  38.918  1.00  0.00     0.202 C 
BRANCH   5   6
ATOM      6  C   UNL A   1      46.279  17.200  40.024  1.00  0.00     0.261 C 
BRANCH   6   7
ATOM      7  O   UNL A   1      46.869  17.782  41.204  1.00  0.00    -0.463 OA
BRANCH   7   8
ATOM      8  C   UNL A   1      46.047  17.949  42.269  1.00  0.00     0.313 C 
ATOM      9  O   UNL A   1      46.441  17.969  43.433  1.00  0.00    -0.252 OA
BRANCH   8  10
ATOM     10  C   UNL A   1      44.560  18.141  41.908  1.00  0.00     0.129 C 
ATOM     11  C   UNL A   1      43.807  19.392  42.371  1.00  0.00     0.025 C 
BRANCH  10  12
ATOM     12  C   UNL A   1      43.798  16.854  42.203  1.00  0.00     0.002 A 
ATOM     13  C   UNL A   1      43.995  16.076  43.356  1.00  0.00     0.011 A 
ATOM     14  C   UNL A   1      42.967  16.333  41.216  1.00  0.00     0.130 A 
ATOM     15  C   UNL A   1      43.454  14.791  43.461  1.00  0.00     0.047 A 
ATOM     16  C   UNL A   1      42.395  15.073  41.333  1.00  0.00     0.086 A 
ATOM     17  F   UNL A   1      42.711  17.047  40.111  1.00  0.00    -0.207 F 
ATOM     18  C   UNL A   1      42.646  14.282  42.449  1.00  0.00     0.122 A 
BRANCH  18  19
ATOM     19  O   UNL A   1      42.182  13.018  42.669  1.00  0.00    -0.490 OA
BRANCH  19  20
ATOM     20  C   UNL A   1      43.006  12.044  43.298  1.00  0.00     0.173 C 
ATOM     21  C   UNL A   1      43.229  12.242  44.795  1.00  0.00     0.045 C 
ATOM     22  C   UNL A   1      42.586  10.592  43.074  1.00  0.00     0.045 C 
ATOM     23  C   UNL A   1      43.581  10.860  45.310  1.00  0.00     0.004 C 
ATOM     24  C   UNL A   1      42.893   9.864  44.380  1.00  0.00     0.004 C 
ENDBRANCH  19  20
ENDBRANCH  18  19
ENDBRANCH  10  12
ENDBRANCH   8  10
ENDBRANCH   7   8
ENDBRANCH   6   7
ENDBRANCH   5   6
ENDBRANCH   4   5
ENDBRANCH   3   4
ENDBRANCH   2   3
ENDBRANCH   1   2
BRANCH   1  25
ATOM     25  C   UNL A   1      50.613  21.794  38.615  1.00  0.00     0.188 C 
BRANCH  25  26
ATOM     26  C   UNL A   1      51.123  22.530  39.868  1.00  0.00     0.188 C 
BRANCH  26  27
ATOM     27  O   UNL A   1      50.713  23.893  39.956  1.00  0.00    -0.376 OA
BRANCH  27  28
ATOM     28  C   UNL A   1      49.509  24.287  39.314  1.00  0.00     0.202 C 
BRANCH  28  29
ATOM     29  C   UNL A   1      49.511  25.626  38.556  1.00  0.00     0.261 C 
BRANCH  29  30
ATOM     30  O   UNL A   1      48.331  25.941  37.803  1.00  0.00    -0.460 OA
BRANCH  30  31
ATOM     31  C   UNL A   1      48.484  26.442  36.560  1.00  0.00     0.338 C 
ATOM     32  O   UNL A   1      49.376  26.179  35.769  1.00  0.00    -0.246 OA
BRANCH  31  33
ATOM     33  C   UNL A   1      47.261  27.204  36.227  1.00  0.00     0.060 A 
ATOM     34  C   UNL A   1      46.012  26.593  36.407  1.00  0.00     0.016 A 
ATOM     35  C   UNL A   1      47.343  28.522  35.772  1.00  0.00     0.016 A 
ATOM     36  C   UNL A   1      44.843  27.286  36.096  1.00  0.00     0.010 A 
ATOM     37  C   UNL A   1      46.172  29.205  35.433  1.00  0.00     0.010 A 
ATOM     38  C   UNL A   1      44.920  28.577  35.560  1.00  0.00    -0.014 A 
BRANCH  38  39
ATOM     39  C   UNL A   1      43.722  29.178  34.926  1.00  0.00     0.031 A 
ATOM     40  C   UNL A   1      43.406  28.787  33.506  1.00  0.00     0.074 A 
ATOM     41  C   UNL A   1      42.919  30.027  35.592  1.00  0.00     0.049 A 
ATOM     42  N   UNL A   1      42.454  29.211  32.719  1.00  0.00    -0.248 NA
ATOM     43  C   UNL A   1      44.292  27.783  32.893  1.00  0.00     0.031 C 
ATOM     44  C   UNL A   1      43.092  30.440  36.983  1.00  0.00     0.029 A 
ATOM     45  N   UNL A   1      41.798  30.701  35.178  1.00  0.00    -0.354 N 
ATOM     46  C   UNL A   1      42.631  28.537  31.516  1.00  0.00     0.074 A 
ATOM     47  C   UNL A   1      43.798  27.697  31.667  1.00  0.00     0.031 C 
ATOM     48  C   UNL A   1      42.117  31.309  37.304  1.00  0.00     0.029 A 
ATOM     49  C   UNL A   1      41.272  31.540  36.132  1.00  0.00     0.049 A 
ATOM     50  H   UNL A   1      41.406  30.594  34.281  1.00  0.00     0.167 HD
ATOM     51  C   UNL A   1      41.886  28.607  30.389  1.00  0.00     0.037 A 
ATOM     52  C   UNL A   1      40.246  32.411  36.055  1.00  0.00     0.037 A 
ATOM     53  C   UNL A   1      40.725  29.446  30.248  1.00  0.00     0.049 A 
ATOM     54  C   UNL A   1      39.475  32.530  34.763  1.00  0.00     0.074 A 
ATOM     55  C   UNL A   1      39.887  29.576  29.155  1.00  0.00     0.029 A 
ATOM     56  N   UNL A   1      40.244  30.306  31.225  1.00  0.00    -0.354 N 
ATOM     57  N   UNL A   1      39.637  31.871  33.639  1.00  0.00    -0.248 NA
ATOM     58  C   UNL A   1      38.380  33.511  34.727  1.00  0.00     0.031 C 
ATOM     59  C   UNL A   1      38.938  30.560  29.448  1.00  0.00     0.029 A 
ATOM     60  C   UNL A   1      39.141  30.994  30.748  1.00  0.00     0.049 A 
ATOM     61  H   UNL A   1      40.631  30.413  32.124  1.00  0.00     0.167 HD
ATOM     62  C   UNL A   1      38.644  32.331  32.779  1.00  0.00     0.074 A 
ATOM     63  C   UNL A   1      37.882  33.317  33.514  1.00  0.00     0.031 C 
ATOM     64  C   UNL A   1      38.384  31.966  31.497  1.00  0.00     0.037 A 
BRANCH  51  65
ATOM     65  C   UNL A   1      42.323  27.786  29.208  1.00  0.00     0.058 A 
ATOM     66  C   UNL A   1      41.716  26.562  28.886  1.00  0.00     0.135 A 
ATOM     67  C   UNL A   1      43.347  28.250  28.364  1.00  0.00     0.135 A 
ATOM     68  F   UNL A   1      40.749  26.059  29.670  1.00  0.00    -0.206 F 
ATOM     69  C   UNL A   1      42.122  25.817  27.783  1.00  0.00     0.059 A 
ATOM     70  C   UNL A   1      43.747  27.536  27.239  1.00  0.00     0.059 A 
ATOM     71  F   UNL A   1      43.967  29.410  28.629  1.00  0.00    -0.206 F 
ATOM     72  C   UNL A   1      43.137  26.314  26.965  1.00  0.00     0.060 A 
BRANCH  72  73
ATOM     73  S   UNL A   1      43.642  25.341  25.530  1.00  0.00     0.124 S 
ATOM     74  O   UNL A   1      43.603  23.985  26.070  1.00  0.00    -0.237 OA
ATOM     75  O   UNL A   1      42.608  25.666  24.554  1.00  0.00    -0.237 OA
ATOM     76  O   UNL A   1      44.974  25.853  25.223  1.00  0.00    -0.744 OA
ENDBRANCH  72  73
ENDBRANCH  51  65
BRANCH  52  77
ATOM     77  C   UNL A   1      39.888  33.253  37.230  1.00  0.00     0.058 A 
ATOM     78  C   UNL A   1      40.555  34.460  37.490  1.00  0.00     0.135 A 
ATOM     79  C   UNL A   1      38.880  32.861  38.127  1.00  0.00     0.135 A 
ATOM     80  F   UNL A   1      41.535  34.873  36.672  1.00  0.00    -0.206 F 
ATOM     81  C   UNL A   1      40.250  35.238  38.603  1.00  0.00     0.059 A 
ATOM     82  C   UNL A   1      38.537  33.636  39.231  1.00  0.00     0.059 A 
ATOM     83  F   UNL A   1      38.207  31.718  37.924  1.00  0.00    -0.206 F 
ATOM     84  C   UNL A   1      39.236  34.819  39.466  1.00  0.00     0.060 A 
BRANCH  84  85
ATOM     85  S   UNL A   1      38.819  35.860  40.882  1.00  0.00     0.124 S 
ATOM     86  O   UNL A   1      39.984  35.671  41.739  1.00  0.00    -0.237 OA
ATOM     87  O   UNL A   1      38.688  37.176  40.263  1.00  0.00    -0.237 OA
ATOM     88  O   UNL A   1      37.573  35.279  41.371  1.00  0.00    -0.744 OA
ENDBRANCH  84  85
ENDBRANCH  52  77
BRANCH  64  89
ATOM     89  C   UNL A   1      37.197  32.598  30.817  1.00  0.00     0.058 A 
ATOM     90  C   UNL A   1      35.905  32.063  30.925  1.00  0.00     0.135 A 
ATOM     91  C   UNL A   1      37.351  33.796  30.098  1.00  0.00     0.135 A 
ATOM     92  F   UNL A   1      35.701  30.919  31.598  1.00  0.00    -0.206 F 
ATOM     93  C   UNL A   1      34.811  32.677  30.323  1.00  0.00     0.059 A 
ATOM     94  C   UNL A   1      36.266  34.445  29.515  1.00  0.00     0.059 A 
ATOM     95  F   UNL A   1      38.563  34.361  29.973  1.00  0.00    -0.206 F 
ATOM     96  C   UNL A   1      35.001  33.870  29.623  1.00  0.00     0.060 A 
BRANCH  96  97
ATOM     97  S   UNL A   1      33.567  34.674  28.877  1.00  0.00     0.124 S 
ATOM     98  O   UNL A   1      34.171  35.866  28.289  1.00  0.00    -0.237 OA
ATOM     99  O   UNL A   1      33.102  33.666  27.929  1.00  0.00    -0.237 OA
ATOM    100  O   UNL A   1      32.682  34.915  30.013  1.00  0.00    -0.744 OA
ENDBRANCH  96  97
ENDBRANCH  64  89
ENDBRANCH  38  39
ENDBRANCH  31  33
ENDBRANCH  30  31
ENDBRANCH  29  30
ENDBRANCH  28  29
ENDBRANCH  27  28
ENDBRANCH  26  27
ENDBRANCH  25  26
ENDBRANCH   1  25
TORSDOF 26
ENDMDL
MODEL 3
REMARK VINA RESULT:      -7.4      2.760      5.105
REMARK SMILES C[C@@H](C(=O)OCCOCCOCCOCCOC(=O)c1ccc(-c2c3nc(c(-c4c(F)cc(S(=O)(=O)[O-])cc4F)c4ccc([nH]4)c(-c4c(F)cc(S(=O)(=O)[O-])cc4F)c4nc(c(-c5c(F)cc(S(=O)(=O)[O-])cc5F)c5ccc2[nH]5)C=C4)C=C3)cc1)c1ccc(OC2CCCC2)cc1F
REMARK SMILES IDX 11 1 10 2 9 3 8 4 7 5 6 6 5 7 3 8 4 9 2 10 1 11 86 12 87 13
REMARK SMILES IDX 97 14 88 15 96 16 98 17 89 18 90 19 91 20 92 21 95 22 93 23
REMARK SMILES IDX 94 24 12 25 13 26 14 27 15 28 16 29 17 30 18 31 19 32 20 33
REMARK SMILES IDX 21 34 85 35 22 36 84 37 23 38 24 39 25 40 78 41 26 42 83 43
REMARK SMILES IDX 77 44 79 45 27 46 82 47 76 48 75 49 28 51 62 52 41 53 61 54
REMARK SMILES IDX 42 55 45 56 60 57 80 58 43 59 44 60 59 62 81 63 46 64 29 65
REMARK SMILES IDX 30 66 39 67 31 68 32 69 38 70 40 71 33 72 34 73 35 74 36 75
REMARK SMILES IDX 37 76 63 77 64 78 73 79 65 80 66 81 72 82 74 83 67 84 68 85
REMARK SMILES IDX 69 86 70 87 71 88 47 89 48 90 57 91 49 92 50 93 56 94 58 95
REMARK SMILES IDX 51 96 52 97 53 98 54 99 55 100
REMARK H PARENT 79 50 45 61
REMARK Flexibility Score: inf
ROOT
ATOM      1  O   UNL A   1      45.900  23.351  33.637  1.00  0.00    -0.377 OA
ENDROOT
BRANCH   1   2
ATOM      2  C   UNL A   1      45.165  22.523  34.506  1.00  0.00     0.188 C 
BRANCH   2   3
ATOM      3  C   UNL A   1      45.700  21.085  34.647  1.00  0.00     0.188 C 
BRANCH   3   4
ATOM      4  O   UNL A   1      45.756  20.472  35.923  1.00  0.00    -0.376 OA
BRANCH   4   5
ATOM      5  C   UNL A   1      46.920  19.757  36.315  1.00  0.00     0.202 C 
BRANCH   5   6
ATOM      6  C   UNL A   1      48.294  20.438  36.500  1.00  0.00     0.261 C 
BRANCH   6   7
ATOM      7  O   UNL A   1      49.247  20.327  35.424  1.00  0.00    -0.463 OA
BRANCH   7   8
ATOM      8  C   UNL A   1      50.501  19.939  35.767  1.00  0.00     0.313 C 
ATOM      9  O   UNL A   1      50.956  18.824  35.523  1.00  0.00    -0.252 OA
BRANCH   8  10
ATOM     10  C   UNL A   1      51.337  21.026  36.473  1.00  0.00     0.129 C 
ATOM     11  C   UNL A   1      50.876  21.606  37.814  1.00  0.00     0.025 C 
BRANCH  10  12
ATOM     12  C   UNL A   1      51.717  22.106  35.465  1.00  0.00     0.002 A 
ATOM     13  C   UNL A   1      51.188  22.183  34.166  1.00  0.00     0.011 A 
ATOM     14  C   UNL A   1      52.750  22.979  35.787  1.00  0.00     0.130 A 
ATOM     15  C   UNL A   1      51.745  23.037  33.209  1.00  0.00     0.047 A 
ATOM     16  C   UNL A   1      53.282  23.857  34.851  1.00  0.00     0.086 A 
ATOM     17  F   UNL A   1      53.268  22.978  37.023  1.00  0.00    -0.207 F 
ATOM     18  C   UNL A   1      52.795  23.884  33.548  1.00  0.00     0.122 A 
BRANCH  18  19
ATOM     19  O   UNL A   1      53.252  24.665  32.528  1.00  0.00    -0.490 OA
BRANCH  19  20
ATOM     20  C   UNL A   1      54.628  24.653  32.168  1.00  0.00     0.173 C 
ATOM     21  C   UNL A   1      55.257  23.269  32.027  1.00  0.00     0.045 C 
ATOM     22  C   UNL A   1      54.983  25.458  30.919  1.00  0.00     0.045 C 
ATOM     23  C   UNL A   1      56.443  23.485  31.106  1.00  0.00     0.004 C 
ATOM     24  C   UNL A   1      56.088  24.674  30.218  1.00  0.00     0.004 C 
ENDBRANCH  19  20
ENDBRANCH  18  19
ENDBRANCH  10  12
ENDBRANCH   8  10
ENDBRANCH   7   8
ENDBRANCH   6   7
ENDBRANCH   5   6
ENDBRANCH   4   5
ENDBRANCH   3   4
ENDBRANCH   2   3
ENDBRANCH   1   2
BRANCH   1  25
ATOM     25  C   UNL A   1      45.190  24.405  33.010  1.00  0.00     0.188 C 
BRANCH  25  26
ATOM     26  C   UNL A   1      43.990  24.044  32.115  1.00  0.00     0.188 C 
BRANCH  26  27
ATOM     27  O   UNL A   1      44.307  23.180  31.027  1.00  0.00    -0.376 OA
BRANCH  27  28
ATOM     28  C   UNL A   1      44.191  23.678  29.702  1.00  0.00     0.202 C 
BRANCH  28  29
ATOM     29  C   UNL A   1      43.068  23.103  28.820  1.00  0.00     0.261 C 
BRANCH  29  30
ATOM     30  O   UNL A   1      42.809  23.783  27.584  1.00  0.00    -0.460 OA
BRANCH  30  31
ATOM     31  C   UNL A   1      41.537  24.137  27.307  1.00  0.00     0.338 C 
ATOM     32  O   UNL A   1      40.720  23.493  26.670  1.00  0.00    -0.246 OA
BRANCH  31  33
ATOM     33  C   UNL A   1      41.225  25.349  28.095  1.00  0.00     0.060 A 
ATOM     34  C   UNL A   1      42.186  26.367  28.179  1.00  0.00     0.016 A 
ATOM     35  C   UNL A   1      39.985  25.495  28.720  1.00  0.00     0.016 A 
ATOM     36  C   UNL A   1      41.922  27.518  28.920  1.00  0.00     0.010 A 
ATOM     37  C   UNL A   1      39.733  26.636  29.486  1.00  0.00     0.010 A 
ATOM     38  C   UNL A   1      40.714  27.636  29.619  1.00  0.00    -0.014 A 
BRANCH  38  39
ATOM     39  C   UNL A   1      40.569  28.683  30.658  1.00  0.00     0.031 A 
ATOM     40  C   UNL A   1      41.477  28.616  31.857  1.00  0.00     0.074 A 
ATOM     41  C   UNL A   1      39.676  29.682  30.536  1.00  0.00     0.049 A 
ATOM     42  N   UNL A   1      41.511  29.376  32.919  1.00  0.00    -0.248 NA
ATOM     43  C   UNL A   1      42.481  27.538  31.856  1.00  0.00     0.031 C 
ATOM     44  C   UNL A   1      38.779  29.882  29.400  1.00  0.00     0.029 A 
ATOM     45  N   UNL A   1      39.374  30.714  31.389  1.00  0.00    -0.354 N 
ATOM     46  C   UNL A   1      42.528  28.864  33.717  1.00  0.00     0.074 A 
ATOM     47  C   UNL A   1      43.068  27.712  33.030  1.00  0.00     0.031 C 
ATOM     48  C   UNL A   1      38.017  30.966  29.632  1.00  0.00     0.029 A 
ATOM     49  C   UNL A   1      38.346  31.514  30.948  1.00  0.00     0.049 A 
ATOM     50  H   UNL A   1      39.849  30.868  32.237  1.00  0.00     0.167 HD
ATOM     51  C   UNL A   1      42.974  29.317  34.911  1.00  0.00     0.037 A 
ATOM     52  C   UNL A   1      37.729  32.551  31.551  1.00  0.00     0.037 A 
ATOM     53  C   UNL A   1      42.430  30.465  35.587  1.00  0.00     0.049 A 
ATOM     54  C   UNL A   1      38.194  32.990  32.917  1.00  0.00     0.074 A 
ATOM     55  C   UNL A   1      42.825  31.019  36.791  1.00  0.00     0.029 A 
ATOM     56  N   UNL A   1      41.369  31.228  35.124  1.00  0.00    -0.354 N 
ATOM     57  N   UNL A   1      39.172  32.514  33.652  1.00  0.00    -0.248 NA
ATOM     58  C   UNL A   1      37.472  34.111  33.538  1.00  0.00     0.031 C 
ATOM     59  C   UNL A   1      41.962  32.078  37.087  1.00  0.00     0.029 A 
ATOM     60  C   UNL A   1      41.073  32.228  36.034  1.00  0.00     0.049 A 
ATOM     61  H   UNL A   1      40.894  31.080  34.274  1.00  0.00     0.167 HD
ATOM     62  C   UNL A   1      39.204  33.298  34.802  1.00  0.00     0.074 A 
ATOM     63  C   UNL A   1      38.154  34.284  34.662  1.00  0.00     0.031 C 
ATOM     64  C   UNL A   1      40.031  33.212  35.875  1.00  0.00     0.037 A 
BRANCH  51  65
ATOM     65  C   UNL A   1      44.079  28.548  35.582  1.00  0.00     0.058 A 
ATOM     66  C   UNL A   1      45.433  28.841  35.358  1.00  0.00     0.135 A 
ATOM     67  C   UNL A   1      43.774  27.521  36.492  1.00  0.00     0.135 A 
ATOM     68  F   UNL A   1      45.783  29.796  34.482  1.00  0.00    -0.206 F 
ATOM     69  C   UNL A   1      46.446  28.129  35.994  1.00  0.00     0.059 A 
ATOM     70  C   UNL A   1      44.771  26.818  37.161  1.00  0.00     0.059 A 
ATOM     71  F   UNL A   1      42.496  27.194  36.738  1.00  0.00    -0.206 F 
ATOM     72  C   UNL A   1      46.104  27.121  36.896  1.00  0.00     0.060 A 
BRANCH  72  73
ATOM     73  S   UNL A   1      47.431  26.218  37.723  1.00  0.00     0.124 S 
ATOM     74  O   UNL A   1      48.022  27.263  38.553  1.00  0.00    -0.237 OA
ATOM     75  O   UNL A   1      46.700  25.177  38.437  1.00  0.00    -0.237 OA
ATOM     76  O   UNL A   1      48.263  25.751  36.618  1.00  0.00    -0.744 OA
ENDBRANCH  72  73
ENDBRANCH  51  65
BRANCH  52  77
ATOM     77  C   UNL A   1      36.595  33.242  30.877  1.00  0.00     0.058 A 
ATOM     78  C   UNL A   1      36.806  34.065  29.761  1.00  0.00     0.135 A 
ATOM     79  C   UNL A   1      35.278  33.107  31.346  1.00  0.00     0.135 A 
ATOM     80  F   UNL A   1      38.047  34.241  29.282  1.00  0.00    -0.206 F 
ATOM     81  C   UNL A   1      35.758  34.742  29.144  1.00  0.00     0.059 A 
ATOM     82  C   UNL A   1      34.209  33.749  30.729  1.00  0.00     0.059 A 
ATOM     83  F   UNL A   1      35.019  32.328  32.407  1.00  0.00    -0.206 F 
ATOM     84  C   UNL A   1      34.461  34.574  29.633  1.00  0.00     0.060 A 
BRANCH  84  85
ATOM     85  S   UNL A   1      33.104  35.422  28.797  1.00  0.00     0.124 S 
ATOM     86  O   UNL A   1      32.318  35.904  29.927  1.00  0.00    -0.237 OA
ATOM     87  O   UNL A   1      33.810  36.442  28.027  1.00  0.00    -0.237 OA
ATOM     88  O   UNL A   1      32.485  34.364  28.003  1.00  0.00    -0.744 OA
ENDBRANCH  84  85
ENDBRANCH  52  77
BRANCH  64  89
ATOM     89  C   UNL A   1      39.871  34.240  36.966  1.00  0.00     0.058 A 
ATOM     90  C   UNL A   1      40.484  35.500  36.897  1.00  0.00     0.135 A 
ATOM     91  C   UNL A   1      39.037  33.978  38.066  1.00  0.00     0.135 A 
ATOM     92  F   UNL A   1      41.293  35.803  35.869  1.00  0.00    -0.206 F 
ATOM     93  C   UNL A   1      40.300  36.454  37.892  1.00  0.00     0.059 A 
ATOM     94  C   UNL A   1      38.811  34.929  39.057  1.00  0.00     0.059 A 
ATOM     95  F   UNL A   1      38.414  32.794  38.177  1.00  0.00    -0.206 F 
ATOM     96  C   UNL A   1      39.458  36.161  38.968  1.00  0.00     0.060 A 
BRANCH  96  97
ATOM     97  S   UNL A   1      39.199  37.421  40.233  1.00  0.00     0.124 S 
ATOM     98  O   UNL A   1      38.670  36.625  41.337  1.00  0.00    -0.237 OA
ATOM     99  O   UNL A   1      40.544  37.953  40.424  1.00  0.00    -0.237 OA
ATOM    100  O   UNL A   1      38.249  38.340  39.611  1.00  0.00    -0.744 OA
ENDBRANCH  96  97
ENDBRANCH  64  89
ENDBRANCH  38  39
ENDBRANCH  31  33
ENDBRANCH  30  31
ENDBRANCH  29  30
ENDBRANCH  28  29
ENDBRANCH  27  28
ENDBRANCH  26  27
ENDBRANCH  25  26
ENDBRANCH   1  25
TORSDOF 26
ENDMDL
