MODEL 1
REMARK VINA RESULT:      -9.7      0.000      0.000
REMARK SMILES CC[C@@H]1CCCN(S(=O)(=O)c2cc(C(=O)OCCOCCOCCOCCOC(=O)c3ccc(-c4c5nc(c(-c6c(F)cc(S(=O)(=O)[O-])cc6F)c6ccc([nH]6)c(-c6c(F)cc(S(=O)(=O)[O-])cc6F)c6nc(c(-c7c(F)cc(S(=O)(=O)[O-])cc7F)c7ccc4[nH]7)C=C6)C=C5)cc3)ccc2F)C1
REMARK SMILES IDX 22 1 21 2 20 3 19 4 18 5 17 6 16 7 14 8 15 9 13 10 11 11
REMARK SMILES IDX 12 12 99 13 98 14 100 15 97 16 8 17 9 18 10 19 7 20 3 21
REMARK SMILES IDX 4 22 101 23 5 24 6 25 2 26 1 27 23 28 24 29 25 30 26 31
REMARK SMILES IDX 27 32 28 33 29 34 30 35 31 36 32 37 96 38 33 39 95 40 34 41
REMARK SMILES IDX 35 42 36 43 89 44 37 45 94 46 88 47 90 48 38 49 93 50 87 51
REMARK SMILES IDX 86 52 39 54 73 55 52 56 72 57 53 58 56 59 71 60 91 61 54 62
REMARK SMILES IDX 55 63 70 65 92 66 57 67 40 68 41 69 50 70 42 71 43 72 49 73
REMARK SMILES IDX 51 74 44 75 45 76 46 77 47 78 48 79 74 80 75 81 84 82 76 83
REMARK SMILES IDX 77 84 83 85 85 86 78 87 79 88 80 89 81 90 82 91 58 92 59 93
REMARK SMILES IDX 68 94 60 95 61 96 67 97 69 98 62 99 63 100 64 101 65 102
REMARK SMILES IDX 66 103
REMARK H PARENT 90 53 56 64
REMARK Flexibility Score: inf
ROOT
ATOM      1  O   UNL A   1      34.455  32.108  29.058  1.00  0.00    -0.377 OA
ENDROOT
BRANCH   1   2
ATOM      2  C   UNL A   1      34.974  31.529  27.873  1.00  0.00     0.188 C 
BRANCH   2   3
ATOM      3  C   UNL A   1      35.196  30.005  27.836  1.00  0.00     0.188 C 
BRANCH   3   4
ATOM      4  O   UNL A   1      34.036  29.268  27.478  1.00  0.00    -0.376 OA
BRANCH   4   5
ATOM      5  C   UNL A   1      33.277  29.733  26.375  1.00  0.00     0.202 C 
BRANCH   5   6
ATOM      6  C   UNL A   1      31.804  29.310  26.316  1.00  0.00     0.261 C 
BRANCH   6   7
ATOM      7  O   UNL A   1      31.530  28.137  25.540  1.00  0.00    -0.460 OA
BRANCH   7   8
ATOM      8  C   UNL A   1      31.166  28.293  24.244  1.00  0.00     0.338 C 
ATOM      9  O   UNL A   1      30.594  29.231  23.750  1.00  0.00    -0.246 OA
BRANCH   8  10
ATOM     10  C   UNL A   1      31.820  27.185  23.489  1.00  0.00     0.061 A 
ATOM     11  C   UNL A   1      33.427  25.376  23.458  1.00  0.00     0.119 A 
ATOM     12  C   UNL A   1      32.921  26.536  24.064  1.00  0.00     0.040 A 
ATOM     13  C   UNL A   1      32.841  24.881  22.297  1.00  0.00     0.143 A 
ATOM     14  C   UNL A   1      31.776  25.548  21.701  1.00  0.00     0.041 A 
ATOM     15  F   UNL A   1      33.304  23.775  21.699  1.00  0.00    -0.206 F 
ATOM     16  C   UNL A   1      31.258  26.698  22.299  1.00  0.00     0.019 A 
BRANCH  11  17
ATOM     17  S   UNL A   1      34.710  24.455  24.247  1.00  0.00     0.246 S 
ATOM     18  O   UNL A   1      35.235  25.209  25.364  1.00  0.00    -0.207 OA
ATOM     19  O   UNL A   1      35.607  23.999  23.203  1.00  0.00    -0.207 OA
BRANCH  17  20
ATOM     20  N   UNL A   1      33.912  23.070  24.871  1.00  0.00    -0.197 NA
ATOM     21  C   UNL A   1      33.510  20.622  24.617  1.00  0.00     0.004 C 
ATOM     22  C   UNL A   1      33.367  20.513  26.143  1.00  0.00     0.006 C 
ATOM     23  C   UNL A   1      34.415  21.806  24.251  1.00  0.00     0.106 C 
ATOM     24  C   UNL A   1      32.960  21.830  26.785  1.00  0.00     0.017 C 
ATOM     25  C   UNL A   1      33.879  22.969  26.357  1.00  0.00     0.102 C 
BRANCH  21  26
ATOM     26  C   UNL A   1      32.152  20.585  23.873  1.00  0.00     0.001 C 
ATOM     27  C   UNL A   1      32.153  20.819  22.369  1.00  0.00     0.004 C 
ENDBRANCH  21  26
ENDBRANCH  17  20
ENDBRANCH  11  17
ENDBRANCH   8  10
ENDBRANCH   7   8
ENDBRANCH   6   7
ENDBRANCH   5   6
ENDBRANCH   4   5
ENDBRANCH   3   4
ENDBRANCH   2   3
ENDBRANCH   1   2
BRANCH   1  28
ATOM     28  C   UNL A   1      34.854  33.424  29.436  1.00  0.00     0.188 C 
BRANCH  28  29
ATOM     29  C   UNL A   1      34.274  34.126  30.687  1.00  0.00     0.188 C 
BRANCH  29  30
ATOM     30  O   UNL A   1      34.340  33.366  31.886  1.00  0.00    -0.376 OA
BRANCH  30  31
ATOM     31  C   UNL A   1      35.475  33.576  32.711  1.00  0.00     0.202 C 
BRANCH  31  32
ATOM     32  C   UNL A   1      36.301  32.321  33.015  1.00  0.00     0.261 C 
BRANCH  32  33
ATOM     33  O   UNL A   1      37.207  31.908  31.981  1.00  0.00    -0.460 OA
BRANCH  33  34
ATOM     34  C   UNL A   1      37.021  30.688  31.429  1.00  0.00     0.338 C 
ATOM     35  O   UNL A   1      35.979  30.067  31.341  1.00  0.00    -0.246 OA
BRANCH  34  36
ATOM     36  C   UNL A   1      38.294  30.311  30.782  1.00  0.00     0.060 A 
ATOM     37  C   UNL A   1      39.379  29.907  31.570  1.00  0.00     0.016 A 
ATOM     38  C   UNL A   1      38.388  30.313  29.389  1.00  0.00     0.016 A 
ATOM     39  C   UNL A   1      40.568  29.498  30.960  1.00  0.00     0.010 A 
ATOM     40  C   UNL A   1      39.583  29.927  28.783  1.00  0.00     0.010 A 
ATOM     41  C   UNL A   1      40.683  29.530  29.563  1.00  0.00    -0.014 A 
BRANCH  41  42
ATOM     42  C   UNL A   1      41.982  29.280  28.896  1.00  0.00     0.031 A 
ATOM     43  C   UNL A   1      42.289  27.885  28.429  1.00  0.00     0.074 A 
ATOM     44  C   UNL A   1      42.891  30.262  28.750  1.00  0.00     0.049 A 
ATOM     45  N   UNL A   1      43.407  27.396  27.963  1.00  0.00    -0.248 NA
ATOM     46  C   UNL A   1      41.186  26.913  28.501  1.00  0.00     0.031 C 
ATOM     47  C   UNL A   1      42.687  31.662  29.114  1.00  0.00     0.029 A 
ATOM     48  N   UNL A   1      44.178  30.222  28.271  1.00  0.00    -0.354 N 
ATOM     49  C   UNL A   1      43.147  26.059  27.693  1.00  0.00     0.074 A 
ATOM     50  C   UNL A   1      41.772  25.807  28.066  1.00  0.00     0.031 C 
ATOM     51  C   UNL A   1      43.818  32.345  28.865  1.00  0.00     0.029 A 
ATOM     52  C   UNL A   1      44.840  31.423  28.370  1.00  0.00     0.049 A 
ATOM     53  H   UNL A   1      44.588  29.410  27.894  1.00  0.00     0.167 HD
ATOM     54  C   UNL A   1      43.982  25.128  27.176  1.00  0.00     0.037 A 
ATOM     55  C   UNL A   1      46.130  31.733  28.127  1.00  0.00     0.037 A 
ATOM     56  C   UNL A   1      45.349  25.387  26.813  1.00  0.00     0.049 A 
ATOM     57  C   UNL A   1      47.073  30.654  27.657  1.00  0.00     0.074 A 
ATOM     58  C   UNL A   1      46.270  24.513  26.265  1.00  0.00     0.029 A 
ATOM     59  N   UNL A   1      45.995  26.605  26.973  1.00  0.00    -0.354 N 
ATOM     60  N   UNL A   1      46.816  29.396  27.389  1.00  0.00    -0.248 NA
ATOM     61  C   UNL A   1      48.484  31.028  27.472  1.00  0.00     0.031 C 
ATOM     62  C   UNL A   1      47.489  25.185  26.146  1.00  0.00     0.029 A 
ATOM     63  C   UNL A   1      47.314  26.493  26.570  1.00  0.00     0.049 A 
ATOM     64  H   UNL A   1      45.578  27.425  27.322  1.00  0.00     0.167 HD
ATOM     65  C   UNL A   1      48.025  28.833  26.992  1.00  0.00     0.074 A 
ATOM     66  C   UNL A   1      49.014  29.889  27.042  1.00  0.00     0.031 C 
ATOM     67  C   UNL A   1      48.290  27.555  26.622  1.00  0.00     0.037 A 
BRANCH  54  68
ATOM     68  C   UNL A   1      43.452  23.735  26.985  1.00  0.00     0.058 A 
ATOM     69  C   UNL A   1      43.116  23.271  25.703  1.00  0.00     0.135 A 
ATOM     70  C   UNL A   1      43.211  22.884  28.074  1.00  0.00     0.135 A 
ATOM     71  F   UNL A   1      43.336  24.042  24.625  1.00  0.00    -0.206 F 
ATOM     72  C   UNL A   1      42.539  22.022  25.511  1.00  0.00     0.059 A 
ATOM     73  C   UNL A   1      42.658  21.619  27.903  1.00  0.00     0.059 A 
ATOM     74  F   UNL A   1      43.538  23.270  29.318  1.00  0.00    -0.206 F 
ATOM     75  C   UNL A   1      42.311  21.203  26.618  1.00  0.00     0.060 A 
BRANCH  75  76
ATOM     76  S   UNL A   1      41.578  19.577  26.347  1.00  0.00     0.124 S 
ATOM     77  O   UNL A   1      40.168  19.906  26.174  1.00  0.00    -0.237 OA
ATOM     78  O   UNL A   1      42.278  19.122  25.149  1.00  0.00    -0.237 OA
ATOM     79  O   UNL A   1      41.908  18.849  27.570  1.00  0.00    -0.744 OA
ENDBRANCH  75  76
ENDBRANCH  54  68
BRANCH  55  80
ATOM     80  C   UNL A   1      46.612  33.123  28.350  1.00  0.00     0.058 A 
ATOM     81  C   UNL A   1      47.082  33.540  29.605  1.00  0.00     0.135 A 
ATOM     82  C   UNL A   1      46.586  34.071  27.317  1.00  0.00     0.135 A 
ATOM     83  F   UNL A   1      47.131  32.673  30.629  1.00  0.00    -0.206 F 
ATOM     84  C   UNL A   1      47.472  34.855  29.840  1.00  0.00     0.059 A 
ATOM     85  C   UNL A   1      46.995  35.387  27.519  1.00  0.00     0.059 A 
ATOM     86  F   UNL A   1      46.168  33.715  26.093  1.00  0.00    -0.206 F 
ATOM     87  C   UNL A   1      47.417  35.774  28.790  1.00  0.00     0.060 A 
BRANCH  87  88
ATOM     88  S   UNL A   1      47.893  37.483  29.126  1.00  0.00     0.124 S 
ATOM     89  O   UNL A   1      47.546  37.610  30.538  1.00  0.00    -0.237 OA
ATOM     90  O   UNL A   1      49.321  37.467  28.823  1.00  0.00    -0.237 OA
ATOM     91  O   UNL A   1      47.065  38.252  28.204  1.00  0.00    -0.744 OA
ENDBRANCH  87  88
ENDBRANCH  55  80
BRANCH  67  92
ATOM     92  C   UNL A   1      49.699  27.201  26.234  1.00  0.00     0.058 A 
ATOM     93  C   UNL A   1      50.090  27.206  24.885  1.00  0.00     0.135 A 
ATOM     94  C   UNL A   1      50.615  26.717  27.181  1.00  0.00     0.135 A 
ATOM     95  F   UNL A   1      49.249  27.655  23.938  1.00  0.00    -0.206 F 
ATOM     96  C   UNL A   1      51.322  26.702  24.483  1.00  0.00     0.059 A 
ATOM     97  C   UNL A   1      51.864  26.231  26.803  1.00  0.00     0.059 A 
ATOM     98  F   UNL A   1      50.294  26.704  28.483  1.00  0.00    -0.206 F 
ATOM     99  C   UNL A   1      52.197  26.204  25.449  1.00  0.00     0.060 A 
BRANCH  99 100
ATOM    100  S   UNL A   1      53.770  25.504  24.903  1.00  0.00     0.124 S 
ATOM    101  O   UNL A   1      54.700  26.051  25.885  1.00  0.00    -0.237 OA
ATOM    102  O   UNL A   1      53.517  24.070  24.999  1.00  0.00    -0.237 OA
ATOM    103  O   UNL A   1      53.917  26.018  23.544  1.00  0.00    -0.744 OA
ENDBRANCH  99 100
ENDBRANCH  67  92
ENDBRANCH  41  42
ENDBRANCH  34  36
ENDBRANCH  33  34
ENDBRANCH  32  33
ENDBRANCH  31  32
ENDBRANCH  30  31
ENDBRANCH  29  30
ENDBRANCH  28  29
ENDBRANCH   1  28
TORSDOF 26
ENDMDL
MODEL 2
REMARK VINA RESULT:      -8.6      1.929      2.761
REMARK SMILES CC[C@@H]1CCCN(S(=O)(=O)c2cc(C(=O)OCCOCCOCCOCCOC(=O)c3ccc(-c4c5nc(c(-c6c(F)cc(S(=O)(=O)[O-])cc6F)c6ccc([nH]6)c(-c6c(F)cc(S(=O)(=O)[O-])cc6F)c6nc(c(-c7c(F)cc(S(=O)(=O)[O-])cc7F)c7ccc4[nH]7)C=C6)C=C5)cc3)ccc2F)C1
REMARK SMILES IDX 22 1 21 2 20 3 19 4 18 5 17 6 16 7 14 8 15 9 13 10 11 11
REMARK SMILES IDX 12 12 99 13 98 14 100 15 97 16 8 17 9 18 10 19 7 20 3 21
REMARK SMILES IDX 4 22 101 23 5 24 6 25 2 26 1 27 23 28 24 29 25 30 26 31
REMARK SMILES IDX 27 32 28 33 29 34 30 35 31 36 32 37 96 38 33 39 95 40 34 41
REMARK SMILES IDX 35 42 36 43 89 44 37 45 94 46 88 47 90 48 38 49 93 50 87 51
REMARK SMILES IDX 86 52 39 54 73 55 52 56 72 57 53 58 56 59 71 60 91 61 54 62
REMARK SMILES IDX 55 63 70 65 92 66 57 67 40 68 41 69 50 70 42 71 43 72 49 73
REMARK SMILES IDX 51 74 44 75 45 76 46 77 47 78 48 79 74 80 75 81 84 82 76 83
REMARK SMILES IDX 77 84 83 85 85 86 78 87 79 88 80 89 81 90 82 91 58 92 59 93
REMARK SMILES IDX 68 94 60 95 61 96 67 97 69 98 62 99 63 100 64 101 65 102
REMARK SMILES IDX 66 103
REMARK H PARENT 90 53 56 64
REMARK Flexibility Score: inf
ROOT
ATOM      1  O   UNL A   1      34.016  32.539  28.740  1.00  0.00    -0.377 OA
ENDROOT
BRANCH   1   2
ATOM      2  C   UNL A   1      34.384  31.736  27.631  1.00  0.00     0.188 C 
BRANCH   2   3
ATOM      3  C   UNL A   1      35.147  30.425  27.895  1.00  0.00     0.188 C 
BRANCH   3   4
ATOM      4  O   UNL A   1      34.346  29.260  27.759  1.00  0.00    -0.376 OA
BRANCH   4   5
ATOM      5  C   UNL A   1      33.511  29.167  26.618  1.00  0.00     0.202 C 
BRANCH   5   6
ATOM      6  C   UNL A   1      32.285  28.251  26.726  1.00  0.00     0.261 C 
BRANCH   6   7
ATOM      7  O   UNL A   1      32.171  27.251  25.708  1.00  0.00    -0.460 OA
BRANCH   7   8
ATOM      8  C   UNL A   1      31.341  27.489  24.662  1.00  0.00     0.338 C 
ATOM      9  O   UNL A   1      30.441  28.288  24.606  1.00  0.00    -0.246 OA
BRANCH   8  10
ATOM     10  C   UNL A   1      31.903  26.739  23.502  1.00  0.00     0.061 A 
ATOM     11  C   UNL A   1      33.027  24.763  22.671  1.00  0.00     0.119 A 
ATOM     12  C   UNL A   1      32.654  25.581  23.749  1.00  0.00     0.040 A 
ATOM     13  C   UNL A   1      32.659  25.104  21.373  1.00  0.00     0.143 A 
ATOM     14  C   UNL A   1      31.953  26.276  21.123  1.00  0.00     0.041 A 
ATOM     15  F   UNL A   1      33.003  24.342  20.327  1.00  0.00    -0.206 F 
ATOM     16  C   UNL A   1      31.567  27.093  22.187  1.00  0.00     0.019 A 
BRANCH  11  17
ATOM     17  S   UNL A   1      33.836  23.223  22.970  1.00  0.00     0.246 S 
ATOM     18  O   UNL A   1      35.213  23.302  22.534  1.00  0.00    -0.207 OA
ATOM     19  O   UNL A   1      32.974  22.182  22.442  1.00  0.00    -0.207 OA
BRANCH  17  20
ATOM     20  N   UNL A   1      33.830  23.069  24.679  1.00  0.00    -0.197 NA
ATOM     21  C   UNL A   1      32.619  22.189  26.674  1.00  0.00     0.004 C 
ATOM     22  C   UNL A   1      33.972  21.985  27.373  1.00  0.00     0.006 C 
ATOM     23  C   UNL A   1      32.789  22.104  25.151  1.00  0.00     0.106 C 
ATOM     24  C   UNL A   1      35.058  22.892  26.816  1.00  0.00     0.017 C 
ATOM     25  C   UNL A   1      35.154  22.783  25.298  1.00  0.00     0.102 C 
BRANCH  21  26
ATOM     26  C   UNL A   1      31.856  23.439  27.176  1.00  0.00     0.001 C 
ATOM     27  C   UNL A   1      30.716  23.974  26.320  1.00  0.00     0.004 C 
ENDBRANCH  21  26
ENDBRANCH  17  20
ENDBRANCH  11  17
ENDBRANCH   8  10
ENDBRANCH   7   8
ENDBRANCH   6   7
ENDBRANCH   5   6
ENDBRANCH   4   5
ENDBRANCH   3   4
ENDBRANCH   2   3
ENDBRANCH   1   2
BRANCH   1  28
ATOM     28  C   UNL A   1      34.304  33.936  28.728  1.00  0.00     0.188 C 
BRANCH  28  29
ATOM     29  C   UNL A   1      33.440  34.954  29.510  1.00  0.00     0.188 C 
BRANCH  29  30
ATOM     30  O   UNL A   1      33.259  34.656  30.887  1.00  0.00    -0.376 OA
BRANCH  30  31
ATOM     31  C   UNL A   1      34.100  35.339  31.802  1.00  0.00     0.202 C 
BRANCH  31  32
ATOM     32  C   UNL A   1      34.873  34.441  32.775  1.00  0.00     0.261 C 
BRANCH  32  33
ATOM     33  O   UNL A   1      36.045  33.809  32.239  1.00  0.00    -0.460 OA
BRANCH  33  34
ATOM     34  C   UNL A   1      35.932  32.534  31.802  1.00  0.00     0.338 C 
ATOM     35  O   UNL A   1      34.911  31.888  31.663  1.00  0.00    -0.246 OA
BRANCH  34  36
ATOM     36  C   UNL A   1      37.273  32.116  31.347  1.00  0.00     0.060 A 
ATOM     37  C   UNL A   1      38.168  31.543  32.260  1.00  0.00     0.016 A 
ATOM     38  C   UNL A   1      37.619  32.249  30.001  1.00  0.00     0.016 A 
ATOM     39  C   UNL A   1      39.417  31.096  31.823  1.00  0.00     0.010 A 
ATOM     40  C   UNL A   1      38.876  31.824  29.572  1.00  0.00     0.010 A 
ATOM     41  C   UNL A   1      39.786  31.258  30.480  1.00  0.00    -0.014 A 
BRANCH  41  42
ATOM     42  C   UNL A   1      41.166  30.965  30.025  1.00  0.00     0.031 A 
ATOM     43  C   UNL A   1      41.475  29.581  29.529  1.00  0.00     0.074 A 
ATOM     44  C   UNL A   1      42.135  31.895  30.094  1.00  0.00     0.049 A 
ATOM     45  N   UNL A   1      42.630  29.049  29.226  1.00  0.00    -0.248 NA
ATOM     46  C   UNL A   1      40.327  28.675  29.355  1.00  0.00     0.031 C 
ATOM     47  C   UNL A   1      41.943  33.284  30.507  1.00  0.00     0.029 A 
ATOM     48  N   UNL A   1      43.481  31.802  29.835  1.00  0.00    -0.354 N 
ATOM     49  C   UNL A   1      42.351  27.747  28.833  1.00  0.00     0.074 A 
ATOM     50  C   UNL A   1      40.922  27.560  28.955  1.00  0.00     0.031 C 
ATOM     51  C   UNL A   1      43.134  33.909  30.493  1.00  0.00     0.029 A 
ATOM     52  C   UNL A   1      44.177  32.954  30.118  1.00  0.00     0.049 A 
ATOM     53  H   UNL A   1      43.906  30.988  29.481  1.00  0.00     0.167 HD
ATOM     54  C   UNL A   1      43.212  26.796  28.405  1.00  0.00     0.037 A 
ATOM     55  C   UNL A   1      45.504  33.196  30.113  1.00  0.00     0.037 A 
ATOM     56  C   UNL A   1      44.633  26.989  28.293  1.00  0.00     0.049 A 
ATOM     57  C   UNL A   1      46.457  32.089  29.741  1.00  0.00     0.074 A 
ATOM     58  C   UNL A   1      45.588  26.091  27.852  1.00  0.00     0.029 A 
ATOM     59  N   UNL A   1      45.304  28.155  28.634  1.00  0.00    -0.354 N 
ATOM     60  N   UNL A   1      46.184  30.865  29.355  1.00  0.00    -0.248 NA
ATOM     61  C   UNL A   1      47.896  32.385  29.817  1.00  0.00     0.031 C 
ATOM     62  C   UNL A   1      46.842  26.693  27.980  1.00  0.00     0.029 A 
ATOM     63  C   UNL A   1      46.665  27.985  28.450  1.00  0.00     0.049 A 
ATOM     64  H   UNL A   1      44.876  28.979  28.959  1.00  0.00     0.167 HD
ATOM     65  C   UNL A   1      47.413  30.251  29.130  1.00  0.00     0.074 A 
ATOM     66  C   UNL A   1      48.431  31.241  29.411  1.00  0.00     0.031 C 
ATOM     67  C   UNL A   1      47.671  28.981  28.730  1.00  0.00     0.037 A 
BRANCH  54  68
ATOM     68  C   UNL A   1      42.652  25.450  28.042  1.00  0.00     0.058 A 
ATOM     69  C   UNL A   1      42.774  24.366  28.927  1.00  0.00     0.135 A 
ATOM     70  C   UNL A   1      42.057  25.213  26.794  1.00  0.00     0.135 A 
ATOM     71  F   UNL A   1      43.327  24.541  30.138  1.00  0.00    -0.206 F 
ATOM     72  C   UNL A   1      42.347  23.091  28.577  1.00  0.00     0.059 A 
ATOM     73  C   UNL A   1      41.598  23.950  26.433  1.00  0.00     0.059 A 
ATOM     74  F   UNL A   1      41.894  26.221  25.921  1.00  0.00    -0.206 F 
ATOM     75  C   UNL A   1      41.763  22.892  27.326  1.00  0.00     0.060 A 
BRANCH  75  76
ATOM     76  S   UNL A   1      41.197  21.233  26.896  1.00  0.00     0.124 S 
ATOM     77  O   UNL A   1      41.830  20.421  27.929  1.00  0.00    -0.237 OA
ATOM     78  O   UNL A   1      39.746  21.371  26.994  1.00  0.00    -0.237 OA
ATOM     79  O   UNL A   1      41.709  21.040  25.542  1.00  0.00    -0.744 OA
ENDBRANCH  75  76
ENDBRANCH  54  68
BRANCH  55  80
ATOM     80  C   UNL A   1      46.011  34.541  30.500  1.00  0.00     0.058 A 
ATOM     81  C   UNL A   1      46.268  34.867  31.841  1.00  0.00     0.135 A 
ATOM     82  C   UNL A   1      46.224  35.538  29.537  1.00  0.00     0.135 A 
ATOM     83  F   UNL A   1      46.085  33.949  32.804  1.00  0.00    -0.206 F 
ATOM     84  C   UNL A   1      46.679  36.141  32.218  1.00  0.00     0.059 A 
ATOM     85  C   UNL A   1      46.660  36.814  29.886  1.00  0.00     0.059 A 
ATOM     86  F   UNL A   1      46.016  35.269  28.239  1.00  0.00    -0.206 F 
ATOM     87  C   UNL A   1      46.865  37.111  31.232  1.00  0.00     0.060 A 
BRANCH  87  88
ATOM     88  S   UNL A   1      47.364  38.768  31.748  1.00  0.00     0.124 S 
ATOM     89  O   UNL A   1      46.086  39.476  31.729  1.00  0.00    -0.237 OA
ATOM     90  O   UNL A   1      47.931  38.519  33.069  1.00  0.00    -0.237 OA
ATOM     91  O   UNL A   1      48.319  39.169  30.721  1.00  0.00    -0.744 OA
ENDBRANCH  87  88
ENDBRANCH  55  80
BRANCH  67  92
ATOM     92  C   UNL A   1      49.105  28.563  28.561  1.00  0.00     0.058 A 
ATOM     93  C   UNL A   1      49.819  28.010  29.637  1.00  0.00     0.135 A 
ATOM     94  C   UNL A   1      49.811  28.844  27.381  1.00  0.00     0.135 A 
ATOM     95  F   UNL A   1      49.192  27.726  30.790  1.00  0.00    -0.206 F 
ATOM     96  C   UNL A   1      51.190  27.792  29.564  1.00  0.00     0.059 A 
ATOM     97  C   UNL A   1      51.180  28.611  27.277  1.00  0.00     0.059 A 
ATOM     98  F   UNL A   1      49.172  29.360  26.320  1.00  0.00    -0.206 F 
ATOM     99  C   UNL A   1      51.865  28.110  28.384  1.00  0.00     0.060 A 
BRANCH  99 100
ATOM    100  S   UNL A   1      53.654  27.871  28.328  1.00  0.00     0.124 S 
ATOM    101  O   UNL A   1      54.142  29.246  28.362  1.00  0.00    -0.237 OA
ATOM    102  O   UNL A   1      53.896  27.083  29.532  1.00  0.00    -0.237 OA
ATOM    103  O   UNL A   1      53.863  27.163  27.068  1.00  0.00    -0.744 OA
ENDBRANCH  99 100
ENDBRANCH  67  92
ENDBRANCH  41  42
ENDBRANCH  34  36
ENDBRANCH  33  34
ENDBRANCH  32  33
ENDBRANCH  31  32
ENDBRANCH  30  31
ENDBRANCH  29  30
ENDBRANCH  28  29
ENDBRANCH   1  28
TORSDOF 26
ENDMDL
MODEL 3
REMARK VINA RESULT:      -8.5      4.689      5.869
REMARK SMILES CC[C@@H]1CCCN(S(=O)(=O)c2cc(C(=O)OCCOCCOCCOCCOC(=O)c3ccc(-c4c5nc(c(-c6c(F)cc(S(=O)(=O)[O-])cc6F)c6ccc([nH]6)c(-c6c(F)cc(S(=O)(=O)[O-])cc6F)c6nc(c(-c7c(F)cc(S(=O)(=O)[O-])cc7F)c7ccc4[nH]7)C=C6)C=C5)cc3)ccc2F)C1
REMARK SMILES IDX 22 1 21 2 20 3 19 4 18 5 17 6 16 7 14 8 15 9 13 10 11 11
REMARK SMILES IDX 12 12 99 13 98 14 100 15 97 16 8 17 9 18 10 19 7 20 3 21
REMARK SMILES IDX 4 22 101 23 5 24 6 25 2 26 1 27 23 28 24 29 25 30 26 31
REMARK SMILES IDX 27 32 28 33 29 34 30 35 31 36 32 37 96 38 33 39 95 40 34 41
REMARK SMILES IDX 35 42 36 43 89 44 37 45 94 46 88 47 90 48 38 49 93 50 87 51
REMARK SMILES IDX 86 52 39 54 73 55 52 56 72 57 53 58 56 59 71 60 91 61 54 62
REMARK SMILES IDX 55 63 70 65 92 66 57 67 40 68 41 69 50 70 42 71 43 72 49 73
REMARK SMILES IDX 51 74 44 75 45 76 46 77 47 78 48 79 74 80 75 81 84 82 76 83
REMARK SMILES IDX 77 84 83 85 85 86 78 87 79 88 80 89 81 90 82 91 58 92 59 93
REMARK SMILES IDX 68 94 60 95 61 96 67 97 69 98 62 99 63 100 64 101 65 102
REMARK SMILES IDX 66 103
REMARK H PARENT 90 53 56 64
REMARK Flexibility Score: inf
ROOT
ATOM      1  O   UNL A   1      34.488  32.850  28.666  1.00  0.00    -0.377 OA
ENDROOT
BRANCH   1   2
ATOM      2  C   UNL A   1      35.186  32.063  27.716  1.00  0.00     0.188 C 
BRANCH   2   3
ATOM      3  C   UNL A   1      35.903  30.790  28.202  1.00  0.00     0.188 C 
BRANCH   3   4
ATOM      4  O   UNL A   1      35.125  29.610  28.067  1.00  0.00    -0.376 OA
BRANCH   4   5
ATOM      5  C   UNL A   1      34.223  29.538  26.976  1.00  0.00     0.202 C 
BRANCH   5   6
ATOM      6  C   UNL A   1      32.784  29.109  27.289  1.00  0.00     0.261 C 
BRANCH   6   7
ATOM      7  O   UNL A   1      32.329  27.936  26.606  1.00  0.00    -0.460 OA
BRANCH   7   8
ATOM      8  C   UNL A   1      31.487  28.089  25.554  1.00  0.00     0.338 C 
ATOM      9  O   UNL A   1      31.053  29.119  25.106  1.00  0.00    -0.246 OA
BRANCH   8  10
ATOM     10  C   UNL A   1      31.385  26.751  24.901  1.00  0.00     0.061 A 
ATOM     11  C   UNL A   1      31.313  24.343  25.130  1.00  0.00     0.119 A 
ATOM     12  C   UNL A   1      31.590  25.604  25.680  1.00  0.00     0.040 A 
ATOM     13  C   UNL A   1      30.846  24.237  23.823  1.00  0.00     0.143 A 
ATOM     14  C   UNL A   1      30.685  25.372  23.035  1.00  0.00     0.041 A 
ATOM     15  F   UNL A   1      30.574  23.046  23.274  1.00  0.00    -0.206 F 
ATOM     16  C   UNL A   1      30.947  26.632  23.574  1.00  0.00     0.019 A 
BRANCH  11  17
ATOM     17  S   UNL A   1      31.413  22.898  26.139  1.00  0.00     0.246 S 
ATOM     18  O   UNL A   1      30.168  22.166  26.065  1.00  0.00    -0.207 OA
ATOM     19  O   UNL A   1      31.925  23.317  27.429  1.00  0.00    -0.207 OA
BRANCH  17  20
ATOM     20  N   UNL A   1      32.632  21.948  25.393  1.00  0.00    -0.197 NA
ATOM     21  C   UNL A   1      35.059  21.384  25.316  1.00  0.00     0.004 C 
ATOM     22  C   UNL A   1      34.688  19.952  24.901  1.00  0.00     0.006 C 
ATOM     23  C   UNL A   1      33.926  22.010  26.140  1.00  0.00     0.106 C 
ATOM     24  C   UNL A   1      33.322  19.874  24.238  1.00  0.00     0.017 C 
ATOM     25  C   UNL A   1      32.248  20.540  25.092  1.00  0.00     0.102 C 
BRANCH  21  26
ATOM     26  C   UNL A   1      35.563  22.250  24.135  1.00  0.00     0.001 C 
ATOM     27  C   UNL A   1      36.623  23.305  24.422  1.00  0.00     0.004 C 
ENDBRANCH  21  26
ENDBRANCH  17  20
ENDBRANCH  11  17
ENDBRANCH   8  10
ENDBRANCH   7   8
ENDBRANCH   6   7
ENDBRANCH   5   6
ENDBRANCH   4   5
ENDBRANCH   3   4
ENDBRANCH   2   3
ENDBRANCH   1   2
BRANCH   1  28
ATOM     28  C   UNL A   1      34.688  34.261  28.700  1.00  0.00     0.188 C 
BRANCH  28  29
ATOM     29  C   UNL A   1      33.533  35.243  29.011  1.00  0.00     0.188 C 
BRANCH  29  30
ATOM     30  O   UNL A   1      32.726  34.887  30.125  1.00  0.00    -0.376 OA
BRANCH  30  31
ATOM     31  C   UNL A   1      32.790  35.742  31.256  1.00  0.00     0.202 C 
BRANCH  31  32
ATOM     32  C   UNL A   1      33.368  35.103  32.524  1.00  0.00     0.261 C 
BRANCH  32  33
ATOM     33  O   UNL A   1      34.729  34.657  32.429  1.00  0.00    -0.460 OA
BRANCH  33  34
ATOM     34  C   UNL A   1      34.950  33.328  32.306  1.00  0.00     0.338 C 
ATOM     35  O   UNL A   1      34.118  32.442  32.252  1.00  0.00    -0.246 OA
BRANCH  34  36
ATOM     36  C   UNL A   1      36.396  33.155  32.065  1.00  0.00     0.060 A 
ATOM     37  C   UNL A   1      37.320  33.809  32.891  1.00  0.00     0.016 A 
ATOM     38  C   UNL A   1      36.831  32.302  31.048  1.00  0.00     0.016 A 
ATOM     39  C   UNL A   1      38.689  33.605  32.701  1.00  0.00     0.010 A 
ATOM     40  C   UNL A   1      38.198  32.119  30.845  1.00  0.00     0.010 A 
ATOM     41  C   UNL A   1      39.135  32.777  31.661  1.00  0.00    -0.014 A 
BRANCH  41  42
ATOM     42  C   UNL A   1      40.573  32.686  31.318  1.00  0.00     0.031 A 
ATOM     43  C   UNL A   1      41.355  31.507  31.824  1.00  0.00     0.074 A 
ATOM     44  C   UNL A   1      41.184  33.654  30.611  1.00  0.00     0.049 A 
ATOM     45  N   UNL A   1      42.642  31.289  31.784  1.00  0.00    -0.248 NA
ATOM     46  C   UNL A   1      40.577  30.432  32.464  1.00  0.00     0.031 C 
ATOM     47  C   UNL A   1      40.521  34.816  30.023  1.00  0.00     0.029 A 
ATOM     48  N   UNL A   1      42.509  33.820  30.285  1.00  0.00    -0.354 N 
ATOM     49  C   UNL A   1      42.833  30.057  32.398  1.00  0.00     0.074 A 
ATOM     50  C   UNL A   1      41.532  29.585  32.821  1.00  0.00     0.031 C 
ATOM     51  C   UNL A   1      41.446  35.588  29.425  1.00  0.00     0.029 A 
ATOM     52  C   UNL A   1      42.770  35.000  29.629  1.00  0.00     0.049 A 
ATOM     53  H   UNL A   1      43.204  33.158  30.502  1.00  0.00     0.167 HD
ATOM     54  C   UNL A   1      43.990  29.382  32.586  1.00  0.00     0.037 A 
ATOM     55  C   UNL A   1      43.945  35.559  29.271  1.00  0.00     0.037 A 
ATOM     56  C   UNL A   1      45.279  29.864  32.168  1.00  0.00     0.049 A 
ATOM     57  C   UNL A   1      45.233  34.842  29.591  1.00  0.00     0.074 A 
ATOM     58  C   UNL A   1      46.508  29.244  32.298  1.00  0.00     0.029 A 
ATOM     59  N   UNL A   1      45.507  31.085  31.549  1.00  0.00    -0.354 N 
ATOM     60  N   UNL A   1      45.403  33.671  30.157  1.00  0.00    -0.248 NA
ATOM     61  C   UNL A   1      46.488  35.525  29.240  1.00  0.00     0.031 C 
ATOM     62  C   UNL A   1      47.487  30.114  31.811  1.00  0.00     0.029 A 
ATOM     63  C   UNL A   1      46.863  31.253  31.327  1.00  0.00     0.049 A 
ATOM     64  H   UNL A   1      44.809  31.734  31.305  1.00  0.00     0.167 HD
ATOM     65  C   UNL A   1      46.779  33.471  30.218  1.00  0.00     0.074 A 
ATOM     66  C   UNL A   1      47.397  34.636  29.620  1.00  0.00     0.031 C 
ATOM     67  C   UNL A   1      47.466  32.418  30.727  1.00  0.00     0.037 A 
BRANCH  54  68
ATOM     68  C   UNL A   1      43.926  28.058  33.292  1.00  0.00     0.058 A 
ATOM     69  C   UNL A   1      43.905  28.000  34.695  1.00  0.00     0.135 A 
ATOM     70  C   UNL A   1      43.955  26.845  32.586  1.00  0.00     0.135 A 
ATOM     71  F   UNL A   1      43.866  29.130  35.419  1.00  0.00    -0.206 F 
ATOM     72  C   UNL A   1      43.938  26.787  35.372  1.00  0.00     0.059 A 
ATOM     73  C   UNL A   1      43.963  25.619  33.243  1.00  0.00     0.059 A 
ATOM     74  F   UNL A   1      43.951  26.846  31.243  1.00  0.00    -0.206 F 
ATOM     75  C   UNL A   1      43.970  25.601  34.637  1.00  0.00     0.060 A 
BRANCH  75  76
ATOM     76  S   UNL A   1      43.995  24.035  35.534  1.00  0.00     0.124 S 
ATOM     77  O   UNL A   1      44.596  24.423  36.804  1.00  0.00    -0.237 OA
ATOM     78  O   UNL A   1      42.577  23.688  35.579  1.00  0.00    -0.237 OA
ATOM     79  O   UNL A   1      44.815  23.173  34.687  1.00  0.00    -0.744 OA
ENDBRANCH  75  76
ENDBRANCH  54  68
BRANCH  55  80
ATOM     80  C   UNL A   1      43.957  36.883  28.591  1.00  0.00     0.058 A 
ATOM     81  C   UNL A   1      43.982  38.079  29.324  1.00  0.00     0.135 A 
ATOM     82  C   UNL A   1      43.917  36.977  27.193  1.00  0.00     0.135 A 
ATOM     83  F   UNL A   1      44.024  38.047  30.666  1.00  0.00    -0.206 F 
ATOM     84  C   UNL A   1      43.927  39.321  28.699  1.00  0.00     0.059 A 
ATOM     85  C   UNL A   1      43.887  38.209  26.541  1.00  0.00     0.059 A 
ATOM     86  F   UNL A   1      43.916  35.863  26.446  1.00  0.00    -0.206 F 
ATOM     87  C   UNL A   1      43.872  39.374  27.306  1.00  0.00     0.060 A 
BRANCH  87  88
ATOM     88  S   UNL A   1      43.765  40.995  26.517  1.00  0.00     0.124 S 
ATOM     89  O   UNL A   1      42.329  41.105  26.272  1.00  0.00    -0.237 OA
ATOM     90  O   UNL A   1      44.302  41.874  27.551  1.00  0.00    -0.237 OA
ATOM     91  O   UNL A   1      44.595  40.848  25.326  1.00  0.00    -0.744 OA
ENDBRANCH  87  88
ENDBRANCH  55  80
BRANCH  67  92
ATOM     92  C   UNL A   1      48.968  32.450  30.669  1.00  0.00     0.058 A 
ATOM     93  C   UNL A   1      49.706  33.138  31.647  1.00  0.00     0.135 A 
ATOM     94  C   UNL A   1      49.666  31.926  29.570  1.00  0.00     0.135 A 
ATOM     95  F   UNL A   1      49.086  33.662  32.717  1.00  0.00    -0.206 F 
ATOM     96  C   UNL A   1      51.074  33.344  31.515  1.00  0.00     0.059 A 
ATOM     97  C   UNL A   1      51.040  32.099  29.429  1.00  0.00     0.059 A 
ATOM     98  F   UNL A   1      49.009  31.250  28.615  1.00  0.00    -0.206 F 
ATOM     99  C   UNL A   1      51.731  32.832  30.395  1.00  0.00     0.060 A 
BRANCH  99 100
ATOM    100  S   UNL A   1      53.498  33.156  30.213  1.00  0.00     0.124 S 
ATOM    101  O   UNL A   1      53.514  34.143  29.138  1.00  0.00    -0.237 OA
ATOM    102  O   UNL A   1      53.856  33.656  31.537  1.00  0.00    -0.237 OA
ATOM    103  O   UNL A   1      54.051  31.848  29.873  1.00  0.00    -0.744 OA
ENDBRANCH  99 100
ENDBRANCH  67  92
ENDBRANCH  41  42
ENDBRANCH  34  36
ENDBRANCH  33  34
ENDBRANCH  32  33
ENDBRANCH  31  32
ENDBRANCH  30  31
ENDBRANCH  29  30
ENDBRANCH  28  29
ENDBRANCH   1  28
TORSDOF 26
ENDMDL
