MODEL 1
REMARK VINA RESULT:     -10.0      0.000      0.000
REMARK SMILES C[C@H]([C@@H]1CCCO1)n1c(SCC(=O)OCCOCCOCCOCCOC(=O)c2ccc(-c3c4nc(c(-c5c(F)cc(S(=O)(=O)[O-])cc5F)c5ccc([nH]5)c(-c5c(F)cc(S(=O)(=O)[O-])cc5F)c5nc(c(-c6c(F)cc(S(=O)(=O)[O-])cc6F)c6ccc3[nH]6)C=C5)C=C4)cc2)nc2cnccc21
REMARK SMILES IDX 19 1 18 2 17 3 16 4 15 5 14 6 12 7 13 8 11 9 10 10 9 11 8 12
REMARK SMILES IDX 101 13 95 14 96 15 100 16 97 17 99 18 98 19 2 20 1 21 3 22
REMARK SMILES IDX 4 23 7 24 5 25 6 26 20 27 21 28 22 29 23 30 24 31 25 32
REMARK SMILES IDX 26 33 27 34 28 35 29 36 30 37 94 38 31 39 93 40 32 41 33 42
REMARK SMILES IDX 34 43 87 44 35 45 92 46 86 47 88 48 36 49 91 50 85 51 84 52
REMARK SMILES IDX 37 54 71 55 50 56 70 57 51 58 54 59 69 60 89 61 52 62 53 63
REMARK SMILES IDX 68 65 90 66 55 67 38 68 39 69 48 70 40 71 41 72 47 73 49 74
REMARK SMILES IDX 42 75 43 76 44 77 45 78 46 79 72 80 73 81 82 82 74 83 75 84
REMARK SMILES IDX 81 85 83 86 76 87 77 88 78 89 79 90 80 91 56 92 57 93 66 94
REMARK SMILES IDX 58 95 59 96 65 97 67 98 60 99 61 100 62 101 63 102 64 103
REMARK H PARENT 88 53 54 64
REMARK Flexibility Score: inf
ROOT
ATOM      1  C   UNL A   1      43.235  18.125  26.301  1.00  0.00     0.188 C 
ENDROOT
BRANCH   1   2
ATOM      2  C   UNL A   1      42.509  19.396  25.844  1.00  0.00     0.188 C 
BRANCH   2   3
ATOM      3  O   UNL A   1      41.104  19.332  25.690  1.00  0.00    -0.376 OA
BRANCH   3   4
ATOM      4  C   UNL A   1      40.229  20.230  26.356  1.00  0.00     0.202 C 
BRANCH   4   5
ATOM      5  C   UNL A   1      39.385  21.252  25.584  1.00  0.00     0.261 C 
BRANCH   5   6
ATOM      6  O   UNL A   1      38.413  22.005  26.327  1.00  0.00    -0.463 OA
BRANCH   6   7
ATOM      7  C   UNL A   1      38.361  23.356  26.204  1.00  0.00     0.316 C 
ATOM      8  O   UNL A   1      39.161  24.120  26.722  1.00  0.00    -0.251 OA
BRANCH   7   9
ATOM      9  C   UNL A   1      37.177  23.734  25.334  1.00  0.00     0.200 C 
BRANCH   9  10
ATOM     10  S   UNL A   1      35.480  23.171  25.581  1.00  0.00    -0.076 SA
BRANCH  10  11
ATOM     11  C   UNL A   1      34.735  21.799  24.812  1.00  0.00     0.170 A 
ATOM     12  N   UNL A   1      33.493  21.645  24.176  1.00  0.00    -0.313 N 
ATOM     13  C   UNL A   1      33.316  20.251  24.001  1.00  0.00     0.072 A 
ATOM     14  N   UNL A   1      35.221  20.612  25.151  1.00  0.00    -0.221 NA
ATOM     15  C   UNL A   1      34.370  19.654  24.669  1.00  0.00     0.108 A 
ATOM     16  C   UNL A   1      32.350  19.481  23.331  1.00  0.00     0.049 A 
ATOM     17  C   UNL A   1      34.433  18.254  24.727  1.00  0.00     0.141 A 
ATOM     18  C   UNL A   1      32.522  18.105  23.397  1.00  0.00     0.113 A 
ATOM     19  N   UNL A   1      33.512  17.489  24.076  1.00  0.00    -0.262 NA
BRANCH  12  20
ATOM     20  C   UNL A   1      32.397  22.518  23.722  1.00  0.00     0.116 C 
ATOM     21  C   UNL A   1      32.775  23.492  22.588  1.00  0.00     0.034 C 
BRANCH  20  22
ATOM     22  C   UNL A   1      31.368  23.149  24.685  1.00  0.00     0.141 C 
ATOM     23  C   UNL A   1      31.617  24.563  25.140  1.00  0.00     0.036 C 
ATOM     24  O   UNL A   1      31.231  22.323  25.853  1.00  0.00    -0.376 OA
ATOM     25  C   UNL A   1      31.656  24.481  26.650  1.00  0.00     0.031 C 
ATOM     26  C   UNL A   1      31.850  23.008  26.939  1.00  0.00     0.160 C 
ENDBRANCH  20  22
ENDBRANCH  12  20
ENDBRANCH  10  11
ENDBRANCH   9  10
ENDBRANCH   7   9
ENDBRANCH   6   7
ENDBRANCH   5   6
ENDBRANCH   4   5
ENDBRANCH   3   4
ENDBRANCH   2   3
ENDBRANCH   1   2
BRANCH   1  27
ATOM     27  O   UNL A   1      44.533  17.976  25.795  1.00  0.00    -0.377 OA
BRANCH  27  28
ATOM     28  C   UNL A   1      44.908  18.967  24.879  1.00  0.00     0.188 C 
BRANCH  28  29
ATOM     29  C   UNL A   1      46.319  19.541  24.999  1.00  0.00     0.188 C 
BRANCH  29  30
ATOM     30  O   UNL A   1      46.534  20.933  25.040  1.00  0.00    -0.376 OA
BRANCH  30  31
ATOM     31  C   UNL A   1      45.445  21.822  25.215  1.00  0.00     0.202 C 
BRANCH  31  32
ATOM     32  C   UNL A   1      44.593  22.502  24.114  1.00  0.00     0.261 C 
BRANCH  32  33
ATOM     33  O   UNL A   1      44.103  23.808  24.411  1.00  0.00    -0.460 OA
BRANCH  33  34
ATOM     34  C   UNL A   1      43.021  23.965  25.202  1.00  0.00     0.338 C 
ATOM     35  O   UNL A   1      42.294  23.095  25.656  1.00  0.00    -0.246 OA
BRANCH  34  36
ATOM     36  C   UNL A   1      43.123  25.358  25.701  1.00  0.00     0.060 A 
ATOM     37  C   UNL A   1      44.145  25.724  26.587  1.00  0.00     0.016 A 
ATOM     38  C   UNL A   1      41.923  26.090  25.645  1.00  0.00     0.016 A 
ATOM     39  C   UNL A   1      43.860  26.701  27.546  1.00  0.00     0.010 A 
ATOM     40  C   UNL A   1      41.628  27.034  26.631  1.00  0.00     0.010 A 
ATOM     41  C   UNL A   1      42.557  27.278  27.640  1.00  0.00    -0.014 A 
BRANCH  41  42
ATOM     42  C   UNL A   1      42.334  28.297  28.688  1.00  0.00     0.031 A 
ATOM     43  C   UNL A   1      43.343  29.357  28.474  1.00  0.00     0.074 A 
ATOM     44  C   UNL A   1      41.361  28.436  29.623  1.00  0.00     0.049 A 
ATOM     45  N   UNL A   1      44.349  29.656  29.225  1.00  0.00    -0.248 NA
ATOM     46  C   UNL A   1      43.401  29.919  27.109  1.00  0.00     0.031 C 
ATOM     47  C   UNL A   1      40.150  27.630  29.793  1.00  0.00     0.029 A 
ATOM     48  N   UNL A   1      41.192  29.414  30.585  1.00  0.00    -0.354 N 
ATOM     49  C   UNL A   1      45.037  30.617  28.497  1.00  0.00     0.074 A 
ATOM     50  C   UNL A   1      44.577  30.537  27.136  1.00  0.00     0.031 C 
ATOM     51  C   UNL A   1      39.280  28.279  30.603  1.00  0.00     0.029 A 
ATOM     52  C   UNL A   1      39.892  29.502  31.094  1.00  0.00     0.049 A 
ATOM     53  H   UNL A   1      41.924  30.000  30.884  1.00  0.00     0.167 HD
ATOM     54  C   UNL A   1      45.654  31.652  29.116  1.00  0.00     0.037 A 
ATOM     55  C   UNL A   1      39.336  30.531  31.796  1.00  0.00     0.037 A 
ATOM     56  C   UNL A   1      45.848  31.412  30.513  1.00  0.00     0.049 A 
ATOM     57  C   UNL A   1      40.441  31.329  32.382  1.00  0.00     0.074 A 
ATOM     58  C   UNL A   1      46.728  30.685  31.283  1.00  0.00     0.029 A 
ATOM     59  N   UNL A   1      44.749  31.681  31.283  1.00  0.00    -0.354 N 
ATOM     60  N   UNL A   1      41.234  30.895  33.321  1.00  0.00    -0.248 NA
ATOM     61  C   UNL A   1      40.889  32.535  31.692  1.00  0.00     0.031 C 
ATOM     62  C   UNL A   1      46.061  30.424  32.515  1.00  0.00     0.029 A 
ATOM     63  C   UNL A   1      44.803  31.020  32.481  1.00  0.00     0.049 A 
ATOM     64  H   UNL A   1      44.012  32.274  31.010  1.00  0.00     0.167 HD
ATOM     65  C   UNL A   1      42.444  31.500  33.049  1.00  0.00     0.074 A 
ATOM     66  C   UNL A   1      42.137  32.607  32.155  1.00  0.00     0.031 C 
ATOM     67  C   UNL A   1      43.619  30.859  33.299  1.00  0.00     0.037 A 
BRANCH  54  68
ATOM     68  C   UNL A   1      45.598  33.031  28.528  1.00  0.00     0.058 A 
ATOM     69  C   UNL A   1      46.776  33.721  28.217  1.00  0.00     0.135 A 
ATOM     70  C   UNL A   1      44.400  33.786  28.467  1.00  0.00     0.135 A 
ATOM     71  F   UNL A   1      47.967  33.112  28.325  1.00  0.00    -0.206 F 
ATOM     72  C   UNL A   1      46.759  35.062  27.834  1.00  0.00     0.059 A 
ATOM     73  C   UNL A   1      44.350  35.093  28.018  1.00  0.00     0.059 A 
ATOM     74  F   UNL A   1      43.237  33.305  28.931  1.00  0.00    -0.206 F 
ATOM     75  C   UNL A   1      45.540  35.733  27.722  1.00  0.00     0.060 A 
BRANCH  75  76
ATOM     76  S   UNL A   1      45.515  37.464  27.235  1.00  0.00     0.124 S 
ATOM     77  O   UNL A   1      45.915  38.122  28.472  1.00  0.00    -0.237 OA
ATOM     78  O   UNL A   1      46.492  37.483  26.151  1.00  0.00    -0.237 OA
ATOM     79  O   UNL A   1      44.130  37.677  26.822  1.00  0.00    -0.744 OA
ENDBRANCH  75  76
ENDBRANCH  54  68
BRANCH  55  80
ATOM     80  C   UNL A   1      37.934  31.070  31.763  1.00  0.00     0.058 A 
ATOM     81  C   UNL A   1      37.178  31.241  32.944  1.00  0.00     0.135 A 
ATOM     82  C   UNL A   1      37.425  31.716  30.621  1.00  0.00     0.135 A 
ATOM     83  F   UNL A   1      37.570  30.662  34.090  1.00  0.00    -0.206 F 
ATOM     84  C   UNL A   1      36.050  32.074  33.007  1.00  0.00     0.059 A 
ATOM     85  C   UNL A   1      36.299  32.541  30.656  1.00  0.00     0.059 A 
ATOM     86  F   UNL A   1      38.066  31.654  29.446  1.00  0.00    -0.206 F 
ATOM     87  C   UNL A   1      35.640  32.750  31.860  1.00  0.00     0.060 A 
BRANCH  87  88
ATOM     88  S   UNL A   1      34.344  34.010  31.974  1.00  0.00     0.124 S 
ATOM     89  O   UNL A   1      33.844  34.058  30.604  1.00  0.00    -0.237 OA
ATOM     90  O   UNL A   1      33.442  33.433  32.964  1.00  0.00    -0.237 OA
ATOM     91  O   UNL A   1      35.069  35.201  32.414  1.00  0.00    -0.744 OA
ENDBRANCH  87  88
ENDBRANCH  55  80
BRANCH  67  92
ATOM     92  C   UNL A   1      43.646  29.846  34.401  1.00  0.00     0.058 A 
ATOM     93  C   UNL A   1      43.318  28.489  34.270  1.00  0.00     0.135 A 
ATOM     94  C   UNL A   1      44.125  30.280  35.649  1.00  0.00     0.135 A 
ATOM     95  F   UNL A   1      42.927  27.978  33.091  1.00  0.00    -0.206 F 
ATOM     96  C   UNL A   1      43.446  27.606  35.345  1.00  0.00     0.059 A 
ATOM     97  C   UNL A   1      44.306  29.409  36.716  1.00  0.00     0.059 A 
ATOM     98  F   UNL A   1      44.478  31.564  35.825  1.00  0.00    -0.206 F 
ATOM     99  C   UNL A   1      43.961  28.072  36.556  1.00  0.00     0.060 A 
BRANCH  99 100
ATOM    100  S   UNL A   1      44.253  26.895  37.892  1.00  0.00     0.124 S 
ATOM    101  O   UNL A   1      42.927  26.320  38.089  1.00  0.00    -0.237 OA
ATOM    102  O   UNL A   1      45.250  26.005  37.301  1.00  0.00    -0.237 OA
ATOM    103  O   UNL A   1      44.743  27.730  38.985  1.00  0.00    -0.744 OA
ENDBRANCH  99 100
ENDBRANCH  67  92
ENDBRANCH  41  42
ENDBRANCH  34  36
ENDBRANCH  33  34
ENDBRANCH  32  33
ENDBRANCH  31  32
ENDBRANCH  30  31
ENDBRANCH  29  30
ENDBRANCH  28  29
ENDBRANCH  27  28
ENDBRANCH   1  27
TORSDOF 27
ENDMDL
MODEL 2
REMARK VINA RESULT:      -9.4      1.070      2.256
REMARK SMILES C[C@H]([C@@H]1CCCO1)n1c(SCC(=O)OCCOCCOCCOCCOC(=O)c2ccc(-c3c4nc(c(-c5c(F)cc(S(=O)(=O)[O-])cc5F)c5ccc([nH]5)c(-c5c(F)cc(S(=O)(=O)[O-])cc5F)c5nc(c(-c6c(F)cc(S(=O)(=O)[O-])cc6F)c6ccc3[nH]6)C=C5)C=C4)cc2)nc2cnccc21
REMARK SMILES IDX 19 1 18 2 17 3 16 4 15 5 14 6 12 7 13 8 11 9 10 10 9 11 8 12
REMARK SMILES IDX 101 13 95 14 96 15 100 16 97 17 99 18 98 19 2 20 1 21 3 22
REMARK SMILES IDX 4 23 7 24 5 25 6 26 20 27 21 28 22 29 23 30 24 31 25 32
REMARK SMILES IDX 26 33 27 34 28 35 29 36 30 37 94 38 31 39 93 40 32 41 33 42
REMARK SMILES IDX 34 43 87 44 35 45 92 46 86 47 88 48 36 49 91 50 85 51 84 52
REMARK SMILES IDX 37 54 71 55 50 56 70 57 51 58 54 59 69 60 89 61 52 62 53 63
REMARK SMILES IDX 68 65 90 66 55 67 38 68 39 69 48 70 40 71 41 72 47 73 49 74
REMARK SMILES IDX 42 75 43 76 44 77 45 78 46 79 72 80 73 81 82 82 74 83 75 84
REMARK SMILES IDX 81 85 83 86 76 87 77 88 78 89 79 90 80 91 56 92 57 93 66 94
REMARK SMILES IDX 58 95 59 96 65 97 67 98 60 99 61 100 62 101 63 102 64 103
REMARK H PARENT 88 53 54 64
REMARK Flexibility Score: inf
ROOT
ATOM      1  C   UNL A   1      43.728  18.041  26.101  1.00  0.00     0.188 C 
ENDROOT
BRANCH   1   2
ATOM      2  C   UNL A   1      42.942  19.223  25.523  1.00  0.00     0.188 C 
BRANCH   2   3
ATOM      3  O   UNL A   1      41.534  19.212  25.667  1.00  0.00    -0.376 OA
BRANCH   3   4
ATOM      4  C   UNL A   1      40.855  20.121  26.521  1.00  0.00     0.202 C 
BRANCH   4   5
ATOM      5  C   UNL A   1      39.990  21.257  25.962  1.00  0.00     0.261 C 
BRANCH   5   6
ATOM      6  O   UNL A   1      39.452  22.204  26.900  1.00  0.00    -0.463 OA
BRANCH   6   7
ATOM      7  C   UNL A   1      38.725  23.262  26.456  1.00  0.00     0.316 C 
ATOM      8  O   UNL A   1      39.116  24.418  26.484  1.00  0.00    -0.251 OA
BRANCH   7   9
ATOM      9  C   UNL A   1      37.390  22.766  25.933  1.00  0.00     0.200 C 
BRANCH   9  10
ATOM     10  S   UNL A   1      36.248  23.723  24.915  1.00  0.00    -0.076 SA
BRANCH  10  11
ATOM     11  C   UNL A   1      34.567  24.013  25.261  1.00  0.00     0.170 A 
ATOM     12  N   UNL A   1      33.395  23.450  24.732  1.00  0.00    -0.313 N 
ATOM     13  C   UNL A   1      32.332  24.269  25.182  1.00  0.00     0.072 A 
ATOM     14  N   UNL A   1      34.288  25.166  25.852  1.00  0.00    -0.221 NA
ATOM     15  C   UNL A   1      32.932  25.344  25.813  1.00  0.00     0.108 A 
ATOM     16  C   UNL A   1      30.933  24.165  25.095  1.00  0.00     0.049 A 
ATOM     17  C   UNL A   1      32.123  26.374  26.317  1.00  0.00     0.141 A 
ATOM     18  C   UNL A   1      30.212  25.204  25.668  1.00  0.00     0.113 A 
ATOM     19  N   UNL A   1      30.765  26.288  26.252  1.00  0.00    -0.262 NA
BRANCH  12  20
ATOM     20  C   UNL A   1      33.040  22.321  23.854  1.00  0.00     0.116 C 
ATOM     21  C   UNL A   1      32.630  22.720  22.422  1.00  0.00     0.034 C 
BRANCH  20  22
ATOM     22  C   UNL A   1      32.244  21.091  24.343  1.00  0.00     0.141 C 
ATOM     23  C   UNL A   1      32.577  20.545  25.706  1.00  0.00     0.036 C 
ATOM     24  O   UNL A   1      32.374  20.022  23.391  1.00  0.00    -0.376 OA
ATOM     25  C   UNL A   1      32.948  19.098  25.462  1.00  0.00     0.031 C 
ATOM     26  C   UNL A   1      33.212  19.027  23.973  1.00  0.00     0.160 C 
ENDBRANCH  20  22
ENDBRANCH  12  20
ENDBRANCH  10  11
ENDBRANCH   9  10
ENDBRANCH   7   9
ENDBRANCH   6   7
ENDBRANCH   5   6
ENDBRANCH   4   5
ENDBRANCH   3   4
ENDBRANCH   2   3
ENDBRANCH   1   2
BRANCH   1  27
ATOM     27  O   UNL A   1      45.080  18.002  25.741  1.00  0.00    -0.377 OA
BRANCH  27  28
ATOM     28  C   UNL A   1      45.415  18.850  24.678  1.00  0.00     0.188 C 
BRANCH  28  29
ATOM     29  C   UNL A   1      46.787  19.521  24.715  1.00  0.00     0.188 C 
BRANCH  29  30
ATOM     30  O   UNL A   1      46.907  20.925  24.698  1.00  0.00    -0.376 OA
BRANCH  30  31
ATOM     31  C   UNL A   1      45.767  21.746  24.883  1.00  0.00     0.202 C 
BRANCH  31  32
ATOM     32  C   UNL A   1      44.959  22.500  23.797  1.00  0.00     0.261 C 
BRANCH  32  33
ATOM     33  O   UNL A   1      44.477  23.793  24.154  1.00  0.00    -0.460 OA
BRANCH  33  34
ATOM     34  C   UNL A   1      43.332  23.922  24.859  1.00  0.00     0.338 C 
ATOM     35  O   UNL A   1      42.574  23.036  25.221  1.00  0.00    -0.246 OA
BRANCH  34  36
ATOM     36  C   UNL A   1      43.387  25.298  25.410  1.00  0.00     0.060 A 
ATOM     37  C   UNL A   1      44.413  25.673  26.286  1.00  0.00     0.016 A 
ATOM     38  C   UNL A   1      42.155  25.978  25.411  1.00  0.00     0.016 A 
ATOM     39  C   UNL A   1      44.110  26.599  27.290  1.00  0.00     0.010 A 
ATOM     40  C   UNL A   1      41.844  26.869  26.441  1.00  0.00     0.010 A 
ATOM     41  C   UNL A   1      42.786  27.114  27.437  1.00  0.00    -0.014 A 
BRANCH  41  42
ATOM     42  C   UNL A   1      42.546  28.081  28.530  1.00  0.00     0.031 A 
ATOM     43  C   UNL A   1      43.546  29.159  28.373  1.00  0.00     0.074 A 
ATOM     44  C   UNL A   1      41.565  28.166  29.463  1.00  0.00     0.049 A 
ATOM     45  N   UNL A   1      44.543  29.432  29.145  1.00  0.00    -0.248 NA
ATOM     46  C   UNL A   1      43.607  29.785  27.036  1.00  0.00     0.031 C 
ATOM     47  C   UNL A   1      40.361  27.340  29.586  1.00  0.00     0.029 A 
ATOM     48  N   UNL A   1      41.379  29.096  30.468  1.00  0.00    -0.354 N 
ATOM     49  C   UNL A   1      45.226  30.433  28.468  1.00  0.00     0.074 A 
ATOM     50  C   UNL A   1      44.777  30.413  27.102  1.00  0.00     0.031 C 
ATOM     51  C   UNL A   1      39.479  27.942  30.419  1.00  0.00     0.029 A 
ATOM     52  C   UNL A   1      40.075  29.147  30.972  1.00  0.00     0.049 A 
ATOM     53  H   UNL A   1      42.103  29.674  30.800  1.00  0.00     0.167 HD
ATOM     54  C   UNL A   1      45.828  31.444  29.139  1.00  0.00     0.037 A 
ATOM     55  C   UNL A   1      39.503  30.136  31.717  1.00  0.00     0.037 A 
ATOM     56  C   UNL A   1      46.015  31.140  30.525  1.00  0.00     0.049 A 
ATOM     57  C   UNL A   1      40.596  30.917  32.347  1.00  0.00     0.074 A 
ATOM     58  C   UNL A   1      46.897  30.387  31.267  1.00  0.00     0.029 A 
ATOM     59  N   UNL A   1      44.908  31.362  31.299  1.00  0.00    -0.354 N 
ATOM     60  N   UNL A   1      41.387  30.447  33.271  1.00  0.00    -0.248 NA
ATOM     61  C   UNL A   1      41.036  32.159  31.718  1.00  0.00     0.031 C 
ATOM     62  C   UNL A   1      46.224  30.061  32.480  1.00  0.00     0.029 A 
ATOM     63  C   UNL A   1      44.960  30.646  32.464  1.00  0.00     0.049 A 
ATOM     64  H   UNL A   1      44.167  31.960  31.048  1.00  0.00     0.167 HD
ATOM     65  C   UNL A   1      42.593  31.076  33.037  1.00  0.00     0.074 A 
ATOM     66  C   UNL A   1      42.281  32.221  32.193  1.00  0.00     0.031 C 
ATOM     67  C   UNL A   1      43.772  30.436  33.265  1.00  0.00     0.037 A 
BRANCH  54  68
ATOM     68  C   UNL A   1      45.763  32.849  28.616  1.00  0.00     0.058 A 
ATOM     69  C   UNL A   1      46.935  33.558  28.332  1.00  0.00     0.135 A 
ATOM     70  C   UNL A   1      44.560  33.599  28.595  1.00  0.00     0.135 A 
ATOM     71  F   UNL A   1      48.130  32.951  28.407  1.00  0.00    -0.206 F 
ATOM     72  C   UNL A   1      46.909  34.916  28.012  1.00  0.00     0.059 A 
ATOM     73  C   UNL A   1      44.502  34.925  28.208  1.00  0.00     0.059 A 
ATOM     74  F   UNL A   1      43.402  33.090  29.041  1.00  0.00    -0.206 F 
ATOM     75  C   UNL A   1      45.686  35.584  27.937  1.00  0.00     0.060 A 
BRANCH  75  76
ATOM     76  S   UNL A   1      45.650  37.336  27.531  1.00  0.00     0.124 S 
ATOM     77  O   UNL A   1      44.301  37.485  26.999  1.00  0.00    -0.237 OA
ATOM     78  O   UNL A   1      45.901  37.949  28.831  1.00  0.00    -0.237 OA
ATOM     79  O   UNL A   1      46.733  37.479  26.561  1.00  0.00    -0.744 OA
ENDBRANCH  75  76
ENDBRANCH  54  68
BRANCH  55  80
ATOM     80  C   UNL A   1      38.097  30.662  31.698  1.00  0.00     0.058 A 
ATOM     81  C   UNL A   1      37.367  30.871  32.891  1.00  0.00     0.135 A 
ATOM     82  C   UNL A   1      37.555  31.263  30.546  1.00  0.00     0.135 A 
ATOM     83  F   UNL A   1      37.793  30.337  34.047  1.00  0.00    -0.206 F 
ATOM     84  C   UNL A   1      36.234  31.697  32.951  1.00  0.00     0.059 A 
ATOM     85  C   UNL A   1      36.422  32.079  30.579  1.00  0.00     0.059 A 
ATOM     86  F   UNL A   1      38.167  31.162  29.359  1.00  0.00    -0.206 F 
ATOM     87  C   UNL A   1      35.791  32.327  31.791  1.00  0.00     0.060 A 
BRANCH  87  88
ATOM     88  S   UNL A   1      34.487  33.580  31.890  1.00  0.00     0.124 S 
ATOM     89  O   UNL A   1      35.228  34.759  32.324  1.00  0.00    -0.237 OA
ATOM     90  O   UNL A   1      33.986  33.609  30.520  1.00  0.00    -0.237 OA
ATOM     91  O   UNL A   1      33.562  33.027  32.877  1.00  0.00    -0.744 OA
ENDBRANCH  87  88
ENDBRANCH  55  80
BRANCH  67  92
ATOM     92  C   UNL A   1      43.802  29.373  34.319  1.00  0.00     0.058 A 
ATOM     93  C   UNL A   1      43.468  28.024  34.127  1.00  0.00     0.135 A 
ATOM     94  C   UNL A   1      44.290  29.746  35.583  1.00  0.00     0.135 A 
ATOM     95  F   UNL A   1      43.069  27.570  32.928  1.00  0.00    -0.206 F 
ATOM     96  C   UNL A   1      43.599  27.092  35.158  1.00  0.00     0.059 A 
ATOM     97  C   UNL A   1      44.473  28.826  36.607  1.00  0.00     0.059 A 
ATOM     98  F   UNL A   1      44.648  31.020  35.816  1.00  0.00    -0.206 F 
ATOM     99  C   UNL A   1      44.122  27.499  36.387  1.00  0.00     0.060 A 
BRANCH  99 100
ATOM    100  S   UNL A   1      44.418  26.260  37.665  1.00  0.00     0.124 S 
ATOM    101  O   UNL A   1      45.809  26.515  38.023  1.00  0.00    -0.237 OA
ATOM    102  O   UNL A   1      43.426  26.622  38.675  1.00  0.00    -0.237 OA
ATOM    103  O   UNL A   1      44.168  24.995  36.981  1.00  0.00    -0.744 OA
ENDBRANCH  99 100
ENDBRANCH  67  92
ENDBRANCH  41  42
ENDBRANCH  34  36
ENDBRANCH  33  34
ENDBRANCH  32  33
ENDBRANCH  31  32
ENDBRANCH  30  31
ENDBRANCH  29  30
ENDBRANCH  28  29
ENDBRANCH  27  28
ENDBRANCH   1  27
TORSDOF 27
ENDMDL
MODEL 3
REMARK VINA RESULT:      -7.8      2.702      7.728
REMARK SMILES C[C@H]([C@@H]1CCCO1)n1c(SCC(=O)OCCOCCOCCOCCOC(=O)c2ccc(-c3c4nc(c(-c5c(F)cc(S(=O)(=O)[O-])cc5F)c5ccc([nH]5)c(-c5c(F)cc(S(=O)(=O)[O-])cc5F)c5nc(c(-c6c(F)cc(S(=O)(=O)[O-])cc6F)c6ccc3[nH]6)C=C5)C=C4)cc2)nc2cnccc21
REMARK SMILES IDX 19 1 18 2 17 3 16 4 15 5 14 6 12 7 13 8 11 9 10 10 9 11 8 12
REMARK SMILES IDX 101 13 95 14 96 15 100 16 97 17 99 18 98 19 2 20 1 21 3 22
REMARK SMILES IDX 4 23 7 24 5 25 6 26 20 27 21 28 22 29 23 30 24 31 25 32
REMARK SMILES IDX 26 33 27 34 28 35 29 36 30 37 94 38 31 39 93 40 32 41 33 42
REMARK SMILES IDX 34 43 87 44 35 45 92 46 86 47 88 48 36 49 91 50 85 51 84 52
REMARK SMILES IDX 37 54 71 55 50 56 70 57 51 58 54 59 69 60 89 61 52 62 53 63
REMARK SMILES IDX 68 65 90 66 55 67 38 68 39 69 48 70 40 71 41 72 47 73 49 74
REMARK SMILES IDX 42 75 43 76 44 77 45 78 46 79 72 80 73 81 82 82 74 83 75 84
REMARK SMILES IDX 81 85 83 86 76 87 77 88 78 89 79 90 80 91 56 92 57 93 66 94
REMARK SMILES IDX 58 95 59 96 65 97 67 98 60 99 61 100 62 101 63 102 64 103
REMARK H PARENT 88 53 54 64
REMARK Flexibility Score: inf
ROOT
ATOM      1  C   UNL A   1      44.658  19.855  25.179  1.00  0.00     0.188 C 
ENDROOT
BRANCH   1   2
ATOM      2  C   UNL A   1      43.303  20.434  25.600  1.00  0.00     0.188 C 
BRANCH   2   3
ATOM      3  O   UNL A   1      42.612  19.792  26.655  1.00  0.00    -0.376 OA
BRANCH   3   4
ATOM      4  C   UNL A   1      41.281  20.137  27.007  1.00  0.00     0.202 C 
BRANCH   4   5
ATOM      5  C   UNL A   1      40.437  21.078  26.137  1.00  0.00     0.261 C 
BRANCH   5   6
ATOM      6  O   UNL A   1      39.918  22.266  26.757  1.00  0.00    -0.463 OA
BRANCH   6   7
ATOM      7  C   UNL A   1      38.678  22.715  26.432  1.00  0.00     0.316 C 
ATOM      8  O   UNL A   1      38.222  23.786  26.802  1.00  0.00    -0.251 OA
BRANCH   7   9
ATOM      9  C   UNL A   1      37.988  21.687  25.555  1.00  0.00     0.200 C 
BRANCH   9  10
ATOM     10  S   UNL A   1      36.443  21.950  24.659  1.00  0.00    -0.076 SA
BRANCH  10  11
ATOM     11  C   UNL A   1      35.266  23.188  24.991  1.00  0.00     0.170 A 
ATOM     12  N   UNL A   1      33.994  23.132  25.582  1.00  0.00    -0.313 N 
ATOM     13  C   UNL A   1      33.391  24.387  25.329  1.00  0.00     0.072 A 
ATOM     14  N   UNL A   1      35.393  24.309  24.294  1.00  0.00    -0.221 NA
ATOM     15  C   UNL A   1      34.260  25.054  24.482  1.00  0.00     0.108 A 
ATOM     16  C   UNL A   1      32.193  24.984  25.757  1.00  0.00     0.049 A 
ATOM     17  C   UNL A   1      33.900  26.320  23.999  1.00  0.00     0.141 A 
ATOM     18  C   UNL A   1      31.944  26.260  25.269  1.00  0.00     0.113 A 
ATOM     19  N   UNL A   1      32.748  26.920  24.409  1.00  0.00    -0.262 NA
BRANCH  12  20
ATOM     20  C   UNL A   1      33.184  22.139  26.311  1.00  0.00     0.116 C 
ATOM     21  C   UNL A   1      33.874  21.523  27.544  1.00  0.00     0.034 C 
BRANCH  20  22
ATOM     22  C   UNL A   1      32.275  21.111  25.603  1.00  0.00     0.141 C 
ATOM     23  C   UNL A   1      32.802  19.709  25.446  1.00  0.00     0.036 C 
ATOM     24  O   UNL A   1      31.916  21.600  24.300  1.00  0.00    -0.376 OA
ATOM     25  C   UNL A   1      32.760  19.445  23.957  1.00  0.00     0.031 C 
ATOM     26  C   UNL A   1      32.622  20.820  23.338  1.00  0.00     0.160 C 
ENDBRANCH  20  22
ENDBRANCH  12  20
ENDBRANCH  10  11
ENDBRANCH   9  10
ENDBRANCH   7   9
ENDBRANCH   6   7
ENDBRANCH   5   6
ENDBRANCH   4   5
ENDBRANCH   3   4
ENDBRANCH   2   3
ENDBRANCH   1   2
BRANCH   1  27
ATOM     27  O   UNL A   1      45.771  20.578  25.628  1.00  0.00    -0.377 OA
BRANCH  27  28
ATOM     28  C   UNL A   1      45.641  21.967  25.498  1.00  0.00     0.188 C 
BRANCH  28  29
ATOM     29  C   UNL A   1      46.077  22.597  24.177  1.00  0.00     0.188 C 
BRANCH  29  30
ATOM     30  O   UNL A   1      46.792  23.811  24.154  1.00  0.00    -0.376 OA
BRANCH  30  31
ATOM     31  C   UNL A   1      46.591  24.782  25.166  1.00  0.00     0.202 C 
BRANCH  31  32
ATOM     32  C   UNL A   1      46.008  26.208  25.005  1.00  0.00     0.261 C 
BRANCH  32  33
ATOM     33  O   UNL A   1      46.846  27.283  25.424  1.00  0.00    -0.460 OA
BRANCH  33  34
ATOM     34  C   UNL A   1      46.347  28.534  25.529  1.00  0.00     0.338 C 
ATOM     35  O   UNL A   1      46.363  29.418  24.687  1.00  0.00    -0.246 OA
BRANCH  34  36
ATOM     36  C   UNL A   1      45.462  28.483  26.718  1.00  0.00     0.060 A 
ATOM     37  C   UNL A   1      44.090  28.733  26.595  1.00  0.00     0.016 A 
ATOM     38  C   UNL A   1      46.122  28.672  27.947  1.00  0.00     0.016 A 
ATOM     39  C   UNL A   1      43.442  29.364  27.663  1.00  0.00     0.010 A 
ATOM     40  C   UNL A   1      45.482  29.341  28.993  1.00  0.00     0.010 A 
ATOM     41  C   UNL A   1      44.167  29.772  28.823  1.00  0.00    -0.014 A 
BRANCH  41  42
ATOM     42  C   UNL A   1      43.411  30.442  29.902  1.00  0.00     0.031 A 
ATOM     43  C   UNL A   1      43.219  29.441  30.974  1.00  0.00     0.074 A 
ATOM     44  C   UNL A   1      43.032  31.733  30.075  1.00  0.00     0.049 A 
ATOM     45  N   UNL A   1      42.117  28.885  31.350  1.00  0.00    -0.248 NA
ATOM     46  C   UNL A   1      44.446  28.766  31.446  1.00  0.00     0.031 C 
ATOM     47  C   UNL A   1      43.373  32.893  29.248  1.00  0.00     0.029 A 
ATOM     48  N   UNL A   1      42.325  32.316  31.110  1.00  0.00    -0.354 N 
ATOM     49  C   UNL A   1      42.521  27.937  32.279  1.00  0.00     0.074 A 
ATOM     50  C   UNL A   1      43.932  27.728  32.097  1.00  0.00     0.031 C 
ATOM     51  C   UNL A   1      43.095  34.033  29.924  1.00  0.00     0.029 A 
ATOM     52  C   UNL A   1      42.469  33.705  31.194  1.00  0.00     0.049 A 
ATOM     53  H   UNL A   1      41.769  31.797  31.734  1.00  0.00     0.167 HD
ATOM     54  C   UNL A   1      41.766  27.664  33.371  1.00  0.00     0.037 A 
ATOM     55  C   UNL A   1      42.171  34.515  32.251  1.00  0.00     0.037 A 
ATOM     56  C   UNL A   1      40.419  28.127  33.229  1.00  0.00     0.049 A 
ATOM     57  C   UNL A   1      41.208  33.793  33.118  1.00  0.00     0.074 A 
ATOM     58  C   UNL A   1      39.284  27.697  32.580  1.00  0.00     0.029 A 
ATOM     59  N   UNL A   1      40.253  29.455  33.517  1.00  0.00    -0.354 N 
ATOM     60  N   UNL A   1      39.982  33.515  32.769  1.00  0.00    -0.248 NA
ATOM     61  C   UNL A   1      41.703  33.074  34.287  1.00  0.00     0.031 C 
ATOM     62  C   UNL A   1      38.474  28.852  32.382  1.00  0.00     0.029 A 
ATOM     63  C   UNL A   1      39.118  29.954  32.938  1.00  0.00     0.049 A 
ATOM     64  H   UNL A   1      40.873  29.984  34.070  1.00  0.00     0.167 HD
ATOM     65  C   UNL A   1      39.718  32.311  33.389  1.00  0.00     0.074 A 
ATOM     66  C   UNL A   1      40.731  32.172  34.425  1.00  0.00     0.031 C 
ATOM     67  C   UNL A   1      38.917  31.382  32.799  1.00  0.00     0.037 A 
BRANCH  54  68
ATOM     68  C   UNL A   1      42.412  27.439  34.706  1.00  0.00     0.058 A 
ATOM     69  C   UNL A   1      43.062  28.487  35.368  1.00  0.00     0.135 A 
ATOM     70  C   UNL A   1      42.599  26.145  35.253  1.00  0.00     0.135 A 
ATOM     71  F   UNL A   1      43.010  29.735  34.877  1.00  0.00    -0.206 F 
ATOM     72  C   UNL A   1      43.817  28.267  36.520  1.00  0.00     0.059 A 
ATOM     73  C   UNL A   1      43.279  25.914  36.435  1.00  0.00     0.059 A 
ATOM     74  F   UNL A   1      42.201  25.039  34.607  1.00  0.00    -0.206 F 
ATOM     75  C   UNL A   1      43.904  26.981  37.054  1.00  0.00     0.060 A 
BRANCH  75  76
ATOM     76  S   UNL A   1      44.882  26.694  38.536  1.00  0.00     0.124 S 
ATOM     77  O   UNL A   1      43.847  26.389  39.515  1.00  0.00    -0.237 OA
ATOM     78  O   UNL A   1      45.726  25.576  38.125  1.00  0.00    -0.237 OA
ATOM     79  O   UNL A   1      45.583  27.961  38.727  1.00  0.00    -0.744 OA
ENDBRANCH  75  76
ENDBRANCH  54  68
BRANCH  55  80
ATOM     80  C   UNL A   1      42.876  35.745  32.747  1.00  0.00     0.058 A 
ATOM     81  C   UNL A   1      43.838  36.416  31.958  1.00  0.00     0.135 A 
ATOM     82  C   UNL A   1      42.400  36.463  33.860  1.00  0.00     0.135 A 
ATOM     83  F   UNL A   1      44.363  35.819  30.876  1.00  0.00    -0.206 F 
ATOM     84  C   UNL A   1      44.227  37.742  32.204  1.00  0.00     0.059 A 
ATOM     85  C   UNL A   1      42.781  37.779  34.132  1.00  0.00     0.059 A 
ATOM     86  F   UNL A   1      41.466  35.948  34.669  1.00  0.00    -0.206 F 
ATOM     87  C   UNL A   1      43.662  38.428  33.276  1.00  0.00     0.060 A 
BRANCH  87  88
ATOM     88  S   UNL A   1      43.963  40.204  33.467  1.00  0.00     0.124 S 
ATOM     89  O   UNL A   1      44.623  40.539  32.211  1.00  0.00    -0.237 OA
ATOM     90  O   UNL A   1      42.611  40.726  33.638  1.00  0.00    -0.237 OA
ATOM     91  O   UNL A   1      44.810  40.277  34.656  1.00  0.00    -0.744 OA
ENDBRANCH  87  88
ENDBRANCH  55  80
BRANCH  67  92
ATOM     92  C   UNL A   1      37.852  31.864  31.863  1.00  0.00     0.058 A 
ATOM     93  C   UNL A   1      36.557  32.252  32.232  1.00  0.00     0.135 A 
ATOM     94  C   UNL A   1      38.217  32.019  30.514  1.00  0.00     0.135 A 
ATOM     95  F   UNL A   1      36.155  32.209  33.513  1.00  0.00    -0.206 F 
ATOM     96  C   UNL A   1      35.657  32.759  31.292  1.00  0.00     0.059 A 
ATOM     97  C   UNL A   1      37.354  32.565  29.573  1.00  0.00     0.059 A 
ATOM     98  F   UNL A   1      39.453  31.686  30.109  1.00  0.00    -0.206 F 
ATOM     99  C   UNL A   1      36.073  32.930  29.970  1.00  0.00     0.060 A 
BRANCH  99 100
ATOM    100  S   UNL A   1      34.949  33.715  28.795  1.00  0.00     0.124 S 
ATOM    101  O   UNL A   1      35.043  32.827  27.642  1.00  0.00    -0.237 OA
ATOM    102  O   UNL A   1      33.681  33.683  29.520  1.00  0.00    -0.237 OA
ATOM    103  O   UNL A   1      35.520  35.045  28.610  1.00  0.00    -0.744 OA
ENDBRANCH  99 100
ENDBRANCH  67  92
ENDBRANCH  41  42
ENDBRANCH  34  36
ENDBRANCH  33  34
ENDBRANCH  32  33
ENDBRANCH  31  32
ENDBRANCH  30  31
ENDBRANCH  29  30
ENDBRANCH  28  29
ENDBRANCH  27  28
ENDBRANCH   1  27
TORSDOF 27
ENDMDL
