MODEL 1
REMARK VINA RESULT:      -7.7      0.000      0.000
REMARK SMILES O=C(C[C@@H]1C[N@@H+](CCSc2ccccc2F)CCO1)OCCOCCOCCOCCOC(=O)c1ccc(-c2c3nc(c(-c4c(F)cc(S(=O)(=O)[O-])cc4F)c4ccc([nH]4)c(-c4c(F)cc(S(=O)(=O)[O-])cc4F)c4nc(c(-c5c(F)cc(S(=O)(=O)[O-])cc5F)c5ccc2[nH]5)C=C4)C=C3)cc1
REMARK SMILES IDX 25 1 24 2 23 3 22 4 21 5 20 6 2 7 1 8 3 9 4 10 5 11 19 12
REMARK SMILES IDX 6 13 18 14 17 15 7 17 8 18 9 19 10 20 11 21 15 22 12 23
REMARK SMILES IDX 14 24 16 25 13 26 26 27 27 28 28 29 29 30 30 31 31 32 32 33
REMARK SMILES IDX 33 34 34 35 35 36 36 37 100 38 37 39 99 40 38 41 39 42 40 43
REMARK SMILES IDX 93 44 41 45 98 46 92 47 94 48 42 49 97 50 91 51 90 52 43 54
REMARK SMILES IDX 77 55 56 56 76 57 57 58 60 59 75 60 95 61 58 62 59 63 74 65
REMARK SMILES IDX 96 66 61 67 44 68 45 69 54 70 46 71 47 72 53 73 55 74 48 75
REMARK SMILES IDX 49 76 50 77 51 78 52 79 78 80 79 81 88 82 80 83 81 84 87 85
REMARK SMILES IDX 89 86 82 87 83 88 84 89 85 90 86 91 62 92 63 93 72 94 64 95
REMARK SMILES IDX 65 96 71 97 73 98 66 99 67 100 68 101 69 102 70 103
REMARK H PARENT 6 16 94 53 60 64
REMARK Flexibility Score: inf
ROOT
ATOM      1  C   UNL A   1      40.286  25.057  28.012  1.00  0.00     0.188 C 
ENDROOT
BRANCH   1   2
ATOM      2  C   UNL A   1      40.459  26.504  28.464  1.00  0.00     0.188 C 
BRANCH   2   3
ATOM      3  O   UNL A   1      39.405  27.439  28.258  1.00  0.00    -0.376 OA
BRANCH   3   4
ATOM      4  C   UNL A   1      39.555  28.740  27.726  1.00  0.00     0.202 C 
BRANCH   4   5
ATOM      5  C   UNL A   1      38.634  29.836  28.196  1.00  0.00     0.261 C 
BRANCH   5   6
ATOM      6  O   UNL A   1      39.063  30.651  29.318  1.00  0.00    -0.463 OA
BRANCH   6   7
ATOM      7  C   UNL A   1      38.542  31.007  30.508  1.00  0.00     0.308 C 
ATOM      8  O   UNL A   1      39.005  30.453  31.508  1.00  0.00    -0.252 OA
BRANCH   7   9
ATOM      9  C   UNL A   1      37.464  32.071  30.675  1.00  0.00     0.160 C 
BRANCH   9  10
ATOM     10  C   UNL A   1      35.975  31.755  30.406  1.00  0.00     0.184 C 
ATOM     11  C   UNL A   1      35.640  30.856  29.158  1.00  0.00     0.295 C 
ATOM     12  O   UNL A   1      35.165  32.929  30.399  1.00  0.00    -0.366 OA
ATOM     13  N   UNL A   1      35.301  31.576  27.916  1.00  0.00    -0.330 N 
ATOM     14  C   UNL A   1      35.404  33.721  29.232  1.00  0.00     0.222 C 
ATOM     15  C   UNL A   1      35.884  32.877  28.016  1.00  0.00     0.291 C 
ATOM     16  H   UNL A   1      35.673  30.986  27.171  1.00  0.00     0.348 HD
BRANCH  13  17
ATOM     17  C   UNL A   1      33.886  31.705  27.523  1.00  0.00     0.273 C 
BRANCH  17  18
ATOM     18  C   UNL A   1      32.947  30.441  27.300  1.00  0.00     0.136 C 
BRANCH  18  19
ATOM     19  S   UNL A   1      32.423  29.744  25.605  1.00  0.00    -0.117 SA
BRANCH  19  20
ATOM     20  C   UNL A   1      32.629  27.974  25.150  1.00  0.00     0.043 A 
ATOM     21  C   UNL A   1      33.382  27.357  24.137  1.00  0.00     0.018 A 
ATOM     22  C   UNL A   1      32.195  27.074  26.145  1.00  0.00     0.136 A 
ATOM     23  C   UNL A   1      33.849  26.029  24.202  1.00  0.00     0.001 A 
ATOM     24  C   UNL A   1      32.610  25.732  26.202  1.00  0.00     0.040 A 
ATOM     25  F   UNL A   1      31.361  27.492  27.111  1.00  0.00    -0.206 F 
ATOM     26  C   UNL A   1      33.489  25.221  25.258  1.00  0.00     0.003 A 
ENDBRANCH  19  20
ENDBRANCH  18  19
ENDBRANCH  17  18
ENDBRANCH  13  17
ENDBRANCH   9  10
ENDBRANCH   7   9
ENDBRANCH   6   7
ENDBRANCH   5   6
ENDBRANCH   4   5
ENDBRANCH   3   4
ENDBRANCH   2   3
ENDBRANCH   1   2
BRANCH   1  27
ATOM     27  O   UNL A   1      41.206  24.128  28.565  1.00  0.00    -0.377 OA
BRANCH  27  28
ATOM     28  C   UNL A   1      41.165  22.837  27.969  1.00  0.00     0.188 C 
BRANCH  28  29
ATOM     29  C   UNL A   1      40.799  22.852  26.469  1.00  0.00     0.188 C 
BRANCH  29  30
ATOM     30  O   UNL A   1      41.443  21.837  25.706  1.00  0.00    -0.376 OA
BRANCH  30  31
ATOM     31  C   UNL A   1      42.734  21.432  26.140  1.00  0.00     0.202 C 
BRANCH  31  32
ATOM     32  C   UNL A   1      43.870  21.553  25.112  1.00  0.00     0.261 C 
BRANCH  32  33
ATOM     33  O   UNL A   1      43.983  22.822  24.446  1.00  0.00    -0.460 OA
BRANCH  33  34
ATOM     34  C   UNL A   1      45.145  23.499  24.551  1.00  0.00     0.338 C 
ATOM     35  O   UNL A   1      46.130  23.380  23.843  1.00  0.00    -0.246 OA
BRANCH  34  36
ATOM     36  C   UNL A   1      44.920  24.614  25.501  1.00  0.00     0.060 A 
ATOM     37  C   UNL A   1      46.039  25.288  26.014  1.00  0.00     0.016 A 
ATOM     38  C   UNL A   1      43.628  25.056  25.809  1.00  0.00     0.016 A 
ATOM     39  C   UNL A   1      45.870  26.372  26.873  1.00  0.00     0.010 A 
ATOM     40  C   UNL A   1      43.457  26.117  26.701  1.00  0.00     0.010 A 
ATOM     41  C   UNL A   1      44.580  26.741  27.274  1.00  0.00    -0.014 A 
BRANCH  41  42
ATOM     42  C   UNL A   1      44.434  27.483  28.548  1.00  0.00     0.031 A 
ATOM     43  C   UNL A   1      44.553  26.672  29.813  1.00  0.00     0.074 A 
ATOM     44  C   UNL A   1      44.272  28.816  28.601  1.00  0.00     0.049 A 
ATOM     45  N   UNL A   1      44.492  27.057  31.058  1.00  0.00    -0.248 NA
ATOM     46  C   UNL A   1      44.782  25.225  29.640  1.00  0.00     0.031 C 
ATOM     47  C   UNL A   1      44.202  29.712  27.450  1.00  0.00     0.029 A 
ATOM     48  N   UNL A   1      44.146  29.648  29.686  1.00  0.00    -0.354 N 
ATOM     49  C   UNL A   1      44.691  25.906  31.812  1.00  0.00     0.074 A 
ATOM     50  C   UNL A   1      44.828  24.803  30.892  1.00  0.00     0.031 C 
ATOM     51  C   UNL A   1      44.047  30.974  27.890  1.00  0.00     0.029 A 
ATOM     52  C   UNL A   1      43.982  30.972  29.353  1.00  0.00     0.049 A 
ATOM     53  H   UNL A   1      44.172  29.327  30.616  1.00  0.00     0.167 HD
ATOM     54  C   UNL A   1      44.772  25.777  33.155  1.00  0.00     0.037 A 
ATOM     55  C   UNL A   1      43.795  32.049  30.143  1.00  0.00     0.037 A 
ATOM     56  C   UNL A   1      44.607  26.870  34.070  1.00  0.00     0.049 A 
ATOM     57  C   UNL A   1      43.785  31.872  31.641  1.00  0.00     0.074 A 
ATOM     58  C   UNL A   1      44.632  26.845  35.452  1.00  0.00     0.029 A 
ATOM     59  N   UNL A   1      44.376  28.185  33.693  1.00  0.00    -0.354 N 
ATOM     60  N   UNL A   1      43.963  30.777  32.344  1.00  0.00    -0.248 NA
ATOM     61  C   UNL A   1      43.550  33.074  32.454  1.00  0.00     0.031 C 
ATOM     62  C   UNL A   1      44.370  28.139  35.911  1.00  0.00     0.029 A 
ATOM     63  C   UNL A   1      44.239  28.980  34.815  1.00  0.00     0.049 A 
ATOM     64  H   UNL A   1      44.318  28.504  32.763  1.00  0.00     0.167 HD
ATOM     65  C   UNL A   1      43.888  31.162  33.680  1.00  0.00     0.074 A 
ATOM     66  C   UNL A   1      43.654  32.592  33.687  1.00  0.00     0.031 C 
ATOM     67  C   UNL A   1      44.007  30.403  34.800  1.00  0.00     0.037 A 
BRANCH  54  68
ATOM     68  C   UNL A   1      45.025  24.400  33.697  1.00  0.00     0.058 A 
ATOM     69  C   UNL A   1      46.335  23.928  33.864  1.00  0.00     0.135 A 
ATOM     70  C   UNL A   1      43.969  23.548  34.062  1.00  0.00     0.135 A 
ATOM     71  F   UNL A   1      47.381  24.710  33.551  1.00  0.00    -0.206 F 
ATOM     72  C   UNL A   1      46.591  22.657  34.365  1.00  0.00     0.059 A 
ATOM     73  C   UNL A   1      44.202  22.282  34.591  1.00  0.00     0.059 A 
ATOM     74  F   UNL A   1      42.696  23.965  33.958  1.00  0.00    -0.206 F 
ATOM     75  C   UNL A   1      45.518  21.842  34.728  1.00  0.00     0.060 A 
BRANCH  75  76
ATOM     76  S   UNL A   1      45.871  20.216  35.428  1.00  0.00     0.124 S 
ATOM     77  O   UNL A   1      45.866  20.499  36.858  1.00  0.00    -0.237 OA
ATOM     78  O   UNL A   1      44.752  19.420  34.930  1.00  0.00    -0.237 OA
ATOM     79  O   UNL A   1      47.171  19.877  34.855  1.00  0.00    -0.744 OA
ENDBRANCH  75  76
ENDBRANCH  54  68
BRANCH  55  80
ATOM     80  C   UNL A   1      43.620  33.392  29.527  1.00  0.00     0.058 A 
ATOM     81  C   UNL A   1      44.724  34.130  29.071  1.00  0.00     0.135 A 
ATOM     82  C   UNL A   1      42.352  33.982  29.419  1.00  0.00     0.135 A 
ATOM     83  F   UNL A   1      45.959  33.611  29.147  1.00  0.00    -0.206 F 
ATOM     84  C   UNL A   1      44.582  35.419  28.570  1.00  0.00     0.059 A 
ATOM     85  C   UNL A   1      42.182  35.263  28.899  1.00  0.00     0.059 A 
ATOM     86  F   UNL A   1      41.264  33.308  29.820  1.00  0.00    -0.206 F 
ATOM     87  C   UNL A   1      43.307  35.983  28.501  1.00  0.00     0.060 A 
BRANCH  87  88
ATOM     88  S   UNL A   1      43.155  37.683  27.909  1.00  0.00     0.124 S 
ATOM     89  O   UNL A   1      44.447  37.878  27.257  1.00  0.00    -0.237 OA
ATOM     90  O   UNL A   1      42.002  37.595  27.020  1.00  0.00    -0.237 OA
ATOM     91  O   UNL A   1      42.947  38.450  29.132  1.00  0.00    -0.744 OA
ENDBRANCH  87  88
ENDBRANCH  55  80
BRANCH  67  92
ATOM     92  C   UNL A   1      43.913  31.095  36.132  1.00  0.00     0.058 A 
ATOM     93  C   UNL A   1      45.075  31.536  36.785  1.00  0.00     0.135 A 
ATOM     94  C   UNL A   1      42.689  31.239  36.803  1.00  0.00     0.135 A 
ATOM     95  F   UNL A   1      46.273  31.411  36.192  1.00  0.00    -0.206 F 
ATOM     96  C   UNL A   1      45.030  32.079  38.063  1.00  0.00     0.059 A 
ATOM     97  C   UNL A   1      42.617  31.807  38.072  1.00  0.00     0.059 A 
ATOM     98  F   UNL A   1      41.548  30.839  36.220  1.00  0.00    -0.206 F 
ATOM     99  C   UNL A   1      43.796  32.209  38.700  1.00  0.00     0.060 A 
BRANCH  99 100
ATOM    100  S   UNL A   1      43.754  32.935  40.353  1.00  0.00     0.124 S 
ATOM    101  O   UNL A   1      42.458  33.607  40.352  1.00  0.00    -0.237 OA
ATOM    102  O   UNL A   1      43.858  31.757  41.210  1.00  0.00    -0.237 OA
ATOM    103  O   UNL A   1      44.919  33.815  40.365  1.00  0.00    -0.744 OA
ENDBRANCH  99 100
ENDBRANCH  67  92
ENDBRANCH  41  42
ENDBRANCH  34  36
ENDBRANCH  33  34
ENDBRANCH  32  33
ENDBRANCH  31  32
ENDBRANCH  30  31
ENDBRANCH  29  30
ENDBRANCH  28  29
ENDBRANCH  27  28
ENDBRANCH   1  27
TORSDOF 28
ENDMDL
MODEL 2
REMARK VINA RESULT:      -7.6      5.763     10.266
REMARK SMILES O=C(C[C@@H]1C[N@@H+](CCSc2ccccc2F)CCO1)OCCOCCOCCOCCOC(=O)c1ccc(-c2c3nc(c(-c4c(F)cc(S(=O)(=O)[O-])cc4F)c4ccc([nH]4)c(-c4c(F)cc(S(=O)(=O)[O-])cc4F)c4nc(c(-c5c(F)cc(S(=O)(=O)[O-])cc5F)c5ccc2[nH]5)C=C4)C=C3)cc1
REMARK SMILES IDX 25 1 24 2 23 3 22 4 21 5 20 6 2 7 1 8 3 9 4 10 5 11 19 12
REMARK SMILES IDX 6 13 18 14 17 15 7 17 8 18 9 19 10 20 11 21 15 22 12 23
REMARK SMILES IDX 14 24 16 25 13 26 26 27 27 28 28 29 29 30 30 31 31 32 32 33
REMARK SMILES IDX 33 34 34 35 35 36 36 37 100 38 37 39 99 40 38 41 39 42 40 43
REMARK SMILES IDX 93 44 41 45 98 46 92 47 94 48 42 49 97 50 91 51 90 52 43 54
REMARK SMILES IDX 77 55 56 56 76 57 57 58 60 59 75 60 95 61 58 62 59 63 74 65
REMARK SMILES IDX 96 66 61 67 44 68 45 69 54 70 46 71 47 72 53 73 55 74 48 75
REMARK SMILES IDX 49 76 50 77 51 78 52 79 78 80 79 81 88 82 80 83 81 84 87 85
REMARK SMILES IDX 89 86 82 87 83 88 84 89 85 90 86 91 62 92 63 93 72 94 64 95
REMARK SMILES IDX 65 96 71 97 73 98 66 99 67 100 68 101 69 102 70 103
REMARK H PARENT 6 16 94 53 60 64
REMARK Flexibility Score: inf
ROOT
ATOM      1  C   UNL A   1      39.075  30.524  29.860  1.00  0.00     0.188 C 
ENDROOT
BRANCH   1   2
ATOM      2  C   UNL A   1      38.046  29.710  29.080  1.00  0.00     0.188 C 
BRANCH   2   3
ATOM      3  O   UNL A   1      37.185  30.363  28.153  1.00  0.00    -0.376 OA
BRANCH   3   4
ATOM      4  C   UNL A   1      36.005  29.813  27.602  1.00  0.00     0.202 C 
BRANCH   4   5
ATOM      5  C   UNL A   1      34.673  30.410  27.976  1.00  0.00     0.261 C 
BRANCH   5   6
ATOM      6  O   UNL A   1      33.780  30.807  26.904  1.00  0.00    -0.463 OA
BRANCH   6   7
ATOM      7  C   UNL A   1      32.714  30.265  26.284  1.00  0.00     0.308 C 
ATOM      8  O   UNL A   1      31.688  30.949  26.237  1.00  0.00    -0.252 OA
BRANCH   7   9
ATOM      9  C   UNL A   1      32.731  28.896  25.615  1.00  0.00     0.160 C 
BRANCH   9  10
ATOM     10  C   UNL A   1      31.527  27.933  25.725  1.00  0.00     0.184 C 
ATOM     11  C   UNL A   1      31.796  26.503  26.327  1.00  0.00     0.295 C 
ATOM     12  O   UNL A   1      30.806  27.824  24.500  1.00  0.00    -0.366 OA
ATOM     13  N   UNL A   1      32.057  25.431  25.348  1.00  0.00    -0.330 N 
ATOM     14  C   UNL A   1      31.547  27.088  23.521  1.00  0.00     0.222 C 
ATOM     15  C   UNL A   1      32.529  26.060  24.154  1.00  0.00     0.291 C 
ATOM     16  H   UNL A   1      32.728  24.820  25.814  1.00  0.00     0.348 HD
BRANCH  13  17
ATOM     17  C   UNL A   1      30.976  24.490  25.008  1.00  0.00     0.273 C 
BRANCH  17  18
ATOM     18  C   UNL A   1      31.146  22.914  25.140  1.00  0.00     0.136 C 
BRANCH  18  19
ATOM     19  S   UNL A   1      32.479  21.872  24.264  1.00  0.00    -0.117 SA
BRANCH  19  20
ATOM     20  C   UNL A   1      34.279  22.099  24.566  1.00  0.00     0.043 A 
ATOM     21  C   UNL A   1      35.164  21.441  25.435  1.00  0.00     0.018 A 
ATOM     22  C   UNL A   1      34.934  22.853  23.572  1.00  0.00     0.136 A 
ATOM     23  C   UNL A   1      36.555  21.352  25.222  1.00  0.00     0.001 A 
ATOM     24  C   UNL A   1      36.326  22.817  23.371  1.00  0.00     0.040 A 
ATOM     25  F   UNL A   1      34.223  23.638  22.745  1.00  0.00    -0.206 F 
ATOM     26  C   UNL A   1      37.135  22.016  24.163  1.00  0.00     0.003 A 
ENDBRANCH  19  20
ENDBRANCH  18  19
ENDBRANCH  17  18
ENDBRANCH  13  17
ENDBRANCH   9  10
ENDBRANCH   7   9
ENDBRANCH   6   7
ENDBRANCH   5   6
ENDBRANCH   4   5
ENDBRANCH   3   4
ENDBRANCH   2   3
ENDBRANCH   1   2
BRANCH   1  27
ATOM     27  O   UNL A   1      38.622  31.069  31.090  1.00  0.00    -0.377 OA
BRANCH  27  28
ATOM     28  C   UNL A   1      37.693  32.136  30.952  1.00  0.00     0.188 C 
BRANCH  28  29
ATOM     29  C   UNL A   1      38.323  33.538  31.106  1.00  0.00     0.188 C 
BRANCH  29  30
ATOM     30  O   UNL A   1      38.691  34.147  29.874  1.00  0.00    -0.376 OA
BRANCH  30  31
ATOM     31  C   UNL A   1      39.984  34.735  29.811  1.00  0.00     0.202 C 
BRANCH  31  32
ATOM     32  C   UNL A   1      40.329  35.491  28.518  1.00  0.00     0.261 C 
BRANCH  32  33
ATOM     33  O   UNL A   1      41.601  36.161  28.503  1.00  0.00    -0.460 OA
BRANCH  33  34
ATOM     34  C   UNL A   1      42.249  36.275  27.325  1.00  0.00     0.338 C 
ATOM     35  O   UNL A   1      42.304  37.261  26.610  1.00  0.00    -0.246 OA
BRANCH  34  36
ATOM     36  C   UNL A   1      43.120  35.084  27.186  1.00  0.00     0.060 A 
ATOM     37  C   UNL A   1      43.530  34.419  28.352  1.00  0.00     0.016 A 
ATOM     38  C   UNL A   1      43.452  34.569  25.927  1.00  0.00     0.016 A 
ATOM     39  C   UNL A   1      44.311  33.268  28.264  1.00  0.00     0.010 A 
ATOM     40  C   UNL A   1      44.267  33.439  25.838  1.00  0.00     0.010 A 
ATOM     41  C   UNL A   1      44.740  32.819  27.008  1.00  0.00    -0.014 A 
BRANCH  41  42
ATOM     42  C   UNL A   1      45.959  31.979  26.950  1.00  0.00     0.031 A 
ATOM     43  C   UNL A   1      45.745  30.488  26.999  1.00  0.00     0.074 A 
ATOM     44  C   UNL A   1      47.191  32.490  26.792  1.00  0.00     0.049 A 
ATOM     45  N   UNL A   1      46.618  29.519  26.944  1.00  0.00    -0.248 NA
ATOM     46  C   UNL A   1      44.348  30.032  27.122  1.00  0.00     0.031 C 
ATOM     47  C   UNL A   1      47.515  33.909  26.671  1.00  0.00     0.029 A 
ATOM     48  N   UNL A   1      48.405  31.856  26.695  1.00  0.00    -0.354 N 
ATOM     49  C   UNL A   1      45.874  28.346  27.006  1.00  0.00     0.074 A 
ATOM     50  C   UNL A   1      44.488  28.719  27.152  1.00  0.00     0.031 C 
ATOM     51  C   UNL A   1      48.845  34.039  26.515  1.00  0.00     0.029 A 
ATOM     52  C   UNL A   1      49.469  32.714  26.549  1.00  0.00     0.049 A 
ATOM     53  H   UNL A   1      48.505  30.877  26.728  1.00  0.00     0.167 HD
ATOM     54  C   UNL A   1      46.304  27.067  26.931  1.00  0.00     0.037 A 
ATOM     55  C   UNL A   1      50.789  32.453  26.461  1.00  0.00     0.037 A 
ATOM     56  C   UNL A   1      47.685  26.696  26.816  1.00  0.00     0.049 A 
ATOM     57  C   UNL A   1      51.261  31.021  26.483  1.00  0.00     0.074 A 
ATOM     58  C   UNL A   1      48.235  25.429  26.770  1.00  0.00     0.029 A 
ATOM     59  N   UNL A   1      48.738  27.597  26.738  1.00  0.00    -0.354 N 
ATOM     60  N   UNL A   1      50.550  29.919  26.554  1.00  0.00    -0.248 NA
ATOM     61  C   UNL A   1      52.711  30.794  26.411  1.00  0.00     0.031 C 
ATOM     62  C   UNL A   1      49.625  25.564  26.710  1.00  0.00     0.029 A 
ATOM     63  C   UNL A   1      49.937  26.915  26.661  1.00  0.00     0.049 A 
ATOM     64  H   UNL A   1      48.643  28.578  26.738  1.00  0.00     0.167 HD
ATOM     65  C   UNL A   1      51.464  28.869  26.509  1.00  0.00     0.074 A 
ATOM     66  C   UNL A   1      52.779  29.468  26.399  1.00  0.00     0.031 C 
ATOM     67  C   UNL A   1      51.236  27.531  26.551  1.00  0.00     0.037 A 
BRANCH  54  68
ATOM     68  C   UNL A   1      45.260  25.989  27.000  1.00  0.00     0.058 A 
ATOM     69  C   UNL A   1      44.927  25.395  28.226  1.00  0.00     0.135 A 
ATOM     70  C   UNL A   1      44.581  25.549  25.851  1.00  0.00     0.135 A 
ATOM     71  F   UNL A   1      45.531  25.794  29.357  1.00  0.00    -0.206 F 
ATOM     72  C   UNL A   1      43.964  24.397  28.312  1.00  0.00     0.059 A 
ATOM     73  C   UNL A   1      43.594  24.571  25.917  1.00  0.00     0.059 A 
ATOM     74  F   UNL A   1      44.834  26.112  24.658  1.00  0.00    -0.206 F 
ATOM     75  C   UNL A   1      43.301  23.992  27.152  1.00  0.00     0.060 A 
BRANCH  75  76
ATOM     76  S   UNL A   1      42.015  22.734  27.291  1.00  0.00     0.124 S 
ATOM     77  O   UNL A   1      40.833  23.543  27.567  1.00  0.00    -0.237 OA
ATOM     78  O   UNL A   1      42.063  22.101  25.976  1.00  0.00    -0.237 OA
ATOM     79  O   UNL A   1      42.479  21.897  28.395  1.00  0.00    -0.744 OA
ENDBRANCH  75  76
ENDBRANCH  54  68
BRANCH  55  80
ATOM     80  C   UNL A   1      51.754  33.578  26.326  1.00  0.00     0.058 A 
ATOM     81  C   UNL A   1      52.319  34.189  27.457  1.00  0.00     0.135 A 
ATOM     82  C   UNL A   1      52.102  34.090  25.067  1.00  0.00     0.135 A 
ATOM     83  F   UNL A   1      52.023  33.736  28.685  1.00  0.00    -0.206 F 
ATOM     84  C   UNL A   1      53.156  35.293  27.347  1.00  0.00     0.059 A 
ATOM     85  C   UNL A   1      52.957  35.181  24.930  1.00  0.00     0.059 A 
ATOM     86  F   UNL A   1      51.607  33.526  23.956  1.00  0.00    -0.206 F 
ATOM     87  C   UNL A   1      53.460  35.790  26.079  1.00  0.00     0.060 A 
BRANCH  87  88
ATOM     88  S   UNL A   1      54.496  37.265  25.965  1.00  0.00     0.124 S 
ATOM     89  O   UNL A   1      53.498  38.301  25.713  1.00  0.00    -0.237 OA
ATOM     90  O   UNL A   1      55.127  37.298  27.280  1.00  0.00    -0.237 OA
ATOM     91  O   UNL A   1      55.388  36.967  24.850  1.00  0.00    -0.744 OA
ENDBRANCH  87  88
ENDBRANCH  55  80
BRANCH  67  92
ATOM     92  C   UNL A   1      52.423  26.612  26.453  1.00  0.00     0.058 A 
ATOM     93  C   UNL A   1      53.193  26.326  27.592  1.00  0.00     0.135 A 
ATOM     94  C   UNL A   1      52.852  26.090  25.223  1.00  0.00     0.135 A 
ATOM     95  F   UNL A   1      52.834  26.810  28.791  1.00  0.00    -0.206 F 
ATOM     96  C   UNL A   1      54.356  25.570  27.513  1.00  0.00     0.059 A 
ATOM     97  C   UNL A   1      53.998  25.306  25.125  1.00  0.00     0.059 A 
ATOM     98  F   UNL A   1      52.148  26.329  24.106  1.00  0.00    -0.206 F 
ATOM     99  C   UNL A   1      54.752  25.065  26.273  1.00  0.00     0.060 A 
BRANCH  99 100
ATOM    100  S   UNL A   1      56.255  24.068  26.193  1.00  0.00     0.124 S 
ATOM    101  O   UNL A   1      55.725  22.715  26.337  1.00  0.00    -0.237 OA
ATOM    102  O   UNL A   1      56.779  24.406  24.873  1.00  0.00    -0.237 OA
ATOM    103  O   UNL A   1      57.046  24.557  27.318  1.00  0.00    -0.744 OA
ENDBRANCH  99 100
ENDBRANCH  67  92
ENDBRANCH  41  42
ENDBRANCH  34  36
ENDBRANCH  33  34
ENDBRANCH  32  33
ENDBRANCH  31  32
ENDBRANCH  30  31
ENDBRANCH  29  30
ENDBRANCH  28  29
ENDBRANCH  27  28
ENDBRANCH   1  27
TORSDOF 28
ENDMDL
MODEL 3
REMARK VINA RESULT:      -7.4      2.490      4.966
REMARK SMILES O=C(C[C@@H]1C[N@@H+](CCSc2ccccc2F)CCO1)OCCOCCOCCOCCOC(=O)c1ccc(-c2c3nc(c(-c4c(F)cc(S(=O)(=O)[O-])cc4F)c4ccc([nH]4)c(-c4c(F)cc(S(=O)(=O)[O-])cc4F)c4nc(c(-c5c(F)cc(S(=O)(=O)[O-])cc5F)c5ccc2[nH]5)C=C4)C=C3)cc1
REMARK SMILES IDX 25 1 24 2 23 3 22 4 21 5 20 6 2 7 1 8 3 9 4 10 5 11 19 12
REMARK SMILES IDX 6 13 18 14 17 15 7 17 8 18 9 19 10 20 11 21 15 22 12 23
REMARK SMILES IDX 14 24 16 25 13 26 26 27 27 28 28 29 29 30 30 31 31 32 32 33
REMARK SMILES IDX 33 34 34 35 35 36 36 37 100 38 37 39 99 40 38 41 39 42 40 43
REMARK SMILES IDX 93 44 41 45 98 46 92 47 94 48 42 49 97 50 91 51 90 52 43 54
REMARK SMILES IDX 77 55 56 56 76 57 57 58 60 59 75 60 95 61 58 62 59 63 74 65
REMARK SMILES IDX 96 66 61 67 44 68 45 69 54 70 46 71 47 72 53 73 55 74 48 75
REMARK SMILES IDX 49 76 50 77 51 78 52 79 78 80 79 81 88 82 80 83 81 84 87 85
REMARK SMILES IDX 89 86 82 87 83 88 84 89 85 90 86 91 62 92 63 93 72 94 64 95
REMARK SMILES IDX 65 96 71 97 73 98 66 99 67 100 68 101 69 102 70 103
REMARK H PARENT 6 16 94 53 60 64
REMARK Flexibility Score: inf
ROOT
ATOM      1  C   UNL A   1      40.661  25.229  28.115  1.00  0.00     0.188 C 
ENDROOT
BRANCH   1   2
ATOM      2  C   UNL A   1      40.519  26.633  28.694  1.00  0.00     0.188 C 
BRANCH   2   3
ATOM      3  O   UNL A   1      39.224  27.154  28.975  1.00  0.00    -0.376 OA
BRANCH   3   4
ATOM      4  C   UNL A   1      38.913  28.518  29.173  1.00  0.00     0.202 C 
BRANCH   4   5
ATOM      5  C   UNL A   1      38.441  29.341  28.001  1.00  0.00     0.261 C 
BRANCH   5   6
ATOM      6  O   UNL A   1      37.011  29.479  27.800  1.00  0.00    -0.463 OA
BRANCH   6   7
ATOM      7  C   UNL A   1      36.065  30.366  28.165  1.00  0.00     0.308 C 
ATOM      8  O   UNL A   1      35.158  30.580  27.357  1.00  0.00    -0.252 OA
BRANCH   7   9
ATOM      9  C   UNL A   1      36.042  31.068  29.517  1.00  0.00     0.160 C 
BRANCH   9  10
ATOM     10  C   UNL A   1      36.992  32.247  29.827  1.00  0.00     0.184 C 
ATOM     11  C   UNL A   1      38.041  32.047  30.984  1.00  0.00     0.295 C 
ATOM     12  O   UNL A   1      36.291  33.476  30.005  1.00  0.00    -0.366 OA
ATOM     13  N   UNL A   1      37.637  32.542  32.314  1.00  0.00    -0.330 N 
ATOM     14  C   UNL A   1      35.565  33.490  31.238  1.00  0.00     0.222 C 
ATOM     15  C   UNL A   1      36.207  32.582  32.327  1.00  0.00     0.291 C 
ATOM     16  H   UNL A   1      38.061  31.885  32.969  1.00  0.00     0.348 HD
BRANCH  13  17
ATOM     17  C   UNL A   1      38.165  33.831  32.792  1.00  0.00     0.273 C 
BRANCH  17  18
ATOM     18  C   UNL A   1      37.893  34.369  34.264  1.00  0.00     0.136 C 
BRANCH  18  19
ATOM     19  S   UNL A   1      39.107  34.238  35.726  1.00  0.00    -0.117 SA
BRANCH  19  20
ATOM     20  C   UNL A   1      40.342  35.545  36.116  1.00  0.00     0.043 A 
ATOM     21  C   UNL A   1      40.706  36.145  37.332  1.00  0.00     0.018 A 
ATOM     22  C   UNL A   1      41.270  35.779  35.081  1.00  0.00     0.136 A 
ATOM     23  C   UNL A   1      41.962  36.737  37.572  1.00  0.00     0.001 A 
ATOM     24  C   UNL A   1      42.510  36.410  35.288  1.00  0.00     0.040 A 
ATOM     25  F   UNL A   1      40.998  35.375  33.829  1.00  0.00    -0.206 F 
ATOM     26  C   UNL A   1      42.884  36.839  36.554  1.00  0.00     0.003 A 
ENDBRANCH  19  20
ENDBRANCH  18  19
ENDBRANCH  17  18
ENDBRANCH  13  17
ENDBRANCH   9  10
ENDBRANCH   7   9
ENDBRANCH   6   7
ENDBRANCH   5   6
ENDBRANCH   4   5
ENDBRANCH   3   4
ENDBRANCH   2   3
ENDBRANCH   1   2
BRANCH   1  27
ATOM     27  O   UNL A   1      41.716  24.447  28.654  1.00  0.00    -0.377 OA
BRANCH  27  28
ATOM     28  C   UNL A   1      41.760  23.109  28.174  1.00  0.00     0.188 C 
BRANCH  28  29
ATOM     29  C   UNL A   1      41.229  22.944  26.734  1.00  0.00     0.188 C 
BRANCH  29  30
ATOM     30  O   UNL A   1      41.838  21.881  26.010  1.00  0.00    -0.376 OA
BRANCH  30  31
ATOM     31  C   UNL A   1      43.236  21.698  26.198  1.00  0.00     0.202 C 
BRANCH  31  32
ATOM     32  C   UNL A   1      44.122  21.882  24.956  1.00  0.00     0.261 C 
BRANCH  32  33
ATOM     33  O   UNL A   1      44.268  23.232  24.483  1.00  0.00    -0.460 OA
BRANCH  33  34
ATOM     34  C   UNL A   1      45.443  23.860  24.695  1.00  0.00     0.338 C 
ATOM     35  O   UNL A   1      46.482  23.701  24.077  1.00  0.00    -0.246 OA
BRANCH  34  36
ATOM     36  C   UNL A   1      45.179  24.984  25.624  1.00  0.00     0.060 A 
ATOM     37  C   UNL A   1      46.275  25.616  26.232  1.00  0.00     0.016 A 
ATOM     38  C   UNL A   1      43.883  25.473  25.823  1.00  0.00     0.016 A 
ATOM     39  C   UNL A   1      46.074  26.707  27.076  1.00  0.00     0.010 A 
ATOM     40  C   UNL A   1      43.676  26.541  26.699  1.00  0.00     0.010 A 
ATOM     41  C   UNL A   1      44.768  27.123  27.367  1.00  0.00    -0.014 A 
BRANCH  41  42
ATOM     42  C   UNL A   1      44.542  27.872  28.625  1.00  0.00     0.031 A 
ATOM     43  C   UNL A   1      44.625  27.075  29.902  1.00  0.00     0.074 A 
ATOM     44  C   UNL A   1      44.341  29.200  28.658  1.00  0.00     0.049 A 
ATOM     45  N   UNL A   1      44.494  27.468  31.139  1.00  0.00    -0.248 NA
ATOM     46  C   UNL A   1      44.901  25.634  29.754  1.00  0.00     0.031 C 
ATOM     47  C   UNL A   1      44.301  30.084  27.496  1.00  0.00     0.029 A 
ATOM     48  N   UNL A   1      44.142  30.038  29.727  1.00  0.00    -0.354 N 
ATOM     49  C   UNL A   1      44.689  26.330  31.913  1.00  0.00     0.074 A 
ATOM     50  C   UNL A   1      44.900  25.224  31.011  1.00  0.00     0.031 C 
ATOM     51  C   UNL A   1      44.090  31.345  27.916  1.00  0.00     0.029 A 
ATOM     52  C   UNL A   1      43.957  31.353  29.375  1.00  0.00     0.049 A 
ATOM     53  H   UNL A   1      44.132  29.725  30.661  1.00  0.00     0.167 HD
ATOM     54  C   UNL A   1      44.710  26.215  33.259  1.00  0.00     0.037 A 
ATOM     55  C   UNL A   1      43.703  32.431  30.144  1.00  0.00     0.037 A 
ATOM     56  C   UNL A   1      44.472  27.310  34.155  1.00  0.00     0.049 A 
ATOM     57  C   UNL A   1      43.627  32.267  31.642  1.00  0.00     0.074 A 
ATOM     58  C   UNL A   1      44.433  27.298  35.537  1.00  0.00     0.029 A 
ATOM     59  N   UNL A   1      44.222  28.615  33.755  1.00  0.00    -0.354 N 
ATOM     60  N   UNL A   1      43.802  31.183  32.363  1.00  0.00    -0.248 NA
ATOM     61  C   UNL A   1      43.321  33.468  32.431  1.00  0.00     0.031 C 
ATOM     62  C   UNL A   1      44.114  28.588  35.971  1.00  0.00     0.029 A 
ATOM     63  C   UNL A   1      44.011  29.415  34.862  1.00  0.00     0.049 A 
ATOM     64  H   UNL A   1      44.199  28.924  32.820  1.00  0.00     0.167 HD
ATOM     65  C   UNL A   1      43.654  31.577  33.690  1.00  0.00     0.074 A 
ATOM     66  C   UNL A   1      43.380  33.000  33.672  1.00  0.00     0.031 C 
ATOM     67  C   UNL A   1      43.741  30.831  34.821  1.00  0.00     0.037 A 
BRANCH  54  68
ATOM     68  C   UNL A   1      44.976  24.850  33.826  1.00  0.00     0.058 A 
ATOM     69  C   UNL A   1      46.284  24.348  33.896  1.00  0.00     0.135 A 
ATOM     70  C   UNL A   1      43.935  24.040  34.311  1.00  0.00     0.135 A 
ATOM     71  F   UNL A   1      47.317  25.090  33.467  1.00  0.00    -0.206 F 
ATOM     72  C   UNL A   1      46.551  23.088  34.418  1.00  0.00     0.059 A 
ATOM     73  C   UNL A   1      44.181  22.787  34.861  1.00  0.00     0.059 A 
ATOM     74  F   UNL A   1      42.668  24.489  34.302  1.00  0.00    -0.206 F 
ATOM     75  C   UNL A   1      45.493  22.315  34.900  1.00  0.00     0.060 A 
BRANCH  75  76
ATOM     76  S   UNL A   1      45.865  20.704  35.624  1.00  0.00     0.124 S 
ATOM     77  O   UNL A   1      45.567  20.932  37.032  1.00  0.00    -0.237 OA
ATOM     78  O   UNL A   1      44.942  19.827  34.909  1.00  0.00    -0.237 OA
ATOM     79  O   UNL A   1      47.276  20.506  35.302  1.00  0.00    -0.744 OA
ENDBRANCH  75  76
ENDBRANCH  54  68
BRANCH  55  80
ATOM     80  C   UNL A   1      43.520  33.764  29.508  1.00  0.00     0.058 A 
ATOM     81  C   UNL A   1      44.623  34.530  29.098  1.00  0.00     0.135 A 
ATOM     82  C   UNL A   1      42.242  34.316  29.333  1.00  0.00     0.135 A 
ATOM     83  F   UNL A   1      45.867  34.047  29.238  1.00  0.00    -0.206 F 
ATOM     84  C   UNL A   1      44.469  35.810  28.579  1.00  0.00     0.059 A 
ATOM     85  C   UNL A   1      42.061  35.588  28.794  1.00  0.00     0.059 A 
ATOM     86  F   UNL A   1      41.156  33.615  29.689  1.00  0.00    -0.206 F 
ATOM     87  C   UNL A   1      43.184  36.336  28.443  1.00  0.00     0.060 A 
BRANCH  87  88
ATOM     88  S   UNL A   1      43.013  38.026  27.829  1.00  0.00     0.124 S 
ATOM     89  O   UNL A   1      42.763  38.759  29.067  1.00  0.00    -0.237 OA
ATOM     90  O   UNL A   1      44.312  38.257  27.206  1.00  0.00    -0.237 OA
ATOM     91  O   UNL A   1      41.883  37.940  26.910  1.00  0.00    -0.744 OA
ENDBRANCH  87  88
ENDBRANCH  55  80
BRANCH  67  92
ATOM     92  C   UNL A   1      43.565  31.531  36.141  1.00  0.00     0.058 A 
ATOM     93  C   UNL A   1      44.685  31.978  36.860  1.00  0.00     0.135 A 
ATOM     94  C   UNL A   1      42.302  31.677  36.736  1.00  0.00     0.135 A 
ATOM     95  F   UNL A   1      45.917  31.853  36.343  1.00  0.00    -0.206 F 
ATOM     96  C   UNL A   1      44.562  32.530  38.130  1.00  0.00     0.059 A 
ATOM     97  C   UNL A   1      42.152  32.252  37.995  1.00  0.00     0.059 A 
ATOM     98  F   UNL A   1      41.199  31.271  36.087  1.00  0.00    -0.206 F 
ATOM     99  C   UNL A   1      43.290  32.661  38.690  1.00  0.00     0.060 A 
BRANCH  99 100
ATOM    100  S   UNL A   1      43.147  33.397  40.333  1.00  0.00     0.124 S 
ATOM    101  O   UNL A   1      42.745  32.251  41.141  1.00  0.00    -0.237 OA
ATOM    102  O   UNL A   1      44.500  33.895  40.566  1.00  0.00    -0.237 OA
ATOM    103  O   UNL A   1      42.130  34.429  40.153  1.00  0.00    -0.744 OA
ENDBRANCH  99 100
ENDBRANCH  67  92
ENDBRANCH  41  42
ENDBRANCH  34  36
ENDBRANCH  33  34
ENDBRANCH  32  33
ENDBRANCH  31  32
ENDBRANCH  30  31
ENDBRANCH  29  30
ENDBRANCH  28  29
ENDBRANCH  27  28
ENDBRANCH   1  27
TORSDOF 28
ENDMDL
