MODEL 1
REMARK VINA RESULT:      -9.8      0.000      0.000
REMARK SMILES O=C(OCCOCCOCCOCCOC(=O)[C@@H]1C=C[C@H](NC(=O)[C@@H]2Cc3ccccc3O2)C1)c1ccc(-c2c3nc(c(-c4c(F)cc(S(=O)(=O)[O-])cc4F)c4ccc([nH]4)c(-c4c(F)cc(S(=O)(=O)[O-])cc4F)c4nc(c(-c5c(F)cc(S(=O)(=O)[O-])cc5F)c5ccc2[nH]5)C=C4)C=C3)cc1
REMARK SMILES IDX 8 1 7 2 6 3 5 4 4 5 3 6 2 7 1 8 35 9 36 10 100 11 37 12
REMARK SMILES IDX 99 13 38 14 39 15 40 16 93 17 41 18 98 19 92 20 94 21 42 22
REMARK SMILES IDX 97 23 91 24 90 25 43 27 77 28 56 29 76 30 57 31 60 32 75 33
REMARK SMILES IDX 95 34 58 35 59 36 74 38 96 39 61 40 44 41 45 42 54 43 46 44
REMARK SMILES IDX 47 45 53 46 55 47 48 48 49 49 50 50 51 51 52 52 78 53 79 54
REMARK SMILES IDX 88 55 80 56 81 57 87 58 89 59 82 60 83 61 84 62 85 63 86 64
REMARK SMILES IDX 62 65 63 66 72 67 64 68 65 69 71 70 73 71 66 72 67 73 68 74
REMARK SMILES IDX 69 75 70 76 9 77 10 78 11 79 12 80 13 81 14 82 15 83 16 84
REMARK SMILES IDX 17 85 18 86 19 87 34 88 20 89 21 90 22 91 23 92 24 94 25 95
REMARK SMILES IDX 26 96 33 97 27 98 32 99 28 100 31 101 29 102 30 103
REMARK H PARENT 94 26 60 37 22 93
REMARK Flexibility Score: inf
ROOT
ATOM      1  C   UNL A   1      33.018  28.841  23.174  1.00  0.00     0.188 C 
ENDROOT
BRANCH   1   2
ATOM      2  C   UNL A   1      33.586  28.461  24.528  1.00  0.00     0.188 C 
BRANCH   2   3
ATOM      3  O   UNL A   1      32.469  28.213  25.345  1.00  0.00    -0.376 OA
BRANCH   3   4
ATOM      4  C   UNL A   1      32.470  28.390  26.735  1.00  0.00     0.202 C 
BRANCH   4   5
ATOM      5  C   UNL A   1      32.689  29.798  27.225  1.00  0.00     0.261 C 
BRANCH   5   6
ATOM      6  O   UNL A   1      33.977  30.397  26.965  1.00  0.00    -0.460 OA
BRANCH   6   7
ATOM      7  C   UNL A   1      34.735  31.322  27.591  1.00  0.00     0.338 C 
ATOM      8  O   UNL A   1      34.405  32.504  27.512  1.00  0.00    -0.246 OA
BRANCH   7   9
ATOM      9  C   UNL A   1      35.921  31.003  28.419  1.00  0.00     0.060 A 
ATOM     10  C   UNL A   1      36.142  29.774  29.026  1.00  0.00     0.016 A 
ATOM     11  C   UNL A   1      36.979  31.916  28.412  1.00  0.00     0.016 A 
ATOM     12  C   UNL A   1      37.255  29.508  29.789  1.00  0.00     0.010 A 
ATOM     13  C   UNL A   1      38.182  31.606  29.056  1.00  0.00     0.010 A 
ATOM     14  C   UNL A   1      38.301  30.410  29.776  1.00  0.00    -0.014 A 
BRANCH  14  15
ATOM     15  C   UNL A   1      39.469  30.089  30.603  1.00  0.00     0.031 A 
ATOM     16  C   UNL A   1      40.453  29.121  30.041  1.00  0.00     0.074 A 
ATOM     17  C   UNL A   1      39.681  30.756  31.755  1.00  0.00     0.049 A 
ATOM     18  N   UNL A   1      41.464  28.548  30.623  1.00  0.00    -0.248 NA
ATOM     19  C   UNL A   1      40.279  28.750  28.622  1.00  0.00     0.031 C 
ATOM     20  C   UNL A   1      38.845  31.847  32.274  1.00  0.00     0.029 A 
ATOM     21  N   UNL A   1      40.672  30.633  32.689  1.00  0.00    -0.354 N 
ATOM     22  C   UNL A   1      42.001  27.695  29.670  1.00  0.00     0.074 A 
ATOM     23  C   UNL A   1      41.231  27.844  28.460  1.00  0.00     0.031 C 
ATOM     24  C   UNL A   1      39.359  32.287  33.434  1.00  0.00     0.029 A 
ATOM     25  C   UNL A   1      40.488  31.441  33.789  1.00  0.00     0.049 A 
ATOM     26  H   UNL A   1      41.440  30.025  32.587  1.00  0.00     0.167 HD
ATOM     27  C   UNL A   1      43.035  26.843  29.830  1.00  0.00     0.037 A 
ATOM     28  C   UNL A   1      41.119  31.427  34.978  1.00  0.00     0.037 A 
ATOM     29  C   UNL A   1      43.779  26.759  31.055  1.00  0.00     0.049 A 
ATOM     30  C   UNL A   1      42.201  30.396  35.162  1.00  0.00     0.074 A 
ATOM     31  C   UNL A   1      44.833  25.927  31.367  1.00  0.00     0.029 A 
ATOM     32  N   UNL A   1      43.533  27.547  32.174  1.00  0.00    -0.354 N 
ATOM     33  N   UNL A   1      42.680  29.542  34.284  1.00  0.00    -0.248 NA
ATOM     34  C   UNL A   1      42.808  30.297  36.493  1.00  0.00     0.031 C 
ATOM     35  C   UNL A   1      45.184  26.167  32.698  1.00  0.00     0.029 A 
ATOM     36  C   UNL A   1      44.389  27.191  33.196  1.00  0.00     0.049 A 
ATOM     37  H   UNL A   1      42.850  28.253  32.228  1.00  0.00     0.167 HD
ATOM     38  C   UNL A   1      43.647  28.808  34.954  1.00  0.00     0.074 A 
ATOM     39  C   UNL A   1      43.708  29.343  36.302  1.00  0.00     0.031 C 
ATOM     40  C   UNL A   1      44.409  27.776  34.514  1.00  0.00     0.037 A 
BRANCH  27  41
ATOM     41  C   UNL A   1      43.340  25.895  28.713  1.00  0.00     0.058 A 
ATOM     42  C   UNL A   1      42.617  24.712  28.505  1.00  0.00     0.135 A 
ATOM     43  C   UNL A   1      44.379  26.197  27.817  1.00  0.00     0.135 A 
ATOM     44  F   UNL A   1      41.647  24.352  29.361  1.00  0.00    -0.206 F 
ATOM     45  C   UNL A   1      42.905  23.866  27.438  1.00  0.00     0.059 A 
ATOM     46  C   UNL A   1      44.670  25.378  26.732  1.00  0.00     0.059 A 
ATOM     47  F   UNL A   1      45.124  27.300  27.994  1.00  0.00    -0.206 F 
ATOM     48  C   UNL A   1      43.926  24.215  26.550  1.00  0.00     0.060 A 
BRANCH  48  49
ATOM     49  S   UNL A   1      44.240  23.138  25.136  1.00  0.00     0.124 S 
ATOM     50  O   UNL A   1      45.016  22.068  25.749  1.00  0.00    -0.237 OA
ATOM     51  O   UNL A   1      42.893  22.787  24.710  1.00  0.00    -0.237 OA
ATOM     52  O   UNL A   1      44.983  24.000  24.213  1.00  0.00    -0.744 OA
ENDBRANCH  48  49
ENDBRANCH  27  41
BRANCH  28  53
ATOM     53  C   UNL A   1      40.672  32.302  36.099  1.00  0.00     0.058 A 
ATOM     54  C   UNL A   1      41.420  33.418  36.501  1.00  0.00     0.135 A 
ATOM     55  C   UNL A   1      39.504  32.012  36.827  1.00  0.00     0.135 A 
ATOM     56  F   UNL A   1      42.544  33.743  35.846  1.00  0.00    -0.206 F 
ATOM     57  C   UNL A   1      41.053  34.185  37.604  1.00  0.00     0.059 A 
ATOM     58  C   UNL A   1      39.097  32.784  37.910  1.00  0.00     0.059 A 
ATOM     59  F   UNL A   1      38.738  30.964  36.486  1.00  0.00    -0.206 F 
ATOM     60  C   UNL A   1      39.892  33.856  38.307  1.00  0.00     0.060 A 
BRANCH  60  61
ATOM     61  S   UNL A   1      39.439  34.843  39.750  1.00  0.00     0.124 S 
ATOM     62  O   UNL A   1      39.045  36.103  39.130  1.00  0.00    -0.237 OA
ATOM     63  O   UNL A   1      38.362  34.052  40.336  1.00  0.00    -0.237 OA
ATOM     64  O   UNL A   1      40.674  34.882  40.531  1.00  0.00    -0.744 OA
ENDBRANCH  60  61
ENDBRANCH  28  53
BRANCH  40  65
ATOM     65  C   UNL A   1      45.376  27.184  35.492  1.00  0.00     0.058 A 
ATOM     66  C   UNL A   1      46.661  27.720  35.659  1.00  0.00     0.135 A 
ATOM     67  C   UNL A   1      44.976  26.135  36.333  1.00  0.00     0.135 A 
ATOM     68  F   UNL A   1      47.088  28.718  34.869  1.00  0.00    -0.206 F 
ATOM     69  C   UNL A   1      47.525  27.226  36.627  1.00  0.00     0.059 A 
ATOM     70  C   UNL A   1      45.811  25.649  37.330  1.00  0.00     0.059 A 
ATOM     71  F   UNL A   1      43.750  25.602  36.214  1.00  0.00    -0.206 F 
ATOM     72  C   UNL A   1      47.086  26.198  37.464  1.00  0.00     0.060 A 
BRANCH  72  73
ATOM     73  S   UNL A   1      48.192  25.618  38.763  1.00  0.00     0.124 S 
ATOM     74  O   UNL A   1      47.264  25.421  39.872  1.00  0.00    -0.237 OA
ATOM     75  O   UNL A   1      48.748  24.402  38.178  1.00  0.00    -0.237 OA
ATOM     76  O   UNL A   1      49.136  26.720  38.922  1.00  0.00    -0.744 OA
ENDBRANCH  72  73
ENDBRANCH  40  65
ENDBRANCH  14  15
ENDBRANCH   7   9
ENDBRANCH   6   7
ENDBRANCH   5   6
ENDBRANCH   4   5
ENDBRANCH   3   4
ENDBRANCH   2   3
ENDBRANCH   1   2
BRANCH   1  77
ATOM     77  O   UNL A   1      32.248  27.830  22.548  1.00  0.00    -0.377 OA
BRANCH  77  78
ATOM     78  C   UNL A   1      30.879  28.014  22.192  1.00  0.00     0.188 C 
BRANCH  78  79
ATOM     79  C   UNL A   1      29.792  27.990  23.280  1.00  0.00     0.188 C 
BRANCH  79  80
ATOM     80  O   UNL A   1      29.170  26.753  23.547  1.00  0.00    -0.376 OA
BRANCH  80  81
ATOM     81  C   UNL A   1      29.643  25.993  24.655  1.00  0.00     0.202 C 
BRANCH  81  82
ATOM     82  C   UNL A   1      30.625  24.820  24.465  1.00  0.00     0.261 C 
BRANCH  82  83
ATOM     83  O   UNL A   1      31.243  24.742  23.153  1.00  0.00    -0.463 OA
BRANCH  83  84
ATOM     84  C   UNL A   1      32.374  24.006  22.998  1.00  0.00     0.312 C 
ATOM     85  O   UNL A   1      32.378  22.892  22.481  1.00  0.00    -0.252 OA
BRANCH  84  86
ATOM     86  C   UNL A   1      33.696  24.654  23.527  1.00  0.00     0.124 C 
ATOM     87  C   UNL A   1      34.898  23.834  23.138  1.00  0.00    -0.014 C 
ATOM     88  C   UNL A   1      34.033  24.956  25.002  1.00  0.00     0.048 C 
ATOM     89  C   UNL A   1      35.678  23.502  24.177  1.00  0.00    -0.006 C 
ATOM     90  C   UNL A   1      35.195  24.072  25.453  1.00  0.00     0.106 C 
BRANCH  90  91
ATOM     91  N   UNL A   1      34.876  23.133  26.533  1.00  0.00    -0.347 N 
ATOM     92  C   UNL A   1      34.535  21.813  26.659  1.00  0.00     0.261 C 
ATOM     93  H   UNL A   1      34.917  23.575  27.411  1.00  0.00     0.164 HD
ATOM     94  O   UNL A   1      34.304  21.405  27.801  1.00  0.00    -0.271 OA
BRANCH  92  95
ATOM     95  C   UNL A   1      34.450  20.897  25.436  1.00  0.00     0.266 C 
ATOM     96  C   UNL A   1      32.988  20.847  25.041  1.00  0.00     0.095 C 
ATOM     97  O   UNL A   1      34.889  19.522  25.517  1.00  0.00    -0.480 OA
ATOM     98  C   UNL A   1      33.010  19.649  24.193  1.00  0.00    -0.002 A 
ATOM     99  C   UNL A   1      34.123  18.907  24.544  1.00  0.00     0.123 A 
ATOM    100  C   UNL A   1      32.131  19.246  23.206  1.00  0.00     0.008 A 
ATOM    101  C   UNL A   1      34.385  17.704  23.931  1.00  0.00     0.047 A 
ATOM    102  C   UNL A   1      32.376  18.032  22.577  1.00  0.00     0.001 A 
ATOM    103  C   UNL A   1      33.496  17.267  22.938  1.00  0.00     0.004 A 
ENDBRANCH  92  95
ENDBRANCH  90  91
ENDBRANCH  84  86
ENDBRANCH  83  84
ENDBRANCH  82  83
ENDBRANCH  81  82
ENDBRANCH  80  81
ENDBRANCH  79  80
ENDBRANCH  78  79
ENDBRANCH  77  78
ENDBRANCH   1  77
TORSDOF 25
ENDMDL
MODEL 2
REMARK VINA RESULT:      -9.7      7.664     17.480
REMARK SMILES O=C(OCCOCCOCCOCCOC(=O)[C@@H]1C=C[C@H](NC(=O)[C@@H]2Cc3ccccc3O2)C1)c1ccc(-c2c3nc(c(-c4c(F)cc(S(=O)(=O)[O-])cc4F)c4ccc([nH]4)c(-c4c(F)cc(S(=O)(=O)[O-])cc4F)c4nc(c(-c5c(F)cc(S(=O)(=O)[O-])cc5F)c5ccc2[nH]5)C=C4)C=C3)cc1
REMARK SMILES IDX 8 1 7 2 6 3 5 4 4 5 3 6 2 7 1 8 35 9 36 10 100 11 37 12
REMARK SMILES IDX 99 13 38 14 39 15 40 16 93 17 41 18 98 19 92 20 94 21 42 22
REMARK SMILES IDX 97 23 91 24 90 25 43 27 77 28 56 29 76 30 57 31 60 32 75 33
REMARK SMILES IDX 95 34 58 35 59 36 74 38 96 39 61 40 44 41 45 42 54 43 46 44
REMARK SMILES IDX 47 45 53 46 55 47 48 48 49 49 50 50 51 51 52 52 78 53 79 54
REMARK SMILES IDX 88 55 80 56 81 57 87 58 89 59 82 60 83 61 84 62 85 63 86 64
REMARK SMILES IDX 62 65 63 66 72 67 64 68 65 69 71 70 73 71 66 72 67 73 68 74
REMARK SMILES IDX 69 75 70 76 9 77 10 78 11 79 12 80 13 81 14 82 15 83 16 84
REMARK SMILES IDX 17 85 18 86 19 87 34 88 20 89 21 90 22 91 23 92 24 94 25 95
REMARK SMILES IDX 26 96 33 97 27 98 32 99 28 100 31 101 29 102 30 103
REMARK H PARENT 94 26 60 37 22 93
REMARK Flexibility Score: inf
ROOT
ATOM      1  C   UNL A   1      45.083  20.450  41.720  1.00  0.00     0.188 C 
ENDROOT
BRANCH   1   2
ATOM      2  C   UNL A   1      45.148  21.689  40.847  1.00  0.00     0.188 C 
BRANCH   2   3
ATOM      3  O   UNL A   1      46.231  21.477  39.977  1.00  0.00    -0.376 OA
BRANCH   3   4
ATOM      4  C   UNL A   1      46.833  22.494  39.224  1.00  0.00     0.202 C 
BRANCH   4   5
ATOM      5  C   UNL A   1      45.895  23.429  38.503  1.00  0.00     0.261 C 
BRANCH   5   6
ATOM      6  O   UNL A   1      45.708  24.745  39.068  1.00  0.00    -0.460 OA
BRANCH   6   7
ATOM      7  C   UNL A   1      45.980  26.000  38.654  1.00  0.00     0.338 C 
ATOM      8  O   UNL A   1      47.031  26.524  39.017  1.00  0.00    -0.246 OA
BRANCH   7   9
ATOM      9  C   UNL A   1      45.114  26.780  37.740  1.00  0.00     0.060 A 
ATOM     10  C   UNL A   1      43.735  26.641  37.663  1.00  0.00     0.016 A 
ATOM     11  C   UNL A   1      45.689  27.866  37.074  1.00  0.00     0.016 A 
ATOM     12  C   UNL A   1      42.958  27.381  36.803  1.00  0.00     0.010 A 
ATOM     13  C   UNL A   1      44.893  28.727  36.311  1.00  0.00     0.010 A 
ATOM     14  C   UNL A   1      43.527  28.457  36.151  1.00  0.00    -0.014 A 
BRANCH  14  15
ATOM     15  C   UNL A   1      42.664  29.221  35.243  1.00  0.00     0.031 A 
ATOM     16  C   UNL A   1      42.088  30.492  35.765  1.00  0.00     0.074 A 
ATOM     17  C   UNL A   1      42.527  28.832  33.960  1.00  0.00     0.049 A 
ATOM     18  N   UNL A   1      41.176  31.256  35.239  1.00  0.00    -0.248 NA
ATOM     19  C   UNL A   1      42.614  30.976  37.057  1.00  0.00     0.031 C 
ATOM     20  C   UNL A   1      43.211  27.691  33.337  1.00  0.00     0.029 A 
ATOM     21  N   UNL A   1      41.783  29.360  32.941  1.00  0.00    -0.354 N 
ATOM     22  C   UNL A   1      40.967  32.267  36.166  1.00  0.00     0.074 A 
ATOM     23  C   UNL A   1      41.864  32.045  37.273  1.00  0.00     0.031 C 
ATOM     24  C   UNL A   1      42.850  27.607  32.047  1.00  0.00     0.029 A 
ATOM     25  C   UNL A   1      41.834  28.614  31.785  1.00  0.00     0.049 A 
ATOM     26  H   UNL A   1      41.262  30.191  33.026  1.00  0.00     0.167 HD
ATOM     27  C   UNL A   1      40.067  33.269  36.087  1.00  0.00     0.037 A 
ATOM     28  C   UNL A   1      41.074  28.698  30.677  1.00  0.00     0.037 A 
ATOM     29  C   UNL A   1      39.218  33.451  34.944  1.00  0.00     0.049 A 
ATOM     30  C   UNL A   1      40.009  29.763  30.660  1.00  0.00     0.074 A 
ATOM     31  C   UNL A   1      38.245  34.407  34.737  1.00  0.00     0.029 A 
ATOM     32  N   UNL A   1      39.248  32.644  33.812  1.00  0.00    -0.354 N 
ATOM     33  N   UNL A   1      39.763  30.691  31.558  1.00  0.00    -0.248 NA
ATOM     34  C   UNL A   1      39.103  29.781  29.509  1.00  0.00     0.031 C 
ATOM     35  C   UNL A   1      37.642  34.139  33.505  1.00  0.00     0.029 A 
ATOM     36  C   UNL A   1      38.280  33.054  32.918  1.00  0.00     0.049 A 
ATOM     37  H   UNL A   1      39.867  31.893  33.670  1.00  0.00     0.167 HD
ATOM     38  C   UNL A   1      38.675  31.406  31.079  1.00  0.00     0.074 A 
ATOM     39  C   UNL A   1      38.335  30.823  29.794  1.00  0.00     0.031 C 
ATOM     40  C   UNL A   1      38.001  32.439  31.644  1.00  0.00     0.037 A 
BRANCH  27  41
ATOM     41  C   UNL A   1      39.899  34.155  37.282  1.00  0.00     0.058 A 
ATOM     42  C   UNL A   1      40.507  35.414  37.383  1.00  0.00     0.135 A 
ATOM     43  C   UNL A   1      39.089  33.728  38.348  1.00  0.00     0.135 A 
ATOM     44  F   UNL A   1      41.331  35.847  36.416  1.00  0.00    -0.206 F 
ATOM     45  C   UNL A   1      40.306  36.227  38.494  1.00  0.00     0.059 A 
ATOM     46  C   UNL A   1      38.856  34.532  39.457  1.00  0.00     0.059 A 
ATOM     47  F   UNL A   1      38.513  32.516  38.314  1.00  0.00    -0.206 F 
ATOM     48  C   UNL A   1      39.468  35.782  39.520  1.00  0.00     0.060 A 
BRANCH  48  49
ATOM     49  S   UNL A   1      39.169  36.878  40.922  1.00  0.00     0.124 S 
ATOM     50  O   UNL A   1      40.524  37.293  41.265  1.00  0.00    -0.237 OA
ATOM     51  O   UNL A   1      38.318  37.903  40.337  1.00  0.00    -0.237 OA
ATOM     52  O   UNL A   1      38.515  36.006  41.901  1.00  0.00    -0.744 OA
ENDBRANCH  48  49
ENDBRANCH  27  41
BRANCH  28  53
ATOM     53  C   UNL A   1      41.197  27.695  29.580  1.00  0.00     0.058 A 
ATOM     54  C   UNL A   1      40.253  26.673  29.413  1.00  0.00     0.135 A 
ATOM     55  C   UNL A   1      42.294  27.711  28.700  1.00  0.00     0.135 A 
ATOM     56  F   UNL A   1      39.187  26.605  30.224  1.00  0.00    -0.206 F 
ATOM     57  C   UNL A   1      40.411  25.682  28.447  1.00  0.00     0.059 A 
ATOM     58  C   UNL A   1      42.456  26.754  27.703  1.00  0.00     0.059 A 
ATOM     59  F   UNL A   1      43.227  28.671  28.800  1.00  0.00    -0.206 F 
ATOM     60  C   UNL A   1      41.521  25.727  27.600  1.00  0.00     0.060 A 
BRANCH  60  61
ATOM     61  S   UNL A   1      41.729  24.425  26.366  1.00  0.00     0.124 S 
ATOM     62  O   UNL A   1      40.399  23.826  26.346  1.00  0.00    -0.237 OA
ATOM     63  O   UNL A   1      42.107  25.185  25.180  1.00  0.00    -0.237 OA
ATOM     64  O   UNL A   1      42.788  23.593  26.933  1.00  0.00    -0.744 OA
ENDBRANCH  60  61
ENDBRANCH  28  53
BRANCH  40  65
ATOM     65  C   UNL A   1      36.855  33.005  30.865  1.00  0.00     0.058 A 
ATOM     66  C   UNL A   1      35.527  32.716  31.211  1.00  0.00     0.135 A 
ATOM     67  C   UNL A   1      37.090  33.917  29.825  1.00  0.00     0.135 A 
ATOM     68  F   UNL A   1      35.257  31.841  32.192  1.00  0.00    -0.206 F 
ATOM     69  C   UNL A   1      34.465  33.310  30.543  1.00  0.00     0.059 A 
ATOM     70  C   UNL A   1      36.044  34.548  29.166  1.00  0.00     0.059 A 
ATOM     71  F   UNL A   1      38.346  34.230  29.470  1.00  0.00    -0.206 F 
ATOM     72  C   UNL A   1      34.735  34.233  29.529  1.00  0.00     0.060 A 
BRANCH  72  73
ATOM     73  S   UNL A   1      33.347  35.050  28.721  1.00  0.00     0.124 S 
ATOM     74  O   UNL A   1      32.897  34.015  27.796  1.00  0.00    -0.237 OA
ATOM     75  O   UNL A   1      32.456  35.331  29.842  1.00  0.00    -0.237 OA
ATOM     76  O   UNL A   1      33.957  36.223  28.103  1.00  0.00    -0.744 OA
ENDBRANCH  72  73
ENDBRANCH  40  65
ENDBRANCH  14  15
ENDBRANCH   7   9
ENDBRANCH   6   7
ENDBRANCH   5   6
ENDBRANCH   4   5
ENDBRANCH   3   4
ENDBRANCH   2   3
ENDBRANCH   1   2
BRANCH   1  77
ATOM     77  O   UNL A   1      45.781  19.327  41.210  1.00  0.00    -0.377 OA
BRANCH  77  78
ATOM     78  C   UNL A   1      45.222  18.014  41.196  1.00  0.00     0.188 C 
BRANCH  78  79
ATOM     79  C   UNL A   1      45.061  17.260  39.866  1.00  0.00     0.188 C 
BRANCH  79  80
ATOM     80  O   UNL A   1      44.349  16.043  39.893  1.00  0.00    -0.376 OA
BRANCH  80  81
ATOM     81  C   UNL A   1      43.029  16.055  40.428  1.00  0.00     0.202 C 
BRANCH  81  82
ATOM     82  C   UNL A   1      42.155  14.784  40.442  1.00  0.00     0.261 C 
BRANCH  82  83
ATOM     83  O   UNL A   1      42.431  13.861  41.529  1.00  0.00    -0.463 OA
BRANCH  83  84
ATOM     84  C   UNL A   1      41.860  12.629  41.510  1.00  0.00     0.312 C 
ATOM     85  O   UNL A   1      41.554  12.052  40.470  1.00  0.00    -0.252 OA
BRANCH  84  86
ATOM     86  C   UNL A   1      41.598  11.970  42.905  1.00  0.00     0.124 C 
ATOM     87  C   UNL A   1      42.083  12.855  44.025  1.00  0.00    -0.014 C 
ATOM     88  C   UNL A   1      42.133  10.604  43.381  1.00  0.00     0.048 C 
ATOM     89  C   UNL A   1      42.920  12.236  44.870  1.00  0.00    -0.006 C 
ATOM     90  C   UNL A   1      43.122  10.812  44.527  1.00  0.00     0.106 C 
BRANCH  90  91
ATOM     91  N   UNL A   1      44.493  10.374  44.249  1.00  0.00    -0.347 N 
ATOM     92  C   UNL A   1      45.766  10.814  44.495  1.00  0.00     0.261 C 
ATOM     93  H   UNL A   1      44.500   9.529  43.745  1.00  0.00     0.164 HD
ATOM     94  O   UNL A   1      46.688  10.134  44.033  1.00  0.00    -0.271 OA
BRANCH  92  95
ATOM     95  C   UNL A   1      46.021  12.087  45.304  1.00  0.00     0.266 C 
ATOM     96  C   UNL A   1      46.477  13.139  44.313  1.00  0.00     0.095 C 
ATOM     97  O   UNL A   1      46.996  12.095  46.372  1.00  0.00    -0.480 OA
ATOM     98  C   UNL A   1      47.080  14.100  45.245  1.00  0.00    -0.002 A 
ATOM     99  C   UNL A   1      47.386  13.420  46.409  1.00  0.00     0.123 A 
ATOM    100  C   UNL A   1      47.337  15.448  45.083  1.00  0.00     0.008 A 
ATOM    101  C   UNL A   1      47.996  14.068  47.459  1.00  0.00     0.047 A 
ATOM    102  C   UNL A   1      47.955  16.120  46.129  1.00  0.00     0.001 A 
ATOM    103  C   UNL A   1      48.282  15.433  47.310  1.00  0.00     0.004 A 
ENDBRANCH  92  95
ENDBRANCH  90  91
ENDBRANCH  84  86
ENDBRANCH  83  84
ENDBRANCH  82  83
ENDBRANCH  81  82
ENDBRANCH  80  81
ENDBRANCH  79  80
ENDBRANCH  78  79
ENDBRANCH  77  78
ENDBRANCH   1  77
TORSDOF 25
ENDMDL
MODEL 3
REMARK VINA RESULT:      -9.4      1.942      8.281
REMARK SMILES O=C(OCCOCCOCCOCCOC(=O)[C@@H]1C=C[C@H](NC(=O)[C@@H]2Cc3ccccc3O2)C1)c1ccc(-c2c3nc(c(-c4c(F)cc(S(=O)(=O)[O-])cc4F)c4ccc([nH]4)c(-c4c(F)cc(S(=O)(=O)[O-])cc4F)c4nc(c(-c5c(F)cc(S(=O)(=O)[O-])cc5F)c5ccc2[nH]5)C=C4)C=C3)cc1
REMARK SMILES IDX 8 1 7 2 6 3 5 4 4 5 3 6 2 7 1 8 35 9 36 10 100 11 37 12
REMARK SMILES IDX 99 13 38 14 39 15 40 16 93 17 41 18 98 19 92 20 94 21 42 22
REMARK SMILES IDX 97 23 91 24 90 25 43 27 77 28 56 29 76 30 57 31 60 32 75 33
REMARK SMILES IDX 95 34 58 35 59 36 74 38 96 39 61 40 44 41 45 42 54 43 46 44
REMARK SMILES IDX 47 45 53 46 55 47 48 48 49 49 50 50 51 51 52 52 78 53 79 54
REMARK SMILES IDX 88 55 80 56 81 57 87 58 89 59 82 60 83 61 84 62 85 63 86 64
REMARK SMILES IDX 62 65 63 66 72 67 64 68 65 69 71 70 73 71 66 72 67 73 68 74
REMARK SMILES IDX 69 75 70 76 9 77 10 78 11 79 12 80 13 81 14 82 15 83 16 84
REMARK SMILES IDX 17 85 18 86 19 87 34 88 20 89 21 90 22 91 23 92 24 94 25 95
REMARK SMILES IDX 26 96 33 97 27 98 32 99 28 100 31 101 29 102 30 103
REMARK H PARENT 94 26 60 37 22 93
REMARK Flexibility Score: inf
ROOT
ATOM      1  C   UNL A   1      33.158  28.613  23.740  1.00  0.00     0.188 C 
ENDROOT
BRANCH   1   2
ATOM      2  C   UNL A   1      33.089  27.990  25.120  1.00  0.00     0.188 C 
BRANCH   2   3
ATOM      3  O   UNL A   1      31.886  28.454  25.680  1.00  0.00    -0.376 OA
BRANCH   3   4
ATOM      4  C   UNL A   1      31.816  29.181  26.876  1.00  0.00     0.202 C 
BRANCH   4   5
ATOM      5  C   UNL A   1      32.519  30.515  26.883  1.00  0.00     0.261 C 
BRANCH   5   6
ATOM      6  O   UNL A   1      33.916  30.525  27.250  1.00  0.00    -0.460 OA
BRANCH   6   7
ATOM      7  C   UNL A   1      34.679  31.299  28.050  1.00  0.00     0.338 C 
ATOM      8  O   UNL A   1      34.290  32.436  28.313  1.00  0.00    -0.246 OA
BRANCH   7   9
ATOM      9  C   UNL A   1      35.941  30.851  28.682  1.00  0.00     0.060 A 
ATOM     10  C   UNL A   1      36.085  29.656  29.376  1.00  0.00     0.016 A 
ATOM     11  C   UNL A   1      37.104  31.564  28.381  1.00  0.00     0.016 A 
ATOM     12  C   UNL A   1      37.271  29.268  29.952  1.00  0.00     0.010 A 
ATOM     13  C   UNL A   1      38.348  31.106  28.829  1.00  0.00     0.010 A 
ATOM     14  C   UNL A   1      38.420  29.971  29.648  1.00  0.00    -0.014 A 
BRANCH  14  15
ATOM     15  C   UNL A   1      39.665  29.523  30.284  1.00  0.00     0.031 A 
ATOM     16  C   UNL A   1      40.088  30.238  31.522  1.00  0.00     0.074 A 
ATOM     17  C   UNL A   1      40.301  28.429  29.822  1.00  0.00     0.049 A 
ATOM     18  N   UNL A   1      41.211  30.157  32.172  1.00  0.00    -0.248 NA
ATOM     19  C   UNL A   1      39.109  31.171  32.115  1.00  0.00     0.031 C 
ATOM     20  C   UNL A   1      39.838  27.576  28.718  1.00  0.00     0.029 A 
ATOM     21  N   UNL A   1      41.461  27.832  30.229  1.00  0.00    -0.354 N 
ATOM     22  C   UNL A   1      41.103  31.077  33.204  1.00  0.00     0.074 A 
ATOM     23  C   UNL A   1      39.800  31.686  33.120  1.00  0.00     0.031 C 
ATOM     24  C   UNL A   1      40.709  26.571  28.539  1.00  0.00     0.029 A 
ATOM     25  C   UNL A   1      41.837  26.772  29.435  1.00  0.00     0.049 A 
ATOM     26  H   UNL A   1      41.978  28.131  31.012  1.00  0.00     0.167 HD
ATOM     27  C   UNL A   1      42.048  31.392  34.114  1.00  0.00     0.037 A 
ATOM     28  C   UNL A   1      43.005  26.103  29.394  1.00  0.00     0.037 A 
ATOM     29  C   UNL A   1      43.321  30.730  34.162  1.00  0.00     0.049 A 
ATOM     30  C   UNL A   1      44.077  26.545  30.355  1.00  0.00     0.074 A 
ATOM     31  C   UNL A   1      44.381  30.962  35.013  1.00  0.00     0.029 A 
ATOM     32  N   UNL A   1      43.699  29.701  33.306  1.00  0.00    -0.354 N 
ATOM     33  N   UNL A   1      44.007  27.457  31.299  1.00  0.00    -0.248 NA
ATOM     34  C   UNL A   1      45.388  25.901  30.233  1.00  0.00     0.031 C 
ATOM     35  C   UNL A   1      45.425  30.115  34.631  1.00  0.00     0.029 A 
ATOM     36  C   UNL A   1      44.994  29.314  33.581  1.00  0.00     0.049 A 
ATOM     37  H   UNL A   1      43.127  29.308  32.609  1.00  0.00     0.167 HD
ATOM     38  C   UNL A   1      45.262  27.494  31.887  1.00  0.00     0.074 A 
ATOM     39  C   UNL A   1      46.061  26.487  31.214  1.00  0.00     0.031 C 
ATOM     40  C   UNL A   1      45.730  28.290  32.881  1.00  0.00     0.037 A 
BRANCH  27  41
ATOM     41  C   UNL A   1      41.775  32.538  35.039  1.00  0.00     0.058 A 
ATOM     42  C   UNL A   1      41.983  33.874  34.670  1.00  0.00     0.135 A 
ATOM     43  C   UNL A   1      41.274  32.281  36.326  1.00  0.00     0.135 A 
ATOM     44  F   UNL A   1      42.507  34.172  33.470  1.00  0.00    -0.206 F 
ATOM     45  C   UNL A   1      41.690  34.919  35.541  1.00  0.00     0.059 A 
ATOM     46  C   UNL A   1      40.954  33.309  37.204  1.00  0.00     0.059 A 
ATOM     47  F   UNL A   1      41.092  31.017  36.739  1.00  0.00    -0.206 F 
ATOM     48  C   UNL A   1      41.164  34.626  36.802  1.00  0.00     0.060 A 
BRANCH  48  49
ATOM     49  S   UNL A   1      40.730  35.997  37.891  1.00  0.00     0.124 S 
ATOM     50  O   UNL A   1      42.028  36.621  38.110  1.00  0.00    -0.237 OA
ATOM     51  O   UNL A   1      39.788  36.753  37.078  1.00  0.00    -0.237 OA
ATOM     52  O   UNL A   1      40.151  35.330  39.061  1.00  0.00    -0.744 OA
ENDBRANCH  48  49
ENDBRANCH  27  41
BRANCH  28  53
ATOM     53  C   UNL A   1      43.264  25.066  28.354  1.00  0.00     0.058 A 
ATOM     54  C   UNL A   1      43.686  25.413  27.063  1.00  0.00     0.135 A 
ATOM     55  C   UNL A   1      43.048  23.702  28.618  1.00  0.00     0.135 A 
ATOM     56  F   UNL A   1      43.906  26.698  26.751  1.00  0.00    -0.206 F 
ATOM     57  C   UNL A   1      43.842  24.455  26.063  1.00  0.00     0.059 A 
ATOM     58  C   UNL A   1      43.232  22.722  27.646  1.00  0.00     0.059 A 
ATOM     59  F   UNL A   1      42.654  23.303  29.838  1.00  0.00    -0.206 F 
ATOM     60  C   UNL A   1      43.606  23.112  26.363  1.00  0.00     0.060 A 
BRANCH  60  61
ATOM     61  S   UNL A   1      43.790  21.882  25.054  1.00  0.00     0.124 S 
ATOM     62  O   UNL A   1      43.557  22.688  23.861  1.00  0.00    -0.237 OA
ATOM     63  O   UNL A   1      45.158  21.419  25.258  1.00  0.00    -0.237 OA
ATOM     64  O   UNL A   1      42.751  20.902  25.367  1.00  0.00    -0.744 OA
ENDBRANCH  60  61
ENDBRANCH  28  53
BRANCH  40  65
ATOM     65  C   UNL A   1      47.152  28.084  33.301  1.00  0.00     0.058 A 
ATOM     66  C   UNL A   1      47.493  27.131  34.271  1.00  0.00     0.135 A 
ATOM     67  C   UNL A   1      48.186  28.780  32.656  1.00  0.00     0.135 A 
ATOM     68  F   UNL A   1      46.535  26.450  34.919  1.00  0.00    -0.206 F 
ATOM     69  C   UNL A   1      48.819  26.879  34.596  1.00  0.00     0.059 A 
ATOM     70  C   UNL A   1      49.519  28.520  32.941  1.00  0.00     0.059 A 
ATOM     71  F   UNL A   1      47.902  29.692  31.713  1.00  0.00    -0.206 F 
ATOM     72  C   UNL A   1      49.825  27.572  33.916  1.00  0.00     0.060 A 
BRANCH  72  73
ATOM     73  S   UNL A   1      51.542  27.182  34.298  1.00  0.00     0.124 S 
ATOM     74  O   UNL A   1      51.754  25.980  33.498  1.00  0.00    -0.237 OA
ATOM     75  O   UNL A   1      52.241  28.379  33.842  1.00  0.00    -0.237 OA
ATOM     76  O   UNL A   1      51.532  26.980  35.743  1.00  0.00    -0.744 OA
ENDBRANCH  72  73
ENDBRANCH  40  65
ENDBRANCH  14  15
ENDBRANCH   7   9
ENDBRANCH   6   7
ENDBRANCH   5   6
ENDBRANCH   4   5
ENDBRANCH   3   4
ENDBRANCH   2   3
ENDBRANCH   1   2
BRANCH   1  77
ATOM     77  O   UNL A   1      32.043  28.344  22.909  1.00  0.00    -0.377 OA
BRANCH  77  78
ATOM     78  C   UNL A   1      31.485  29.317  22.027  1.00  0.00     0.188 C 
BRANCH  78  79
ATOM     79  C   UNL A   1      30.065  29.852  22.272  1.00  0.00     0.188 C 
BRANCH  79  80
ATOM     80  O   UNL A   1      28.991  28.965  22.050  1.00  0.00    -0.376 OA
BRANCH  80  81
ATOM     81  C   UNL A   1      28.324  28.428  23.188  1.00  0.00     0.202 C 
BRANCH  81  82
ATOM     82  C   UNL A   1      28.497  26.952  23.600  1.00  0.00     0.261 C 
BRANCH  82  83
ATOM     83  O   UNL A   1      29.791  26.622  24.173  1.00  0.00    -0.463 OA
BRANCH  83  84
ATOM     84  C   UNL A   1      30.311  25.385  23.962  1.00  0.00     0.312 C 
ATOM     85  O   UNL A   1      30.662  24.990  22.854  1.00  0.00    -0.252 OA
BRANCH  84  86
ATOM     86  C   UNL A   1      30.433  24.466  25.222  1.00  0.00     0.124 C 
ATOM     87  C   UNL A   1      30.983  25.228  26.401  1.00  0.00    -0.014 C 
ATOM     88  C   UNL A   1      31.260  23.168  25.324  1.00  0.00     0.048 C 
ATOM     89  C   UNL A   1      32.057  24.650  26.958  1.00  0.00    -0.006 C 
ATOM     90  C   UNL A   1      32.409  23.367  26.311  1.00  0.00     0.106 C 
BRANCH  90  91
ATOM     91  N   UNL A   1      33.751  23.251  25.732  1.00  0.00    -0.347 N 
ATOM     92  C   UNL A   1      34.578  22.257  25.285  1.00  0.00     0.261 C 
ATOM     93  H   UNL A   1      34.174  24.135  25.639  1.00  0.00     0.164 HD
ATOM     94  O   UNL A   1      35.696  22.600  24.888  1.00  0.00    -0.271 OA
BRANCH  92  95
ATOM     95  C   UNL A   1      34.129  20.794  25.283  1.00  0.00     0.266 C 
ATOM     96  C   UNL A   1      35.353  19.972  24.936  1.00  0.00     0.095 C 
ATOM     97  O   UNL A   1      33.083  20.349  24.390  1.00  0.00    -0.480 OA
ATOM     98  C   UNL A   1      34.697  18.717  24.550  1.00  0.00    -0.002 A 
ATOM     99  C   UNL A   1      33.389  19.013  24.214  1.00  0.00     0.123 A 
ATOM    100  C   UNL A   1      35.204  17.432  24.497  1.00  0.00     0.008 A 
ATOM    101  C   UNL A   1      32.536  18.025  23.780  1.00  0.00     0.047 A 
ATOM    102  C   UNL A   1      34.360  16.420  24.058  1.00  0.00     0.001 A 
ATOM    103  C   UNL A   1      33.034  16.716  23.702  1.00  0.00     0.004 A 
ENDBRANCH  92  95
ENDBRANCH  90  91
ENDBRANCH  84  86
ENDBRANCH  83  84
ENDBRANCH  82  83
ENDBRANCH  81  82
ENDBRANCH  80  81
ENDBRANCH  79  80
ENDBRANCH  78  79
ENDBRANCH  77  78
ENDBRANCH   1  77
TORSDOF 25
ENDMDL
