MODEL 1
REMARK VINA RESULT:      -7.7      0.000      0.000
REMARK SMILES COc1cc(-c2ccc(NC(=O)CCC(=O)OCCOCCOCCOCCOC(=O)c3ccc(-c4c5nc(c(-c6c(F)cc(S(=O)(=O)[O-])cc6F)c6ccc([nH]6)c(-c6c(F)cc(S(=O)(=O)[O-])cc6F)c6nc(c(-c7c(F)cc(S(=O)(=O)[O-])cc7F)c7ccc4[nH]7)C=C6)C=C5)cc3)c(OC)c2)ccc1N
REMARK SMILES IDX 22 1 21 2 20 3 19 4 18 5 17 6 15 7 16 8 14 9 13 10 11 11
REMARK SMILES IDX 10 12 12 14 9 15 6 16 7 17 101 18 8 19 98 20 5 21 3 22 4 23
REMARK SMILES IDX 104 24 103 25 102 26 2 27 1 28 105 29 99 32 100 33 23 34
REMARK SMILES IDX 24 35 25 36 26 37 27 38 28 39 29 40 30 41 31 42 32 43 33 44
REMARK SMILES IDX 97 45 34 46 96 47 35 48 36 49 37 50 90 51 38 52 95 53 89 54
REMARK SMILES IDX 91 55 39 56 94 57 88 58 87 59 40 61 74 62 53 63 73 64 54 65
REMARK SMILES IDX 57 66 72 67 92 68 55 69 56 70 71 72 93 73 58 74 41 75 42 76
REMARK SMILES IDX 51 77 43 78 44 79 50 80 52 81 45 82 46 83 47 84 48 85 49 86
REMARK SMILES IDX 75 87 76 88 85 89 77 90 78 91 84 92 86 93 79 94 80 95 81 96
REMARK SMILES IDX 82 97 83 98 59 99 60 100 69 101 61 102 62 103 68 104 70 105
REMARK SMILES IDX 63 106 64 107 65 108 66 109 67 110
REMARK H PARENT 10 13 105 30 105 31 91 60 57 71
REMARK Flexibility Score: inf
ROOT
ATOM      1  C   UNL A   1      41.246  29.029  34.891  1.00  0.00     0.188 C 
ENDROOT
BRANCH   1   2
ATOM      2  C   UNL A   1      42.629  29.289  34.251  1.00  0.00     0.188 C 
BRANCH   2   3
ATOM      3  O   UNL A   1      42.703  30.608  33.437  1.00  0.00    -0.376 OA
BRANCH   3   4
ATOM      4  C   UNL A   1      43.362  31.515  31.765  1.00  0.00     0.202 C 
BRANCH   4   5
ATOM      5  C   UNL A   1      42.326  32.038  30.358  1.00  0.00     0.261 C 
BRANCH   5   6
ATOM      6  O   UNL A   1      40.855  32.666  30.446  1.00  0.00    -0.463 OA
BRANCH   6   7
ATOM      7  C   UNL A   1      40.001  33.700  30.102  1.00  0.00     0.306 C 
ATOM      8  O   UNL A   1      40.570  34.791  29.920  1.00  0.00    -0.252 OA
BRANCH   7   9
ATOM      9  C   UNL A   1      38.338  33.773  29.892  1.00  0.00     0.132 C 
BRANCH   9  10
ATOM     10  C   UNL A   1      37.081  33.585  28.810  1.00  0.00     0.112 C 
BRANCH  10  11
ATOM     11  C   UNL A   1      35.429  33.228  28.681  1.00  0.00     0.225 C 
ATOM     12  N   UNL A   1      34.527  32.740  29.647  1.00  0.00    -0.323 N 
ATOM     13  H   UNL A   1      33.640  32.452  29.333  1.00  0.00     0.170 HD
ATOM     14  O   UNL A   1      34.963  33.273  27.525  1.00  0.00    -0.275 OA
BRANCH  12  15
ATOM     15  C   UNL A   1      34.793  32.635  31.028  1.00  0.00     0.083 A 
ATOM     16  C   UNL A   1      37.140  33.776  33.580  1.00  0.00    -0.014 A 
ATOM     17  C   UNL A   1      37.063  32.045  33.058  1.00  0.00     0.011 A 
ATOM     18  C   UNL A   1      35.909  34.913  32.877  1.00  0.00     0.057 A 
ATOM     19  C   UNL A   1      35.920  31.491  31.780  1.00  0.00     0.031 A 
ATOM     20  C   UNL A   1      34.677  34.231  31.635  1.00  0.00     0.142 A 
BRANCH  16  21
ATOM     21  C   UNL A   1      38.299  34.240  34.381  1.00  0.00    -0.014 A 
ATOM     22  C   UNL A   1      40.546  35.166  34.640  1.00  0.00     0.142 A 
ATOM     23  C   UNL A   1      39.494  34.702  33.821  1.00  0.00     0.057 A 
ATOM     24  C   UNL A   1      40.420  35.215  36.040  1.00  0.00     0.074 A 
ATOM     25  C   UNL A   1      39.280  34.652  36.601  1.00  0.00     0.030 A 
ATOM     26  C   UNL A   1      38.234  34.202  35.786  1.00  0.00     0.011 A 
BRANCH  22  27
ATOM     27  O   UNL A   1      41.648  35.670  33.986  1.00  0.00    -0.495 OA
ATOM     28  C   UNL A   1      42.228  34.725  33.087  1.00  0.00     0.278 C 
ENDBRANCH  22  27
BRANCH  24  29
ATOM     29  N   UNL A   1      41.422  35.702  36.877  1.00  0.00    -0.396 N 
ATOM     30  H   UNL A   1      41.537  36.673  36.993  1.00  0.00     0.156 HD
ATOM     31  H   UNL A   1      42.016  35.076  37.350  1.00  0.00     0.156 HD
ENDBRANCH  24  29
ENDBRANCH  16  21
BRANCH  20  32
ATOM     32  O   UNL A   1      33.311  34.616  31.508  1.00  0.00    -0.495 OA
ATOM     33  C   UNL A   1      32.802  35.854  30.990  1.00  0.00     0.278 C 
ENDBRANCH  20  32
ENDBRANCH  12  15
ENDBRANCH  10  11
ENDBRANCH   9  10
ENDBRANCH   7   9
ENDBRANCH   6   7
ENDBRANCH   5   6
ENDBRANCH   4   5
ENDBRANCH   3   4
ENDBRANCH   2   3
ENDBRANCH   1   2
BRANCH   1  34
ATOM     34  O   UNL A   1      40.071  28.922  34.109  1.00  0.00    -0.377 OA
BRANCH  34  35
ATOM     35  C   UNL A   1      40.089  28.023  33.027  1.00  0.00     0.188 C 
BRANCH  35  36
ATOM     36  C   UNL A   1      39.295  28.400  31.782  1.00  0.00     0.188 C 
BRANCH  36  37
ATOM     37  O   UNL A   1      39.916  28.210  30.530  1.00  0.00    -0.376 OA
BRANCH  37  38
ATOM     38  C   UNL A   1      39.315  27.291  29.625  1.00  0.00     0.202 C 
BRANCH  38  39
ATOM     39  C   UNL A   1      39.790  27.071  28.164  1.00  0.00     0.261 C 
BRANCH  39  40
ATOM     40  O   UNL A   1      40.576  25.899  27.868  1.00  0.00    -0.460 OA
BRANCH  40  41
ATOM     41  C   UNL A   1      41.243  25.901  26.687  1.00  0.00     0.338 C 
ATOM     42  O   UNL A   1      40.744  26.029  25.580  1.00  0.00    -0.246 OA
BRANCH  41  43
ATOM     43  C   UNL A   1      42.711  25.990  26.907  1.00  0.00     0.060 A 
ATOM     44  C   UNL A   1      43.436  24.789  26.998  1.00  0.00     0.016 A 
ATOM     45  C   UNL A   1      43.364  27.209  27.090  1.00  0.00     0.016 A 
ATOM     46  C   UNL A   1      44.793  24.798  27.325  1.00  0.00     0.010 A 
ATOM     47  C   UNL A   1      44.718  27.216  27.470  1.00  0.00     0.010 A 
ATOM     48  C   UNL A   1      45.421  26.007  27.645  1.00  0.00    -0.014 A 
BRANCH  48  49
ATOM     49  C   UNL A   1      46.662  25.946  28.469  1.00  0.00     0.031 A 
ATOM     50  C   UNL A   1      47.981  26.101  27.747  1.00  0.00     0.074 A 
ATOM     51  C   UNL A   1      46.641  25.870  29.814  1.00  0.00     0.049 A 
ATOM     52  N   UNL A   1      49.197  26.141  28.227  1.00  0.00    -0.248 NA
ATOM     53  C   UNL A   1      47.913  26.242  26.282  1.00  0.00     0.031 C 
ATOM     54  C   UNL A   1      45.441  25.777  30.642  1.00  0.00     0.029 A 
ATOM     55  N   UNL A   1      47.674  25.869  30.721  1.00  0.00    -0.354 N 
ATOM     56  C   UNL A   1      50.032  26.317  27.128  1.00  0.00     0.074 A 
ATOM     57  C   UNL A   1      49.191  26.334  25.953  1.00  0.00     0.031 C 
ATOM     58  C   UNL A   1      45.808  25.721  31.937  1.00  0.00     0.029 A 
ATOM     59  C   UNL A   1      47.267  25.754  32.030  1.00  0.00     0.049 A 
ATOM     60  H   UNL A   1      48.620  25.943  30.458  1.00  0.00     0.167 HD
ATOM     61  C   UNL A   1      51.378  26.469  27.093  1.00  0.00     0.037 A 
ATOM     62  C   UNL A   1      47.991  25.675  33.167  1.00  0.00     0.037 A 
ATOM     63  C   UNL A   1      52.222  26.445  28.258  1.00  0.00     0.049 A 
ATOM     64  C   UNL A   1      49.500  25.762  33.095  1.00  0.00     0.074 A 
ATOM     65  C   UNL A   1      53.599  26.576  28.325  1.00  0.00     0.029 A 
ATOM     66  N   UNL A   1      51.773  26.276  29.559  1.00  0.00    -0.354 N 
ATOM     67  N   UNL A   1      50.272  25.936  32.048  1.00  0.00    -0.248 NA
ATOM     68  C   UNL A   1      50.232  25.655  34.365  1.00  0.00     0.031 C 
ATOM     69  C   UNL A   1      53.987  26.433  29.661  1.00  0.00     0.029 A 
ATOM     70  C   UNL A   1      52.848  26.280  30.434  1.00  0.00     0.049 A 
ATOM     71  H   UNL A   1      50.832  26.168  29.822  1.00  0.00     0.167 HD
ATOM     72  C   UNL A   1      51.575  25.999  32.540  1.00  0.00     0.074 A 
ATOM     73  C   UNL A   1      51.482  25.864  33.979  1.00  0.00     0.031 C 
ATOM     74  C   UNL A   1      52.744  26.154  31.866  1.00  0.00     0.037 A 
BRANCH  61  75
ATOM     75  C   UNL A   1      52.024  26.656  25.747  1.00  0.00     0.058 A 
ATOM     76  C   UNL A   1      52.046  27.905  25.105  1.00  0.00     0.135 A 
ATOM     77  C   UNL A   1      52.665  25.582  25.111  1.00  0.00     0.135 A 
ATOM     78  F   UNL A   1      51.426  28.961  25.656  1.00  0.00    -0.206 F 
ATOM     79  C   UNL A   1      52.670  28.078  23.874  1.00  0.00     0.059 A 
ATOM     80  C   UNL A   1      53.322  25.739  23.894  1.00  0.00     0.059 A 
ATOM     81  F   UNL A   1      52.666  24.364  25.675  1.00  0.00    -0.206 F 
ATOM     82  C   UNL A   1      53.312  26.990  23.279  1.00  0.00     0.060 A 
BRANCH  82  83
ATOM     83  S   UNL A   1      54.148  27.242  21.699  1.00  0.00     0.124 S 
ATOM     84  O   UNL A   1      53.327  26.433  20.802  1.00  0.00    -0.237 OA
ATOM     85  O   UNL A   1      54.046  28.687  21.522  1.00  0.00    -0.237 OA
ATOM     86  O   UNL A   1      55.495  26.736  21.942  1.00  0.00    -0.744 OA
ENDBRANCH  82  83
ENDBRANCH  61  75
BRANCH  62  87
ATOM     87  C   UNL A   1      47.318  25.491  34.486  1.00  0.00     0.058 A 
ATOM     88  C   UNL A   1      46.907  26.590  35.259  1.00  0.00     0.135 A 
ATOM     89  C   UNL A   1      47.128  24.212  35.030  1.00  0.00     0.135 A 
ATOM     90  F   UNL A   1      47.080  27.838  34.795  1.00  0.00    -0.206 F 
ATOM     91  C   UNL A   1      46.362  26.429  36.530  1.00  0.00     0.059 A 
ATOM     92  C   UNL A   1      46.555  24.024  36.285  1.00  0.00     0.059 A 
ATOM     93  F   UNL A   1      47.496  23.123  34.335  1.00  0.00    -0.206 F 
ATOM     94  C   UNL A   1      46.190  25.140  37.034  1.00  0.00     0.060 A 
BRANCH  94  95
ATOM     95  S   UNL A   1      45.455  24.938  38.673  1.00  0.00     0.124 S 
ATOM     96  O   UNL A   1      45.224  23.499  38.717  1.00  0.00    -0.237 OA
ATOM     97  O   UNL A   1      46.510  25.445  39.544  1.00  0.00    -0.237 OA
ATOM     98  O   UNL A   1      44.257  25.770  38.605  1.00  0.00    -0.744 OA
ENDBRANCH  94  95
ENDBRANCH  62  87
BRANCH  74  99
ATOM     99  C   UNL A   1      54.009  26.243  32.681  1.00  0.00     0.058 A 
ATOM    100  C   UNL A   1      54.776  25.110  32.996  1.00  0.00     0.135 A 
ATOM    101  C   UNL A   1      54.464  27.488  33.148  1.00  0.00     0.135 A 
ATOM    102  F   UNL A   1      54.393  23.895  32.573  1.00  0.00    -0.206 F 
ATOM    103  C   UNL A   1      55.911  25.199  33.797  1.00  0.00     0.059 A 
ATOM    104  C   UNL A   1      55.618  27.605  33.918  1.00  0.00     0.059 A 
ATOM    105  F   UNL A   1      53.785  28.610  32.859  1.00  0.00    -0.206 F 
ATOM    106  C   UNL A   1      56.318  26.452  34.261  1.00  0.00     0.060 A 
BRANCH 106 107
ATOM    107  S   UNL A   1      57.776  26.551  35.322  1.00  0.00     0.124 S 
ATOM    108  O   UNL A   1      57.243  27.254  36.485  1.00  0.00    -0.237 OA
ATOM    109  O   UNL A   1      58.110  25.145  35.529  1.00  0.00    -0.237 OA
ATOM    110  O   UNL A   1      58.732  27.304  34.517  1.00  0.00    -0.744 OA
ENDBRANCH 106 107
ENDBRANCH  74  99
ENDBRANCH  48  49
ENDBRANCH  41  43
ENDBRANCH  40  41
ENDBRANCH  39  40
ENDBRANCH  38  39
ENDBRANCH  37  38
ENDBRANCH  36  37
ENDBRANCH  35  36
ENDBRANCH  34  35
ENDBRANCH   1  34
TORSDOF 30
ENDMDL
MODEL 2
REMARK VINA RESULT:      -7.7      6.695     15.363
REMARK SMILES COc1cc(-c2ccc(NC(=O)CCC(=O)OCCOCCOCCOCCOC(=O)c3ccc(-c4c5nc(c(-c6c(F)cc(S(=O)(=O)[O-])cc6F)c6ccc([nH]6)c(-c6c(F)cc(S(=O)(=O)[O-])cc6F)c6nc(c(-c7c(F)cc(S(=O)(=O)[O-])cc7F)c7ccc4[nH]7)C=C6)C=C5)cc3)c(OC)c2)ccc1N
REMARK SMILES IDX 22 1 21 2 20 3 19 4 18 5 17 6 15 7 16 8 14 9 13 10 11 11
REMARK SMILES IDX 10 12 12 14 9 15 6 16 7 17 101 18 8 19 98 20 5 21 3 22 4 23
REMARK SMILES IDX 104 24 103 25 102 26 2 27 1 28 105 29 99 32 100 33 23 34
REMARK SMILES IDX 24 35 25 36 26 37 27 38 28 39 29 40 30 41 31 42 32 43 33 44
REMARK SMILES IDX 97 45 34 46 96 47 35 48 36 49 37 50 90 51 38 52 95 53 89 54
REMARK SMILES IDX 91 55 39 56 94 57 88 58 87 59 40 61 74 62 53 63 73 64 54 65
REMARK SMILES IDX 57 66 72 67 92 68 55 69 56 70 71 72 93 73 58 74 41 75 42 76
REMARK SMILES IDX 51 77 43 78 44 79 50 80 52 81 45 82 46 83 47 84 48 85 49 86
REMARK SMILES IDX 75 87 76 88 85 89 77 90 78 91 84 92 86 93 79 94 80 95 81 96
REMARK SMILES IDX 82 97 83 98 59 99 60 100 69 101 61 102 62 103 68 104 70 105
REMARK SMILES IDX 63 106 64 107 65 108 66 109 67 110
REMARK H PARENT 10 13 105 30 105 31 91 60 57 71
REMARK Flexibility Score: inf
ROOT
ATOM      1  C   UNL A   1      46.305  22.979  35.621  1.00  0.00     0.188 C 
ENDROOT
BRANCH   1   2
ATOM      2  C   UNL A   1      44.975  23.734  35.848  1.00  0.00     0.188 C 
BRANCH   2   3
ATOM      3  O   UNL A   1      44.626  23.949  37.346  1.00  0.00    -0.376 OA
BRANCH   3   4
ATOM      4  C   UNL A   1      45.247  24.639  39.131  1.00  0.00     0.202 C 
BRANCH   4   5
ATOM      5  C   UNL A   1      44.524  26.046  40.039  1.00  0.00     0.261 C 
BRANCH   5   6
ATOM      6  O   UNL A   1      45.316  27.322  40.596  1.00  0.00    -0.463 OA
BRANCH   6   7
ATOM      7  C   UNL A   1      45.861  27.978  41.687  1.00  0.00     0.306 C 
ATOM      8  O   UNL A   1      45.410  27.602  42.784  1.00  0.00    -0.252 OA
BRANCH   7   9
ATOM      9  C   UNL A   1      47.010  29.193  41.821  1.00  0.00     0.132 C 
BRANCH   9  10
ATOM     10  C   UNL A   1      47.345  30.702  42.451  1.00  0.00     0.112 C 
BRANCH  10  11
ATOM     11  C   UNL A   1      46.643  32.158  42.961  1.00  0.00     0.225 C 
ATOM     12  N   UNL A   1      45.341  32.657  42.761  1.00  0.00    -0.323 N 
ATOM     13  H   UNL A   1      45.173  33.596  43.005  1.00  0.00     0.170 HD
ATOM     14  O   UNL A   1      47.430  32.978  43.474  1.00  0.00    -0.275 OA
BRANCH  12  15
ATOM     15  C   UNL A   1      44.258  31.919  42.241  1.00  0.00     0.083 A 
ATOM     16  C   UNL A   1      40.611  31.775  42.296  1.00  0.00    -0.014 A 
ATOM     17  C   UNL A   1      41.629  30.495  43.069  1.00  0.00     0.011 A 
ATOM     18  C   UNL A   1      41.474  33.080  41.372  1.00  0.00     0.057 A 
ATOM     19  C   UNL A   1      43.428  30.582  43.061  1.00  0.00     0.031 A 
ATOM     20  C   UNL A   1      43.350  33.036  41.316  1.00  0.00     0.142 A 
BRANCH  16  21
ATOM     21  C   UNL A   1      39.161  31.834  42.608  1.00  0.00    -0.014 A 
ATOM     22  C   UNL A   1      37.236  32.571  43.921  1.00  0.00     0.142 A 
ATOM     23  C   UNL A   1      38.630  32.523  43.702  1.00  0.00     0.057 A 
ATOM     24  C   UNL A   1      36.332  31.963  43.031  1.00  0.00     0.074 A 
ATOM     25  C   UNL A   1      36.863  31.186  42.008  1.00  0.00     0.030 A 
ATOM     26  C   UNL A   1      38.246  31.148  41.789  1.00  0.00     0.011 A 
BRANCH  22  27
ATOM     27  O   UNL A   1      36.814  33.339  44.983  1.00  0.00    -0.495 OA
ATOM     28  C   UNL A   1      36.372  34.634  44.576  1.00  0.00     0.278 C 
ENDBRANCH  22  27
BRANCH  24  29
ATOM     29  N   UNL A   1      34.949  32.023  43.194  1.00  0.00    -0.396 N 
ATOM     30  H   UNL A   1      34.416  31.195  43.184  1.00  0.00     0.156 HD
ATOM     31  H   UNL A   1      34.506  32.893  43.318  1.00  0.00     0.156 HD
ENDBRANCH  24  29
ENDBRANCH  16  21
BRANCH  20  32
ATOM     32  O   UNL A   1      44.166  33.403  40.207  1.00  0.00    -0.495 OA
ATOM     33  C   UNL A   1      44.065  34.592  39.409  1.00  0.00     0.278 C 
ENDBRANCH  20  32
ENDBRANCH  12  15
ENDBRANCH  10  11
ENDBRANCH   9  10
ENDBRANCH   7   9
ENDBRANCH   6   7
ENDBRANCH   5   6
ENDBRANCH   4   5
ENDBRANCH   3   4
ENDBRANCH   2   3
ENDBRANCH   1   2
BRANCH   1  34
ATOM     34  O   UNL A   1      46.475  21.631  36.017  1.00  0.00    -0.377 OA
BRANCH  34  35
ATOM     35  C   UNL A   1      46.926  21.389  37.327  1.00  0.00     0.188 C 
BRANCH  35  36
ATOM     36  C   UNL A   1      47.916  22.380  37.928  1.00  0.00     0.188 C 
BRANCH  36  37
ATOM     37  O   UNL A   1      49.072  22.681  37.180  1.00  0.00    -0.376 OA
BRANCH  37  38
ATOM     38  C   UNL A   1      49.515  24.034  37.161  1.00  0.00     0.202 C 
BRANCH  38  39
ATOM     39  C   UNL A   1      48.749  25.210  37.826  1.00  0.00     0.261 C 
BRANCH  39  40
ATOM     40  O   UNL A   1      47.752  25.903  37.049  1.00  0.00    -0.460 OA
BRANCH  40  41
ATOM     41  C   UNL A   1      48.107  27.116  36.554  1.00  0.00     0.338 C 
ATOM     42  O   UNL A   1      49.206  27.420  36.120  1.00  0.00    -0.246 OA
BRANCH  41  43
ATOM     43  C   UNL A   1      46.912  27.978  36.355  1.00  0.00     0.060 A 
ATOM     44  C   UNL A   1      45.651  27.434  36.656  1.00  0.00     0.016 A 
ATOM     45  C   UNL A   1      47.002  29.265  35.823  1.00  0.00     0.016 A 
ATOM     46  C   UNL A   1      44.483  28.144  36.376  1.00  0.00     0.010 A 
ATOM     47  C   UNL A   1      45.824  29.959  35.493  1.00  0.00     0.010 A 
ATOM     48  C   UNL A   1      44.560  29.376  35.717  1.00  0.00    -0.014 A 
BRANCH  48  49
ATOM     49  C   UNL A   1      43.351  29.846  34.983  1.00  0.00     0.031 A 
ATOM     50  C   UNL A   1      42.492  30.889  35.661  1.00  0.00     0.074 A 
ATOM     51  C   UNL A   1      43.068  29.463  33.723  1.00  0.00     0.049 A 
ATOM     52  N   UNL A   1      41.424  31.504  35.224  1.00  0.00    -0.248 NA
ATOM     53  C   UNL A   1      42.907  31.300  37.014  1.00  0.00     0.031 C 
ATOM     54  C   UNL A   1      43.842  28.513  32.928  1.00  0.00     0.029 A 
ATOM     55  N   UNL A   1      42.045  29.843  32.886  1.00  0.00    -0.354 N 
ATOM     56  C   UNL A   1      41.046  32.375  36.243  1.00  0.00     0.074 A 
ATOM     57  C   UNL A   1      41.971  32.179  37.335  1.00  0.00     0.031 C 
ATOM     58  C   UNL A   1      43.262  28.379  31.720  1.00  0.00     0.029 A 
ATOM     59  C   UNL A   1      42.064  29.218  31.661  1.00  0.00     0.049 A 
ATOM     60  H   UNL A   1      41.360  30.504  33.141  1.00  0.00     0.167 HD
ATOM     61  C   UNL A   1      40.031  33.272  36.267  1.00  0.00     0.037 A 
ATOM     62  C   UNL A   1      41.209  29.306  30.621  1.00  0.00     0.037 A 
ATOM     63  C   UNL A   1      39.101  33.466  35.187  1.00  0.00     0.049 A 
ATOM     64  C   UNL A   1      40.032  30.254  30.705  1.00  0.00     0.074 A 
ATOM     65  C   UNL A   1      38.029  34.340  35.121  1.00  0.00     0.029 A 
ATOM     66  N   UNL A   1      39.127  32.775  33.984  1.00  0.00    -0.354 N 
ATOM     67  N   UNL A   1      39.695  31.074  31.672  1.00  0.00    -0.248 NA
ATOM     68  C   UNL A   1      39.128  30.294  29.546  1.00  0.00     0.031 C 
ATOM     69  C   UNL A   1      37.376  34.141  33.900  1.00  0.00     0.029 A 
ATOM     70  C   UNL A   1      38.079  33.191  33.178  1.00  0.00     0.049 A 
ATOM     71  H   UNL A   1      39.790  32.091  33.740  1.00  0.00     0.167 HD
ATOM     72  C   UNL A   1      38.565  31.755  31.219  1.00  0.00     0.074 A 
ATOM     73  C   UNL A   1      38.291  31.263  29.886  1.00  0.00     0.031 C 
ATOM     74  C   UNL A   1      37.820  32.701  31.848  1.00  0.00     0.037 A 
BRANCH  61  75
ATOM     75  C   UNL A   1      39.862  34.100  37.512  1.00  0.00     0.058 A 
ATOM     76  C   UNL A   1      38.980  33.722  38.537  1.00  0.00     0.135 A 
ATOM     77  C   UNL A   1      40.623  35.264  37.700  1.00  0.00     0.135 A 
ATOM     78  F   UNL A   1      38.209  32.631  38.399  1.00  0.00    -0.206 F 
ATOM     79  C   UNL A   1      38.849  34.476  39.699  1.00  0.00     0.059 A 
ATOM     80  C   UNL A   1      40.531  36.018  38.867  1.00  0.00     0.059 A 
ATOM     81  F   UNL A   1      41.475  35.677  36.748  1.00  0.00    -0.206 F 
ATOM     82  C   UNL A   1      39.635  35.619  39.857  1.00  0.00     0.060 A 
BRANCH  82  83
ATOM     83  S   UNL A   1      39.478  36.566  41.387  1.00  0.00     0.124 S 
ATOM     84  O   UNL A   1      38.979  37.844  40.889  1.00  0.00    -0.237 OA
ATOM     85  O   UNL A   1      38.525  35.766  42.150  1.00  0.00    -0.237 OA
ATOM     86  O   UNL A   1      40.839  36.588  41.914  1.00  0.00    -0.744 OA
ENDBRANCH  82  83
ENDBRANCH  61  75
BRANCH  62  87
ATOM     87  C   UNL A   1      41.407  28.472  29.399  1.00  0.00     0.058 A 
ATOM     88  C   UNL A   1      40.665  27.299  29.184  1.00  0.00     0.135 A 
ATOM     89  C   UNL A   1      42.387  28.800  28.450  1.00  0.00     0.135 A 
ATOM     90  F   UNL A   1      39.725  26.928  30.068  1.00  0.00    -0.206 F 
ATOM     91  C   UNL A   1      40.907  26.468  28.093  1.00  0.00     0.059 A 
ATOM     92  C   UNL A   1      42.627  28.003  27.335  1.00  0.00     0.059 A 
ATOM     93  F   UNL A   1      43.124  29.913  28.601  1.00  0.00    -0.206 F 
ATOM     94  C   UNL A   1      41.892  26.830  27.173  1.00  0.00     0.060 A 
BRANCH  94  95
ATOM     95  S   UNL A   1      42.181  25.761  25.745  1.00  0.00     0.124 S 
ATOM     96  O   UNL A   1      42.819  24.606  26.365  1.00  0.00    -0.237 OA
ATOM     97  O   UNL A   1      40.827  25.554  25.242  1.00  0.00    -0.237 OA
ATOM     98  O   UNL A   1      43.039  26.575  24.888  1.00  0.00    -0.744 OA
ENDBRANCH  94  95
ENDBRANCH  62  87
BRANCH  74  99
ATOM     99  C   UNL A   1      36.673  33.306  31.079  1.00  0.00     0.058 A 
ATOM    100  C   UNL A   1      36.876  34.167  29.989  1.00  0.00     0.135 A 
ATOM    101  C   UNL A   1      35.346  33.011  31.438  1.00  0.00     0.135 A 
ATOM    102  F   UNL A   1      38.121  34.480  29.597  1.00  0.00    -0.206 F 
ATOM    103  C   UNL A   1      35.809  34.763  29.323  1.00  0.00     0.059 A 
ATOM    104  C   UNL A   1      34.264  33.565  30.762  1.00  0.00     0.059 A 
ATOM    105  F   UNL A   1      35.090  32.176  32.457  1.00  0.00    -0.206 F 
ATOM    106  C   UNL A   1      34.505  34.462  29.724  1.00  0.00     0.060 A 
BRANCH 106 107
ATOM    107  S   UNL A   1      33.130  35.264  28.871  1.00  0.00     0.124 S 
ATOM    108  O   UNL A   1      32.602  34.164  28.071  1.00  0.00    -0.237 OA
ATOM    109  O   UNL A   1      32.288  35.703  29.979  1.00  0.00    -0.237 OA
ATOM    110  O   UNL A   1      33.774  36.335  28.119  1.00  0.00    -0.744 OA
ENDBRANCH 106 107
ENDBRANCH  74  99
ENDBRANCH  48  49
ENDBRANCH  41  43
ENDBRANCH  40  41
ENDBRANCH  39  40
ENDBRANCH  38  39
ENDBRANCH  37  38
ENDBRANCH  36  37
ENDBRANCH  35  36
ENDBRANCH  34  35
ENDBRANCH   1  34
TORSDOF 30
ENDMDL
MODEL 3
REMARK VINA RESULT:      -7.6      5.104     12.285
REMARK SMILES COc1cc(-c2ccc(NC(=O)CCC(=O)OCCOCCOCCOCCOC(=O)c3ccc(-c4c5nc(c(-c6c(F)cc(S(=O)(=O)[O-])cc6F)c6ccc([nH]6)c(-c6c(F)cc(S(=O)(=O)[O-])cc6F)c6nc(c(-c7c(F)cc(S(=O)(=O)[O-])cc7F)c7ccc4[nH]7)C=C6)C=C5)cc3)c(OC)c2)ccc1N
REMARK SMILES IDX 22 1 21 2 20 3 19 4 18 5 17 6 15 7 16 8 14 9 13 10 11 11
REMARK SMILES IDX 10 12 12 14 9 15 6 16 7 17 101 18 8 19 98 20 5 21 3 22 4 23
REMARK SMILES IDX 104 24 103 25 102 26 2 27 1 28 105 29 99 32 100 33 23 34
REMARK SMILES IDX 24 35 25 36 26 37 27 38 28 39 29 40 30 41 31 42 32 43 33 44
REMARK SMILES IDX 97 45 34 46 96 47 35 48 36 49 37 50 90 51 38 52 95 53 89 54
REMARK SMILES IDX 91 55 39 56 94 57 88 58 87 59 40 61 74 62 53 63 73 64 54 65
REMARK SMILES IDX 57 66 72 67 92 68 55 69 56 70 71 72 93 73 58 74 41 75 42 76
REMARK SMILES IDX 51 77 43 78 44 79 50 80 52 81 45 82 46 83 47 84 48 85 49 86
REMARK SMILES IDX 75 87 76 88 85 89 77 90 78 91 84 92 86 93 79 94 80 95 81 96
REMARK SMILES IDX 82 97 83 98 59 99 60 100 69 101 61 102 62 103 68 104 70 105
REMARK SMILES IDX 63 106 64 107 65 108 66 109 67 110
REMARK H PARENT 10 13 105 30 105 31 91 60 57 71
REMARK Flexibility Score: inf
ROOT
ATOM      1  C   UNL A   1      52.245  31.386  28.415  1.00  0.00     0.188 C 
ENDROOT
BRANCH   1   2
ATOM      2  C   UNL A   1      52.717  30.910  29.809  1.00  0.00     0.188 C 
BRANCH   2   3
ATOM      3  O   UNL A   1      52.092  29.559  30.252  1.00  0.00    -0.376 OA
BRANCH   3   4
ATOM      4  C   UNL A   1      50.524  28.306  30.103  1.00  0.00     0.202 C 
BRANCH   4   5
ATOM      5  C   UNL A   1      50.369  26.692  30.938  1.00  0.00     0.261 C 
BRANCH   5   6
ATOM      6  O   UNL A   1      49.054  26.115  31.647  1.00  0.00    -0.463 OA
BRANCH   6   7
ATOM      7  C   UNL A   1      47.690  25.884  31.576  1.00  0.00     0.306 C 
ATOM      8  O   UNL A   1      47.229  25.905  30.420  1.00  0.00    -0.252 OA
BRANCH   7   9
ATOM      9  C   UNL A   1      46.528  25.590  32.750  1.00  0.00     0.132 C 
BRANCH   9  10
ATOM     10  C   UNL A   1      45.488  24.458  33.400  1.00  0.00     0.112 C 
BRANCH  10  11
ATOM     11  C   UNL A   1      43.933  24.235  34.035  1.00  0.00     0.225 C 
ATOM     12  N   UNL A   1      43.206  25.018  34.953  1.00  0.00    -0.323 N 
ATOM     13  H   UNL A   1      42.374  24.637  35.315  1.00  0.00     0.170 HD
ATOM     14  O   UNL A   1      43.395  23.144  33.758  1.00  0.00    -0.275 OA
BRANCH  12  15
ATOM     15  C   UNL A   1      43.573  26.307  35.392  1.00  0.00     0.083 A 
ATOM     16  C   UNL A   1      45.909  29.015  34.664  1.00  0.00    -0.014 A 
ATOM     17  C   UNL A   1      46.028  28.032  36.178  1.00  0.00     0.011 A 
ATOM     18  C   UNL A   1      44.496  28.690  33.569  1.00  0.00     0.057 A 
ATOM     19  C   UNL A   1      44.888  26.680  36.522  1.00  0.00     0.031 A 
ATOM     20  C   UNL A   1      43.287  27.339  34.056  1.00  0.00     0.142 A 
BRANCH  16  21
ATOM     21  C   UNL A   1      47.047  29.883  34.273  1.00  0.00    -0.014 A 
ATOM     22  C   UNL A   1      49.337  30.275  33.513  1.00  0.00     0.142 A 
ATOM     23  C   UNL A   1      48.307  29.396  33.912  1.00  0.00     0.057 A 
ATOM     24  C   UNL A   1      49.126  31.663  33.428  1.00  0.00     0.074 A 
ATOM     25  C   UNL A   1      47.912  32.157  33.893  1.00  0.00     0.030 A 
ATOM     26  C   UNL A   1      46.890  31.281  34.279  1.00  0.00     0.011 A 
BRANCH  22  27
ATOM     27  O   UNL A   1      50.514  29.688  33.106  1.00  0.00    -0.495 OA
ATOM     28  C   UNL A   1      51.164  28.981  34.161  1.00  0.00     0.278 C 
ENDBRANCH  22  27
BRANCH  24  29
ATOM     29  N   UNL A   1      50.107  32.556  33.002  1.00  0.00    -0.396 N 
ATOM     30  H   UNL A   1      51.046  32.417  33.263  1.00  0.00     0.156 HD
ATOM     31  H   UNL A   1      49.860  33.327  32.441  1.00  0.00     0.156 HD
ENDBRANCH  24  29
ENDBRANCH  16  21
BRANCH  20  32
ATOM     32  O   UNL A   1      41.877  27.361  33.854  1.00  0.00    -0.495 OA
ATOM     33  C   UNL A   1      40.967  28.419  34.191  1.00  0.00     0.278 C 
ENDBRANCH  20  32
ENDBRANCH  12  15
ENDBRANCH  10  11
ENDBRANCH   9  10
ENDBRANCH   7   9
ENDBRANCH   6   7
ENDBRANCH   5   6
ENDBRANCH   4   5
ENDBRANCH   3   4
ENDBRANCH   2   3
ENDBRANCH   1   2
BRANCH   1  34
ATOM     34  O   UNL A   1      53.162  31.684  27.379  1.00  0.00    -0.377 OA
BRANCH  34  35
ATOM     35  C   UNL A   1      53.246  30.781  26.304  1.00  0.00     0.188 C 
BRANCH  35  36
ATOM     36  C   UNL A   1      54.573  30.687  25.561  1.00  0.00     0.188 C 
BRANCH  36  37
ATOM     37  O   UNL A   1      54.527  30.441  24.173  1.00  0.00    -0.376 OA
BRANCH  37  38
ATOM     38  C   UNL A   1      55.115  29.236  23.695  1.00  0.00     0.202 C 
BRANCH  38  39
ATOM     39  C   UNL A   1      55.099  27.892  24.471  1.00  0.00     0.261 C 
BRANCH  39  40
ATOM     40  O   UNL A   1      53.913  27.075  24.401  1.00  0.00    -0.460 OA
BRANCH  40  41
ATOM     41  C   UNL A   1      53.684  26.251  25.455  1.00  0.00     0.338 C 
ATOM     42  O   UNL A   1      54.530  25.798  26.209  1.00  0.00    -0.246 OA
BRANCH  41  43
ATOM     43  C   UNL A   1      52.230  26.166  25.756  1.00  0.00     0.060 A 
ATOM     44  C   UNL A   1      51.326  26.513  24.736  1.00  0.00     0.016 A 
ATOM     45  C   UNL A   1      51.749  25.822  27.020  1.00  0.00     0.016 A 
ATOM     46  C   UNL A   1      49.955  26.573  24.989  1.00  0.00     0.010 A 
ATOM     47  C   UNL A   1      50.374  25.932  27.288  1.00  0.00     0.010 A 
ATOM     48  C   UNL A   1      49.479  26.364  26.287  1.00  0.00    -0.014 A 
BRANCH  48  49
ATOM     49  C   UNL A   1      48.144  26.929  26.635  1.00  0.00     0.031 A 
ATOM     50  C   UNL A   1      46.972  25.975  26.654  1.00  0.00     0.074 A 
ATOM     51  C   UNL A   1      47.973  28.206  27.030  1.00  0.00     0.049 A 
ATOM     52  N   UNL A   1      45.722  26.192  26.973  1.00  0.00    -0.248 NA
ATOM     53  C   UNL A   1      47.256  24.582  26.268  1.00  0.00     0.031 C 
ATOM     54  C   UNL A   1      49.024  29.217  27.118  1.00  0.00     0.029 A 
ATOM     55  N   UNL A   1      46.839  28.864  27.443  1.00  0.00    -0.354 N 
ATOM     56  C   UNL A   1      45.078  24.966  26.833  1.00  0.00     0.074 A 
ATOM     57  C   UNL A   1      46.062  24.019  26.360  1.00  0.00     0.031 C 
ATOM     58  C   UNL A   1      48.482  30.372  27.552  1.00  0.00     0.029 A 
ATOM     59  C   UNL A   1      47.044  30.189  27.754  1.00  0.00     0.049 A 
ATOM     60  H   UNL A   1      45.958  28.428  27.511  1.00  0.00     0.167 HD
ATOM     61  C   UNL A   1      43.787  24.645  27.091  1.00  0.00     0.037 A 
ATOM     62  C   UNL A   1      46.171  31.141  28.144  1.00  0.00     0.037 A 
ATOM     63  C   UNL A   1      42.801  25.584  27.554  1.00  0.00     0.049 A 
ATOM     64  C   UNL A   1      44.716  30.778  28.343  1.00  0.00     0.074 A 
ATOM     65  C   UNL A   1      41.462  25.360  27.830  1.00  0.00     0.029 A 
ATOM     66  N   UNL A   1      43.040  26.927  27.807  1.00  0.00    -0.354 N 
ATOM     67  N   UNL A   1      44.127  29.613  28.214  1.00  0.00    -0.248 NA
ATOM     68  C   UNL A   1      43.812  31.863  28.755  1.00  0.00     0.031 C 
ATOM     69  C   UNL A   1      40.881  26.577  28.199  1.00  0.00     0.029 A 
ATOM     70  C   UNL A   1      41.871  27.546  28.218  1.00  0.00     0.049 A 
ATOM     71  H   UNL A   1      43.911  27.373  27.709  1.00  0.00     0.167 HD
ATOM     72  C   UNL A   1      42.793  29.818  28.568  1.00  0.00     0.074 A 
ATOM     73  C   UNL A   1      42.671  31.214  28.934  1.00  0.00     0.031 C 
ATOM     74  C   UNL A   1      41.762  28.934  28.588  1.00  0.00     0.037 A 
BRANCH  61  75
ATOM     75  C   UNL A   1      43.363  23.220  26.858  1.00  0.00     0.058 A 
ATOM     76  C   UNL A   1      43.263  22.681  25.566  1.00  0.00     0.135 A 
ATOM     77  C   UNL A   1      43.094  22.373  27.944  1.00  0.00     0.135 A 
ATOM     78  F   UNL A   1      43.483  23.453  24.490  1.00  0.00    -0.206 F 
ATOM     79  C   UNL A   1      42.898  21.354  25.358  1.00  0.00     0.059 A 
ATOM     80  C   UNL A   1      42.757  21.034  27.761  1.00  0.00     0.059 A 
ATOM     81  F   UNL A   1      43.166  22.839  29.201  1.00  0.00    -0.206 F 
ATOM     82  C   UNL A   1      42.654  20.536  26.464  1.00  0.00     0.060 A 
BRANCH  82  83
ATOM     83  S   UNL A   1      42.217  18.809  26.176  1.00  0.00     0.124 S 
ATOM     84  O   UNL A   1      43.112  18.460  25.077  1.00  0.00    -0.237 OA
ATOM     85  O   UNL A   1      42.522  18.193  27.464  1.00  0.00    -0.237 OA
ATOM     86  O   UNL A   1      40.799  18.869  25.833  1.00  0.00    -0.744 OA
ENDBRANCH  82  83
ENDBRANCH  61  75
BRANCH  62  87
ATOM     87  C   UNL A   1      46.626  32.545  28.369  1.00  0.00     0.058 A 
ATOM     88  C   UNL A   1      47.088  32.974  29.624  1.00  0.00     0.135 A 
ATOM     89  C   UNL A   1      46.550  33.503  27.345  1.00  0.00     0.135 A 
ATOM     90  F   UNL A   1      47.165  32.104  30.643  1.00  0.00    -0.206 F 
ATOM     91  C   UNL A   1      47.427  34.303  29.864  1.00  0.00     0.059 A 
ATOM     92  C   UNL A   1      46.914  34.830  27.552  1.00  0.00     0.059 A 
ATOM     93  F   UNL A   1      46.122  33.149  26.123  1.00  0.00    -0.206 F 
ATOM     94  C   UNL A   1      47.336  35.224  28.820  1.00  0.00     0.060 A 
BRANCH  94  95
ATOM     95  S   UNL A   1      47.807  36.941  29.133  1.00  0.00     0.124 S 
ATOM     96  O   UNL A   1      47.946  37.460  27.777  1.00  0.00    -0.237 OA
ATOM     97  O   UNL A   1      46.664  37.435  29.894  1.00  0.00    -0.237 OA
ATOM     98  O   UNL A   1      49.047  36.813  29.893  1.00  0.00    -0.744 OA
ENDBRANCH  94  95
ENDBRANCH  62  87
BRANCH  74  99
ATOM     99  C   UNL A   1      40.426  29.437  29.075  1.00  0.00     0.058 A 
ATOM    100  C   UNL A   1      39.354  29.678  28.201  1.00  0.00     0.135 A 
ATOM    101  C   UNL A   1      40.216  29.676  30.444  1.00  0.00     0.135 A 
ATOM    102  F   UNL A   1      39.496  29.463  26.883  1.00  0.00    -0.206 F 
ATOM    103  C   UNL A   1      38.145  30.195  28.655  1.00  0.00     0.059 A 
ATOM    104  C   UNL A   1      39.002  30.157  30.926  1.00  0.00     0.059 A 
ATOM    105  F   UNL A   1      41.196  29.442  31.331  1.00  0.00    -0.206 F 
ATOM    106  C   UNL A   1      37.982  30.440  30.021  1.00  0.00     0.060 A 
BRANCH 106 107
ATOM    107  S   UNL A   1      36.420  31.139  30.595  1.00  0.00     0.124 S 
ATOM    108  O   UNL A   1      35.594  31.032  29.397  1.00  0.00    -0.237 OA
ATOM    109  O   UNL A   1      36.063  30.247  31.694  1.00  0.00    -0.237 OA
ATOM    110  O   UNL A   1      36.779  32.497  30.990  1.00  0.00    -0.744 OA
ENDBRANCH 106 107
ENDBRANCH  74  99
ENDBRANCH  48  49
ENDBRANCH  41  43
ENDBRANCH  40  41
ENDBRANCH  39  40
ENDBRANCH  38  39
ENDBRANCH  37  38
ENDBRANCH  36  37
ENDBRANCH  35  36
ENDBRANCH  34  35
ENDBRANCH   1  34
TORSDOF 30
ENDMDL
