MODEL 1
REMARK VINA RESULT:      -9.9      0.000      0.000
REMARK SMILES Cc1ccc2oc(CCCC(=O)OCCOCCOCCOCCOC(=O)c3ccc(-c4c5nc(c(-c6c(F)cc(S(=O)(=O)[O-])cc6F)c6ccc([nH]6)c(-c6c(F)cc(S(=O)(=O)[O-])cc6F)c6nc(c(-c7c(F)cc(S(=O)(=O)[O-])cc7F)c7ccc4[nH]7)C=C6)C=C5)cc3)cc(=O)c2c1
REMARK SMILES IDX 19 1 18 2 17 3 16 4 15 5 14 6 13 7 11 8 12 9 10 10 9 11 8 12
REMARK SMILES IDX 7 13 1 14 2 15 3 16 98 17 4 18 97 19 5 20 95 21 6 22 94 23
REMARK SMILES IDX 96 24 20 25 21 26 22 27 23 28 24 29 25 30 26 31 27 32 28 33
REMARK SMILES IDX 29 34 93 35 30 36 92 37 31 38 32 39 33 40 86 41 34 42 91 43
REMARK SMILES IDX 85 44 87 45 35 46 90 47 84 48 83 49 36 51 70 52 49 53 69 54
REMARK SMILES IDX 50 55 53 56 68 57 88 58 51 59 52 60 67 62 89 63 54 64 37 65
REMARK SMILES IDX 38 66 47 67 39 68 40 69 46 70 48 71 41 72 42 73 43 74 44 75
REMARK SMILES IDX 45 76 71 77 72 78 81 79 73 80 74 81 80 82 82 83 75 84 76 85
REMARK SMILES IDX 77 86 78 87 79 88 55 89 56 90 65 91 57 92 58 93 64 94 66 95
REMARK SMILES IDX 59 96 60 97 61 98 62 99 63 100
REMARK H PARENT 87 50 53 61
REMARK Flexibility Score: inf
ROOT
ATOM      1  O   UNL A   1      34.457  33.307  27.610  1.00  0.00    -0.377 OA
ENDROOT
BRANCH   1   2
ATOM      2  C   UNL A   1      34.660  31.919  27.816  1.00  0.00     0.188 C 
BRANCH   2   3
ATOM      3  C   UNL A   1      33.538  30.919  27.494  1.00  0.00     0.188 C 
BRANCH   3   4
ATOM      4  O   UNL A   1      33.887  29.950  26.532  1.00  0.00    -0.376 OA
BRANCH   4   5
ATOM      5  C   UNL A   1      33.021  29.692  25.440  1.00  0.00     0.202 C 
BRANCH   5   6
ATOM      6  C   UNL A   1      31.570  29.199  25.599  1.00  0.00     0.261 C 
BRANCH   6   7
ATOM      7  O   UNL A   1      31.273  27.888  25.100  1.00  0.00    -0.463 OA
BRANCH   7   8
ATOM      8  C   UNL A   1      31.249  26.874  25.988  1.00  0.00     0.305 C 
ATOM      9  O   UNL A   1      31.054  27.019  27.193  1.00  0.00    -0.252 OA
BRANCH   8  10
ATOM     10  C   UNL A   1      31.359  25.490  25.366  1.00  0.00     0.123 C 
BRANCH  10  11
ATOM     11  C   UNL A   1      32.388  25.103  24.287  1.00  0.00     0.020 C 
BRANCH  11  12
ATOM     12  C   UNL A   1      32.126  23.906  23.364  1.00  0.00     0.076 C 
BRANCH  12  13
ATOM     13  C   UNL A   1      32.649  22.650  23.979  1.00  0.00     0.108 A 
ATOM     14  C   UNL A   1      34.393  16.445  24.092  1.00  0.00     0.044 C 
ATOM     15  C   UNL A   1      33.788  17.804  23.923  1.00  0.00    -0.050 A 
ATOM     16  C   UNL A   1      32.711  18.000  23.048  1.00  0.00     0.007 A 
ATOM     17  C   UNL A   1      34.287  18.886  24.665  1.00  0.00     0.019 A 
ATOM     18  C   UNL A   1      32.121  19.256  22.930  1.00  0.00     0.048 A 
ATOM     19  C   UNL A   1      33.705  20.143  24.530  1.00  0.00     0.065 A 
ATOM     20  C   UNL A   1      32.622  20.318  23.677  1.00  0.00     0.138 A 
ATOM     21  C   UNL A   1      34.250  21.323  25.226  1.00  0.00     0.192 A 
ATOM     22  O   UNL A   1      32.007  21.523  23.511  1.00  0.00    -0.461 OA
ATOM     23  C   UNL A   1      33.675  22.626  24.842  1.00  0.00     0.095 A 
ATOM     24  O   UNL A   1      35.193  21.257  26.002  1.00  0.00    -0.289 OA
ENDBRANCH  12  13
ENDBRANCH  11  12
ENDBRANCH  10  11
ENDBRANCH   8  10
ENDBRANCH   7   8
ENDBRANCH   6   7
ENDBRANCH   5   6
ENDBRANCH   4   5
ENDBRANCH   3   4
ENDBRANCH   2   3
ENDBRANCH   1   2
BRANCH   1  25
ATOM     25  C   UNL A   1      33.474  34.004  28.373  1.00  0.00     0.188 C 
BRANCH  25  26
ATOM     26  C   UNL A   1      33.873  34.770  29.653  1.00  0.00     0.188 C 
BRANCH  26  27
ATOM     27  O   UNL A   1      33.979  33.971  30.819  1.00  0.00    -0.376 OA
BRANCH  27  28
ATOM     28  C   UNL A   1      35.237  33.370  31.088  1.00  0.00     0.202 C 
BRANCH  28  29
ATOM     29  C   UNL A   1      35.277  31.844  31.277  1.00  0.00     0.261 C 
BRANCH  29  30
ATOM     30  O   UNL A   1      36.385  31.156  30.676  1.00  0.00    -0.460 OA
BRANCH  30  31
ATOM     31  C   UNL A   1      37.131  30.355  31.472  1.00  0.00     0.338 C 
ATOM     32  O   UNL A   1      36.749  29.691  32.412  1.00  0.00    -0.246 OA
BRANCH  31  33
ATOM     33  C   UNL A   1      38.483  30.280  30.879  1.00  0.00     0.060 A 
ATOM     34  C   UNL A   1      38.622  30.345  29.486  1.00  0.00     0.016 A 
ATOM     35  C   UNL A   1      39.604  30.145  31.699  1.00  0.00     0.016 A 
ATOM     36  C   UNL A   1      39.887  30.243  28.908  1.00  0.00     0.010 A 
ATOM     37  C   UNL A   1      40.867  30.019  31.116  1.00  0.00     0.010 A 
ATOM     38  C   UNL A   1      41.011  30.035  29.716  1.00  0.00    -0.014 A 
BRANCH  38  39
ATOM     39  C   UNL A   1      42.302  29.638  29.103  1.00  0.00     0.031 A 
ATOM     40  C   UNL A   1      42.451  28.223  28.615  1.00  0.00     0.074 A 
ATOM     41  C   UNL A   1      43.316  30.512  28.974  1.00  0.00     0.049 A 
ATOM     42  N   UNL A   1      43.500  27.620  28.122  1.00  0.00    -0.248 NA
ATOM     43  C   UNL A   1      41.252  27.372  28.700  1.00  0.00     0.031 C 
ATOM     44  C   UNL A   1      43.274  31.921  29.364  1.00  0.00     0.029 A 
ATOM     45  N   UNL A   1      44.588  30.334  28.488  1.00  0.00    -0.354 N 
ATOM     46  C   UNL A   1      43.094  26.319  27.848  1.00  0.00     0.074 A 
ATOM     47  C   UNL A   1      41.710  26.212  28.255  1.00  0.00     0.031 C 
ATOM     48  C   UNL A   1      44.474  32.476  29.119  1.00  0.00     0.029 A 
ATOM     49  C   UNL A   1      45.379  31.454  28.592  1.00  0.00     0.049 A 
ATOM     50  H   UNL A   1      44.903  29.486  28.101  1.00  0.00     0.167 HD
ATOM     51  C   UNL A   1      43.808  25.307  27.300  1.00  0.00     0.037 A 
ATOM     52  C   UNL A   1      46.690  31.622  28.324  1.00  0.00     0.037 A 
ATOM     53  C   UNL A   1      45.186  25.422  26.902  1.00  0.00     0.049 A 
ATOM     54  C   UNL A   1      47.490  30.457  27.793  1.00  0.00     0.074 A 
ATOM     55  C   UNL A   1      45.996  24.462  26.323  1.00  0.00     0.029 A 
ATOM     56  N   UNL A   1      45.962  26.562  27.053  1.00  0.00    -0.354 N 
ATOM     57  N   UNL A   1      47.090  29.237  27.516  1.00  0.00    -0.248 NA
ATOM     58  C   UNL A   1      48.919  30.689  27.540  1.00  0.00     0.031 C 
ATOM     59  C   UNL A   1      47.278  25.001  26.180  1.00  0.00     0.029 A 
ATOM     60  C   UNL A   1      47.252  26.319  26.609  1.00  0.00     0.049 A 
ATOM     61  H   UNL A   1      45.645  27.418  27.421  1.00  0.00     0.167 HD
ATOM     62  C   UNL A   1      48.211  28.568  27.031  1.00  0.00     0.074 A 
ATOM     63  C   UNL A   1      49.299  29.521  27.039  1.00  0.00     0.031 C 
ATOM     64  C   UNL A   1      48.327  27.281  26.617  1.00  0.00     0.037 A 
BRANCH  51  65
ATOM     65  C   UNL A   1      43.121  23.979  27.134  1.00  0.00     0.058 A 
ATOM     66  C   UNL A   1      42.902  23.113  28.217  1.00  0.00     0.135 A 
ATOM     67  C   UNL A   1      42.649  23.579  25.872  1.00  0.00     0.135 A 
ATOM     68  F   UNL A   1      43.352  23.435  29.441  1.00  0.00    -0.206 F 
ATOM     69  C   UNL A   1      42.261  21.890  28.053  1.00  0.00     0.059 A 
ATOM     70  C   UNL A   1      41.977  22.374  25.690  1.00  0.00     0.059 A 
ATOM     71  F   UNL A   1      42.836  24.364  24.800  1.00  0.00    -0.206 F 
ATOM     72  C   UNL A   1      41.799  21.530  26.785  1.00  0.00     0.060 A 
BRANCH  72  73
ATOM     73  S   UNL A   1      40.961  19.944  26.591  1.00  0.00     0.124 S 
ATOM     74  O   UNL A   1      39.688  20.356  26.005  1.00  0.00    -0.237 OA
ATOM     75  O   UNL A   1      41.863  19.222  25.700  1.00  0.00    -0.237 OA
ATOM     76  O   UNL A   1      40.885  19.428  27.955  1.00  0.00    -0.744 OA
ENDBRANCH  72  73
ENDBRANCH  51  65
BRANCH  52  77
ATOM     77  C   UNL A   1      47.341  32.938  28.572  1.00  0.00     0.058 A 
ATOM     78  C   UNL A   1      47.360  33.937  27.587  1.00  0.00     0.135 A 
ATOM     79  C   UNL A   1      47.966  33.222  29.797  1.00  0.00     0.135 A 
ATOM     80  F   UNL A   1      46.790  33.712  26.394  1.00  0.00    -0.206 F 
ATOM     81  C   UNL A   1      47.982  35.163  27.802  1.00  0.00     0.059 A 
ATOM     82  C   UNL A   1      48.570  34.450  30.047  1.00  0.00     0.059 A 
ATOM     83  F   UNL A   1      47.974  32.303  30.777  1.00  0.00    -0.206 F 
ATOM     84  C   UNL A   1      48.582  35.412  29.038  1.00  0.00     0.060 A 
BRANCH  84  85
ATOM     85  S   UNL A   1      49.339  37.027  29.321  1.00  0.00     0.124 S 
ATOM     86  O   UNL A   1      49.726  37.411  27.968  1.00  0.00    -0.237 OA
ATOM     87  O   UNL A   1      48.236  37.781  29.907  1.00  0.00    -0.237 OA
ATOM     88  O   UNL A   1      50.440  36.729  30.232  1.00  0.00    -0.744 OA
ENDBRANCH  84  85
ENDBRANCH  52  77
BRANCH  64  89
ATOM     89  C   UNL A   1      49.670  26.830  26.105  1.00  0.00     0.058 A 
ATOM     90  C   UNL A   1      50.080  27.075  24.785  1.00  0.00     0.135 A 
ATOM     91  C   UNL A   1      50.585  26.202  26.968  1.00  0.00     0.135 A 
ATOM     92  F   UNL A   1      49.246  27.668  23.916  1.00  0.00    -0.206 F 
ATOM     93  C   UNL A   1      51.339  26.689  24.331  1.00  0.00     0.059 A 
ATOM     94  C   UNL A   1      51.859  25.838  26.545  1.00  0.00     0.059 A 
ATOM     95  F   UNL A   1      50.250  25.955  28.244  1.00  0.00    -0.206 F 
ATOM     96  C   UNL A   1      52.223  26.075  25.221  1.00  0.00     0.060 A 
BRANCH  96  97
ATOM     97  S   UNL A   1      53.866  25.615  24.627  1.00  0.00     0.124 S 
ATOM     98  O   UNL A   1      53.829  26.101  23.252  1.00  0.00    -0.237 OA
ATOM     99  O   UNL A   1      54.741  26.349  25.536  1.00  0.00    -0.237 OA
ATOM    100  O   UNL A   1      53.888  24.163  24.780  1.00  0.00    -0.744 OA
ENDBRANCH  96  97
ENDBRANCH  64  89
ENDBRANCH  38  39
ENDBRANCH  31  33
ENDBRANCH  30  31
ENDBRANCH  29  30
ENDBRANCH  28  29
ENDBRANCH  27  28
ENDBRANCH  26  27
ENDBRANCH  25  26
ENDBRANCH   1  25
TORSDOF 26
ENDMDL
MODEL 2
REMARK VINA RESULT:      -9.8      1.254      2.463
REMARK SMILES Cc1ccc2oc(CCCC(=O)OCCOCCOCCOCCOC(=O)c3ccc(-c4c5nc(c(-c6c(F)cc(S(=O)(=O)[O-])cc6F)c6ccc([nH]6)c(-c6c(F)cc(S(=O)(=O)[O-])cc6F)c6nc(c(-c7c(F)cc(S(=O)(=O)[O-])cc7F)c7ccc4[nH]7)C=C6)C=C5)cc3)cc(=O)c2c1
REMARK SMILES IDX 19 1 18 2 17 3 16 4 15 5 14 6 13 7 11 8 12 9 10 10 9 11 8 12
REMARK SMILES IDX 7 13 1 14 2 15 3 16 98 17 4 18 97 19 5 20 95 21 6 22 94 23
REMARK SMILES IDX 96 24 20 25 21 26 22 27 23 28 24 29 25 30 26 31 27 32 28 33
REMARK SMILES IDX 29 34 93 35 30 36 92 37 31 38 32 39 33 40 86 41 34 42 91 43
REMARK SMILES IDX 85 44 87 45 35 46 90 47 84 48 83 49 36 51 70 52 49 53 69 54
REMARK SMILES IDX 50 55 53 56 68 57 88 58 51 59 52 60 67 62 89 63 54 64 37 65
REMARK SMILES IDX 38 66 47 67 39 68 40 69 46 70 48 71 41 72 42 73 43 74 44 75
REMARK SMILES IDX 45 76 71 77 72 78 81 79 73 80 74 81 80 82 82 83 75 84 76 85
REMARK SMILES IDX 77 86 78 87 79 88 55 89 56 90 65 91 57 92 58 93 64 94 66 95
REMARK SMILES IDX 59 96 60 97 61 98 62 99 63 100
REMARK H PARENT 87 50 53 61
REMARK Flexibility Score: inf
ROOT
ATOM      1  O   UNL A   1      34.366  35.500  28.381  1.00  0.00    -0.377 OA
ENDROOT
BRANCH   1   2
ATOM      2  C   UNL A   1      34.318  34.224  27.764  1.00  0.00     0.188 C 
BRANCH   2   3
ATOM      3  C   UNL A   1      33.075  33.335  27.924  1.00  0.00     0.188 C 
BRANCH   3   4
ATOM      4  O   UNL A   1      33.200  32.056  27.348  1.00  0.00    -0.376 OA
BRANCH   4   5
ATOM      5  C   UNL A   1      34.123  31.124  27.886  1.00  0.00     0.202 C 
BRANCH   5   6
ATOM      6  C   UNL A   1      34.580  29.850  27.148  1.00  0.00     0.261 C 
BRANCH   6   7
ATOM      7  O   UNL A   1      33.769  28.680  27.315  1.00  0.00    -0.463 OA
BRANCH   7   8
ATOM      8  C   UNL A   1      33.389  28.021  26.201  1.00  0.00     0.305 C 
ATOM      9  O   UNL A   1      32.880  26.903  26.202  1.00  0.00    -0.252 OA
BRANCH   8  10
ATOM     10  C   UNL A   1      33.525  28.827  24.917  1.00  0.00     0.123 C 
BRANCH  10  11
ATOM     11  C   UNL A   1      34.085  28.268  23.595  1.00  0.00     0.020 C 
BRANCH  11  12
ATOM     12  C   UNL A   1      33.132  27.823  22.480  1.00  0.00     0.076 C 
BRANCH  12  13
ATOM     13  C   UNL A   1      32.824  26.367  22.608  1.00  0.00     0.108 A 
ATOM     14  C   UNL A   1      33.720  20.330  24.685  1.00  0.00     0.044 C 
ATOM     15  C   UNL A   1      33.770  21.737  24.174  1.00  0.00    -0.050 A 
ATOM     16  C   UNL A   1      34.999  22.387  23.997  1.00  0.00     0.007 A 
ATOM     17  C   UNL A   1      32.577  22.401  23.846  1.00  0.00     0.019 A 
ATOM     18  C   UNL A   1      35.041  23.678  23.476  1.00  0.00     0.048 A 
ATOM     19  C   UNL A   1      32.625  23.698  23.343  1.00  0.00     0.065 A 
ATOM     20  C   UNL A   1      33.852  24.321  23.149  1.00  0.00     0.138 A 
ATOM     21  C   UNL A   1      31.396  24.462  23.064  1.00  0.00     0.192 A 
ATOM     22  O   UNL A   1      33.961  25.587  22.652  1.00  0.00    -0.461 OA
ATOM     23  C   UNL A   1      31.579  25.887  22.732  1.00  0.00     0.095 A 
ATOM     24  O   UNL A   1      30.276  23.987  23.197  1.00  0.00    -0.289 OA
ENDBRANCH  12  13
ENDBRANCH  11  12
ENDBRANCH  10  11
ENDBRANCH   8  10
ENDBRANCH   7   8
ENDBRANCH   6   7
ENDBRANCH   5   6
ENDBRANCH   4   5
ENDBRANCH   3   4
ENDBRANCH   2   3
ENDBRANCH   1   2
BRANCH   1  25
ATOM     25  C   UNL A   1      33.322  35.902  29.266  1.00  0.00     0.188 C 
BRANCH  25  26
ATOM     26  C   UNL A   1      33.473  35.721  30.791  1.00  0.00     0.188 C 
BRANCH  26  27
ATOM     27  O   UNL A   1      33.592  34.376  31.225  1.00  0.00    -0.376 OA
BRANCH  27  28
ATOM     28  C   UNL A   1      34.904  33.859  31.397  1.00  0.00     0.202 C 
BRANCH  28  29
ATOM     29  C   UNL A   1      35.094  32.336  31.290  1.00  0.00     0.261 C 
BRANCH  29  30
ATOM     30  O   UNL A   1      36.391  31.883  30.869  1.00  0.00    -0.460 OA
BRANCH  30  31
ATOM     31  C   UNL A   1      37.219  31.389  31.819  1.00  0.00     0.338 C 
ATOM     32  O   UNL A   1      36.998  31.287  33.006  1.00  0.00    -0.246 OA
BRANCH  31  33
ATOM     33  C   UNL A   1      38.391  30.815  31.125  1.00  0.00     0.060 A 
ATOM     34  C   UNL A   1      39.409  30.220  31.881  1.00  0.00     0.016 A 
ATOM     35  C   UNL A   1      38.480  30.870  29.732  1.00  0.00     0.016 A 
ATOM     36  C   UNL A   1      40.538  29.704  31.244  1.00  0.00     0.010 A 
ATOM     37  C   UNL A   1      39.622  30.374  29.100  1.00  0.00     0.010 A 
ATOM     38  C   UNL A   1      40.671  29.818  29.855  1.00  0.00    -0.014 A 
BRANCH  38  39
ATOM     39  C   UNL A   1      41.977  29.540  29.210  1.00  0.00     0.031 A 
ATOM     40  C   UNL A   1      42.236  28.148  28.702  1.00  0.00     0.074 A 
ATOM     41  C   UNL A   1      42.909  30.499  29.071  1.00  0.00     0.049 A 
ATOM     42  N   UNL A   1      43.322  27.643  28.179  1.00  0.00    -0.248 NA
ATOM     43  C   UNL A   1      41.116  27.197  28.801  1.00  0.00     0.031 C 
ATOM     44  C   UNL A   1      42.756  31.895  29.479  1.00  0.00     0.029 A 
ATOM     45  N   UNL A   1      44.181  30.436  28.556  1.00  0.00    -0.354 N 
ATOM     46  C   UNL A   1      43.022  26.314  27.898  1.00  0.00     0.074 A 
ATOM     47  C   UNL A   1      41.662  26.085  28.333  1.00  0.00     0.031 C 
ATOM     48  C   UNL A   1      43.899  32.553  29.215  1.00  0.00     0.029 A 
ATOM     49  C   UNL A   1      44.876  31.618  28.657  1.00  0.00     0.049 A 
ATOM     50  H   UNL A   1      44.559  29.622  28.152  1.00  0.00     0.167 HD
ATOM     51  C   UNL A   1      43.808  25.373  27.323  1.00  0.00     0.037 A 
ATOM     52  C   UNL A   1      46.162  31.902  28.363  1.00  0.00     0.037 A 
ATOM     53  C   UNL A   1      45.163  25.610  26.897  1.00  0.00     0.049 A 
ATOM     54  C   UNL A   1      47.046  30.814  27.802  1.00  0.00     0.074 A 
ATOM     55  C   UNL A   1      46.039  24.729  26.290  1.00  0.00     0.029 A 
ATOM     56  N   UNL A   1      45.841  26.811  27.046  1.00  0.00    -0.354 N 
ATOM     57  N   UNL A   1      46.746  29.568  27.518  1.00  0.00    -0.248 NA
ATOM     58  C   UNL A   1      48.444  31.171  27.522  1.00  0.00     0.031 C 
ATOM     59  C   UNL A   1      47.266  25.377  26.127  1.00  0.00     0.029 A 
ATOM     60  C   UNL A   1      47.137  26.684  26.572  1.00  0.00     0.049 A 
ATOM     61  H   UNL A   1      45.460  27.632  27.431  1.00  0.00     0.167 HD
ATOM     62  C   UNL A   1      47.909  29.002  27.002  1.00  0.00     0.074 A 
ATOM     63  C   UNL A   1      48.912  30.046  26.999  1.00  0.00     0.031 C 
ATOM     64  C   UNL A   1      48.126  27.734  26.570  1.00  0.00     0.037 A 
BRANCH  51  65
ATOM     65  C   UNL A   1      43.234  23.992  27.155  1.00  0.00     0.058 A 
ATOM     66  C   UNL A   1      42.801  23.514  25.908  1.00  0.00     0.135 A 
ATOM     67  C   UNL A   1      43.146  23.123  28.255  1.00  0.00     0.135 A 
ATOM     68  F   UNL A   1      42.843  24.309  24.827  1.00  0.00    -0.206 F 
ATOM     69  C   UNL A   1      42.279  22.233  25.762  1.00  0.00     0.059 A 
ATOM     70  C   UNL A   1      42.655  21.827  28.126  1.00  0.00     0.059 A 
ATOM     71  F   UNL A   1      43.541  23.529  29.471  1.00  0.00    -0.206 F 
ATOM     72  C   UNL A   1      42.212  21.396  26.877  1.00  0.00     0.060 A 
BRANCH  72  73
ATOM     73  S   UNL A   1      41.540  19.734  26.668  1.00  0.00     0.124 S 
ATOM     74  O   UNL A   1      42.081  19.362  25.363  1.00  0.00    -0.237 OA
ATOM     75  O   UNL A   1      42.104  19.024  27.812  1.00  0.00    -0.237 OA
ATOM     76  O   UNL A   1      40.096  19.941  26.710  1.00  0.00    -0.744 OA
ENDBRANCH  72  73
ENDBRANCH  51  65
BRANCH  52  77
ATOM     77  C   UNL A   1      46.703  33.266  28.614  1.00  0.00     0.058 A 
ATOM     78  C   UNL A   1      46.600  34.277  27.648  1.00  0.00     0.135 A 
ATOM     79  C   UNL A   1      47.342  33.585  29.823  1.00  0.00     0.135 A 
ATOM     80  F   UNL A   1      46.012  34.021  26.469  1.00  0.00    -0.206 F 
ATOM     81  C   UNL A   1      47.120  35.549  27.864  1.00  0.00     0.059 A 
ATOM     82  C   UNL A   1      47.844  34.858  30.075  1.00  0.00     0.059 A 
ATOM     83  F   UNL A   1      47.463  32.656  30.786  1.00  0.00    -0.206 F 
ATOM     84  C   UNL A   1      47.737  35.832  29.084  1.00  0.00     0.060 A 
BRANCH  84  85
ATOM     85  S   UNL A   1      48.359  37.502  29.371  1.00  0.00     0.124 S 
ATOM     86  O   UNL A   1      49.179  37.311  30.562  1.00  0.00    -0.237 OA
ATOM     87  O   UNL A   1      49.084  37.773  28.134  1.00  0.00    -0.237 OA
ATOM     88  O   UNL A   1      47.144  38.288  29.561  1.00  0.00    -0.744 OA
ENDBRANCH  84  85
ENDBRANCH  52  77
BRANCH  64  89
ATOM     89  C   UNL A   1      49.491  27.406  26.024  1.00  0.00     0.058 A 
ATOM     90  C   UNL A   1      50.552  27.028  26.861  1.00  0.00     0.135 A 
ATOM     91  C   UNL A   1      49.721  27.410  24.637  1.00  0.00     0.135 A 
ATOM     92  F   UNL A   1      50.390  27.010  28.194  1.00  0.00    -0.206 F 
ATOM     93  C   UNL A   1      51.801  26.689  26.345  1.00  0.00     0.059 A 
ATOM     94  C   UNL A   1      50.951  27.044  24.099  1.00  0.00     0.059 A 
ATOM     95  F   UNL A   1      48.738  27.752  23.790  1.00  0.00    -0.206 F 
ATOM     96  C   UNL A   1      51.988  26.695  24.961  1.00  0.00     0.060 A 
BRANCH  96  97
ATOM     97  S   UNL A   1      53.601  26.217  24.305  1.00  0.00     0.124 S 
ATOM     98  O   UNL A   1      53.605  26.892  23.012  1.00  0.00    -0.237 OA
ATOM     99  O   UNL A   1      54.516  26.759  25.306  1.00  0.00    -0.237 OA
ATOM    100  O   UNL A   1      53.530  24.760  24.254  1.00  0.00    -0.744 OA
ENDBRANCH  96  97
ENDBRANCH  64  89
ENDBRANCH  38  39
ENDBRANCH  31  33
ENDBRANCH  30  31
ENDBRANCH  29  30
ENDBRANCH  28  29
ENDBRANCH  27  28
ENDBRANCH  26  27
ENDBRANCH  25  26
ENDBRANCH   1  25
TORSDOF 26
ENDMDL
MODEL 3
REMARK VINA RESULT:      -9.7      1.238      2.541
REMARK SMILES Cc1ccc2oc(CCCC(=O)OCCOCCOCCOCCOC(=O)c3ccc(-c4c5nc(c(-c6c(F)cc(S(=O)(=O)[O-])cc6F)c6ccc([nH]6)c(-c6c(F)cc(S(=O)(=O)[O-])cc6F)c6nc(c(-c7c(F)cc(S(=O)(=O)[O-])cc7F)c7ccc4[nH]7)C=C6)C=C5)cc3)cc(=O)c2c1
REMARK SMILES IDX 19 1 18 2 17 3 16 4 15 5 14 6 13 7 11 8 12 9 10 10 9 11 8 12
REMARK SMILES IDX 7 13 1 14 2 15 3 16 98 17 4 18 97 19 5 20 95 21 6 22 94 23
REMARK SMILES IDX 96 24 20 25 21 26 22 27 23 28 24 29 25 30 26 31 27 32 28 33
REMARK SMILES IDX 29 34 93 35 30 36 92 37 31 38 32 39 33 40 86 41 34 42 91 43
REMARK SMILES IDX 85 44 87 45 35 46 90 47 84 48 83 49 36 51 70 52 49 53 69 54
REMARK SMILES IDX 50 55 53 56 68 57 88 58 51 59 52 60 67 62 89 63 54 64 37 65
REMARK SMILES IDX 38 66 47 67 39 68 40 69 46 70 48 71 41 72 42 73 43 74 44 75
REMARK SMILES IDX 45 76 71 77 72 78 81 79 73 80 74 81 80 82 82 83 75 84 76 85
REMARK SMILES IDX 77 86 78 87 79 88 55 89 56 90 65 91 57 92 58 93 64 94 66 95
REMARK SMILES IDX 59 96 60 97 61 98 62 99 63 100
REMARK H PARENT 87 50 53 61
REMARK Flexibility Score: inf
ROOT
ATOM      1  O   UNL A   1      30.987  29.654  24.856  1.00  0.00    -0.377 OA
ENDROOT
BRANCH   1   2
ATOM      2  C   UNL A   1      30.132  30.032  23.789  1.00  0.00     0.188 C 
BRANCH   2   3
ATOM      3  C   UNL A   1      29.327  28.964  23.031  1.00  0.00     0.188 C 
BRANCH   3   4
ATOM      4  O   UNL A   1      30.073  28.253  22.070  1.00  0.00    -0.376 OA
BRANCH   4   5
ATOM      5  C   UNL A   1      31.321  27.681  22.424  1.00  0.00     0.202 C 
BRANCH   5   6
ATOM      6  C   UNL A   1      31.671  26.195  22.213  1.00  0.00     0.261 C 
BRANCH   6   7
ATOM      7  O   UNL A   1      31.094  25.258  23.132  1.00  0.00    -0.463 OA
BRANCH   7   8
ATOM      8  C   UNL A   1      31.129  25.569  24.443  1.00  0.00     0.305 C 
ATOM      9  O   UNL A   1      30.132  25.807  25.121  1.00  0.00    -0.252 OA
BRANCH   8  10
ATOM     10  C   UNL A   1      32.512  25.485  25.073  1.00  0.00     0.123 C 
BRANCH  10  11
ATOM     11  C   UNL A   1      33.709  24.746  24.443  1.00  0.00     0.020 C 
BRANCH  11  12
ATOM     12  C   UNL A   1      34.898  24.322  25.314  1.00  0.00     0.076 C 
BRANCH  12  13
ATOM     13  C   UNL A   1      35.034  22.834  25.319  1.00  0.00     0.108 A 
ATOM     14  C   UNL A   1      33.463  16.781  23.755  1.00  0.00     0.044 C 
ATOM     15  C   UNL A   1      33.572  18.224  24.141  1.00  0.00    -0.050 A 
ATOM     16  C   UNL A   1      32.426  19.025  24.234  1.00  0.00     0.007 A 
ATOM     17  C   UNL A   1      34.830  18.772  24.436  1.00  0.00     0.019 A 
ATOM     18  C   UNL A   1      32.528  20.353  24.639  1.00  0.00     0.048 A 
ATOM     19  C   UNL A   1      34.929  20.106  24.824  1.00  0.00     0.065 A 
ATOM     20  C   UNL A   1      33.781  20.882  24.936  1.00  0.00     0.138 A 
ATOM     21  C   UNL A   1      36.236  20.744  25.062  1.00  0.00     0.192 A 
ATOM     22  O   UNL A   1      33.815  22.190  25.319  1.00  0.00    -0.461 OA
ATOM     23  C   UNL A   1      36.217  22.205  25.264  1.00  0.00     0.095 A 
ATOM     24  O   UNL A   1      37.293  20.133  24.995  1.00  0.00    -0.289 OA
ENDBRANCH  12  13
ENDBRANCH  11  12
ENDBRANCH  10  11
ENDBRANCH   8  10
ENDBRANCH   7   8
ENDBRANCH   6   7
ENDBRANCH   5   6
ENDBRANCH   4   5
ENDBRANCH   3   4
ENDBRANCH   2   3
ENDBRANCH   1   2
BRANCH   1  25
ATOM     25  C   UNL A   1      31.453  30.638  25.777  1.00  0.00     0.188 C 
BRANCH  25  26
ATOM     26  C   UNL A   1      32.462  30.261  26.883  1.00  0.00     0.188 C 
BRANCH  26  27
ATOM     27  O   UNL A   1      33.623  31.073  26.935  1.00  0.00    -0.376 OA
BRANCH  27  28
ATOM     28  C   UNL A   1      34.739  30.572  27.657  1.00  0.00     0.202 C 
BRANCH  28  29
ATOM     29  C   UNL A   1      35.141  31.299  28.952  1.00  0.00     0.261 C 
BRANCH  29  30
ATOM     30  O   UNL A   1      36.075  30.616  29.803  1.00  0.00    -0.460 OA
BRANCH  30  31
ATOM     31  C   UNL A   1      37.089  31.343  30.329  1.00  0.00     0.338 C 
ATOM     32  O   UNL A   1      37.007  32.243  31.136  1.00  0.00    -0.246 OA
BRANCH  31  33
ATOM     33  C   UNL A   1      38.354  30.720  29.883  1.00  0.00     0.060 A 
ATOM     34  C   UNL A   1      39.391  30.543  30.808  1.00  0.00     0.016 A 
ATOM     35  C   UNL A   1      38.509  30.316  28.556  1.00  0.00     0.016 A 
ATOM     36  C   UNL A   1      40.603  29.988  30.398  1.00  0.00     0.010 A 
ATOM     37  C   UNL A   1      39.731  29.783  28.142  1.00  0.00     0.010 A 
ATOM     38  C   UNL A   1      40.795  29.646  29.054  1.00  0.00    -0.014 A 
BRANCH  38  39
ATOM     39  C   UNL A   1      42.157  29.332  28.556  1.00  0.00     0.031 A 
ATOM     40  C   UNL A   1      42.451  27.918  28.136  1.00  0.00     0.074 A 
ATOM     41  C   UNL A   1      43.108  30.279  28.471  1.00  0.00     0.049 A 
ATOM     42  N   UNL A   1      43.578  27.384  27.748  1.00  0.00    -0.248 NA
ATOM     43  C   UNL A   1      41.317  26.979  28.162  1.00  0.00     0.031 C 
ATOM     44  C   UNL A   1      42.928  31.692  28.801  1.00  0.00     0.029 A 
ATOM     45  N   UNL A   1      44.424  30.186  28.090  1.00  0.00    -0.354 N 
ATOM     46  C   UNL A   1      43.295  26.047  27.494  1.00  0.00     0.074 A 
ATOM     47  C   UNL A   1      41.895  25.844  27.799  1.00  0.00     0.031 C 
ATOM     48  C   UNL A   1      44.099  32.332  28.626  1.00  0.00     0.029 A 
ATOM     49  C   UNL A   1      45.117  31.368  28.210  1.00  0.00     0.049 A 
ATOM     50  H   UNL A   1      44.832  29.353  27.761  1.00  0.00     0.167 HD
ATOM     51  C   UNL A   1      44.125  25.077  27.043  1.00  0.00     0.037 A 
ATOM     52  C   UNL A   1      46.429  31.630  28.035  1.00  0.00     0.037 A 
ATOM     53  C   UNL A   1      45.518  25.287  26.746  1.00  0.00     0.049 A 
ATOM     54  C   UNL A   1      47.354  30.514  27.613  1.00  0.00     0.074 A 
ATOM     55  C   UNL A   1      46.442  24.375  26.267  1.00  0.00     0.029 A 
ATOM     56  N   UNL A   1      46.190  26.489  26.911  1.00  0.00    -0.354 N 
ATOM     57  N   UNL A   1      47.071  29.258  27.354  1.00  0.00    -0.248 NA
ATOM     58  C   UNL A   1      48.776  30.850  27.460  1.00  0.00     0.031 C 
ATOM     59  C   UNL A   1      47.686  25.008  26.202  1.00  0.00     0.029 A 
ATOM     60  C   UNL A   1      47.526  26.334  26.575  1.00  0.00     0.049 A 
ATOM     61  H   UNL A   1      45.781  27.328  27.220  1.00  0.00     0.167 HD
ATOM     62  C   UNL A   1      48.274  28.664  26.982  1.00  0.00     0.074 A 
ATOM     63  C   UNL A   1      49.283  29.700  27.035  1.00  0.00     0.031 C 
ATOM     64  C   UNL A   1      48.520  27.377  26.628  1.00  0.00     0.037 A 
BRANCH  51  65
ATOM     65  C   UNL A   1      43.557  23.693  26.876  1.00  0.00     0.058 A 
ATOM     66  C   UNL A   1      43.279  23.151  25.612  1.00  0.00     0.135 A 
ATOM     67  C   UNL A   1      43.316  22.886  28.001  1.00  0.00     0.135 A 
ATOM     68  F   UNL A   1      43.470  23.885  24.504  1.00  0.00    -0.206 F 
ATOM     69  C   UNL A   1      42.760  21.868  25.468  1.00  0.00     0.059 A 
ATOM     70  C   UNL A   1      42.827  21.589  27.880  1.00  0.00     0.059 A 
ATOM     71  F   UNL A   1      43.559  23.356  29.234  1.00  0.00    -0.206 F 
ATOM     72  C   UNL A   1      42.540  21.094  26.609  1.00  0.00     0.060 A 
BRANCH  72  73
ATOM     73  S   UNL A   1      41.875  19.428  26.405  1.00  0.00     0.124 S 
ATOM     74  O   UNL A   1      42.401  18.757  27.591  1.00  0.00    -0.237 OA
ATOM     75  O   UNL A   1      40.435  19.667  26.400  1.00  0.00    -0.237 OA
ATOM     76  O   UNL A   1      42.440  18.988  25.134  1.00  0.00    -0.744 OA
ENDBRANCH  72  73
ENDBRANCH  51  65
BRANCH  52  77
ATOM     77  C   UNL A   1      46.956  33.001  28.281  1.00  0.00     0.058 A 
ATOM     78  C   UNL A   1      47.024  33.948  27.249  1.00  0.00     0.135 A 
ATOM     79  C   UNL A   1      47.411  33.389  29.551  1.00  0.00     0.135 A 
ATOM     80  F   UNL A   1      46.617  33.624  26.013  1.00  0.00    -0.206 F 
ATOM     81  C   UNL A   1      47.534  35.225  27.463  1.00  0.00     0.059 A 
ATOM     82  C   UNL A   1      47.897  34.669  29.798  1.00  0.00     0.059 A 
ATOM     83  F   UNL A   1      47.363  32.523  30.577  1.00  0.00    -0.206 F 
ATOM     84  C   UNL A   1      47.964  35.579  28.743  1.00  0.00     0.060 A 
BRANCH  84  85
ATOM     85  S   UNL A   1      48.573  37.256  29.018  1.00  0.00     0.124 S 
ATOM     86  O   UNL A   1      49.488  37.058  30.136  1.00  0.00    -0.237 OA
ATOM     87  O   UNL A   1      49.192  37.569  27.735  1.00  0.00    -0.237 OA
ATOM     88  O   UNL A   1      47.360  38.010  29.321  1.00  0.00    -0.744 OA
ENDBRANCH  84  85
ENDBRANCH  52  77
BRANCH  64  89
ATOM     89  C   UNL A   1      49.930  27.018  26.237  1.00  0.00     0.058 A 
ATOM     90  C   UNL A   1      50.857  26.530  27.172  1.00  0.00     0.135 A 
ATOM     91  C   UNL A   1      50.339  27.103  24.895  1.00  0.00     0.135 A 
ATOM     92  F   UNL A   1      50.523  26.432  28.469  1.00  0.00    -0.206 F 
ATOM     93  C   UNL A   1      52.147  26.164  26.795  1.00  0.00     0.059 A 
ATOM     94  C   UNL A   1      51.611  26.712  24.491  1.00  0.00     0.059 A 
ATOM     95  F   UNL A   1      49.490  27.551  23.957  1.00  0.00    -0.206 F 
ATOM     96  C   UNL A   1      52.512  26.254  25.450  1.00  0.00     0.060 A 
BRANCH  96  97
ATOM     97  S   UNL A   1      54.176  25.740  24.971  1.00  0.00     0.124 S 
ATOM     98  O   UNL A   1      54.980  26.296  26.054  1.00  0.00    -0.237 OA
ATOM     99  O   UNL A   1      54.057  24.285  24.951  1.00  0.00    -0.237 OA
ATOM    100  O   UNL A   1      54.363  26.366  23.666  1.00  0.00    -0.744 OA
ENDBRANCH  96  97
ENDBRANCH  64  89
ENDBRANCH  38  39
ENDBRANCH  31  33
ENDBRANCH  30  31
ENDBRANCH  29  30
ENDBRANCH  28  29
ENDBRANCH  27  28
ENDBRANCH  26  27
ENDBRANCH  25  26
ENDBRANCH   1  25
TORSDOF 26
ENDMDL
