MODEL 1
REMARK VINA RESULT:      -9.4      0.000      0.000
REMARK SMILES O=C(OCCOCCOCCOCCOC(=O)[C@@H]1CC[C@@H](CS(=O)(=O)c2cccc(F)c2)O1)c1ccc(-c2c3nc(c(-c4c(F)cc(S(=O)(=O)[O-])cc4F)c4ccc([nH]4)c(-c4c(F)cc(S(=O)(=O)[O-])cc4F)c4nc(c(-c5c(F)cc(S(=O)(=O)[O-])cc5F)c5ccc2[nH]5)C=C4)C=C3)cc1
REMARK SMILES IDX 9 1 8 2 7 3 6 4 5 5 4 6 3 7 2 8 1 9 34 10 35 11 99 12 36 13
REMARK SMILES IDX 98 14 37 15 38 16 39 17 92 18 40 19 97 20 91 21 93 22 41 23
REMARK SMILES IDX 96 24 90 25 89 26 42 28 76 29 55 30 75 31 56 32 59 33 74 34
REMARK SMILES IDX 94 35 57 36 58 37 73 39 95 40 60 41 43 42 44 43 53 44 45 45
REMARK SMILES IDX 46 46 52 47 54 48 47 49 48 50 49 51 50 52 51 53 77 54 78 55
REMARK SMILES IDX 87 56 79 57 80 58 86 59 88 60 81 61 82 62 83 63 84 64 85 65
REMARK SMILES IDX 61 66 62 67 71 68 63 69 64 70 70 71 72 72 65 73 66 74 67 75
REMARK SMILES IDX 68 76 69 77 10 78 11 79 12 80 13 81 14 82 15 83 16 84 17 85
REMARK SMILES IDX 18 86 19 87 33 88 20 89 21 90 22 91 23 92 24 93 25 94 26 95
REMARK SMILES IDX 27 96 32 97 28 98 30 99 29 100 31 101
REMARK H PARENT 93 27 59 38
REMARK Flexibility Score: inf
ROOT
ATOM      1  O   UNL A   1      43.028  18.922  26.371  1.00  0.00    -0.377 OA
ENDROOT
BRANCH   1   2
ATOM      2  C   UNL A   1      44.194  18.741  25.568  1.00  0.00     0.188 C 
BRANCH   2   3
ATOM      3  C   UNL A   1      44.790  20.043  25.041  1.00  0.00     0.188 C 
BRANCH   3   4
ATOM      4  O   UNL A   1      43.754  21.006  24.930  1.00  0.00    -0.376 OA
BRANCH   4   5
ATOM      5  C   UNL A   1      43.884  22.256  25.574  1.00  0.00     0.202 C 
BRANCH   5   6
ATOM      6  C   UNL A   1      43.138  23.439  24.969  1.00  0.00     0.261 C 
BRANCH   6   7
ATOM      7  O   UNL A   1      42.575  24.390  25.900  1.00  0.00    -0.460 OA
BRANCH   7   8
ATOM      8  C   UNL A   1      42.537  25.744  25.848  1.00  0.00     0.338 C 
ATOM      9  O   UNL A   1      42.802  26.326  24.800  1.00  0.00    -0.246 OA
BRANCH   8  10
ATOM     10  C   UNL A   1      42.144  26.544  27.026  1.00  0.00     0.060 A 
ATOM     11  C   UNL A   1      42.430  27.895  27.116  1.00  0.00     0.016 A 
ATOM     12  C   UNL A   1      41.360  25.975  28.029  1.00  0.00     0.016 A 
ATOM     13  C   UNL A   1      42.264  28.592  28.288  1.00  0.00     0.010 A 
ATOM     14  C   UNL A   1      40.990  26.741  29.142  1.00  0.00     0.010 A 
ATOM     15  C   UNL A   1      41.503  28.038  29.307  1.00  0.00    -0.014 A 
BRANCH  15  16
ATOM     16  C   UNL A   1      41.346  28.821  30.549  1.00  0.00     0.031 A 
ATOM     17  C   UNL A   1      40.202  29.785  30.629  1.00  0.00     0.074 A 
ATOM     18  C   UNL A   1      42.116  28.543  31.624  1.00  0.00     0.049 A 
ATOM     19  N   UNL A   1      39.933  30.669  31.549  1.00  0.00    -0.248 NA
ATOM     20  C   UNL A   1      39.222  29.754  29.526  1.00  0.00     0.031 C 
ATOM     21  C   UNL A   1      43.158  27.507  31.679  1.00  0.00     0.029 A 
ATOM     22  N   UNL A   1      42.109  29.055  32.894  1.00  0.00    -0.354 N 
ATOM     23  C   UNL A   1      38.796  31.333  31.108  1.00  0.00     0.074 A 
ATOM     24  C   UNL A   1      38.416  30.756  29.842  1.00  0.00     0.031 C 
ATOM     25  C   UNL A   1      43.624  27.408  32.932  1.00  0.00     0.029 A 
ATOM     26  C   UNL A   1      43.023  28.461  33.735  1.00  0.00     0.049 A 
ATOM     27  H   UNL A   1      41.509  29.781  33.178  1.00  0.00     0.167 HD
ATOM     28  C   UNL A   1      38.141  32.342  31.721  1.00  0.00     0.037 A 
ATOM     29  C   UNL A   1      43.374  28.776  34.996  1.00  0.00     0.037 A 
ATOM     30  C   UNL A   1      38.535  32.855  33.004  1.00  0.00     0.049 A 
ATOM     31  C   UNL A   1      42.699  29.971  35.610  1.00  0.00     0.074 A 
ATOM     32  C   UNL A   1      38.021  33.927  33.703  1.00  0.00     0.029 A 
ATOM     33  N   UNL A   1      39.539  32.301  33.789  1.00  0.00    -0.354 N 
ATOM     34  N   UNL A   1      41.714  30.695  35.127  1.00  0.00    -0.248 NA
ATOM     35  C   UNL A   1      43.203  30.424  36.911  1.00  0.00     0.031 C 
ATOM     36  C   UNL A   1      38.739  34.044  34.898  1.00  0.00     0.029 A 
ATOM     37  C   UNL A   1      39.669  33.016  34.963  1.00  0.00     0.049 A 
ATOM     38  H   UNL A   1      40.079  31.514  33.545  1.00  0.00     0.167 HD
ATOM     39  C   UNL A   1      41.482  31.692  36.063  1.00  0.00     0.074 A 
ATOM     40  C   UNL A   1      42.406  31.454  37.156  1.00  0.00     0.031 C 
ATOM     41  C   UNL A   1      40.604  32.725  36.022  1.00  0.00     0.037 A 
BRANCH  28  42
ATOM     42  C   UNL A   1      36.992  32.977  30.996  1.00  0.00     0.058 A 
ATOM     43  C   UNL A   1      35.673  32.698  31.389  1.00  0.00     0.135 A 
ATOM     44  C   UNL A   1      37.181  33.843  29.908  1.00  0.00     0.135 A 
ATOM     45  F   UNL A   1      35.435  31.902  32.443  1.00  0.00    -0.206 F 
ATOM     46  C   UNL A   1      34.582  33.228  30.709  1.00  0.00     0.059 A 
ATOM     47  C   UNL A   1      36.104  34.402  29.225  1.00  0.00     0.059 A 
ATOM     48  F   UNL A   1      38.422  34.181  29.523  1.00  0.00    -0.206 F 
ATOM     49  C   UNL A   1      34.807  34.074  29.622  1.00  0.00     0.060 A 
BRANCH  49  50
ATOM     50  S   UNL A   1      33.378  34.748  28.750  1.00  0.00     0.124 S 
ATOM     51  O   UNL A   1      33.026  33.650  27.857  1.00  0.00    -0.237 OA
ATOM     52  O   UNL A   1      32.446  35.005  29.843  1.00  0.00    -0.237 OA
ATOM     53  O   UNL A   1      33.911  35.943  28.099  1.00  0.00    -0.744 OA
ENDBRANCH  49  50
ENDBRANCH  28  42
BRANCH  29  54
ATOM     54  C   UNL A   1      44.455  28.033  35.706  1.00  0.00     0.058 A 
ATOM     55  C   UNL A   1      44.163  26.958  36.563  1.00  0.00     0.135 A 
ATOM     56  C   UNL A   1      45.807  28.367  35.533  1.00  0.00     0.135 A 
ATOM     57  F   UNL A   1      42.890  26.588  36.772  1.00  0.00    -0.206 F 
ATOM     58  C   UNL A   1      45.160  26.258  37.234  1.00  0.00     0.059 A 
ATOM     59  C   UNL A   1      46.828  27.658  36.167  1.00  0.00     0.059 A 
ATOM     60  F   UNL A   1      46.148  29.376  34.717  1.00  0.00    -0.206 F 
ATOM     61  C   UNL A   1      46.492  26.611  37.024  1.00  0.00     0.060 A 
BRANCH  61  62
ATOM     62  S   UNL A   1      47.772  25.650  37.861  1.00  0.00     0.124 S 
ATOM     63  O   UNL A   1      48.971  26.420  37.543  1.00  0.00    -0.237 OA
ATOM     64  O   UNL A   1      47.335  25.704  39.252  1.00  0.00    -0.237 OA
ATOM     65  O   UNL A   1      47.679  24.340  37.226  1.00  0.00    -0.744 OA
ENDBRANCH  61  62
ENDBRANCH  29  54
BRANCH  41  66
ATOM     66  C   UNL A   1      40.599  33.650  37.199  1.00  0.00     0.058 A 
ATOM     67  C   UNL A   1      39.675  33.465  38.238  1.00  0.00     0.135 A 
ATOM     68  C   UNL A   1      41.460  34.754  37.260  1.00  0.00     0.135 A 
ATOM     69  F   UNL A   1      38.827  32.424  38.215  1.00  0.00    -0.206 F 
ATOM     70  C   UNL A   1      39.593  34.360  39.295  1.00  0.00     0.059 A 
ATOM     71  C   UNL A   1      41.416  35.646  38.324  1.00  0.00     0.059 A 
ATOM     72  F   UNL A   1      42.368  34.958  36.291  1.00  0.00    -0.206 F 
ATOM     73  C   UNL A   1      40.466  35.449  39.327  1.00  0.00     0.060 A 
BRANCH  73  74
ATOM     74  S   UNL A   1      40.360  36.590  40.718  1.00  0.00     0.124 S 
ATOM     75  O   UNL A   1      41.751  36.655  41.154  1.00  0.00    -0.237 OA
ATOM     76  O   UNL A   1      39.835  37.797  40.087  1.00  0.00    -0.237 OA
ATOM     77  O   UNL A   1      39.443  35.922  41.635  1.00  0.00    -0.744 OA
ENDBRANCH  73  74
ENDBRANCH  41  66
ENDBRANCH  15  16
ENDBRANCH   8  10
ENDBRANCH   7   8
ENDBRANCH   6   7
ENDBRANCH   5   6
ENDBRANCH   4   5
ENDBRANCH   3   4
ENDBRANCH   2   3
ENDBRANCH   1   2
BRANCH   1  78
ATOM     78  C   UNL A   1      41.765  18.878  25.709  1.00  0.00     0.188 C 
BRANCH  78  79
ATOM     79  C   UNL A   1      40.529  19.472  26.400  1.00  0.00     0.188 C 
BRANCH  79  80
ATOM     80  O   UNL A   1      40.859  20.347  27.461  1.00  0.00    -0.376 OA
BRANCH  80  81
ATOM     81  C   UNL A   1      40.573  21.723  27.240  1.00  0.00     0.202 C 
BRANCH  81  82
ATOM     82  C   UNL A   1      39.683  22.156  26.048  1.00  0.00     0.261 C 
BRANCH  82  83
ATOM     83  O   UNL A   1      38.295  22.391  26.350  1.00  0.00    -0.461 OA
BRANCH  83  84
ATOM     84  C   UNL A   1      37.365  22.221  25.382  1.00  0.00     0.335 C 
ATOM     85  O   UNL A   1      37.528  21.547  24.371  1.00  0.00    -0.249 OA
BRANCH  84  86
ATOM     86  C   UNL A   1      36.007  22.890  25.731  1.00  0.00     0.228 C 
ATOM     87  C   UNL A   1      34.901  22.340  24.847  1.00  0.00     0.047 C 
ATOM     88  O   UNL A   1      35.834  24.312  25.727  1.00  0.00    -0.362 OA
ATOM     89  C   UNL A   1      33.849  23.419  24.918  1.00  0.00     0.036 C 
ATOM     90  C   UNL A   1      34.677  24.696  24.991  1.00  0.00     0.135 C 
BRANCH  90  91
ATOM     91  C   UNL A   1      33.872  25.814  25.644  1.00  0.00     0.174 C 
BRANCH  91  92
ATOM     92  S   UNL A   1      33.379  27.172  24.619  1.00  0.00     0.181 S 
ATOM     93  O   UNL A   1      33.596  28.422  25.295  1.00  0.00    -0.224 OA
ATOM     94  O   UNL A   1      34.030  26.932  23.328  1.00  0.00    -0.224 OA
BRANCH  92  95
ATOM     95  C   UNL A   1      31.640  27.017  24.249  1.00  0.00     0.070 A 
ATOM     96  C   UNL A   1      30.917  26.021  24.924  1.00  0.00     0.020 A 
ATOM     97  C   UNL A   1      30.977  27.898  23.396  1.00  0.00     0.059 A 
ATOM     98  C   UNL A   1      29.535  25.906  24.737  1.00  0.00     0.004 A 
ATOM     99  C   UNL A   1      29.606  27.754  23.202  1.00  0.00     0.124 A 
ATOM    100  C   UNL A   1      28.878  26.776  23.868  1.00  0.00     0.039 A 
ATOM    101  F   UNL A   1      28.981  28.568  22.341  1.00  0.00    -0.207 F 
ENDBRANCH  92  95
ENDBRANCH  91  92
ENDBRANCH  90  91
ENDBRANCH  84  86
ENDBRANCH  83  84
ENDBRANCH  82  83
ENDBRANCH  81  82
ENDBRANCH  80  81
ENDBRANCH  79  80
ENDBRANCH  78  79
ENDBRANCH   1  78
TORSDOF 26
ENDMDL
MODEL 2
REMARK VINA RESULT:      -8.9      1.568      8.252
REMARK SMILES O=C(OCCOCCOCCOCCOC(=O)[C@@H]1CC[C@@H](CS(=O)(=O)c2cccc(F)c2)O1)c1ccc(-c2c3nc(c(-c4c(F)cc(S(=O)(=O)[O-])cc4F)c4ccc([nH]4)c(-c4c(F)cc(S(=O)(=O)[O-])cc4F)c4nc(c(-c5c(F)cc(S(=O)(=O)[O-])cc5F)c5ccc2[nH]5)C=C4)C=C3)cc1
REMARK SMILES IDX 9 1 8 2 7 3 6 4 5 5 4 6 3 7 2 8 1 9 34 10 35 11 99 12 36 13
REMARK SMILES IDX 98 14 37 15 38 16 39 17 92 18 40 19 97 20 91 21 93 22 41 23
REMARK SMILES IDX 96 24 90 25 89 26 42 28 76 29 55 30 75 31 56 32 59 33 74 34
REMARK SMILES IDX 94 35 57 36 58 37 73 39 95 40 60 41 43 42 44 43 53 44 45 45
REMARK SMILES IDX 46 46 52 47 54 48 47 49 48 50 49 51 50 52 51 53 77 54 78 55
REMARK SMILES IDX 87 56 79 57 80 58 86 59 88 60 81 61 82 62 83 63 84 64 85 65
REMARK SMILES IDX 61 66 62 67 71 68 63 69 64 70 70 71 72 72 65 73 66 74 67 75
REMARK SMILES IDX 68 76 69 77 10 78 11 79 12 80 13 81 14 82 15 83 16 84 17 85
REMARK SMILES IDX 18 86 19 87 33 88 20 89 21 90 22 91 23 92 24 93 25 94 26 95
REMARK SMILES IDX 27 96 32 97 28 98 30 99 29 100 31 101
REMARK H PARENT 93 27 59 38
REMARK Flexibility Score: inf
ROOT
ATOM      1  O   UNL A   1      42.195  19.925  26.700  1.00  0.00    -0.377 OA
ENDROOT
BRANCH   1   2
ATOM      2  C   UNL A   1      43.108  19.151  25.924  1.00  0.00     0.188 C 
BRANCH   2   3
ATOM      3  C   UNL A   1      44.116  19.985  25.138  1.00  0.00     0.188 C 
BRANCH   3   4
ATOM      4  O   UNL A   1      44.272  21.237  25.785  1.00  0.00    -0.376 OA
BRANCH   4   5
ATOM      5  C   UNL A   1      44.575  22.389  25.026  1.00  0.00     0.202 C 
BRANCH   5   6
ATOM      6  C   UNL A   1      43.517  23.482  24.953  1.00  0.00     0.261 C 
BRANCH   6   7
ATOM      7  O   UNL A   1      43.381  24.325  26.120  1.00  0.00    -0.460 OA
BRANCH   7   8
ATOM      8  C   UNL A   1      43.779  25.605  26.322  1.00  0.00     0.338 C 
ATOM      9  O   UNL A   1      44.626  26.108  25.589  1.00  0.00    -0.246 OA
BRANCH   8  10
ATOM     10  C   UNL A   1      43.186  26.431  27.393  1.00  0.00     0.060 A 
ATOM     11  C   UNL A   1      43.227  27.813  27.355  1.00  0.00     0.016 A 
ATOM     12  C   UNL A   1      42.456  25.829  28.417  1.00  0.00     0.016 A 
ATOM     13  C   UNL A   1      42.876  28.578  28.441  1.00  0.00     0.010 A 
ATOM     14  C   UNL A   1      41.894  26.619  29.429  1.00  0.00     0.010 A 
ATOM     15  C   UNL A   1      42.164  27.995  29.479  1.00  0.00    -0.014 A 
BRANCH  15  16
ATOM     16  C   UNL A   1      41.802  28.852  30.626  1.00  0.00     0.031 A 
ATOM     17  C   UNL A   1      42.755  28.916  31.781  1.00  0.00     0.074 A 
ATOM     18  C   UNL A   1      40.729  29.669  30.545  1.00  0.00     0.049 A 
ATOM     19  N   UNL A   1      42.601  29.486  32.944  1.00  0.00    -0.248 NA
ATOM     20  C   UNL A   1      44.060  28.251  31.610  1.00  0.00     0.031 C 
ATOM     21  C   UNL A   1      39.829  29.781  29.388  1.00  0.00     0.029 A 
ATOM     22  N   UNL A   1      40.240  30.604  31.419  1.00  0.00    -0.354 N 
ATOM     23  C   UNL A   1      43.757  29.199  33.656  1.00  0.00     0.074 A 
ATOM     24  C   UNL A   1      44.611  28.408  32.804  1.00  0.00     0.031 C 
ATOM     25  C   UNL A   1      38.960  30.781  29.591  1.00  0.00     0.029 A 
ATOM     26  C   UNL A   1      39.143  31.286  30.943  1.00  0.00     0.049 A 
ATOM     27  H   UNL A   1      40.635  30.771  32.305  1.00  0.00     0.167 HD
ATOM     28  C   UNL A   1      44.062  29.569  34.918  1.00  0.00     0.037 A 
ATOM     29  C   UNL A   1      38.342  32.178  31.556  1.00  0.00     0.037 A 
ATOM     30  C   UNL A   1      43.196  30.394  35.713  1.00  0.00     0.049 A 
ATOM     31  C   UNL A   1      38.648  32.487  32.996  1.00  0.00     0.074 A 
ATOM     32  C   UNL A   1      43.333  30.775  37.033  1.00  0.00     0.029 A 
ATOM     33  N   UNL A   1      42.031  30.986  35.238  1.00  0.00    -0.354 N 
ATOM     34  N   UNL A   1      39.673  32.094  33.719  1.00  0.00    -0.248 NA
ATOM     35  C   UNL A   1      37.679  33.317  33.718  1.00  0.00     0.031 C 
ATOM     36  C   UNL A   1      42.230  31.569  37.366  1.00  0.00     0.029 A 
ATOM     37  C   UNL A   1      41.432  31.721  36.241  1.00  0.00     0.049 A 
ATOM     38  H   UNL A   1      41.684  30.894  34.321  1.00  0.00     0.167 HD
ATOM     39  C   UNL A   1      39.470  32.626  34.984  1.00  0.00     0.074 A 
ATOM     40  C   UNL A   1      38.243  33.398  34.914  1.00  0.00     0.031 C 
ATOM     41  C   UNL A   1      40.212  32.478  36.110  1.00  0.00     0.037 A 
BRANCH  28  42
ATOM     42  C   UNL A   1      45.333  29.045  35.518  1.00  0.00     0.058 A 
ATOM     43  C   UNL A   1      46.509  29.810  35.452  1.00  0.00     0.135 A 
ATOM     44  C   UNL A   1      45.405  27.789  36.139  1.00  0.00     0.135 A 
ATOM     45  F   UNL A   1      46.490  31.033  34.897  1.00  0.00    -0.206 F 
ATOM     46  C   UNL A   1      47.717  29.336  35.952  1.00  0.00     0.059 A 
ATOM     47  C   UNL A   1      46.598  27.301  36.665  1.00  0.00     0.059 A 
ATOM     48  F   UNL A   1      44.299  27.038  36.272  1.00  0.00    -0.206 F 
ATOM     49  C   UNL A   1      47.753  28.076  36.549  1.00  0.00     0.060 A 
BRANCH  49  50
ATOM     50  S   UNL A   1      49.332  27.475  37.188  1.00  0.00     0.124 S 
ATOM     51  O   UNL A   1      49.004  27.191  38.580  1.00  0.00    -0.237 OA
ATOM     52  O   UNL A   1      49.582  26.313  36.341  1.00  0.00    -0.237 OA
ATOM     53  O   UNL A   1      50.236  28.602  36.971  1.00  0.00    -0.744 OA
ENDBRANCH  49  50
ENDBRANCH  28  42
BRANCH  29  54
ATOM     54  C   UNL A   1      37.149  32.748  30.866  1.00  0.00     0.058 A 
ATOM     55  C   UNL A   1      37.244  33.911  30.083  1.00  0.00     0.135 A 
ATOM     56  C   UNL A   1      35.889  32.136  30.958  1.00  0.00     0.135 A 
ATOM     57  F   UNL A   1      38.420  34.545  29.954  1.00  0.00    -0.206 F 
ATOM     58  C   UNL A   1      36.140  34.457  29.437  1.00  0.00     0.059 A 
ATOM     59  C   UNL A   1      34.774  32.644  30.291  1.00  0.00     0.059 A 
ATOM     60  F   UNL A   1      35.740  31.017  31.682  1.00  0.00    -0.206 F 
ATOM     61  C   UNL A   1      34.909  33.811  29.541  1.00  0.00     0.060 A 
BRANCH  61  62
ATOM     62  S   UNL A   1      33.502  34.505  28.645  1.00  0.00     0.124 S 
ATOM     63  O   UNL A   1      33.093  33.373  27.819  1.00  0.00    -0.237 OA
ATOM     64  O   UNL A   1      32.593  34.860  29.729  1.00  0.00    -0.237 OA
ATOM     65  O   UNL A   1      34.085  35.632  27.923  1.00  0.00    -0.744 OA
ENDBRANCH  61  62
ENDBRANCH  29  54
BRANCH  41  66
ATOM     66  C   UNL A   1      39.719  33.181  37.336  1.00  0.00     0.058 A 
ATOM     67  C   UNL A   1      40.294  34.396  37.733  1.00  0.00     0.135 A 
ATOM     68  C   UNL A   1      38.728  32.614  38.150  1.00  0.00     0.135 A 
ATOM     69  F   UNL A   1      41.250  34.970  36.986  1.00  0.00    -0.206 F 
ATOM     70  C   UNL A   1      39.914  35.021  38.913  1.00  0.00     0.059 A 
ATOM     71  C   UNL A   1      38.312  33.236  39.320  1.00  0.00     0.059 A 
ATOM     72  F   UNL A   1      38.144  31.457  37.798  1.00  0.00    -0.206 F 
ATOM     73  C   UNL A   1      38.924  34.431  39.700  1.00  0.00     0.060 A 
BRANCH  73  74
ATOM     74  S   UNL A   1      38.428  35.266  41.219  1.00  0.00     0.124 S 
ATOM     75  O   UNL A   1      39.449  34.808  42.155  1.00  0.00    -0.237 OA
ATOM     76  O   UNL A   1      38.502  36.673  40.835  1.00  0.00    -0.237 OA
ATOM     77  O   UNL A   1      37.080  34.760  41.458  1.00  0.00    -0.744 OA
ENDBRANCH  73  74
ENDBRANCH  41  66
ENDBRANCH  15  16
ENDBRANCH   8  10
ENDBRANCH   7   8
ENDBRANCH   6   7
ENDBRANCH   5   6
ENDBRANCH   4   5
ENDBRANCH   3   4
ENDBRANCH   2   3
ENDBRANCH   1   2
BRANCH   1  78
ATOM     78  C   UNL A   1      41.314  20.797  25.993  1.00  0.00     0.188 C 
BRANCH  78  79
ATOM     79  C   UNL A   1      39.804  20.517  26.006  1.00  0.00     0.188 C 
BRANCH  79  80
ATOM     80  O   UNL A   1      39.042  21.626  26.440  1.00  0.00    -0.376 OA
BRANCH  80  81
ATOM     81  C   UNL A   1      37.985  22.028  25.576  1.00  0.00     0.202 C 
BRANCH  81  82
ATOM     82  C   UNL A   1      36.938  20.996  25.089  1.00  0.00     0.261 C 
BRANCH  82  83
ATOM     83  O   UNL A   1      35.650  21.526  24.727  1.00  0.00    -0.461 OA
BRANCH  83  84
ATOM     84  C   UNL A   1      34.540  20.778  24.927  1.00  0.00     0.335 C 
ATOM     85  O   UNL A   1      34.469  19.571  24.719  1.00  0.00    -0.249 OA
BRANCH  84  86
ATOM     86  C   UNL A   1      33.374  21.589  25.555  1.00  0.00     0.228 C 
ATOM     87  C   UNL A   1      32.192  21.643  24.604  1.00  0.00     0.047 C 
ATOM     88  O   UNL A   1      33.548  22.928  26.033  1.00  0.00    -0.362 OA
ATOM     89  C   UNL A   1      31.428  22.851  25.090  1.00  0.00     0.036 C 
ATOM     90  C   UNL A   1      32.536  23.798  25.534  1.00  0.00     0.135 C 
BRANCH  90  91
ATOM     91  C   UNL A   1      32.007  24.787  26.566  1.00  0.00     0.174 C 
BRANCH  91  92
ATOM     92  S   UNL A   1      31.119  26.198  25.965  1.00  0.00     0.181 S 
ATOM     93  O   UNL A   1      29.842  25.804  25.435  1.00  0.00    -0.224 OA
ATOM     94  O   UNL A   1      31.174  27.176  27.055  1.00  0.00    -0.224 OA
BRANCH  92  95
ATOM     95  C   UNL A   1      32.067  26.966  24.662  1.00  0.00     0.070 A 
ATOM     96  C   UNL A   1      32.615  28.233  24.916  1.00  0.00     0.020 A 
ATOM     97  C   UNL A   1      32.346  26.317  23.460  1.00  0.00     0.059 A 
ATOM     98  C   UNL A   1      33.435  28.848  23.963  1.00  0.00     0.004 A 
ATOM     99  C   UNL A   1      33.145  26.952  22.514  1.00  0.00     0.124 A 
ATOM    100  C   UNL A   1      33.698  28.205  22.754  1.00  0.00     0.039 A 
ATOM    101  F   UNL A   1      33.368  26.349  21.339  1.00  0.00    -0.207 F 
ENDBRANCH  92  95
ENDBRANCH  91  92
ENDBRANCH  90  91
ENDBRANCH  84  86
ENDBRANCH  83  84
ENDBRANCH  82  83
ENDBRANCH  81  82
ENDBRANCH  80  81
ENDBRANCH  79  80
ENDBRANCH  78  79
ENDBRANCH   1  78
TORSDOF 26
ENDMDL
MODEL 3
REMARK VINA RESULT:      -8.8      5.091      9.992
REMARK SMILES O=C(OCCOCCOCCOCCOC(=O)[C@@H]1CC[C@@H](CS(=O)(=O)c2cccc(F)c2)O1)c1ccc(-c2c3nc(c(-c4c(F)cc(S(=O)(=O)[O-])cc4F)c4ccc([nH]4)c(-c4c(F)cc(S(=O)(=O)[O-])cc4F)c4nc(c(-c5c(F)cc(S(=O)(=O)[O-])cc5F)c5ccc2[nH]5)C=C4)C=C3)cc1
REMARK SMILES IDX 9 1 8 2 7 3 6 4 5 5 4 6 3 7 2 8 1 9 34 10 35 11 99 12 36 13
REMARK SMILES IDX 98 14 37 15 38 16 39 17 92 18 40 19 97 20 91 21 93 22 41 23
REMARK SMILES IDX 96 24 90 25 89 26 42 28 76 29 55 30 75 31 56 32 59 33 74 34
REMARK SMILES IDX 94 35 57 36 58 37 73 39 95 40 60 41 43 42 44 43 53 44 45 45
REMARK SMILES IDX 46 46 52 47 54 48 47 49 48 50 49 51 50 52 51 53 77 54 78 55
REMARK SMILES IDX 87 56 79 57 80 58 86 59 88 60 81 61 82 62 83 63 84 64 85 65
REMARK SMILES IDX 61 66 62 67 71 68 63 69 64 70 70 71 72 72 65 73 66 74 67 75
REMARK SMILES IDX 68 76 69 77 10 78 11 79 12 80 13 81 14 82 15 83 16 84 17 85
REMARK SMILES IDX 18 86 19 87 33 88 20 89 21 90 22 91 23 92 24 93 25 94 26 95
REMARK SMILES IDX 27 96 32 97 28 98 30 99 29 100 31 101
REMARK H PARENT 93 27 59 38
REMARK Flexibility Score: inf
ROOT
ATOM      1  O   UNL A   1      34.466  25.943  22.357  1.00  0.00    -0.377 OA
ENDROOT
BRANCH   1   2
ATOM      2  C   UNL A   1      33.630  26.964  21.812  1.00  0.00     0.188 C 
BRANCH   2   3
ATOM      3  C   UNL A   1      33.470  28.182  22.717  1.00  0.00     0.188 C 
BRANCH   3   4
ATOM      4  O   UNL A   1      34.243  27.982  23.889  1.00  0.00    -0.376 OA
BRANCH   4   5
ATOM      5  C   UNL A   1      33.691  28.278  25.155  1.00  0.00     0.202 C 
BRANCH   5   6
ATOM      6  C   UNL A   1      34.655  28.411  26.328  1.00  0.00     0.261 C 
BRANCH   6   7
ATOM      7  O   UNL A   1      34.206  29.216  27.441  1.00  0.00    -0.460 OA
BRANCH   7   8
ATOM      8  C   UNL A   1      34.905  30.043  28.256  1.00  0.00     0.338 C 
ATOM      9  O   UNL A   1      34.326  30.932  28.873  1.00  0.00    -0.246 OA
BRANCH   8  10
ATOM     10  C   UNL A   1      36.360  29.877  28.451  1.00  0.00     0.060 A 
ATOM     11  C   UNL A   1      37.271  30.229  27.471  1.00  0.00     0.016 A 
ATOM     12  C   UNL A   1      36.859  29.471  29.688  1.00  0.00     0.016 A 
ATOM     13  C   UNL A   1      38.597  29.878  27.556  1.00  0.00     0.010 A 
ATOM     14  C   UNL A   1      38.240  29.317  29.866  1.00  0.00     0.010 A 
ATOM     15  C   UNL A   1      39.110  29.455  28.773  1.00  0.00    -0.014 A 
BRANCH  15  16
ATOM     16  C   UNL A   1      40.541  29.091  28.824  1.00  0.00     0.031 A 
ATOM     17  C   UNL A   1      41.494  30.080  29.424  1.00  0.00     0.074 A 
ATOM     18  C   UNL A   1      40.931  27.842  28.490  1.00  0.00     0.049 A 
ATOM     19  N   UNL A   1      42.796  30.048  29.462  1.00  0.00    -0.248 NA
ATOM     20  C   UNL A   1      40.906  31.269  30.071  1.00  0.00     0.031 C 
ATOM     21  C   UNL A   1      40.041  26.763  28.038  1.00  0.00     0.029 A 
ATOM     22  N   UNL A   1      42.162  27.241  28.532  1.00  0.00    -0.354 N 
ATOM     23  C   UNL A   1      43.180  31.231  30.080  1.00  0.00     0.074 A 
ATOM     24  C   UNL A   1      41.982  31.963  30.406  1.00  0.00     0.031 C 
ATOM     25  C   UNL A   1      40.738  25.623  27.929  1.00  0.00     0.029 A 
ATOM     26  C   UNL A   1      42.143  25.915  28.162  1.00  0.00     0.049 A 
ATOM     27  H   UNL A   1      42.982  27.713  28.801  1.00  0.00     0.167 HD
ATOM     28  C   UNL A   1      44.435  31.655  30.341  1.00  0.00     0.037 A 
ATOM     29  C   UNL A   1      43.159  25.052  27.975  1.00  0.00     0.037 A 
ATOM     30  C   UNL A   1      45.598  30.868  30.034  1.00  0.00     0.049 A 
ATOM     31  C   UNL A   1      44.550  25.588  28.172  1.00  0.00     0.074 A 
ATOM     32  C   UNL A   1      46.930  31.206  30.161  1.00  0.00     0.029 A 
ATOM     33  N   UNL A   1      45.552  29.564  29.555  1.00  0.00    -0.354 N 
ATOM     34  N   UNL A   1      44.919  26.767  28.622  1.00  0.00    -0.248 NA
ATOM     35  C   UNL A   1      45.662  24.707  27.799  1.00  0.00     0.031 C 
ATOM     36  C   UNL A   1      47.691  30.116  29.725  1.00  0.00     0.029 A 
ATOM     37  C   UNL A   1      46.833  29.084  29.371  1.00  0.00     0.049 A 
ATOM     38  H   UNL A   1      44.728  29.058  29.375  1.00  0.00     0.167 HD
ATOM     39  C   UNL A   1      46.305  26.772  28.582  1.00  0.00     0.074 A 
ATOM     40  C   UNL A   1      46.708  25.464  28.100  1.00  0.00     0.031 C 
ATOM     41  C   UNL A   1      47.173  27.766  28.894  1.00  0.00     0.037 A 
BRANCH  28  42
ATOM     42  C   UNL A   1      44.608  33.026  30.923  1.00  0.00     0.058 A 
ATOM     43  C   UNL A   1      44.712  33.191  32.314  1.00  0.00     0.135 A 
ATOM     44  C   UNL A   1      44.652  34.179  30.123  1.00  0.00     0.135 A 
ATOM     45  F   UNL A   1      44.707  32.120  33.124  1.00  0.00    -0.206 F 
ATOM     46  C   UNL A   1      44.822  34.450  32.893  1.00  0.00     0.059 A 
ATOM     47  C   UNL A   1      44.782  35.449  30.679  1.00  0.00     0.059 A 
ATOM     48  F   UNL A   1      44.606  34.073  28.786  1.00  0.00    -0.206 F 
ATOM     49  C   UNL A   1      44.848  35.575  32.068  1.00  0.00     0.060 A 
BRANCH  49  50
ATOM     50  S   UNL A   1      44.985  37.202  32.839  1.00  0.00     0.124 S 
ATOM     51  O   UNL A   1      46.417  37.287  33.104  1.00  0.00    -0.237 OA
ATOM     52  O   UNL A   1      44.477  38.081  31.790  1.00  0.00    -0.237 OA
ATOM     53  O   UNL A   1      44.132  37.091  34.019  1.00  0.00    -0.744 OA
ENDBRANCH  49  50
ENDBRANCH  28  42
BRANCH  29  54
ATOM     54  C   UNL A   1      42.913  23.661  27.496  1.00  0.00     0.058 A 
ATOM     55  C   UNL A   1      42.604  22.623  28.392  1.00  0.00     0.135 A 
ATOM     56  C   UNL A   1      42.966  23.338  26.131  1.00  0.00     0.135 A 
ATOM     57  F   UNL A   1      42.538  22.865  29.710  1.00  0.00    -0.206 F 
ATOM     58  C   UNL A   1      42.376  21.321  27.960  1.00  0.00     0.059 A 
ATOM     59  C   UNL A   1      42.706  22.047  25.670  1.00  0.00     0.059 A 
ATOM     60  F   UNL A   1      43.245  24.290  25.228  1.00  0.00    -0.206 F 
ATOM     61  C   UNL A   1      42.422  21.043  26.594  1.00  0.00     0.060 A 
BRANCH  61  62
ATOM     62  S   UNL A   1      42.065  19.357  26.053  1.00  0.00     0.124 S 
ATOM     63  O   UNL A   1      42.528  18.578  27.198  1.00  0.00    -0.237 OA
ATOM     64  O   UNL A   1      40.620  19.398  25.857  1.00  0.00    -0.237 OA
ATOM     65  O   UNL A   1      42.858  19.219  24.836  1.00  0.00    -0.744 OA
ENDBRANCH  61  62
ENDBRANCH  29  54
BRANCH  41  66
ATOM     66  C   UNL A   1      48.630  27.461  28.737  1.00  0.00     0.058 A 
ATOM     67  C   UNL A   1      49.358  26.921  29.807  1.00  0.00     0.135 A 
ATOM     68  C   UNL A   1      49.314  27.768  27.553  1.00  0.00     0.135 A 
ATOM     69  F   UNL A   1      48.742  26.618  30.962  1.00  0.00    -0.206 F 
ATOM     70  C   UNL A   1      50.726  26.711  29.714  1.00  0.00     0.059 A 
ATOM     71  C   UNL A   1      50.677  27.539  27.427  1.00  0.00     0.059 A 
ATOM     72  F   UNL A   1      48.650  28.275  26.500  1.00  0.00    -0.206 F 
ATOM     73  C   UNL A   1      51.377  27.027  28.520  1.00  0.00     0.060 A 
BRANCH  73  74
ATOM     74  S   UNL A   1      53.151  26.729  28.408  1.00  0.00     0.124 S 
ATOM     75  O   UNL A   1      53.647  28.043  28.013  1.00  0.00    -0.237 OA
ATOM     76  O   UNL A   1      53.479  26.309  29.767  1.00  0.00    -0.237 OA
ATOM     77  O   UNL A   1      53.256  25.684  27.395  1.00  0.00    -0.744 OA
ENDBRANCH  73  74
ENDBRANCH  41  66
ENDBRANCH  15  16
ENDBRANCH   8  10
ENDBRANCH   7   8
ENDBRANCH   6   7
ENDBRANCH   5   6
ENDBRANCH   4   5
ENDBRANCH   3   4
ENDBRANCH   2   3
ENDBRANCH   1   2
BRANCH   1  78
ATOM     78  C   UNL A   1      33.834  24.927  23.133  1.00  0.00     0.188 C 
BRANCH  78  79
ATOM     79  C   UNL A   1      33.944  23.461  22.690  1.00  0.00     0.188 C 
BRANCH  79  80
ATOM     80  O   UNL A   1      35.236  23.122  22.225  1.00  0.00    -0.376 OA
BRANCH  80  81
ATOM     81  C   UNL A   1      36.260  23.087  23.211  1.00  0.00     0.202 C 
BRANCH  81  82
ATOM     82  C   UNL A   1      36.385  21.873  24.166  1.00  0.00     0.261 C 
BRANCH  82  83
ATOM     83  O   UNL A   1      36.705  22.179  25.536  1.00  0.00    -0.461 OA
BRANCH  83  84
ATOM     84  C   UNL A   1      36.100  23.226  26.144  1.00  0.00     0.335 C 
ATOM     85  O   UNL A   1      36.569  24.357  26.210  1.00  0.00    -0.249 OA
BRANCH  84  86
ATOM     86  C   UNL A   1      34.681  22.876  26.669  1.00  0.00     0.228 C 
ATOM     87  C   UNL A   1      34.673  21.496  27.302  1.00  0.00     0.047 C 
ATOM     88  O   UNL A   1      33.523  22.922  25.826  1.00  0.00    -0.362 OA
ATOM     89  C   UNL A   1      33.215  21.112  27.246  1.00  0.00     0.036 C 
ATOM     90  C   UNL A   1      32.749  21.732  25.935  1.00  0.00     0.135 C 
BRANCH  90  91
ATOM     91  C   UNL A   1      31.244  21.973  25.967  1.00  0.00     0.174 C 
BRANCH  91  92
ATOM     92  S   UNL A   1      30.668  23.429  26.797  1.00  0.00     0.181 S 
ATOM     93  O   UNL A   1      29.378  23.198  27.387  1.00  0.00    -0.224 OA
ATOM     94  O   UNL A   1      31.783  23.849  27.650  1.00  0.00    -0.224 OA
BRANCH  92  95
ATOM     95  C   UNL A   1      30.524  24.753  25.609  1.00  0.00     0.070 A 
ATOM     96  C   UNL A   1      30.369  26.058  26.104  1.00  0.00     0.020 A 
ATOM     97  C   UNL A   1      30.649  24.543  24.237  1.00  0.00     0.059 A 
ATOM     98  C   UNL A   1      30.334  27.145  25.224  1.00  0.00     0.004 A 
ATOM     99  C   UNL A   1      30.588  25.632  23.373  1.00  0.00     0.124 A 
ATOM    100  C   UNL A   1      30.440  26.929  23.850  1.00  0.00     0.039 A 
ATOM    101  F   UNL A   1      30.655  25.421  22.052  1.00  0.00    -0.207 F 
ENDBRANCH  92  95
ENDBRANCH  91  92
ENDBRANCH  90  91
ENDBRANCH  84  86
ENDBRANCH  83  84
ENDBRANCH  82  83
ENDBRANCH  81  82
ENDBRANCH  80  81
ENDBRANCH  79  80
ENDBRANCH  78  79
ENDBRANCH   1  78
TORSDOF 26
ENDMDL
