MODEL 1
REMARK VINA RESULT:      -9.7      0.000      0.000
REMARK SMILES CC[C@@H](C)N(C)C(=O)N1[C@@H](C(=O)OCCOCCOCCOCCOC(=O)c2ccc(-c3c4nc(c(-c5c(F)cc(S(=O)(=O)[O-])cc5F)c5ccc([nH]5)c(-c5c(F)cc(S(=O)(=O)[O-])cc5F)c5nc(c(-c6c(F)cc(S(=O)(=O)[O-])cc6F)c6ccc3[nH]6)C=C5)C=C4)cc2)CC[C@H]2CCCC[C@H]21
REMARK SMILES IDX 18 1 17 2 16 3 15 4 14 5 13 6 11 7 12 8 10 9 9 10 101 11
REMARK SMILES IDX 94 12 96 13 100 14 95 15 97 16 99 17 98 18 7 19 8 20 5 21
REMARK SMILES IDX 6 22 3 23 4 24 2 25 1 26 19 27 20 28 21 29 22 30 23 31 24 32
REMARK SMILES IDX 25 33 26 34 27 35 28 36 29 37 93 38 30 39 92 40 31 41 32 42
REMARK SMILES IDX 33 43 86 44 34 45 91 46 85 47 87 48 35 49 90 50 84 51 83 52
REMARK SMILES IDX 36 54 70 55 49 56 69 57 50 58 53 59 68 60 88 61 51 62 52 63
REMARK SMILES IDX 67 65 89 66 54 67 37 68 38 69 47 70 39 71 40 72 46 73 48 74
REMARK SMILES IDX 41 75 42 76 43 77 44 78 45 79 71 80 72 81 81 82 73 83 74 84
REMARK SMILES IDX 80 85 82 86 75 87 76 88 77 89 78 90 79 91 55 92 56 93 65 94
REMARK SMILES IDX 57 95 58 96 64 97 66 98 59 99 60 100 61 101 62 102 63 103
REMARK H PARENT 87 53 53 64
REMARK Flexibility Score: inf
ROOT
ATOM      1  C   UNL A   1      34.819  19.747  25.001  1.00  0.00     0.188 C 
ENDROOT
BRANCH   1   2
ATOM      2  C   UNL A   1      33.520  20.462  24.626  1.00  0.00     0.188 C 
BRANCH   2   3
ATOM      3  O   UNL A   1      33.174  21.509  25.498  1.00  0.00    -0.376 OA
BRANCH   3   4
ATOM      4  C   UNL A   1      31.871  21.707  26.000  1.00  0.00     0.202 C 
BRANCH   4   5
ATOM      5  C   UNL A   1      30.819  22.768  25.598  1.00  0.00     0.261 C 
BRANCH   5   6
ATOM      6  O   UNL A   1      31.153  24.070  25.126  1.00  0.00    -0.462 OA
BRANCH   6   7
ATOM      7  C   UNL A   1      30.719  24.376  23.887  1.00  0.00     0.329 C 
ATOM      8  O   UNL A   1      30.231  23.553  23.116  1.00  0.00    -0.250 OA
BRANCH   7   9
ATOM      9  C   UNL A   1      30.916  25.850  23.495  1.00  0.00     0.197 C 
ATOM     10  N   UNL A   1      32.257  26.337  23.064  1.00  0.00    -0.308 N 
ATOM     11  C   UNL A   1      32.231  27.746  22.570  1.00  0.00     0.091 C 
ATOM     12  C   UNL A   1      30.270  26.818  24.499  1.00  0.00     0.038 C 
ATOM     13  C   UNL A   1      31.431  28.741  23.453  1.00  0.00     0.012 C 
ATOM     14  C   UNL A   1      33.598  28.399  22.328  1.00  0.00     0.025 C 
ATOM     15  C   UNL A   1      30.077  28.180  23.856  1.00  0.00     0.008 C 
ATOM     16  C   UNL A   1      32.200  29.278  24.679  1.00  0.00     0.006 C 
ATOM     17  C   UNL A   1      34.422  28.542  23.597  1.00  0.00     0.002 C 
ATOM     18  C   UNL A   1      33.606  28.728  24.870  1.00  0.00     0.000 C 
BRANCH  10  19
ATOM     19  C   UNL A   1      33.052  25.449  22.315  1.00  0.00     0.320 C 
ATOM     20  O   UNL A   1      33.257  25.594  21.111  1.00  0.00    -0.248 OA
BRANCH  19  21
ATOM     21  N   UNL A   1      33.571  24.348  23.000  1.00  0.00    -0.325 N 
ATOM     22  C   UNL A   1      33.466  23.088  22.270  1.00  0.00     0.149 C 
BRANCH  21  23
ATOM     23  C   UNL A   1      34.861  24.468  23.727  1.00  0.00     0.083 C 
ATOM     24  C   UNL A   1      35.871  23.373  23.394  1.00  0.00     0.031 C 
BRANCH  23  25
ATOM     25  C   UNL A   1      34.631  24.633  25.246  1.00  0.00     0.021 C 
ATOM     26  C   UNL A   1      35.709  24.004  26.114  1.00  0.00     0.006 C 
ENDBRANCH  23  25
ENDBRANCH  21  23
ENDBRANCH  19  21
ENDBRANCH  10  19
ENDBRANCH   7   9
ENDBRANCH   6   7
ENDBRANCH   5   6
ENDBRANCH   4   5
ENDBRANCH   3   4
ENDBRANCH   2   3
ENDBRANCH   1   2
BRANCH   1  27
ATOM     27  O   UNL A   1      35.927  20.585  25.285  1.00  0.00    -0.377 OA
BRANCH  27  28
ATOM     28  C   UNL A   1      37.183  20.341  24.650  1.00  0.00     0.188 C 
BRANCH  28  29
ATOM     29  C   UNL A   1      38.180  19.310  25.222  1.00  0.00     0.188 C 
BRANCH  29  30
ATOM     30  O   UNL A   1      39.400  19.864  25.684  1.00  0.00    -0.376 OA
BRANCH  30  31
ATOM     31  C   UNL A   1      39.424  21.216  26.108  1.00  0.00     0.202 C 
BRANCH  31  32
ATOM     32  C   UNL A   1      40.477  21.648  27.141  1.00  0.00     0.261 C 
BRANCH  32  33
ATOM     33  O   UNL A   1      40.411  23.003  27.614  1.00  0.00    -0.460 OA
BRANCH  33  34
ATOM     34  C   UNL A   1      41.243  23.916  27.075  1.00  0.00     0.338 C 
ATOM     35  O   UNL A   1      41.934  23.785  26.074  1.00  0.00    -0.246 OA
BRANCH  34  36
ATOM     36  C   UNL A   1      41.026  25.191  27.786  1.00  0.00     0.060 A 
ATOM     37  C   UNL A   1      41.992  26.203  27.699  1.00  0.00     0.016 A 
ATOM     38  C   UNL A   1      39.866  25.383  28.540  1.00  0.00     0.016 A 
ATOM     39  C   UNL A   1      41.823  27.394  28.402  1.00  0.00     0.010 A 
ATOM     40  C   UNL A   1      39.711  26.565  29.266  1.00  0.00     0.010 A 
ATOM     41  C   UNL A   1      40.708  27.557  29.232  1.00  0.00    -0.014 A 
BRANCH  41  42
ATOM     42  C   UNL A   1      40.691  28.639  30.244  1.00  0.00     0.031 A 
ATOM     43  C   UNL A   1      41.673  28.547  31.381  1.00  0.00     0.074 A 
ATOM     44  C   UNL A   1      39.836  29.673  30.161  1.00  0.00     0.049 A 
ATOM     45  N   UNL A   1      41.770  29.280  32.457  1.00  0.00    -0.248 NA
ATOM     46  C   UNL A   1      42.678  27.473  31.291  1.00  0.00     0.031 C 
ATOM     47  C   UNL A   1      38.881  29.898  29.077  1.00  0.00     0.029 A 
ATOM     48  N   UNL A   1      39.620  30.719  31.024  1.00  0.00    -0.354 N 
ATOM     49  C   UNL A   1      42.841  28.757  33.172  1.00  0.00     0.074 A 
ATOM     50  C   UNL A   1      43.339  27.623  32.428  1.00  0.00     0.031 C 
ATOM     51  C   UNL A   1      38.156  30.995  29.358  1.00  0.00     0.029 A 
ATOM     52  C   UNL A   1      38.566  31.523  30.658  1.00  0.00     0.049 A 
ATOM     53  H   UNL A   1      40.167  30.879  31.827  1.00  0.00     0.167 HD
ATOM     54  C   UNL A   1      43.368  29.192  34.340  1.00  0.00     0.037 A 
ATOM     55  C   UNL A   1      37.976  32.539  31.323  1.00  0.00     0.037 A 
ATOM     56  C   UNL A   1      42.857  30.317  35.077  1.00  0.00     0.049 A 
ATOM     57  C   UNL A   1      38.519  32.949  32.672  1.00  0.00     0.074 A 
ATOM     58  C   UNL A   1      43.303  30.830  36.281  1.00  0.00     0.029 A 
ATOM     59  N   UNL A   1      41.784  31.102  34.678  1.00  0.00    -0.354 N 
ATOM     60  N   UNL A   1      39.529  32.446  33.343  1.00  0.00    -0.248 NA
ATOM     61  C   UNL A   1      37.848  34.065  33.352  1.00  0.00     0.031 C 
ATOM     62  C   UNL A   1      42.470  31.894  36.636  1.00  0.00     0.029 A 
ATOM     63  C   UNL A   1      41.546  32.086  35.619  1.00  0.00     0.049 A 
ATOM     64  H   UNL A   1      41.269  30.975  33.849  1.00  0.00     0.167 HD
ATOM     65  C   UNL A   1      39.636  33.210  34.502  1.00  0.00     0.074 A 
ATOM     66  C   UNL A   1      38.592  34.210  34.441  1.00  0.00     0.031 C 
ATOM     67  C   UNL A   1      40.522  33.097  35.523  1.00  0.00     0.037 A 
BRANCH  54  68
ATOM     68  C   UNL A   1      44.544  28.443  34.901  1.00  0.00     0.058 A 
ATOM     69  C   UNL A   1      44.377  27.385  35.810  1.00  0.00     0.135 A 
ATOM     70  C   UNL A   1      45.851  28.753  34.491  1.00  0.00     0.135 A 
ATOM     71  F   UNL A   1      43.152  27.061  36.253  1.00  0.00    -0.206 F 
ATOM     72  C   UNL A   1      45.465  26.672  36.303  1.00  0.00     0.059 A 
ATOM     73  C   UNL A   1      46.950  28.034  34.948  1.00  0.00     0.059 A 
ATOM     74  F   UNL A   1      46.068  29.760  33.631  1.00  0.00    -0.206 F 
ATOM     75  C   UNL A   1      46.748  27.000  35.861  1.00  0.00     0.060 A 
BRANCH  75  76
ATOM     76  S   UNL A   1      48.144  26.046  36.493  1.00  0.00     0.124 S 
ATOM     77  O   UNL A   1      49.170  27.077  36.615  1.00  0.00    -0.237 OA
ATOM     78  O   UNL A   1      47.618  25.525  37.750  1.00  0.00    -0.237 OA
ATOM     79  O   UNL A   1      48.376  25.052  35.451  1.00  0.00    -0.744 OA
ENDBRANCH  75  76
ENDBRANCH  54  68
BRANCH  55  80
ATOM     80  C   UNL A   1      36.778  33.214  30.750  1.00  0.00     0.058 A 
ATOM     81  C   UNL A   1      35.496  33.001  31.277  1.00  0.00     0.135 A 
ATOM     82  C   UNL A   1      36.891  34.065  29.638  1.00  0.00     0.135 A 
ATOM     83  F   UNL A   1      35.330  32.189  32.332  1.00  0.00    -0.206 F 
ATOM     84  C   UNL A   1      34.366  33.583  30.707  1.00  0.00     0.059 A 
ATOM     85  C   UNL A   1      35.781  34.683  29.071  1.00  0.00     0.059 A 
ATOM     86  F   UNL A   1      38.096  34.312  29.099  1.00  0.00    -0.206 F 
ATOM     87  C   UNL A   1      34.521  34.422  29.603  1.00  0.00     0.060 A 
BRANCH  87  88
ATOM     88  S   UNL A   1      33.051  35.187  28.883  1.00  0.00     0.124 S 
ATOM     89  O   UNL A   1      32.214  35.380  30.062  1.00  0.00    -0.237 OA
ATOM     90  O   UNL A   1      33.600  36.399  28.284  1.00  0.00    -0.237 OA
ATOM     91  O   UNL A   1      32.582  34.183  27.932  1.00  0.00    -0.744 OA
ENDBRANCH  87  88
ENDBRANCH  55  80
BRANCH  67  92
ATOM     92  C   UNL A   1      40.460  34.116  36.629  1.00  0.00     0.058 A 
ATOM     93  C   UNL A   1      41.216  35.296  36.597  1.00  0.00     0.135 A 
ATOM     94  C   UNL A   1      39.549  33.948  37.687  1.00  0.00     0.135 A 
ATOM     95  F   UNL A   1      42.105  35.505  35.614  1.00  0.00    -0.206 F 
ATOM     96  C   UNL A   1      41.078  36.272  37.581  1.00  0.00     0.059 A 
ATOM     97  C   UNL A   1      39.373  34.923  38.662  1.00  0.00     0.059 A 
ATOM     98  F   UNL A   1      38.794  32.840  37.758  1.00  0.00    -0.206 F 
ATOM     99  C   UNL A   1      40.146  36.080  38.603  1.00  0.00     0.060 A 
BRANCH  99 100
ATOM    100  S   UNL A   1      39.927  37.386  39.830  1.00  0.00     0.124 S 
ATOM    101  O   UNL A   1      39.935  36.626  41.075  1.00  0.00    -0.237 OA
ATOM    102  O   UNL A   1      41.095  38.231  39.596  1.00  0.00    -0.237 OA
ATOM    103  O   UNL A   1      38.645  37.984  39.468  1.00  0.00    -0.744 OA
ENDBRANCH  99 100
ENDBRANCH  67  92
ENDBRANCH  41  42
ENDBRANCH  34  36
ENDBRANCH  33  34
ENDBRANCH  32  33
ENDBRANCH  31  32
ENDBRANCH  30  31
ENDBRANCH  29  30
ENDBRANCH  28  29
ENDBRANCH  27  28
ENDBRANCH   1  27
TORSDOF 27
ENDMDL
MODEL 2
REMARK VINA RESULT:      -9.2      1.361      2.583
REMARK SMILES CC[C@@H](C)N(C)C(=O)N1[C@@H](C(=O)OCCOCCOCCOCCOC(=O)c2ccc(-c3c4nc(c(-c5c(F)cc(S(=O)(=O)[O-])cc5F)c5ccc([nH]5)c(-c5c(F)cc(S(=O)(=O)[O-])cc5F)c5nc(c(-c6c(F)cc(S(=O)(=O)[O-])cc6F)c6ccc3[nH]6)C=C5)C=C4)cc2)CC[C@H]2CCCC[C@H]21
REMARK SMILES IDX 18 1 17 2 16 3 15 4 14 5 13 6 11 7 12 8 10 9 9 10 101 11
REMARK SMILES IDX 94 12 96 13 100 14 95 15 97 16 99 17 98 18 7 19 8 20 5 21
REMARK SMILES IDX 6 22 3 23 4 24 2 25 1 26 19 27 20 28 21 29 22 30 23 31 24 32
REMARK SMILES IDX 25 33 26 34 27 35 28 36 29 37 93 38 30 39 92 40 31 41 32 42
REMARK SMILES IDX 33 43 86 44 34 45 91 46 85 47 87 48 35 49 90 50 84 51 83 52
REMARK SMILES IDX 36 54 70 55 49 56 69 57 50 58 53 59 68 60 88 61 51 62 52 63
REMARK SMILES IDX 67 65 89 66 54 67 37 68 38 69 47 70 39 71 40 72 46 73 48 74
REMARK SMILES IDX 41 75 42 76 43 77 44 78 45 79 71 80 72 81 81 82 73 83 74 84
REMARK SMILES IDX 80 85 82 86 75 87 76 88 77 89 78 90 79 91 55 92 56 93 65 94
REMARK SMILES IDX 57 95 58 96 64 97 66 98 59 99 60 100 61 101 62 102 63 103
REMARK H PARENT 87 53 53 64
REMARK Flexibility Score: inf
ROOT
ATOM      1  C   UNL A   1      34.697  20.072  24.968  1.00  0.00     0.188 C 
ENDROOT
BRANCH   1   2
ATOM      2  C   UNL A   1      33.279  20.419  24.513  1.00  0.00     0.188 C 
BRANCH   2   3
ATOM      3  O   UNL A   1      32.479  20.982  25.522  1.00  0.00    -0.376 OA
BRANCH   3   4
ATOM      4  C   UNL A   1      32.995  21.729  26.601  1.00  0.00     0.202 C 
BRANCH   4   5
ATOM      5  C   UNL A   1      32.239  22.560  27.666  1.00  0.00     0.261 C 
BRANCH   5   6
ATOM      6  O   UNL A   1      31.887  23.930  27.492  1.00  0.00    -0.462 OA
BRANCH   6   7
ATOM      7  C   UNL A   1      31.062  24.198  26.461  1.00  0.00     0.329 C 
ATOM      8  O   UNL A   1      29.839  24.253  26.565  1.00  0.00    -0.250 OA
BRANCH   7   9
ATOM      9  C   UNL A   1      31.778  24.398  25.115  1.00  0.00     0.197 C 
ATOM     10  N   UNL A   1      32.337  25.732  24.755  1.00  0.00    -0.308 N 
ATOM     11  C   UNL A   1      33.133  25.706  23.492  1.00  0.00     0.091 C 
ATOM     12  C   UNL A   1      31.001  23.786  23.937  1.00  0.00     0.038 C 
ATOM     13  C   UNL A   1      32.476  24.938  22.313  1.00  0.00     0.012 C 
ATOM     14  C   UNL A   1      33.545  27.072  22.928  1.00  0.00     0.025 C 
ATOM     15  C   UNL A   1      31.928  23.589  22.750  1.00  0.00     0.008 C 
ATOM     16  C   UNL A   1      31.419  25.741  21.527  1.00  0.00     0.006 C 
ATOM     17  C   UNL A   1      32.359  27.929  22.517  1.00  0.00     0.002 C 
ATOM     18  C   UNL A   1      31.142  27.147  22.040  1.00  0.00     0.000 C 
BRANCH  10  19
ATOM     19  C   UNL A   1      32.886  26.500  25.798  1.00  0.00     0.320 C 
ATOM     20  O   UNL A   1      33.888  26.154  26.423  1.00  0.00    -0.248 OA
BRANCH  19  21
ATOM     21  N   UNL A   1      32.206  27.673  26.134  1.00  0.00    -0.325 N 
ATOM     22  C   UNL A   1      31.351  27.551  27.311  1.00  0.00     0.149 C 
BRANCH  21  23
ATOM     23  C   UNL A   1      32.913  28.979  26.088  1.00  0.00     0.083 C 
ATOM     24  C   UNL A   1      34.220  28.954  25.299  1.00  0.00     0.031 C 
BRANCH  23  25
ATOM     25  C   UNL A   1      33.076  29.574  27.504  1.00  0.00     0.021 C 
ATOM     26  C   UNL A   1      33.708  30.956  27.533  1.00  0.00     0.006 C 
ENDBRANCH  23  25
ENDBRANCH  21  23
ENDBRANCH  19  21
ENDBRANCH  10  19
ENDBRANCH   7   9
ENDBRANCH   6   7
ENDBRANCH   5   6
ENDBRANCH   4   5
ENDBRANCH   3   4
ENDBRANCH   2   3
ENDBRANCH   1   2
BRANCH   1  27
ATOM     27  O   UNL A   1      35.691  21.045  24.693  1.00  0.00    -0.377 OA
BRANCH  27  28
ATOM     28  C   UNL A   1      36.616  21.424  25.713  1.00  0.00     0.188 C 
BRANCH  28  29
ATOM     29  C   UNL A   1      38.006  21.995  25.360  1.00  0.00     0.188 C 
BRANCH  29  30
ATOM     30  O   UNL A   1      39.096  21.286  25.925  1.00  0.00    -0.376 OA
BRANCH  30  31
ATOM     31  C   UNL A   1      39.967  21.960  26.816  1.00  0.00     0.202 C 
BRANCH  31  32
ATOM     32  C   UNL A   1      40.879  23.067  26.263  1.00  0.00     0.261 C 
BRANCH  32  33
ATOM     33  O   UNL A   1      40.411  24.419  26.382  1.00  0.00    -0.460 OA
BRANCH  33  34
ATOM     34  C   UNL A   1      41.276  25.425  26.145  1.00  0.00     0.338 C 
ATOM     35  O   UNL A   1      41.788  25.721  25.074  1.00  0.00    -0.246 OA
BRANCH  34  36
ATOM     36  C   UNL A   1      41.347  26.249  27.368  1.00  0.00     0.060 A 
ATOM     37  C   UNL A   1      40.535  25.926  28.465  1.00  0.00     0.016 A 
ATOM     38  C   UNL A   1      42.216  27.340  27.427  1.00  0.00     0.016 A 
ATOM     39  C   UNL A   1      40.557  26.722  29.609  1.00  0.00     0.010 A 
ATOM     40  C   UNL A   1      42.217  28.152  28.562  1.00  0.00     0.010 A 
ATOM     41  C   UNL A   1      41.358  27.869  29.640  1.00  0.00    -0.014 A 
BRANCH  41  42
ATOM     42  C   UNL A   1      41.131  28.902  30.677  1.00  0.00     0.031 A 
ATOM     43  C   UNL A   1      41.970  28.835  31.925  1.00  0.00     0.074 A 
ATOM     44  C   UNL A   1      40.212  29.872  30.523  1.00  0.00     0.049 A 
ATOM     45  N   UNL A   1      41.876  29.526  33.028  1.00  0.00    -0.248 NA
ATOM     46  C   UNL A   1      43.062  27.845  31.926  1.00  0.00     0.031 C 
ATOM     47  C   UNL A   1      39.383  30.071  29.336  1.00  0.00     0.029 A 
ATOM     48  N   UNL A   1      39.810  30.860  31.387  1.00  0.00    -0.354 N 
ATOM     49  C   UNL A   1      42.890  29.055  33.854  1.00  0.00     0.074 A 
ATOM     50  C   UNL A   1      43.565  27.995  33.141  1.00  0.00     0.031 C 
ATOM     51  C   UNL A   1      38.543  31.097  29.560  1.00  0.00     0.029 A 
ATOM     52  C   UNL A   1      38.747  31.597  30.919  1.00  0.00     0.049 A 
ATOM     53  H   UNL A   1      40.240  31.026  32.256  1.00  0.00     0.167 HD
ATOM     54  C   UNL A   1      43.233  29.477  35.093  1.00  0.00     0.037 A 
ATOM     55  C   UNL A   1      38.001  32.536  31.538  1.00  0.00     0.037 A 
ATOM     56  C   UNL A   1      42.548  30.528  35.798  1.00  0.00     0.049 A 
ATOM     57  C   UNL A   1      38.340  32.928  32.957  1.00  0.00     0.074 A 
ATOM     58  C   UNL A   1      42.801  31.020  37.065  1.00  0.00     0.029 A 
ATOM     59  N   UNL A   1      41.473  31.246  35.295  1.00  0.00    -0.354 N 
ATOM     60  N   UNL A   1      39.297  32.473  33.732  1.00  0.00    -0.248 NA
ATOM     61  C   UNL A   1      37.503  33.960  33.586  1.00  0.00     0.031 C 
ATOM     62  C   UNL A   1      41.848  32.002  37.348  1.00  0.00     0.029 A 
ATOM     63  C   UNL A   1      41.043  32.168  36.231  1.00  0.00     0.049 A 
ATOM     64  H   UNL A   1      41.074  31.117  34.403  1.00  0.00     0.167 HD
ATOM     65  C   UNL A   1      39.201  33.192  34.921  1.00  0.00     0.074 A 
ATOM     66  C   UNL A   1      38.095  34.112  34.763  1.00  0.00     0.031 C 
ATOM     67  C   UNL A   1      39.960  33.101  36.041  1.00  0.00     0.037 A 
BRANCH  54  68
ATOM     68  C   UNL A   1      44.388  28.794  35.771  1.00  0.00     0.058 A 
ATOM     69  C   UNL A   1      44.199  27.672  36.595  1.00  0.00     0.135 A 
ATOM     70  C   UNL A   1      45.704  29.237  35.560  1.00  0.00     0.135 A 
ATOM     71  F   UNL A   1      42.960  27.222  36.850  1.00  0.00    -0.206 F 
ATOM     72  C   UNL A   1      45.272  27.023  37.196  1.00  0.00     0.059 A 
ATOM     73  C   UNL A   1      46.794  28.585  36.127  1.00  0.00     0.059 A 
ATOM     74  F   UNL A   1      45.940  30.310  34.789  1.00  0.00    -0.206 F 
ATOM     75  C   UNL A   1      46.567  27.484  36.951  1.00  0.00     0.060 A 
BRANCH  75  76
ATOM     76  S   UNL A   1      47.948  26.611  37.720  1.00  0.00     0.124 S 
ATOM     77  O   UNL A   1      47.356  26.187  38.985  1.00  0.00    -0.237 OA
ATOM     78  O   UNL A   1      48.217  25.548  36.758  1.00  0.00    -0.237 OA
ATOM     79  O   UNL A   1      48.981  27.636  37.825  1.00  0.00    -0.744 OA
ENDBRANCH  75  76
ENDBRANCH  54  68
BRANCH  55  80
ATOM     80  C   UNL A   1      36.832  33.144  30.842  1.00  0.00     0.058 A 
ATOM     81  C   UNL A   1      36.997  34.000  29.743  1.00  0.00     0.135 A 
ATOM     82  C   UNL A   1      35.521  32.903  31.288  1.00  0.00     0.135 A 
ATOM     83  F   UNL A   1      38.228  34.272  29.284  1.00  0.00    -0.206 F 
ATOM     84  C   UNL A   1      35.911  34.617  29.129  1.00  0.00     0.059 A 
ATOM     85  C   UNL A   1      34.418  33.482  30.670  1.00  0.00     0.059 A 
ATOM     86  F   UNL A   1      35.304  32.084  32.329  1.00  0.00    -0.206 F 
ATOM     87  C   UNL A   1      34.625  34.351  29.601  1.00  0.00     0.060 A 
BRANCH  87  88
ATOM     88  S   UNL A   1      33.221  35.142  28.784  1.00  0.00     0.124 S 
ATOM     89  O   UNL A   1      32.475  35.666  29.922  1.00  0.00    -0.237 OA
ATOM     90  O   UNL A   1      33.879  36.134  27.940  1.00  0.00    -0.237 OA
ATOM     91  O   UNL A   1      32.587  34.040  28.066  1.00  0.00    -0.744 OA
ENDBRANCH  87  88
ENDBRANCH  55  80
BRANCH  67  92
ATOM     92  C   UNL A   1      39.682  34.064  37.164  1.00  0.00     0.058 A 
ATOM     93  C   UNL A   1      38.833  33.738  38.231  1.00  0.00     0.135 A 
ATOM     94  C   UNL A   1      40.362  35.293  37.219  1.00  0.00     0.135 A 
ATOM     95  F   UNL A   1      38.155  32.579  38.228  1.00  0.00    -0.206 F 
ATOM     96  C   UNL A   1      38.659  34.601  39.310  1.00  0.00     0.059 A 
ATOM     97  C   UNL A   1      40.227  36.157  38.300  1.00  0.00     0.059 A 
ATOM     98  F   UNL A   1      41.195  35.649  36.227  1.00  0.00    -0.206 F 
ATOM     99  C   UNL A   1      39.369  35.804  39.339  1.00  0.00     0.060 A 
BRANCH  99 100
ATOM    100  S   UNL A   1      39.189  36.879  40.778  1.00  0.00     0.124 S 
ATOM    101  O   UNL A   1      38.478  36.010  41.709  1.00  0.00    -0.237 OA
ATOM    102  O   UNL A   1      40.577  37.175  41.121  1.00  0.00    -0.237 OA
ATOM    103  O   UNL A   1      38.421  38.010  40.264  1.00  0.00    -0.744 OA
ENDBRANCH  99 100
ENDBRANCH  67  92
ENDBRANCH  41  42
ENDBRANCH  34  36
ENDBRANCH  33  34
ENDBRANCH  32  33
ENDBRANCH  31  32
ENDBRANCH  30  31
ENDBRANCH  29  30
ENDBRANCH  28  29
ENDBRANCH  27  28
ENDBRANCH   1  27
TORSDOF 27
ENDMDL
MODEL 3
REMARK VINA RESULT:      -8.4      4.261      6.835
REMARK SMILES CC[C@@H](C)N(C)C(=O)N1[C@@H](C(=O)OCCOCCOCCOCCOC(=O)c2ccc(-c3c4nc(c(-c5c(F)cc(S(=O)(=O)[O-])cc5F)c5ccc([nH]5)c(-c5c(F)cc(S(=O)(=O)[O-])cc5F)c5nc(c(-c6c(F)cc(S(=O)(=O)[O-])cc6F)c6ccc3[nH]6)C=C5)C=C4)cc2)CC[C@H]2CCCC[C@H]21
REMARK SMILES IDX 18 1 17 2 16 3 15 4 14 5 13 6 11 7 12 8 10 9 9 10 101 11
REMARK SMILES IDX 94 12 96 13 100 14 95 15 97 16 99 17 98 18 7 19 8 20 5 21
REMARK SMILES IDX 6 22 3 23 4 24 2 25 1 26 19 27 20 28 21 29 22 30 23 31 24 32
REMARK SMILES IDX 25 33 26 34 27 35 28 36 29 37 93 38 30 39 92 40 31 41 32 42
REMARK SMILES IDX 33 43 86 44 34 45 91 46 85 47 87 48 35 49 90 50 84 51 83 52
REMARK SMILES IDX 36 54 70 55 49 56 69 57 50 58 53 59 68 60 88 61 51 62 52 63
REMARK SMILES IDX 67 65 89 66 54 67 37 68 38 69 47 70 39 71 40 72 46 73 48 74
REMARK SMILES IDX 41 75 42 76 43 77 44 78 45 79 71 80 72 81 81 82 73 83 74 84
REMARK SMILES IDX 80 85 82 86 75 87 76 88 77 89 78 90 79 91 55 92 56 93 65 94
REMARK SMILES IDX 57 95 58 96 64 97 66 98 59 99 60 100 61 101 62 102 63 103
REMARK H PARENT 87 53 53 64
REMARK Flexibility Score: inf
ROOT
ATOM      1  C   UNL A   1      41.133  25.890  27.179  1.00  0.00     0.188 C 
ENDROOT
BRANCH   1   2
ATOM      2  C   UNL A   1      40.153  24.921  27.841  1.00  0.00     0.188 C 
BRANCH   2   3
ATOM      3  O   UNL A   1      38.922  24.809  27.171  1.00  0.00    -0.376 OA
BRANCH   3   4
ATOM      4  C   UNL A   1      38.640  23.806  26.221  1.00  0.00     0.202 C 
BRANCH   4   5
ATOM      5  C   UNL A   1      37.271  23.321  25.688  1.00  0.00     0.261 C 
BRANCH   5   6
ATOM      6  O   UNL A   1      37.036  22.963  24.329  1.00  0.00    -0.462 OA
BRANCH   6   7
ATOM      7  C   UNL A   1      35.802  23.230  23.856  1.00  0.00     0.329 C 
ATOM      8  O   UNL A   1      35.477  23.078  22.681  1.00  0.00    -0.250 OA
BRANCH   7   9
ATOM      9  C   UNL A   1      34.828  23.782  24.910  1.00  0.00     0.197 C 
ATOM     10  N   UNL A   1      33.683  22.951  25.379  1.00  0.00    -0.308 N 
ATOM     11  C   UNL A   1      32.938  23.576  26.511  1.00  0.00     0.091 C 
ATOM     12  C   UNL A   1      34.380  25.220  24.602  1.00  0.00     0.038 C 
ATOM     13  C   UNL A   1      32.617  25.085  26.338  1.00  0.00     0.012 C 
ATOM     14  C   UNL A   1      31.614  22.904  26.898  1.00  0.00     0.025 C 
ATOM     15  C   UNL A   1      33.827  25.871  25.858  1.00  0.00     0.008 C 
ATOM     16  C   UNL A   1      31.376  25.387  25.471  1.00  0.00     0.006 C 
ATOM     17  C   UNL A   1      30.574  22.957  25.792  1.00  0.00     0.002 C 
ATOM     18  C   UNL A   1      30.674  24.174  24.879  1.00  0.00     0.000 C 
BRANCH  10  19
ATOM     19  C   UNL A   1      33.899  21.565  25.491  1.00  0.00     0.320 C 
ATOM     20  O   UNL A   1      34.805  21.086  26.172  1.00  0.00    -0.248 OA
BRANCH  19  21
ATOM     21  N   UNL A   1      33.056  20.739  24.743  1.00  0.00    -0.325 N 
ATOM     22  C   UNL A   1      32.637  21.314  23.468  1.00  0.00     0.149 C 
BRANCH  21  23
ATOM     23  C   UNL A   1      33.346  19.286  24.635  1.00  0.00     0.083 C 
ATOM     24  C   UNL A   1      32.836  18.641  23.350  1.00  0.00     0.031 C 
BRANCH  23  25
ATOM     25  C   UNL A   1      32.895  18.533  25.907  1.00  0.00     0.021 C 
ATOM     26  C   UNL A   1      32.707  17.037  25.713  1.00  0.00     0.006 C 
ENDBRANCH  23  25
ENDBRANCH  21  23
ENDBRANCH  19  21
ENDBRANCH  10  19
ENDBRANCH   7   9
ENDBRANCH   6   7
ENDBRANCH   5   6
ENDBRANCH   4   5
ENDBRANCH   3   4
ENDBRANCH   2   3
ENDBRANCH   1   2
BRANCH   1  27
ATOM     27  O   UNL A   1      41.590  25.523  25.888  1.00  0.00    -0.377 OA
BRANCH  27  28
ATOM     28  C   UNL A   1      42.643  24.567  25.752  1.00  0.00     0.188 C 
BRANCH  28  29
ATOM     29  C   UNL A   1      42.363  23.052  25.846  1.00  0.00     0.188 C 
BRANCH  29  30
ATOM     30  O   UNL A   1      43.007  22.271  24.853  1.00  0.00    -0.376 OA
BRANCH  30  31
ATOM     31  C   UNL A   1      44.125  22.812  24.172  1.00  0.00     0.202 C 
BRANCH  31  32
ATOM     32  C   UNL A   1      45.472  22.078  24.264  1.00  0.00     0.261 C 
BRANCH  32  33
ATOM     33  O   UNL A   1      46.483  22.670  25.097  1.00  0.00    -0.460 OA
BRANCH  33  34
ATOM     34  C   UNL A   1      46.769  23.976  24.935  1.00  0.00     0.338 C 
ATOM     35  O   UNL A   1      47.114  24.534  23.903  1.00  0.00    -0.246 OA
BRANCH  34  36
ATOM     36  C   UNL A   1      46.393  24.672  26.181  1.00  0.00     0.060 A 
ATOM     37  C   UNL A   1      46.734  26.021  26.348  1.00  0.00     0.016 A 
ATOM     38  C   UNL A   1      45.704  23.987  27.185  1.00  0.00     0.016 A 
ATOM     39  C   UNL A   1      46.427  26.679  27.538  1.00  0.00     0.010 A 
ATOM     40  C   UNL A   1      45.423  24.638  28.387  1.00  0.00     0.010 A 
ATOM     41  C   UNL A   1      45.819  25.973  28.583  1.00  0.00    -0.014 A 
BRANCH  41  42
ATOM     42  C   UNL A   1      45.812  26.540  29.951  1.00  0.00     0.031 A 
ATOM     43  C   UNL A   1      46.993  26.245  30.836  1.00  0.00     0.074 A 
ATOM     44  C   UNL A   1      44.794  27.294  30.401  1.00  0.00     0.049 A 
ATOM     45  N   UNL A   1      47.168  26.502  32.103  1.00  0.00    -0.248 NA
ATOM     46  C   UNL A   1      48.131  25.557  30.198  1.00  0.00     0.031 C 
ATOM     47  C   UNL A   1      43.626  27.694  29.618  1.00  0.00     0.029 A 
ATOM     48  N   UNL A   1      44.572  27.840  31.641  1.00  0.00    -0.354 N 
ATOM     49  C   UNL A   1      48.429  26.008  32.417  1.00  0.00     0.074 A 
ATOM     50  C   UNL A   1      48.962  25.403  31.217  1.00  0.00     0.031 C 
ATOM     51  C   UNL A   1      42.791  28.393  30.408  1.00  0.00     0.029 A 
ATOM     52  C   UNL A   1      43.347  28.453  31.759  1.00  0.00     0.049 A 
ATOM     53  H   UNL A   1      45.227  27.798  32.375  1.00  0.00     0.167 HD
ATOM     54  C   UNL A   1      49.088  26.064  33.598  1.00  0.00     0.037 A 
ATOM     55  C   UNL A   1      42.731  28.962  32.847  1.00  0.00     0.037 A 
ATOM     56  C   UNL A   1      48.543  26.661  34.788  1.00  0.00     0.049 A 
ATOM     57  C   UNL A   1      43.443  28.930  34.179  1.00  0.00     0.074 A 
ATOM     58  C   UNL A   1      49.117  26.753  36.043  1.00  0.00     0.029 A 
ATOM     59  N   UNL A   1      47.297  27.264  34.871  1.00  0.00    -0.354 N 
ATOM     60  N   UNL A   1      44.633  28.455  34.467  1.00  0.00    -0.248 NA
ATOM     61  C   UNL A   1      42.734  29.503  35.332  1.00  0.00     0.031 C 
ATOM     62  C   UNL A   1      48.199  27.369  36.896  1.00  0.00     0.029 A 
ATOM     63  C   UNL A   1      47.079  27.720  36.158  1.00  0.00     0.049 A 
ATOM     64  H   UNL A   1      46.662  27.354  34.123  1.00  0.00     0.167 HD
ATOM     65  C   UNL A   1      44.829  28.710  35.822  1.00  0.00     0.074 A 
ATOM     66  C   UNL A   1      43.637  29.382  36.296  1.00  0.00     0.031 C 
ATOM     67  C   UNL A   1      45.898  28.419  36.602  1.00  0.00     0.037 A 
BRANCH  54  68
ATOM     68  C   UNL A   1      50.459  25.452  33.665  1.00  0.00     0.058 A 
ATOM     69  C   UNL A   1      51.615  26.206  33.406  1.00  0.00     0.135 A 
ATOM     70  C   UNL A   1      50.624  24.108  34.039  1.00  0.00     0.135 A 
ATOM     71  F   UNL A   1      51.514  27.488  33.022  1.00  0.00    -0.206 F 
ATOM     72  C   UNL A   1      52.884  25.645  33.500  1.00  0.00     0.059 A 
ATOM     73  C   UNL A   1      51.885  23.535  34.167  1.00  0.00     0.059 A 
ATOM     74  F   UNL A   1      49.552  23.340  34.289  1.00  0.00    -0.206 F 
ATOM     75  C   UNL A   1      53.009  24.309  33.887  1.00  0.00     0.060 A 
BRANCH  75  76
ATOM     76  S   UNL A   1      54.666  23.607  34.028  1.00  0.00     0.124 S 
ATOM     77  O   UNL A   1      54.634  22.575  32.996  1.00  0.00    -0.237 OA
ATOM     78  O   UNL A   1      55.515  24.759  33.745  1.00  0.00    -0.237 OA
ATOM     79  O   UNL A   1      54.712  23.118  35.402  1.00  0.00    -0.744 OA
ENDBRANCH  75  76
ENDBRANCH  54  68
BRANCH  55  80
ATOM     80  C   UNL A   1      41.348  29.507  32.739  1.00  0.00     0.058 A 
ATOM     81  C   UNL A   1      41.114  30.845  32.389  1.00  0.00     0.135 A 
ATOM     82  C   UNL A   1      40.231  28.703  33.018  1.00  0.00     0.135 A 
ATOM     83  F   UNL A   1      42.146  31.660  32.124  1.00  0.00    -0.206 F 
ATOM     84  C   UNL A   1      39.827  31.374  32.347  1.00  0.00     0.059 A 
ATOM     85  C   UNL A   1      38.933  29.199  32.950  1.00  0.00     0.059 A 
ATOM     86  F   UNL A   1      40.396  27.412  33.348  1.00  0.00    -0.206 F 
ATOM     87  C   UNL A   1      38.743  30.542  32.630  1.00  0.00     0.060 A 
BRANCH  87  88
ATOM     88  S   UNL A   1      37.076  31.233  32.553  1.00  0.00     0.124 S 
ATOM     89  O   UNL A   1      37.249  32.309  31.584  1.00  0.00    -0.237 OA
ATOM     90  O   UNL A   1      36.291  30.088  32.103  1.00  0.00    -0.237 OA
ATOM     91  O   UNL A   1      36.824  31.655  33.928  1.00  0.00    -0.744 OA
ENDBRANCH  87  88
ENDBRANCH  55  80
BRANCH  67  92
ATOM     92  C   UNL A   1      45.877  28.882  38.034  1.00  0.00     0.058 A 
ATOM     93  C   UNL A   1      45.408  28.066  39.074  1.00  0.00     0.135 A 
ATOM     94  C   UNL A   1      46.431  30.127  38.377  1.00  0.00     0.135 A 
ATOM     95  F   UNL A   1      44.864  26.870  38.803  1.00  0.00    -0.206 F 
ATOM     96  C   UNL A   1      45.481  28.472  40.404  1.00  0.00     0.059 A 
ATOM     97  C   UNL A   1      46.543  30.540  39.700  1.00  0.00     0.059 A 
ATOM     98  F   UNL A   1      46.904  30.943  37.420  1.00  0.00    -0.206 F 
ATOM     99  C   UNL A   1      46.061  29.707  40.706  1.00  0.00     0.060 A 
BRANCH  99 100
ATOM    100  S   UNL A   1      46.214  30.188  42.440  1.00  0.00     0.124 S 
ATOM    101  O   UNL A   1      46.924  31.457  42.333  1.00  0.00    -0.237 OA
ATOM    102  O   UNL A   1      44.818  30.275  42.862  1.00  0.00    -0.237 OA
ATOM    103  O   UNL A   1      46.974  29.091  43.033  1.00  0.00    -0.744 OA
ENDBRANCH  99 100
ENDBRANCH  67  92
ENDBRANCH  41  42
ENDBRANCH  34  36
ENDBRANCH  33  34
ENDBRANCH  32  33
ENDBRANCH  31  32
ENDBRANCH  30  31
ENDBRANCH  29  30
ENDBRANCH  28  29
ENDBRANCH  27  28
ENDBRANCH   1  27
TORSDOF 27
ENDMDL
