MODEL 1
REMARK VINA RESULT:     -10.3      0.000      0.000
REMARK SMILES CC1=Nc2ncnn2[C@H](c2ccc(F)cc2)[C@@H]1C(=O)OCCOCCOCCOCCOC(=O)c1ccc(-c2c3nc(c(-c4c(F)cc(S(=O)(=O)[O-])cc4F)c4ccc([nH]4)c(-c4c(F)cc(S(=O)(=O)[O-])cc4F)c4nc(c(-c5c(F)cc(S(=O)(=O)[O-])cc5F)c5ccc2[nH]5)C=C4)C=C3)cc1
REMARK SMILES IDX 27 1 26 2 25 3 24 4 23 5 22 6 21 7 20 8 18 9 19 10 17 11
REMARK SMILES IDX 1 12 2 13 3 14 4 15 9 16 5 17 8 18 6 19 7 20 10 21 11 22
REMARK SMILES IDX 16 23 12 24 15 25 13 26 14 27 28 28 29 29 30 30 31 31 32 32
REMARK SMILES IDX 33 33 34 34 35 35 36 36 100 37 37 38 99 39 38 40 39 41 40 42
REMARK SMILES IDX 93 43 41 44 98 45 92 46 94 47 42 48 97 49 91 50 90 51 43 53
REMARK SMILES IDX 77 54 56 55 76 56 57 57 60 58 75 59 95 60 58 61 59 62 74 64
REMARK SMILES IDX 96 65 61 66 44 67 45 68 54 69 46 70 47 71 53 72 55 73 48 74
REMARK SMILES IDX 49 75 50 76 51 77 52 78 78 79 79 80 88 81 80 82 81 83 87 84
REMARK SMILES IDX 89 85 82 86 83 87 84 88 85 89 86 90 62 91 63 92 72 93 64 94
REMARK SMILES IDX 65 95 71 96 73 97 66 98 67 99 68 100 69 101 70 102
REMARK H PARENT 94 52 60 63
REMARK Flexibility Score: inf
ROOT
ATOM      1  C   UNL A   1      35.645  33.965  28.690  1.00  0.00     0.188 C 
ENDROOT
BRANCH   1   2
ATOM      2  O   UNL A   1      35.376  33.209  27.510  1.00  0.00    -0.377 OA
BRANCH   2   3
ATOM      3  C   UNL A   1      34.944  31.886  27.771  1.00  0.00     0.188 C 
BRANCH   3   4
ATOM      4  C   UNL A   1      33.422  31.663  27.624  1.00  0.00     0.188 C 
BRANCH   4   5
ATOM      5  O   UNL A   1      32.865  30.508  27.005  1.00  0.00    -0.376 OA
BRANCH   5   6
ATOM      6  C   UNL A   1      33.367  29.210  27.286  1.00  0.00     0.202 C 
BRANCH   6   7
ATOM      7  C   UNL A   1      32.404  28.024  27.272  1.00  0.00     0.261 C 
BRANCH   7   8
ATOM      8  O   UNL A   1      32.945  26.858  26.646  1.00  0.00    -0.463 OA
BRANCH   8   9
ATOM      9  C   UNL A   1      32.470  26.540  25.415  1.00  0.00     0.317 C 
ATOM     10  O   UNL A   1      31.308  26.282  25.143  1.00  0.00    -0.251 OA
BRANCH   9  11
ATOM     11  C   UNL A   1      33.600  26.563  24.415  1.00  0.00     0.173 C 
ATOM     12  C   UNL A   1      33.142  28.981  23.576  1.00  0.00     0.063 C 
ATOM     13  C   UNL A   1      33.264  27.503  23.265  1.00  0.00     0.036 C 
ATOM     14  N   UNL A   1      33.051  27.136  22.042  1.00  0.00    -0.220 NA
ATOM     15  C   UNL A   1      33.145  25.825  21.732  1.00  0.00     0.248 A 
ATOM     16  C   UNL A   1      34.044  25.164  23.955  1.00  0.00     0.161 C 
ATOM     17  N   UNL A   1      32.978  25.246  20.563  1.00  0.00    -0.198 NA
ATOM     18  N   UNL A   1      33.527  24.857  22.631  1.00  0.00    -0.221 N 
ATOM     19  C   UNL A   1      33.340  23.950  20.784  1.00  0.00     0.248 A 
ATOM     20  N   UNL A   1      33.710  23.664  22.033  1.00  0.00    -0.157 NA
BRANCH  16  21
ATOM     21  C   UNL A   1      33.842  24.025  24.956  1.00  0.00    -0.022 A 
ATOM     22  C   UNL A   1      32.736  23.163  24.818  1.00  0.00     0.009 A 
ATOM     23  C   UNL A   1      34.773  23.756  25.981  1.00  0.00     0.009 A 
ATOM     24  C   UNL A   1      32.603  22.037  25.635  1.00  0.00     0.039 A 
ATOM     25  C   UNL A   1      34.658  22.606  26.765  1.00  0.00     0.039 A 
ATOM     26  C   UNL A   1      33.578  21.755  26.582  1.00  0.00     0.123 A 
ATOM     27  F   UNL A   1      33.478  20.647  27.327  1.00  0.00    -0.207 F 
ENDBRANCH  16  21
ENDBRANCH   9  11
ENDBRANCH   8   9
ENDBRANCH   7   8
ENDBRANCH   6   7
ENDBRANCH   5   6
ENDBRANCH   4   5
ENDBRANCH   3   4
ENDBRANCH   2   3
ENDBRANCH   1   2
BRANCH   1  28
ATOM     28  C   UNL A   1      34.452  34.738  29.302  1.00  0.00     0.188 C 
BRANCH  28  29
ATOM     29  O   UNL A   1      33.797  34.044  30.368  1.00  0.00    -0.376 OA
BRANCH  29  30
ATOM     30  C   UNL A   1      34.275  34.245  31.694  1.00  0.00     0.202 C 
BRANCH  30  31
ATOM     31  C   UNL A   1      34.741  32.949  32.363  1.00  0.00     0.261 C 
BRANCH  31  32
ATOM     32  O   UNL A   1      35.084  31.943  31.420  1.00  0.00    -0.460 OA
BRANCH  32  33
ATOM     33  C   UNL A   1      36.120  31.159  31.788  1.00  0.00     0.338 C 
ATOM     34  O   UNL A   1      36.410  30.808  32.915  1.00  0.00    -0.246 OA
BRANCH  33  35
ATOM     35  C   UNL A   1      36.898  30.803  30.598  1.00  0.00     0.060 A 
ATOM     36  C   UNL A   1      36.979  29.437  30.337  1.00  0.00     0.016 A 
ATOM     37  C   UNL A   1      37.810  31.738  30.086  1.00  0.00     0.016 A 
ATOM     38  C   UNL A   1      38.187  28.961  29.907  1.00  0.00     0.010 A 
ATOM     39  C   UNL A   1      39.020  31.262  29.666  1.00  0.00     0.010 A 
ATOM     40  C   UNL A   1      39.219  29.886  29.733  1.00  0.00    -0.014 A 
BRANCH  40  41
ATOM     41  C   UNL A   1      40.562  29.374  29.835  1.00  0.00     0.031 A 
ATOM     42  C   UNL A   1      41.035  29.187  31.209  1.00  0.00     0.074 A 
ATOM     43  C   UNL A   1      41.253  29.039  28.730  1.00  0.00     0.049 A 
ATOM     44  N   UNL A   1      41.956  29.840  31.829  1.00  0.00    -0.248 NA
ATOM     45  C   UNL A   1      40.271  28.252  32.045  1.00  0.00     0.031 C 
ATOM     46  C   UNL A   1      40.745  28.888  27.360  1.00  0.00     0.029 A 
ATOM     47  N   UNL A   1      42.547  28.646  28.627  1.00  0.00    -0.354 N 
ATOM     48  C   UNL A   1      42.035  29.243  33.078  1.00  0.00     0.074 A 
ATOM     49  C   UNL A   1      40.854  28.433  33.228  1.00  0.00     0.031 C 
ATOM     50  C   UNL A   1      41.662  28.224  26.624  1.00  0.00     0.029 A 
ATOM     51  C   UNL A   1      42.851  28.015  27.432  1.00  0.00     0.049 A 
ATOM     52  H   UNL A   1      43.210  28.795  29.339  1.00  0.00     0.167 HD
ATOM     53  C   UNL A   1      43.190  29.237  33.791  1.00  0.00     0.037 A 
ATOM     54  C   UNL A   1      43.962  27.280  27.188  1.00  0.00     0.037 A 
ATOM     55  C   UNL A   1      44.128  30.213  33.306  1.00  0.00     0.049 A 
ATOM     56  C   UNL A   1      44.980  27.659  28.206  1.00  0.00     0.074 A 
ATOM     57  C   UNL A   1      44.126  31.589  33.198  1.00  0.00     0.029 A 
ATOM     58  N   UNL A   1      45.153  29.765  32.509  1.00  0.00    -0.354 N 
ATOM     59  N   UNL A   1      45.550  28.832  28.281  1.00  0.00    -0.248 NA
ATOM     60  C   UNL A   1      45.089  26.847  29.411  1.00  0.00     0.031 C 
ATOM     61  C   UNL A   1      44.898  31.883  32.039  1.00  0.00     0.029 A 
ATOM     62  C   UNL A   1      45.340  30.674  31.497  1.00  0.00     0.049 A 
ATOM     63  H   UNL A   1      45.667  28.935  32.640  1.00  0.00     0.167 HD
ATOM     64  C   UNL A   1      45.737  29.060  29.637  1.00  0.00     0.074 A 
ATOM     65  C   UNL A   1      45.554  27.759  30.267  1.00  0.00     0.031 C 
ATOM     66  C   UNL A   1      45.745  30.327  30.149  1.00  0.00     0.037 A 
BRANCH  53  67
ATOM     67  C   UNL A   1      43.584  28.096  34.688  1.00  0.00     0.058 A 
ATOM     68  C   UNL A   1      44.030  26.843  34.208  1.00  0.00     0.135 A 
ATOM     69  C   UNL A   1      43.773  28.329  36.062  1.00  0.00     0.135 A 
ATOM     70  F   UNL A   1      44.033  26.534  32.905  1.00  0.00    -0.206 F 
ATOM     71  C   UNL A   1      44.598  25.882  35.028  1.00  0.00     0.059 A 
ATOM     72  C   UNL A   1      44.407  27.404  36.891  1.00  0.00     0.059 A 
ATOM     73  F   UNL A   1      43.410  29.501  36.610  1.00  0.00    -0.206 F 
ATOM     74  C   UNL A   1      44.819  26.185  36.361  1.00  0.00     0.060 A 
BRANCH  74  75
ATOM     75  S   UNL A   1      45.791  25.019  37.326  1.00  0.00     0.124 S 
ATOM     76  O   UNL A   1      46.099  24.001  36.327  1.00  0.00    -0.237 OA
ATOM     77  O   UNL A   1      46.913  25.846  37.759  1.00  0.00    -0.237 OA
ATOM     78  O   UNL A   1      44.871  24.613  38.383  1.00  0.00    -0.744 OA
ENDBRANCH  74  75
ENDBRANCH  53  67
BRANCH  54  79
ATOM     79  C   UNL A   1      44.046  26.041  26.374  1.00  0.00     0.058 A 
ATOM     80  C   UNL A   1      43.229  24.922  26.639  1.00  0.00     0.135 A 
ATOM     81  C   UNL A   1      45.107  25.834  25.476  1.00  0.00     0.135 A 
ATOM     82  F   UNL A   1      42.234  24.979  27.537  1.00  0.00    -0.206 F 
ATOM     83  C   UNL A   1      43.456  23.675  26.066  1.00  0.00     0.059 A 
ATOM     84  C   UNL A   1      45.367  24.585  24.901  1.00  0.00     0.059 A 
ATOM     85  F   UNL A   1      45.953  26.836  25.191  1.00  0.00    -0.206 F 
ATOM     86  C   UNL A   1      44.544  23.506  25.219  1.00  0.00     0.060 A 
BRANCH  86  87
ATOM     87  S   UNL A   1      44.899  21.836  24.634  1.00  0.00     0.124 S 
ATOM     88  O   UNL A   1      44.112  21.024  25.558  1.00  0.00    -0.237 OA
ATOM     89  O   UNL A   1      44.402  21.886  23.261  1.00  0.00    -0.237 OA
ATOM     90  O   UNL A   1      46.346  21.724  24.774  1.00  0.00    -0.744 OA
ENDBRANCH  86  87
ENDBRANCH  54  79
BRANCH  66  91
ATOM     91  C   UNL A   1      45.921  31.473  29.186  1.00  0.00     0.058 A 
ATOM     92  C   UNL A   1      44.783  32.003  28.560  1.00  0.00     0.135 A 
ATOM     93  C   UNL A   1      47.174  31.938  28.748  1.00  0.00     0.135 A 
ATOM     94  F   UNL A   1      43.561  31.558  28.896  1.00  0.00    -0.206 F 
ATOM     95  C   UNL A   1      44.878  32.944  27.538  1.00  0.00     0.059 A 
ATOM     96  C   UNL A   1      47.292  32.905  27.748  1.00  0.00     0.059 A 
ATOM     97  F   UNL A   1      48.308  31.410  29.230  1.00  0.00    -0.206 F 
ATOM     98  C   UNL A   1      46.137  33.386  27.135  1.00  0.00     0.060 A 
BRANCH  98  99
ATOM     99  S   UNL A   1      46.238  34.567  25.772  1.00  0.00     0.124 S 
ATOM    100  O   UNL A   1      45.258  34.027  24.834  1.00  0.00    -0.237 OA
ATOM    101  O   UNL A   1      45.867  35.824  26.415  1.00  0.00    -0.237 OA
ATOM    102  O   UNL A   1      47.630  34.479  25.338  1.00  0.00    -0.744 OA
ENDBRANCH  98  99
ENDBRANCH  66  91
ENDBRANCH  40  41
ENDBRANCH  33  35
ENDBRANCH  32  33
ENDBRANCH  31  32
ENDBRANCH  30  31
ENDBRANCH  29  30
ENDBRANCH  28  29
ENDBRANCH   1  28
TORSDOF 24
ENDMDL
MODEL 2
REMARK VINA RESULT:     -10.2      2.971      9.730
REMARK SMILES CC1=Nc2ncnn2[C@H](c2ccc(F)cc2)[C@@H]1C(=O)OCCOCCOCCOCCOC(=O)c1ccc(-c2c3nc(c(-c4c(F)cc(S(=O)(=O)[O-])cc4F)c4ccc([nH]4)c(-c4c(F)cc(S(=O)(=O)[O-])cc4F)c4nc(c(-c5c(F)cc(S(=O)(=O)[O-])cc5F)c5ccc2[nH]5)C=C4)C=C3)cc1
REMARK SMILES IDX 27 1 26 2 25 3 24 4 23 5 22 6 21 7 20 8 18 9 19 10 17 11
REMARK SMILES IDX 1 12 2 13 3 14 4 15 9 16 5 17 8 18 6 19 7 20 10 21 11 22
REMARK SMILES IDX 16 23 12 24 15 25 13 26 14 27 28 28 29 29 30 30 31 31 32 32
REMARK SMILES IDX 33 33 34 34 35 35 36 36 100 37 37 38 99 39 38 40 39 41 40 42
REMARK SMILES IDX 93 43 41 44 98 45 92 46 94 47 42 48 97 49 91 50 90 51 43 53
REMARK SMILES IDX 77 54 56 55 76 56 57 57 60 58 75 59 95 60 58 61 59 62 74 64
REMARK SMILES IDX 96 65 61 66 44 67 45 68 54 69 46 70 47 71 53 72 55 73 48 74
REMARK SMILES IDX 49 75 50 76 51 77 52 78 78 79 79 80 88 81 80 82 81 83 87 84
REMARK SMILES IDX 89 85 82 86 83 87 84 88 85 89 86 90 62 91 63 92 72 93 64 94
REMARK SMILES IDX 65 95 71 96 73 97 66 98 67 99 68 100 69 101 70 102
REMARK H PARENT 94 52 60 63
REMARK Flexibility Score: inf
ROOT
ATOM      1  C   UNL A   1      37.801  23.155  25.604  1.00  0.00     0.188 C 
ENDROOT
BRANCH   1   2
ATOM      2  O   UNL A   1      36.544  23.344  24.956  1.00  0.00    -0.377 OA
BRANCH   2   3
ATOM      3  C   UNL A   1      36.027  22.165  24.365  1.00  0.00     0.188 C 
BRANCH   3   4
ATOM      4  C   UNL A   1      34.522  22.221  24.023  1.00  0.00     0.188 C 
BRANCH   4   5
ATOM      5  O   UNL A   1      34.026  22.748  22.796  1.00  0.00    -0.376 OA
BRANCH   5   6
ATOM      6  C   UNL A   1      33.404  24.022  22.742  1.00  0.00     0.202 C 
BRANCH   6   7
ATOM      7  C   UNL A   1      34.149  25.235  23.298  1.00  0.00     0.261 C 
BRANCH   7   8
ATOM      8  O   UNL A   1      33.289  26.205  23.902  1.00  0.00    -0.463 OA
BRANCH   8   9
ATOM      9  C   UNL A   1      32.868  25.956  25.168  1.00  0.00     0.317 C 
ATOM     10  O   UNL A   1      33.546  25.479  26.065  1.00  0.00    -0.251 OA
BRANCH   9  11
ATOM     11  C   UNL A   1      31.424  26.370  25.313  1.00  0.00     0.173 C 
ATOM     12  C   UNL A   1      30.435  24.191  24.295  1.00  0.00     0.063 C 
ATOM     13  C   UNL A   1      30.575  25.700  24.242  1.00  0.00     0.036 C 
ATOM     14  N   UNL A   1      29.979  26.315  23.270  1.00  0.00    -0.220 NA
ATOM     15  C   UNL A   1      30.090  27.659  23.190  1.00  0.00     0.248 A 
ATOM     16  C   UNL A   1      31.226  27.893  25.390  1.00  0.00     0.161 C 
ATOM     17  N   UNL A   1      29.563  28.472  22.299  1.00  0.00    -0.198 NA
ATOM     18  N   UNL A   1      30.743  28.425  24.125  1.00  0.00    -0.221 N 
ATOM     19  C   UNL A   1      29.859  29.715  22.775  1.00  0.00     0.248 A 
ATOM     20  N   UNL A   1      30.561  29.742  23.908  1.00  0.00    -0.157 NA
BRANCH  16  21
ATOM     21  C   UNL A   1      32.387  28.700  25.976  1.00  0.00    -0.022 A 
ATOM     22  C   UNL A   1      32.190  29.453  27.149  1.00  0.00     0.009 A 
ATOM     23  C   UNL A   1      33.681  28.657  25.419  1.00  0.00     0.009 A 
ATOM     24  C   UNL A   1      33.265  30.089  27.778  1.00  0.00     0.039 A 
ATOM     25  C   UNL A   1      34.759  29.257  26.073  1.00  0.00     0.039 A 
ATOM     26  C   UNL A   1      34.543  29.962  27.248  1.00  0.00     0.123 A 
ATOM     27  F   UNL A   1      35.581  30.525  27.880  1.00  0.00    -0.207 F 
ENDBRANCH  16  21
ENDBRANCH   9  11
ENDBRANCH   8   9
ENDBRANCH   7   8
ENDBRANCH   6   7
ENDBRANCH   5   6
ENDBRANCH   4   5
ENDBRANCH   3   4
ENDBRANCH   2   3
ENDBRANCH   1   2
BRANCH   1  28
ATOM     28  C   UNL A   1      38.323  21.700  25.685  1.00  0.00     0.188 C 
BRANCH  28  29
ATOM     29  O   UNL A   1      39.433  21.531  26.572  1.00  0.00    -0.376 OA
BRANCH  29  30
ATOM     30  C   UNL A   1      40.458  20.616  26.197  1.00  0.00     0.202 C 
BRANCH  30  31
ATOM     31  C   UNL A   1      41.832  21.279  26.068  1.00  0.00     0.261 C 
BRANCH  31  32
ATOM     32  O   UNL A   1      41.749  22.619  25.602  1.00  0.00    -0.460 OA
BRANCH  32  33
ATOM     33  C   UNL A   1      42.195  23.546  26.475  1.00  0.00     0.338 C 
ATOM     34  O   UNL A   1      43.290  23.591  27.000  1.00  0.00    -0.246 OA
BRANCH  33  35
ATOM     35  C   UNL A   1      41.123  24.509  26.740  1.00  0.00     0.060 A 
ATOM     36  C   UNL A   1      41.153  25.654  25.945  1.00  0.00     0.016 A 
ATOM     37  C   UNL A   1      40.450  24.446  27.969  1.00  0.00     0.016 A 
ATOM     38  C   UNL A   1      40.859  26.840  26.559  1.00  0.00     0.010 A 
ATOM     39  C   UNL A   1      40.166  25.632  28.586  1.00  0.00     0.010 A 
ATOM     40  C   UNL A   1      40.521  26.798  27.915  1.00  0.00    -0.014 A 
BRANCH  40  41
ATOM     41  C   UNL A   1      40.759  28.001  28.672  1.00  0.00     0.031 A 
ATOM     42  C   UNL A   1      41.921  28.774  28.228  1.00  0.00     0.074 A 
ATOM     43  C   UNL A   1      39.909  28.375  29.645  1.00  0.00     0.049 A 
ATOM     44  N   UNL A   1      43.033  28.966  28.850  1.00  0.00    -0.248 NA
ATOM     45  C   UNL A   1      41.894  29.266  26.845  1.00  0.00     0.031 C 
ATOM     46  C   UNL A   1      38.569  27.844  29.927  1.00  0.00     0.029 A 
ATOM     47  N   UNL A   1      40.025  29.406  30.520  1.00  0.00    -0.354 N 
ATOM     48  C   UNL A   1      43.768  29.795  28.016  1.00  0.00     0.074 A 
ATOM     49  C   UNL A   1      43.120  29.771  26.730  1.00  0.00     0.031 C 
ATOM     50  C   UNL A   1      37.922  28.699  30.747  1.00  0.00     0.029 A 
ATOM     51  C   UNL A   1      38.836  29.761  31.134  1.00  0.00     0.049 A 
ATOM     52  H   UNL A   1      40.879  29.860  30.702  1.00  0.00     0.167 HD
ATOM     53  C   UNL A   1      44.695  30.656  28.507  1.00  0.00     0.037 A 
ATOM     54  C   UNL A   1      38.610  30.911  31.811  1.00  0.00     0.037 A 
ATOM     55  C   UNL A   1      45.081  30.324  29.852  1.00  0.00     0.049 A 
ATOM     56  C   UNL A   1      39.936  31.474  32.189  1.00  0.00     0.074 A 
ATOM     57  C   UNL A   1      45.683  29.234  30.446  1.00  0.00     0.029 A 
ATOM     58  N   UNL A   1      44.526  31.061  30.869  1.00  0.00    -0.354 N 
ATOM     59  N   UNL A   1      40.759  30.920  33.038  1.00  0.00    -0.248 NA
ATOM     60  C   UNL A   1      40.535  32.475  31.316  1.00  0.00     0.031 C 
ATOM     61  C   UNL A   1      45.130  29.157  31.755  1.00  0.00     0.029 A 
ATOM     62  C   UNL A   1      44.221  30.208  31.901  1.00  0.00     0.049 A 
ATOM     63  H   UNL A   1      44.373  32.033  30.862  1.00  0.00     0.167 HD
ATOM     64  C   UNL A   1      42.029  31.203  32.551  1.00  0.00     0.074 A 
ATOM     65  C   UNL A   1      41.829  32.263  31.571  1.00  0.00     0.031 C 
ATOM     66  C   UNL A   1      43.080  30.363  32.782  1.00  0.00     0.037 A 
BRANCH  53  67
ATOM     67  C   UNL A   1      44.970  31.996  27.882  1.00  0.00     0.058 A 
ATOM     68  C   UNL A   1      44.176  33.143  28.116  1.00  0.00     0.135 A 
ATOM     69  C   UNL A   1      46.199  32.221  27.238  1.00  0.00     0.135 A 
ATOM     70  F   UNL A   1      43.046  33.100  28.832  1.00  0.00    -0.206 F 
ATOM     71  C   UNL A   1      44.558  34.415  27.721  1.00  0.00     0.059 A 
ATOM     72  C   UNL A   1      46.634  33.502  26.895  1.00  0.00     0.059 A 
ATOM     73  F   UNL A   1      47.038  31.201  26.996  1.00  0.00    -0.206 F 
ATOM     74  C   UNL A   1      45.805  34.591  27.146  1.00  0.00     0.060 A 
BRANCH  74  75
ATOM     75  S   UNL A   1      46.368  36.281  26.888  1.00  0.00     0.124 S 
ATOM     76  O   UNL A   1      47.060  36.164  25.609  1.00  0.00    -0.237 OA
ATOM     77  O   UNL A   1      45.109  37.019  26.866  1.00  0.00    -0.237 OA
ATOM     78  O   UNL A   1      47.217  36.530  28.048  1.00  0.00    -0.744 OA
ENDBRANCH  74  75
ENDBRANCH  53  67
BRANCH  54  79
ATOM     79  C   UNL A   1      37.355  31.706  31.820  1.00  0.00     0.058 A 
ATOM     80  C   UNL A   1      36.919  32.417  30.682  1.00  0.00     0.135 A 
ATOM     81  C   UNL A   1      36.686  31.992  33.022  1.00  0.00     0.135 A 
ATOM     82  F   UNL A   1      37.533  32.284  29.497  1.00  0.00    -0.206 F 
ATOM     83  C   UNL A   1      35.899  33.360  30.733  1.00  0.00     0.059 A 
ATOM     84  C   UNL A   1      35.669  32.949  33.102  1.00  0.00     0.059 A 
ATOM     85  F   UNL A   1      37.057  31.384  34.160  1.00  0.00    -0.206 F 
ATOM     86  C   UNL A   1      35.296  33.642  31.953  1.00  0.00     0.060 A 
BRANCH  86  87
ATOM     87  S   UNL A   1      34.097  34.990  32.003  1.00  0.00     0.124 S 
ATOM     88  O   UNL A   1      34.817  36.000  32.774  1.00  0.00    -0.237 OA
ATOM     89  O   UNL A   1      33.921  35.290  30.584  1.00  0.00    -0.237 OA
ATOM     90  O   UNL A   1      32.943  34.397  32.667  1.00  0.00    -0.744 OA
ENDBRANCH  86  87
ENDBRANCH  54  79
BRANCH  66  91
ATOM     91  C   UNL A   1      42.931  29.333  33.872  1.00  0.00     0.058 A 
ATOM     92  C   UNL A   1      42.367  28.090  33.548  1.00  0.00     0.135 A 
ATOM     93  C   UNL A   1      43.169  29.598  35.233  1.00  0.00     0.135 A 
ATOM     94  F   UNL A   1      42.064  27.801  32.272  1.00  0.00    -0.206 F 
ATOM     95  C   UNL A   1      42.042  27.153  34.525  1.00  0.00     0.059 A 
ATOM     96  C   UNL A   1      42.882  28.660  36.227  1.00  0.00     0.059 A 
ATOM     97  F   UNL A   1      43.616  30.797  35.630  1.00  0.00    -0.206 F 
ATOM     98  C   UNL A   1      42.298  27.448  35.864  1.00  0.00     0.060 A 
BRANCH  98  99
ATOM     99  S   UNL A   1      41.820  26.240  37.117  1.00  0.00     0.124 S 
ATOM    100  O   UNL A   1      41.868  24.990  36.364  1.00  0.00    -0.237 OA
ATOM    101  O   UNL A   1      42.860  26.405  38.129  1.00  0.00    -0.237 OA
ATOM    102  O   UNL A   1      40.485  26.671  37.524  1.00  0.00    -0.744 OA
ENDBRANCH  98  99
ENDBRANCH  66  91
ENDBRANCH  40  41
ENDBRANCH  33  35
ENDBRANCH  32  33
ENDBRANCH  31  32
ENDBRANCH  30  31
ENDBRANCH  29  30
ENDBRANCH  28  29
ENDBRANCH   1  28
TORSDOF 24
ENDMDL
MODEL 3
REMARK VINA RESULT:      -9.7      2.320      3.453
REMARK SMILES CC1=Nc2ncnn2[C@H](c2ccc(F)cc2)[C@@H]1C(=O)OCCOCCOCCOCCOC(=O)c1ccc(-c2c3nc(c(-c4c(F)cc(S(=O)(=O)[O-])cc4F)c4ccc([nH]4)c(-c4c(F)cc(S(=O)(=O)[O-])cc4F)c4nc(c(-c5c(F)cc(S(=O)(=O)[O-])cc5F)c5ccc2[nH]5)C=C4)C=C3)cc1
REMARK SMILES IDX 27 1 26 2 25 3 24 4 23 5 22 6 21 7 20 8 18 9 19 10 17 11
REMARK SMILES IDX 1 12 2 13 3 14 4 15 9 16 5 17 8 18 6 19 7 20 10 21 11 22
REMARK SMILES IDX 16 23 12 24 15 25 13 26 14 27 28 28 29 29 30 30 31 31 32 32
REMARK SMILES IDX 33 33 34 34 35 35 36 36 100 37 37 38 99 39 38 40 39 41 40 42
REMARK SMILES IDX 93 43 41 44 98 45 92 46 94 47 42 48 97 49 91 50 90 51 43 53
REMARK SMILES IDX 77 54 56 55 76 56 57 57 60 58 75 59 95 60 58 61 59 62 74 64
REMARK SMILES IDX 96 65 61 66 44 67 45 68 54 69 46 70 47 71 53 72 55 73 48 74
REMARK SMILES IDX 49 75 50 76 51 77 52 78 78 79 79 80 88 81 80 82 81 83 87 84
REMARK SMILES IDX 89 85 82 86 83 87 84 88 85 89 86 90 62 91 63 92 72 93 64 94
REMARK SMILES IDX 65 95 71 96 73 97 66 98 67 99 68 100 69 101 70 102
REMARK H PARENT 94 52 60 63
REMARK Flexibility Score: inf
ROOT
ATOM      1  C   UNL A   1      34.476  31.841  28.046  1.00  0.00     0.188 C 
ENDROOT
BRANCH   1   2
ATOM      2  O   UNL A   1      33.385  31.368  27.256  1.00  0.00    -0.377 OA
BRANCH   2   3
ATOM      3  C   UNL A   1      33.581  30.063  26.744  1.00  0.00     0.188 C 
BRANCH   3   4
ATOM      4  C   UNL A   1      32.372  29.483  25.976  1.00  0.00     0.188 C 
BRANCH   4   5
ATOM      5  O   UNL A   1      32.407  28.222  25.315  1.00  0.00    -0.376 OA
BRANCH   5   6
ATOM      6  C   UNL A   1      32.558  28.136  23.906  1.00  0.00     0.202 C 
BRANCH   6   7
ATOM      7  C   UNL A   1      33.538  27.117  23.327  1.00  0.00     0.261 C 
BRANCH   7   8
ATOM      8  O   UNL A   1      34.037  26.190  24.295  1.00  0.00    -0.463 OA
BRANCH   8   9
ATOM      9  C   UNL A   1      34.246  24.915  23.881  1.00  0.00     0.317 C 
ATOM     10  O   UNL A   1      34.348  24.549  22.720  1.00  0.00    -0.251 OA
BRANCH   9  11
ATOM     11  C   UNL A   1      34.349  24.003  25.079  1.00  0.00     0.173 C 
ATOM     12  C   UNL A   1      36.891  23.525  24.810  1.00  0.00     0.063 C 
ATOM     13  C   UNL A   1      35.472  22.996  24.877  1.00  0.00     0.036 C 
ATOM     14  N   UNL A   1      35.310  21.719  24.732  1.00  0.00    -0.220 NA
ATOM     15  C   UNL A   1      34.058  21.215  24.779  1.00  0.00     0.248 A 
ATOM     16  C   UNL A   1      33.012  23.360  25.481  1.00  0.00     0.161 C 
ATOM     17  N   UNL A   1      33.674  19.962  24.667  1.00  0.00    -0.198 NA
ATOM     18  N   UNL A   1      32.943  21.974  25.044  1.00  0.00    -0.221 N 
ATOM     19  C   UNL A   1      32.340  20.001  24.943  1.00  0.00     0.248 A 
ATOM     20  N   UNL A   1      31.845  21.210  25.206  1.00  0.00    -0.157 NA
BRANCH  16  21
ATOM     21  C   UNL A   1      31.748  24.157  25.147  1.00  0.00    -0.022 A 
ATOM     22  C   UNL A   1      31.197  25.025  26.109  1.00  0.00     0.009 A 
ATOM     23  C   UNL A   1      31.151  24.109  23.871  1.00  0.00     0.009 A 
ATOM     24  C   UNL A   1      30.126  25.862  25.784  1.00  0.00     0.039 A 
ATOM     25  C   UNL A   1      30.110  24.978  23.538  1.00  0.00     0.039 A 
ATOM     26  C   UNL A   1      29.610  25.850  24.495  1.00  0.00     0.123 A 
ATOM     27  F   UNL A   1      28.621  26.691  24.169  1.00  0.00    -0.207 F 
ENDBRANCH  16  21
ENDBRANCH   9  11
ENDBRANCH   8   9
ENDBRANCH   7   8
ENDBRANCH   6   7
ENDBRANCH   5   6
ENDBRANCH   4   5
ENDBRANCH   3   4
ENDBRANCH   2   3
ENDBRANCH   1   2
BRANCH   1  28
ATOM     28  C   UNL A   1      34.458  33.344  28.416  1.00  0.00     0.188 C 
BRANCH  28  29
ATOM     29  O   UNL A   1      35.216  33.661  29.588  1.00  0.00    -0.376 OA
BRANCH  29  30
ATOM     30  C   UNL A   1      34.639  33.377  30.859  1.00  0.00     0.202 C 
BRANCH  30  31
ATOM     31  C   UNL A   1      35.321  32.211  31.577  1.00  0.00     0.261 C 
BRANCH  31  32
ATOM     32  O   UNL A   1      36.698  32.096  31.245  1.00  0.00    -0.460 OA
BRANCH  32  33
ATOM     33  C   UNL A   1      37.082  30.861  30.861  1.00  0.00     0.338 C 
ATOM     34  O   UNL A   1      36.769  30.279  29.841  1.00  0.00    -0.246 OA
BRANCH  33  35
ATOM     35  C   UNL A   1      37.936  30.280  31.901  1.00  0.00     0.060 A 
ATOM     36  C   UNL A   1      39.105  30.992  32.165  1.00  0.00     0.016 A 
ATOM     37  C   UNL A   1      37.771  28.927  32.229  1.00  0.00     0.016 A 
ATOM     38  C   UNL A   1      40.238  30.258  32.383  1.00  0.00     0.010 A 
ATOM     39  C   UNL A   1      38.905  28.193  32.437  1.00  0.00     0.010 A 
ATOM     40  C   UNL A   1      40.120  28.866  32.358  1.00  0.00    -0.014 A 
BRANCH  40  41
ATOM     41  C   UNL A   1      41.313  28.128  32.028  1.00  0.00     0.031 A 
ATOM     42  C   UNL A   1      42.208  27.888  33.163  1.00  0.00     0.074 A 
ATOM     43  C   UNL A   1      41.503  27.655  30.783  1.00  0.00     0.049 A 
ATOM     44  N   UNL A   1      43.380  28.381  33.370  1.00  0.00    -0.248 NA
ATOM     45  C   UNL A   1      41.654  27.119  34.285  1.00  0.00     0.031 C 
ATOM     46  C   UNL A   1      40.524  27.568  29.692  1.00  0.00     0.029 A 
ATOM     47  N   UNL A   1      42.596  27.038  30.269  1.00  0.00    -0.354 N 
ATOM     48  C   UNL A   1      43.803  27.804  34.558  1.00  0.00     0.074 A 
ATOM     49  C   UNL A   1      42.641  27.218  35.173  1.00  0.00     0.031 C 
ATOM     50  C   UNL A   1      41.002  26.739  28.739  1.00  0.00     0.029 A 
ATOM     51  C   UNL A   1      42.352  26.340  29.098  1.00  0.00     0.049 A 
ATOM     52  H   UNL A   1      43.484  27.082  30.692  1.00  0.00     0.167 HD
ATOM     53  C   UNL A   1      45.120  27.608  34.823  1.00  0.00     0.037 A 
ATOM     54  C   UNL A   1      43.173  25.416  28.545  1.00  0.00     0.037 A 
ATOM     55  C   UNL A   1      45.966  28.395  33.966  1.00  0.00     0.049 A 
ATOM     56  C   UNL A   1      44.533  25.630  29.112  1.00  0.00     0.074 A 
ATOM     57  C   UNL A   1      46.142  29.747  33.754  1.00  0.00     0.029 A 
ATOM     58  N   UNL A   1      46.555  27.757  32.902  1.00  0.00    -0.354 N 
ATOM     59  N   UNL A   1      45.269  26.686  28.888  1.00  0.00    -0.248 NA
ATOM     60  C   UNL A   1      44.934  24.835  30.265  1.00  0.00     0.031 C 
ATOM     61  C   UNL A   1      46.487  29.877  32.379  1.00  0.00     0.029 A 
ATOM     62  C   UNL A   1      46.511  28.599  31.818  1.00  0.00     0.049 A 
ATOM     63  H   UNL A   1      46.944  26.853  32.913  1.00  0.00     0.167 HD
ATOM     64  C   UNL A   1      45.960  26.904  30.073  1.00  0.00     0.074 A 
ATOM     65  C   UNL A   1      45.811  25.668  30.830  1.00  0.00     0.031 C 
ATOM     66  C   UNL A   1      46.349  28.159  30.445  1.00  0.00     0.037 A 
BRANCH  53  67
ATOM     67  C   UNL A   1      45.622  26.434  35.618  1.00  0.00     0.058 A 
ATOM     68  C   UNL A   1      45.595  25.102  35.144  1.00  0.00     0.135 A 
ATOM     69  C   UNL A   1      46.389  26.658  36.774  1.00  0.00     0.135 A 
ATOM     70  F   UNL A   1      45.015  24.765  33.984  1.00  0.00    -0.206 F 
ATOM     71  C   UNL A   1      46.255  24.064  35.779  1.00  0.00     0.059 A 
ATOM     72  C   UNL A   1      47.119  25.641  37.389  1.00  0.00     0.059 A 
ATOM     73  F   UNL A   1      46.502  27.894  37.288  1.00  0.00    -0.206 F 
ATOM     74  C   UNL A   1      47.047  24.348  36.879  1.00  0.00     0.060 A 
BRANCH  74  75
ATOM     75  S   UNL A   1      48.091  23.026  37.513  1.00  0.00     0.124 S 
ATOM     76  O   UNL A   1      48.344  22.251  36.303  1.00  0.00    -0.237 OA
ATOM     77  O   UNL A   1      49.230  23.768  38.044  1.00  0.00    -0.237 OA
ATOM     78  O   UNL A   1      47.244  22.384  38.512  1.00  0.00    -0.744 OA
ENDBRANCH  74  75
ENDBRANCH  53  67
BRANCH  54  79
ATOM     79  C   UNL A   1      42.765  24.165  27.855  1.00  0.00     0.058 A 
ATOM     80  C   UNL A   1      42.402  23.006  28.573  1.00  0.00     0.135 A 
ATOM     81  C   UNL A   1      42.965  24.001  26.474  1.00  0.00     0.135 A 
ATOM     82  F   UNL A   1      42.261  23.026  29.906  1.00  0.00    -0.206 F 
ATOM     83  C   UNL A   1      42.263  21.763  27.967  1.00  0.00     0.059 A 
ATOM     84  C   UNL A   1      42.848  22.756  25.844  1.00  0.00     0.059 A 
ATOM     85  F   UNL A   1      43.342  25.045  25.720  1.00  0.00    -0.206 F 
ATOM     86  C   UNL A   1      42.515  21.639  26.606  1.00  0.00     0.060 A 
BRANCH  86  87
ATOM     87  S   UNL A   1      42.486  19.980  25.896  1.00  0.00     0.124 S 
ATOM     88  O   UNL A   1      43.516  20.079  24.866  1.00  0.00    -0.237 OA
ATOM     89  O   UNL A   1      42.829  19.152  27.050  1.00  0.00    -0.237 OA
ATOM     90  O   UNL A   1      41.119  19.840  25.407  1.00  0.00    -0.744 OA
ENDBRANCH  86  87
ENDBRANCH  54  79
BRANCH  66  91
ATOM     91  C   UNL A   1      46.349  29.237  29.393  1.00  0.00     0.058 A 
ATOM     92  C   UNL A   1      47.562  29.565  28.769  1.00  0.00     0.135 A 
ATOM     93  C   UNL A   1      45.238  30.054  29.112  1.00  0.00     0.135 A 
ATOM     94  F   UNL A   1      48.671  28.857  29.040  1.00  0.00    -0.206 F 
ATOM     95  C   UNL A   1      47.676  30.657  27.913  1.00  0.00     0.059 A 
ATOM     96  C   UNL A   1      45.322  31.134  28.232  1.00  0.00     0.059 A 
ATOM     97  F   UNL A   1      44.071  29.863  29.742  1.00  0.00    -0.206 F 
ATOM     98  C   UNL A   1      46.552  31.440  27.654  1.00  0.00     0.060 A 
BRANCH  98  99
ATOM     99  S   UNL A   1      46.737  32.883  26.583  1.00  0.00     0.124 S 
ATOM    100  O   UNL A   1      48.118  32.746  26.131  1.00  0.00    -0.237 OA
ATOM    101  O   UNL A   1      45.716  32.653  25.565  1.00  0.00    -0.237 OA
ATOM    102  O   UNL A   1      46.481  34.012  27.474  1.00  0.00    -0.744 OA
ENDBRANCH  98  99
ENDBRANCH  66  91
ENDBRANCH  40  41
ENDBRANCH  33  35
ENDBRANCH  32  33
ENDBRANCH  31  32
ENDBRANCH  30  31
ENDBRANCH  29  30
ENDBRANCH  28  29
ENDBRANCH   1  28
TORSDOF 24
ENDMDL
