MODEL 1
REMARK VINA RESULT:      -9.9      0.000      0.000
REMARK SMILES COc1ccc(F)c(NC(=O)N2CCCC[C@@H]2C(=O)OCCOCCOCCOCCOC(=O)c2ccc(-c3c4nc(c(-c5c(F)cc(S(=O)(=O)[O-])cc5F)c5ccc([nH]5)c(-c5c(F)cc(S(=O)(=O)[O-])cc5F)c5nc(c(-c6c(F)cc(S(=O)(=O)[O-])cc6F)c6ccc3[nH]6)C=C5)C=C4)cc2)c1
REMARK SMILES IDX 26 1 25 2 24 3 23 4 22 5 21 6 20 7 18 8 19 9 17 10 12 11
REMARK SMILES IDX 13 12 14 13 16 14 15 15 10 16 9 17 11 19 8 20 3 21 4 22
REMARK SMILES IDX 101 23 5 24 6 25 7 26 2 27 1 28 27 29 28 30 29 31 30 32
REMARK SMILES IDX 31 33 32 34 33 35 34 36 35 37 36 38 100 39 37 40 99 41 38 42
REMARK SMILES IDX 39 43 40 44 93 45 41 46 98 47 92 48 94 49 42 50 97 51 91 52
REMARK SMILES IDX 90 53 43 55 77 56 56 57 76 58 57 59 60 60 75 61 95 62 58 63
REMARK SMILES IDX 59 64 74 66 96 67 61 68 44 69 45 70 54 71 46 72 47 73 53 74
REMARK SMILES IDX 55 75 48 76 49 77 50 78 51 79 52 80 78 81 79 82 88 83 80 84
REMARK SMILES IDX 81 85 87 86 89 87 82 88 83 89 84 90 85 91 86 92 62 93 63 94
REMARK SMILES IDX 72 95 64 96 65 97 71 98 73 99 66 100 67 101 68 102 69 103
REMARK SMILES IDX 70 104
REMARK H PARENT 9 18 94 54 60 65
REMARK Flexibility Score: inf
ROOT
ATOM      1  O   UNL A   1      43.210  21.241  26.521  1.00  0.00    -0.377 OA
ENDROOT
BRANCH   1   2
ATOM      2  C   UNL A   1      41.849  21.572  26.288  1.00  0.00     0.188 C 
BRANCH   2   3
ATOM      3  C   UNL A   1      40.905  21.711  27.493  1.00  0.00     0.188 C 
BRANCH   3   4
ATOM      4  O   UNL A   1      39.860  22.644  27.293  1.00  0.00    -0.376 OA
BRANCH   4   5
ATOM      5  C   UNL A   1      38.907  22.378  26.272  1.00  0.00     0.202 C 
BRANCH   5   6
ATOM      6  C   UNL A   1      37.907  23.481  25.861  1.00  0.00     0.261 C 
BRANCH   6   7
ATOM      7  O   UNL A   1      36.872  23.089  24.943  1.00  0.00    -0.462 OA
BRANCH   7   8
ATOM      8  C   UNL A   1      35.692  22.780  25.530  1.00  0.00     0.329 C 
ATOM      9  O   UNL A   1      35.294  23.408  26.506  1.00  0.00    -0.250 OA
BRANCH   8  10
ATOM     10  C   UNL A   1      34.835  21.742  24.726  1.00  0.00     0.196 C 
ATOM     11  N   UNL A   1      33.821  22.383  23.837  1.00  0.00    -0.311 N 
ATOM     12  C   UNL A   1      32.713  21.598  23.301  1.00  0.00     0.122 C 
ATOM     13  C   UNL A   1      32.187  20.482  24.185  1.00  0.00     0.022 C 
ATOM     14  C   UNL A   1      34.173  20.673  25.627  1.00  0.00     0.037 C 
ATOM     15  C   UNL A   1      33.328  19.704  24.807  1.00  0.00     0.005 C 
BRANCH  11  16
ATOM     16  C   UNL A   1      33.988  23.601  23.219  1.00  0.00     0.322 C 
ATOM     17  N   UNL A   1      33.077  24.595  23.350  1.00  0.00    -0.305 N 
ATOM     18  H   UNL A   1      33.128  25.265  22.631  1.00  0.00     0.171 HD
ATOM     19  O   UNL A   1      34.975  23.806  22.508  1.00  0.00    -0.248 OA
BRANCH  17  20
ATOM     20  C   UNL A   1      32.073  24.875  24.293  1.00  0.00     0.082 A 
ATOM     21  C   UNL A   1      30.788  24.407  26.292  1.00  0.00     0.121 A 
ATOM     22  C   UNL A   1      29.875  25.408  25.958  1.00  0.00     0.049 A 
ATOM     23  C   UNL A   1      31.915  24.187  25.494  1.00  0.00     0.075 A 
ATOM     24  C   UNL A   1      30.082  26.173  24.811  1.00  0.00     0.045 A 
ATOM     25  C   UNL A   1      31.174  25.904  23.993  1.00  0.00     0.147 A 
ATOM     26  F   UNL A   1      31.338  26.631  22.876  1.00  0.00    -0.205 F 
BRANCH  21  27
ATOM     27  O   UNL A   1      30.676  23.600  27.392  1.00  0.00    -0.497 OA
ATOM     28  C   UNL A   1      29.509  22.781  27.396  1.00  0.00     0.278 C 
ENDBRANCH  21  27
ENDBRANCH  17  20
ENDBRANCH  11  16
ENDBRANCH   8  10
ENDBRANCH   7   8
ENDBRANCH   6   7
ENDBRANCH   5   6
ENDBRANCH   4   5
ENDBRANCH   3   4
ENDBRANCH   2   3
ENDBRANCH   1   2
BRANCH   1  29
ATOM     29  C   UNL A   1      44.125  21.172  25.429  1.00  0.00     0.188 C 
BRANCH  29  30
ATOM     30  C   UNL A   1      45.253  22.216  25.295  1.00  0.00     0.188 C 
BRANCH  30  31
ATOM     31  O   UNL A   1      45.378  23.090  26.404  1.00  0.00    -0.376 OA
BRANCH  31  32
ATOM     32  C   UNL A   1      45.326  24.481  26.130  1.00  0.00     0.202 C 
BRANCH  32  33
ATOM     33  C   UNL A   1      44.363  24.960  25.031  1.00  0.00     0.261 C 
BRANCH  33  34
ATOM     34  O   UNL A   1      43.504  26.069  25.353  1.00  0.00    -0.460 OA
BRANCH  34  35
ATOM     35  C   UNL A   1      42.304  25.812  25.914  1.00  0.00     0.338 C 
ATOM     36  O   UNL A   1      41.490  24.976  25.555  1.00  0.00    -0.246 OA
BRANCH  35  37
ATOM     37  C   UNL A   1      42.220  26.575  27.179  1.00  0.00     0.060 A 
ATOM     38  C   UNL A   1      41.349  26.136  28.188  1.00  0.00     0.016 A 
ATOM     39  C   UNL A   1      43.002  27.715  27.371  1.00  0.00     0.016 A 
ATOM     40  C   UNL A   1      41.227  26.863  29.372  1.00  0.00     0.010 A 
ATOM     41  C   UNL A   1      42.860  28.456  28.547  1.00  0.00     0.010 A 
ATOM     42  C   UNL A   1      41.944  28.055  29.535  1.00  0.00    -0.014 A 
BRANCH  42  43
ATOM     43  C   UNL A   1      41.584  28.982  30.636  1.00  0.00     0.031 A 
ATOM     44  C   UNL A   1      42.443  28.990  31.871  1.00  0.00     0.074 A 
ATOM     45  C   UNL A   1      40.537  29.820  30.535  1.00  0.00     0.049 A 
ATOM     46  N   UNL A   1      42.308  29.681  32.973  1.00  0.00    -0.248 NA
ATOM     47  C   UNL A   1      43.610  28.094  31.861  1.00  0.00     0.031 C 
ATOM     48  C   UNL A   1      39.663  29.941  29.372  1.00  0.00     0.029 A 
ATOM     49  N   UNL A   1      40.032  30.725  31.436  1.00  0.00    -0.354 N 
ATOM     50  C   UNL A   1      43.365  29.295  33.790  1.00  0.00     0.074 A 
ATOM     51  C   UNL A   1      44.112  28.287  33.070  1.00  0.00     0.031 C 
ATOM     52  C   UNL A   1      38.723  30.866  29.631  1.00  0.00     0.029 A 
ATOM     53  C   UNL A   1      38.906  31.375  30.990  1.00  0.00     0.049 A 
ATOM     54  H   UNL A   1      40.438  30.893  32.316  1.00  0.00     0.167 HD
ATOM     55  C   UNL A   1      43.688  29.748  35.024  1.00  0.00     0.037 A 
ATOM     56  C   UNL A   1      38.105  32.262  31.615  1.00  0.00     0.037 A 
ATOM     57  C   UNL A   1      42.935  30.750  35.734  1.00  0.00     0.049 A 
ATOM     58  C   UNL A   1      38.433  32.697  33.019  1.00  0.00     0.074 A 
ATOM     59  C   UNL A   1      43.192  31.293  36.980  1.00  0.00     0.029 A 
ATOM     60  N   UNL A   1      41.771  31.346  35.270  1.00  0.00    -0.354 N 
ATOM     61  N   UNL A   1      39.445  32.342  33.776  1.00  0.00    -0.248 NA
ATOM     62  C   UNL A   1      37.514  33.651  33.656  1.00  0.00     0.031 C 
ATOM     63  C   UNL A   1      42.149  32.167  37.298  1.00  0.00     0.029 A 
ATOM     64  C   UNL A   1      41.277  32.223  36.222  1.00  0.00     0.049 A 
ATOM     65  H   UNL A   1      41.358  31.172  34.394  1.00  0.00     0.167 HD
ATOM     66  C   UNL A   1      39.294  33.041  34.971  1.00  0.00     0.074 A 
ATOM     67  C   UNL A   1      38.100  33.849  34.830  1.00  0.00     0.031 C 
ATOM     68  C   UNL A   1      40.077  33.016  36.079  1.00  0.00     0.037 A 
BRANCH  55  69
ATOM     69  C   UNL A   1      44.886  29.135  35.699  1.00  0.00     0.058 A 
ATOM     70  C   UNL A   1      46.165  29.680  35.505  1.00  0.00     0.135 A 
ATOM     71  C   UNL A   1      44.779  28.001  36.522  1.00  0.00     0.135 A 
ATOM     72  F   UNL A   1      46.328  30.768  34.735  1.00  0.00    -0.206 F 
ATOM     73  C   UNL A   1      47.293  29.125  36.100  1.00  0.00     0.059 A 
ATOM     74  C   UNL A   1      45.889  27.448  37.154  1.00  0.00     0.059 A 
ATOM     75  F   UNL A   1      43.577  27.450  36.760  1.00  0.00    -0.206 F 
ATOM     76  C   UNL A   1      47.145  28.013  36.929  1.00  0.00     0.060 A 
BRANCH  76  77
ATOM     77  S   UNL A   1      48.610  27.351  37.750  1.00  0.00     0.124 S 
ATOM     78  O   UNL A   1      48.050  26.251  38.525  1.00  0.00    -0.237 OA
ATOM     79  O   UNL A   1      49.449  26.971  36.616  1.00  0.00    -0.237 OA
ATOM     80  O   UNL A   1      49.103  28.484  38.527  1.00  0.00    -0.744 OA
ENDBRANCH  76  77
ENDBRANCH  55  69
BRANCH  56  81
ATOM     81  C   UNL A   1      36.919  32.797  30.894  1.00  0.00     0.058 A 
ATOM     82  C   UNL A   1      37.066  33.686  29.816  1.00  0.00     0.135 A 
ATOM     83  C   UNL A   1      35.618  32.500  31.323  1.00  0.00     0.135 A 
ATOM     84  F   UNL A   1      38.289  34.003  29.366  1.00  0.00    -0.206 F 
ATOM     85  C   UNL A   1      35.967  34.302  29.226  1.00  0.00     0.059 A 
ATOM     86  C   UNL A   1      34.502  33.084  30.733  1.00  0.00     0.059 A 
ATOM     87  F   UNL A   1      35.427  31.639  32.335  1.00  0.00    -0.206 F 
ATOM     88  C   UNL A   1      34.689  34.007  29.703  1.00  0.00     0.060 A 
BRANCH  88  89
ATOM     89  S   UNL A   1      33.285  34.884  28.984  1.00  0.00     0.124 S 
ATOM     90  O   UNL A   1      33.932  36.079  28.452  1.00  0.00    -0.237 OA
ATOM     91  O   UNL A   1      32.803  33.926  27.994  1.00  0.00    -0.237 OA
ATOM     92  O   UNL A   1      32.403  35.104  30.125  1.00  0.00    -0.744 OA
ENDBRANCH  88  89
ENDBRANCH  56  81
BRANCH  68  93
ATOM     93  C   UNL A   1      39.683  33.889  37.242  1.00  0.00     0.058 A 
ATOM     94  C   UNL A   1      40.153  35.210  37.332  1.00  0.00     0.135 A 
ATOM     95  C   UNL A   1      38.921  33.394  38.311  1.00  0.00     0.135 A 
ATOM     96  F   UNL A   1      40.894  35.735  36.343  1.00  0.00    -0.206 F 
ATOM     97  C   UNL A   1      39.900  35.999  38.449  1.00  0.00     0.059 A 
ATOM     98  C   UNL A   1      38.628  34.177  39.425  1.00  0.00     0.059 A 
ATOM     99  F   UNL A   1      38.439  32.140  38.274  1.00  0.00    -0.206 F 
ATOM    100  C   UNL A   1      39.137  35.473  39.492  1.00  0.00     0.060 A 
BRANCH 100 101
ATOM    101  S   UNL A   1      38.813  36.518  40.929  1.00  0.00     0.124 S 
ATOM    102  O   UNL A   1      37.826  35.729  41.657  1.00  0.00    -0.237 OA
ATOM    103  O   UNL A   1      40.133  36.611  41.545  1.00  0.00    -0.237 OA
ATOM    104  O   UNL A   1      38.314  37.758  40.341  1.00  0.00    -0.744 OA
ENDBRANCH 100 101
ENDBRANCH  68  93
ENDBRANCH  42  43
ENDBRANCH  35  37
ENDBRANCH  34  35
ENDBRANCH  33  34
ENDBRANCH  32  33
ENDBRANCH  31  32
ENDBRANCH  30  31
ENDBRANCH  29  30
ENDBRANCH   1  29
TORSDOF 26
ENDMDL
MODEL 2
REMARK VINA RESULT:      -9.5      2.878      9.482
REMARK SMILES COc1ccc(F)c(NC(=O)N2CCCC[C@@H]2C(=O)OCCOCCOCCOCCOC(=O)c2ccc(-c3c4nc(c(-c5c(F)cc(S(=O)(=O)[O-])cc5F)c5ccc([nH]5)c(-c5c(F)cc(S(=O)(=O)[O-])cc5F)c5nc(c(-c6c(F)cc(S(=O)(=O)[O-])cc6F)c6ccc3[nH]6)C=C5)C=C4)cc2)c1
REMARK SMILES IDX 26 1 25 2 24 3 23 4 22 5 21 6 20 7 18 8 19 9 17 10 12 11
REMARK SMILES IDX 13 12 14 13 16 14 15 15 10 16 9 17 11 19 8 20 3 21 4 22
REMARK SMILES IDX 101 23 5 24 6 25 7 26 2 27 1 28 27 29 28 30 29 31 30 32
REMARK SMILES IDX 31 33 32 34 33 35 34 36 35 37 36 38 100 39 37 40 99 41 38 42
REMARK SMILES IDX 39 43 40 44 93 45 41 46 98 47 92 48 94 49 42 50 97 51 91 52
REMARK SMILES IDX 90 53 43 55 77 56 56 57 76 58 57 59 60 60 75 61 95 62 58 63
REMARK SMILES IDX 59 64 74 66 96 67 61 68 44 69 45 70 54 71 46 72 47 73 53 74
REMARK SMILES IDX 55 75 48 76 49 77 50 78 51 79 52 80 78 81 79 82 88 83 80 84
REMARK SMILES IDX 81 85 87 86 89 87 82 88 83 89 84 90 85 91 86 92 62 93 63 94
REMARK SMILES IDX 72 95 64 96 65 97 71 98 73 99 66 100 67 101 68 102 69 103
REMARK SMILES IDX 70 104
REMARK H PARENT 9 18 94 54 60 65
REMARK Flexibility Score: inf
ROOT
ATOM      1  O   UNL A   1      35.417  33.552  27.629  1.00  0.00    -0.377 OA
ENDROOT
BRANCH   1   2
ATOM      2  C   UNL A   1      35.901  32.453  28.385  1.00  0.00     0.188 C 
BRANCH   2   3
ATOM      3  C   UNL A   1      35.737  31.035  27.817  1.00  0.00     0.188 C 
BRANCH   3   4
ATOM      4  O   UNL A   1      34.462  30.468  28.057  1.00  0.00    -0.376 OA
BRANCH   4   5
ATOM      5  C   UNL A   1      33.595  30.272  26.948  1.00  0.00     0.202 C 
BRANCH   5   6
ATOM      6  C   UNL A   1      32.173  29.717  27.186  1.00  0.00     0.261 C 
BRANCH   6   7
ATOM      7  O   UNL A   1      31.441  29.323  26.012  1.00  0.00    -0.462 OA
BRANCH   7   8
ATOM      8  C   UNL A   1      31.727  28.077  25.567  1.00  0.00     0.329 C 
ATOM      9  O   UNL A   1      31.552  27.099  26.287  1.00  0.00    -0.250 OA
BRANCH   8  10
ATOM     10  C   UNL A   1      32.069  28.011  24.038  1.00  0.00     0.196 C 
ATOM     11  N   UNL A   1      31.335  26.926  23.320  1.00  0.00    -0.311 N 
ATOM     12  C   UNL A   1      31.784  26.483  22.004  1.00  0.00     0.122 C 
ATOM     13  C   UNL A   1      33.278  26.535  21.747  1.00  0.00     0.022 C 
ATOM     14  C   UNL A   1      33.586  27.922  23.758  1.00  0.00     0.037 C 
ATOM     15  C   UNL A   1      33.869  27.831  22.262  1.00  0.00     0.005 C 
BRANCH  11  16
ATOM     16  C   UNL A   1      30.074  26.488  23.654  1.00  0.00     0.322 C 
ATOM     17  N   UNL A   1      29.845  25.210  24.040  1.00  0.00    -0.305 N 
ATOM     18  H   UNL A   1      28.906  24.935  23.932  1.00  0.00     0.171 HD
ATOM     19  O   UNL A   1      29.112  27.258  23.587  1.00  0.00    -0.248 OA
BRANCH  17  20
ATOM     20  C   UNL A   1      30.661  24.191  24.560  1.00  0.00     0.082 A 
ATOM     21  C   UNL A   1      32.170  22.308  24.355  1.00  0.00     0.121 A 
ATOM     22  C   UNL A   1      32.048  22.042  25.719  1.00  0.00     0.049 A 
ATOM     23  C   UNL A   1      31.528  23.416  23.794  1.00  0.00     0.075 A 
ATOM     24  C   UNL A   1      31.264  22.875  26.516  1.00  0.00     0.045 A 
ATOM     25  C   UNL A   1      30.582  23.938  25.935  1.00  0.00     0.147 A 
ATOM     26  F   UNL A   1      29.806  24.710  26.713  1.00  0.00    -0.205 F 
BRANCH  21  27
ATOM     27  O   UNL A   1      32.913  21.553  23.488  1.00  0.00    -0.497 OA
ATOM     28  C   UNL A   1      32.143  20.642  22.706  1.00  0.00     0.278 C 
ENDBRANCH  21  27
ENDBRANCH  17  20
ENDBRANCH  11  16
ENDBRANCH   8  10
ENDBRANCH   7   8
ENDBRANCH   6   7
ENDBRANCH   5   6
ENDBRANCH   4   5
ENDBRANCH   3   4
ENDBRANCH   2   3
ENDBRANCH   1   2
BRANCH   1  29
ATOM     29  C   UNL A   1      34.803  34.658  28.291  1.00  0.00     0.188 C 
BRANCH  29  30
ATOM     30  C   UNL A   1      33.328  34.573  28.736  1.00  0.00     0.188 C 
BRANCH  30  31
ATOM     31  O   UNL A   1      32.688  35.829  28.884  1.00  0.00    -0.376 OA
BRANCH  31  32
ATOM     32  C   UNL A   1      33.022  36.584  30.037  1.00  0.00     0.202 C 
BRANCH  32  33
ATOM     33  C   UNL A   1      32.123  36.437  31.277  1.00  0.00     0.261 C 
BRANCH  33  34
ATOM     34  O   UNL A   1      32.666  35.712  32.395  1.00  0.00    -0.460 OA
BRANCH  34  35
ATOM     35  C   UNL A   1      33.721  36.237  33.052  1.00  0.00     0.338 C 
ATOM     36  O   UNL A   1      33.749  37.286  33.678  1.00  0.00    -0.246 OA
BRANCH  35  37
ATOM     37  C   UNL A   1      34.798  35.223  33.069  1.00  0.00     0.060 A 
ATOM     38  C   UNL A   1      34.713  34.148  33.967  1.00  0.00     0.016 A 
ATOM     39  C   UNL A   1      35.883  35.328  32.198  1.00  0.00     0.016 A 
ATOM     40  C   UNL A   1      35.736  33.202  34.026  1.00  0.00     0.010 A 
ATOM     41  C   UNL A   1      36.920  34.394  32.275  1.00  0.00     0.010 A 
ATOM     42  C   UNL A   1      36.869  33.350  33.216  1.00  0.00    -0.014 A 
BRANCH  42  43
ATOM     43  C   UNL A   1      38.082  32.542  33.495  1.00  0.00     0.031 A 
ATOM     44  C   UNL A   1      38.873  32.851  34.737  1.00  0.00     0.074 A 
ATOM     45  C   UNL A   1      38.461  31.539  32.684  1.00  0.00     0.049 A 
ATOM     46  N   UNL A   1      39.982  32.311  35.172  1.00  0.00    -0.248 NA
ATOM     47  C   UNL A   1      38.341  33.915  35.603  1.00  0.00     0.031 C 
ATOM     48  C   UNL A   1      37.750  31.112  31.482  1.00  0.00     0.029 A 
ATOM     49  N   UNL A   1      39.546  30.701  32.753  1.00  0.00    -0.354 N 
ATOM     50  C   UNL A   1      40.285  32.976  36.355  1.00  0.00     0.074 A 
ATOM     51  C   UNL A   1      39.262  33.980  36.551  1.00  0.00     0.031 C 
ATOM     52  C   UNL A   1      38.422  30.092  30.921  1.00  0.00     0.029 A 
ATOM     53  C   UNL A   1      39.628  29.819  31.703  1.00  0.00     0.049 A 
ATOM     54  H   UNL A   1      40.202  30.728  33.486  1.00  0.00     0.167 HD
ATOM     55  C   UNL A   1      41.317  32.762  37.204  1.00  0.00     0.037 A 
ATOM     56  C   UNL A   1      40.577  28.911  31.396  1.00  0.00     0.037 A 
ATOM     57  C   UNL A   1      42.333  31.763  36.998  1.00  0.00     0.049 A 
ATOM     58  C   UNL A   1      41.762  28.739  32.310  1.00  0.00     0.074 A 
ATOM     59  C   UNL A   1      43.408  31.452  37.810  1.00  0.00     0.029 A 
ATOM     60  N   UNL A   1      42.409  30.924  35.894  1.00  0.00    -0.354 N 
ATOM     61  N   UNL A   1      42.029  29.359  33.436  1.00  0.00    -0.248 NA
ATOM     62  C   UNL A   1      42.773  27.748  31.916  1.00  0.00     0.031 C 
ATOM     63  C   UNL A   1      44.171  30.473  37.168  1.00  0.00     0.029 A 
ATOM     64  C   UNL A   1      43.536  30.123  35.986  1.00  0.00     0.049 A 
ATOM     65  H   UNL A   1      41.759  30.901  35.155  1.00  0.00     0.167 HD
ATOM     66  C   UNL A   1      43.230  28.822  33.893  1.00  0.00     0.074 A 
ATOM     67  C   UNL A   1      43.629  27.818  32.928  1.00  0.00     0.031 C 
ATOM     68  C   UNL A   1      43.933  29.132  35.012  1.00  0.00     0.037 A 
BRANCH  55  69
ATOM     69  C   UNL A   1      41.419  33.653  38.414  1.00  0.00     0.058 A 
ATOM     70  C   UNL A   1      42.243  34.789  38.389  1.00  0.00     0.135 A 
ATOM     71  C   UNL A   1      40.721  33.380  39.602  1.00  0.00     0.135 A 
ATOM     72  F   UNL A   1      42.928  35.105  37.279  1.00  0.00    -0.206 F 
ATOM     73  C   UNL A   1      42.373  35.621  39.496  1.00  0.00     0.059 A 
ATOM     74  C   UNL A   1      40.810  34.216  40.712  1.00  0.00     0.059 A 
ATOM     75  F   UNL A   1      39.901  32.318  39.676  1.00  0.00    -0.206 F 
ATOM     76  C   UNL A   1      41.647  35.331  40.652  1.00  0.00     0.060 A 
BRANCH  76  77
ATOM     77  S   UNL A   1      41.772  36.462  42.053  1.00  0.00     0.124 S 
ATOM     78  O   UNL A   1      42.927  37.271  41.684  1.00  0.00    -0.237 OA
ATOM     79  O   UNL A   1      40.479  37.139  42.014  1.00  0.00    -0.237 OA
ATOM     80  O   UNL A   1      41.966  35.569  43.192  1.00  0.00    -0.744 OA
ENDBRANCH  76  77
ENDBRANCH  55  69
BRANCH  56  81
ATOM     81  C   UNL A   1      40.422  28.092  30.165  1.00  0.00     0.058 A 
ATOM     82  C   UNL A   1      39.530  27.009  30.121  1.00  0.00     0.135 A 
ATOM     83  C   UNL A   1      41.226  28.322  29.039  1.00  0.00     0.135 A 
ATOM     84  F   UNL A   1      38.737  26.746  31.171  1.00  0.00    -0.206 F 
ATOM     85  C   UNL A   1      39.479  26.150  29.027  1.00  0.00     0.059 A 
ATOM     86  C   UNL A   1      41.176  27.493  27.923  1.00  0.00     0.059 A 
ATOM     87  F   UNL A   1      42.079  29.358  29.026  1.00  0.00    -0.206 F 
ATOM     88  C   UNL A   1      40.318  26.392  27.939  1.00  0.00     0.060 A 
BRANCH  88  89
ATOM     89  S   UNL A   1      40.301  25.217  26.568  1.00  0.00     0.124 S 
ATOM     90  O   UNL A   1      41.224  24.195  27.052  1.00  0.00    -0.237 OA
ATOM     91  O   UNL A   1      38.894  24.832  26.516  1.00  0.00    -0.237 OA
ATOM     92  O   UNL A   1      40.777  26.008  25.438  1.00  0.00    -0.744 OA
ENDBRANCH  88  89
ENDBRANCH  56  81
BRANCH  68  93
ATOM     93  C   UNL A   1      45.212  28.381  35.273  1.00  0.00     0.058 A 
ATOM     94  C   UNL A   1      45.199  27.188  36.016  1.00  0.00     0.135 A 
ATOM     95  C   UNL A   1      46.459  28.885  34.873  1.00  0.00     0.135 A 
ATOM     96  F   UNL A   1      44.036  26.662  36.433  1.00  0.00    -0.206 F 
ATOM     97  C   UNL A   1      46.375  26.535  36.370  1.00  0.00     0.059 A 
ATOM     98  C   UNL A   1      47.648  28.231  35.188  1.00  0.00     0.059 A 
ATOM     99  F   UNL A   1      46.530  30.017  34.154  1.00  0.00    -0.206 F 
ATOM    100  C   UNL A   1      47.597  27.066  35.953  1.00  0.00     0.060 A 
BRANCH 100 101
ATOM    101  S   UNL A   1      49.111  26.199  36.415  1.00  0.00     0.124 S 
ATOM    102  O   UNL A   1      48.588  24.958  36.975  1.00  0.00    -0.237 OA
ATOM    103  O   UNL A   1      49.799  26.077  35.132  1.00  0.00    -0.237 OA
ATOM    104  O   UNL A   1      49.741  27.103  37.373  1.00  0.00    -0.744 OA
ENDBRANCH 100 101
ENDBRANCH  68  93
ENDBRANCH  42  43
ENDBRANCH  35  37
ENDBRANCH  34  35
ENDBRANCH  33  34
ENDBRANCH  32  33
ENDBRANCH  31  32
ENDBRANCH  30  31
ENDBRANCH  29  30
ENDBRANCH   1  29
TORSDOF 26
ENDMDL
MODEL 3
REMARK VINA RESULT:      -9.2      5.711     11.818
REMARK SMILES COc1ccc(F)c(NC(=O)N2CCCC[C@@H]2C(=O)OCCOCCOCCOCCOC(=O)c2ccc(-c3c4nc(c(-c5c(F)cc(S(=O)(=O)[O-])cc5F)c5ccc([nH]5)c(-c5c(F)cc(S(=O)(=O)[O-])cc5F)c5nc(c(-c6c(F)cc(S(=O)(=O)[O-])cc6F)c6ccc3[nH]6)C=C5)C=C4)cc2)c1
REMARK SMILES IDX 26 1 25 2 24 3 23 4 22 5 21 6 20 7 18 8 19 9 17 10 12 11
REMARK SMILES IDX 13 12 14 13 16 14 15 15 10 16 9 17 11 19 8 20 3 21 4 22
REMARK SMILES IDX 101 23 5 24 6 25 7 26 2 27 1 28 27 29 28 30 29 31 30 32
REMARK SMILES IDX 31 33 32 34 33 35 34 36 35 37 36 38 100 39 37 40 99 41 38 42
REMARK SMILES IDX 39 43 40 44 93 45 41 46 98 47 92 48 94 49 42 50 97 51 91 52
REMARK SMILES IDX 90 53 43 55 77 56 56 57 76 58 57 59 60 60 75 61 95 62 58 63
REMARK SMILES IDX 59 64 74 66 96 67 61 68 44 69 45 70 54 71 46 72 47 73 53 74
REMARK SMILES IDX 55 75 48 76 49 77 50 78 51 79 52 80 78 81 79 82 88 83 80 84
REMARK SMILES IDX 81 85 87 86 89 87 82 88 83 89 84 90 85 91 86 92 62 93 63 94
REMARK SMILES IDX 72 95 64 96 65 97 71 98 73 99 66 100 67 101 68 102 69 103
REMARK SMILES IDX 70 104
REMARK H PARENT 9 18 94 54 60 65
REMARK Flexibility Score: inf
ROOT
ATOM      1  O   UNL A   1      35.536  31.374  27.506  1.00  0.00    -0.377 OA
ENDROOT
BRANCH   1   2
ATOM      2  C   UNL A   1      34.916  30.099  27.576  1.00  0.00     0.188 C 
BRANCH   2   3
ATOM      3  C   UNL A   1      34.014  29.651  26.415  1.00  0.00     0.188 C 
BRANCH   3   4
ATOM      4  O   UNL A   1      32.767  30.320  26.371  1.00  0.00    -0.376 OA
BRANCH   4   5
ATOM      5  C   UNL A   1      31.691  29.691  25.688  1.00  0.00     0.202 C 
BRANCH   5   6
ATOM      6  C   UNL A   1      31.330  28.227  26.026  1.00  0.00     0.261 C 
BRANCH   6   7
ATOM      7  O   UNL A   1      31.173  27.337  24.907  1.00  0.00    -0.462 OA
BRANCH   7   8
ATOM      8  C   UNL A   1      32.243  26.541  24.672  1.00  0.00     0.329 C 
ATOM      9  O   UNL A   1      33.279  27.005  24.206  1.00  0.00    -0.250 OA
BRANCH   8  10
ATOM     10  C   UNL A   1      32.093  25.090  25.247  1.00  0.00     0.196 C 
ATOM     11  N   UNL A   1      32.245  24.029  24.206  1.00  0.00    -0.311 N 
ATOM     12  C   UNL A   1      31.786  22.669  24.472  1.00  0.00     0.122 C 
ATOM     13  C   UNL A   1      30.569  22.530  25.367  1.00  0.00     0.022 C 
ATOM     14  C   UNL A   1      30.787  24.886  26.047  1.00  0.00     0.037 C 
ATOM     15  C   UNL A   1      30.670  23.455  26.562  1.00  0.00     0.005 C 
BRANCH  11  16
ATOM     16  C   UNL A   1      33.057  24.136  23.101  1.00  0.00     0.322 C 
ATOM     17  N   UNL A   1      34.369  23.804  23.148  1.00  0.00    -0.305 N 
ATOM     18  H   UNL A   1      34.901  24.219  22.431  1.00  0.00     0.171 HD
ATOM     19  O   UNL A   1      32.602  24.562  22.036  1.00  0.00    -0.248 OA
BRANCH  17  20
ATOM     20  C   UNL A   1      35.136  22.994  24.003  1.00  0.00     0.082 A 
ATOM     21  C   UNL A   1      35.661  21.994  26.145  1.00  0.00     0.121 A 
ATOM     22  C   UNL A   1      36.892  21.557  25.657  1.00  0.00     0.049 A 
ATOM     23  C   UNL A   1      34.763  22.654  25.301  1.00  0.00     0.075 A 
ATOM     24  C   UNL A   1      37.232  21.801  24.327  1.00  0.00     0.045 A 
ATOM     25  C   UNL A   1      36.356  22.512  23.513  1.00  0.00     0.147 A 
ATOM     26  F   UNL A   1      36.715  22.765  22.245  1.00  0.00    -0.205 F 
BRANCH  21  27
ATOM     27  O   UNL A   1      35.234  21.807  27.432  1.00  0.00    -0.497 OA
ATOM     28  C   UNL A   1      33.826  21.614  27.555  1.00  0.00     0.278 C 
ENDBRANCH  21  27
ENDBRANCH  17  20
ENDBRANCH  11  16
ENDBRANCH   8  10
ENDBRANCH   7   8
ENDBRANCH   6   7
ENDBRANCH   5   6
ENDBRANCH   4   5
ENDBRANCH   3   4
ENDBRANCH   2   3
ENDBRANCH   1   2
BRANCH   1  29
ATOM     29  C   UNL A   1      35.811  32.099  28.704  1.00  0.00     0.188 C 
BRANCH  29  30
ATOM     30  C   UNL A   1      34.686  32.360  29.728  1.00  0.00     0.188 C 
BRANCH  30  31
ATOM     31  O   UNL A   1      34.705  33.656  30.302  1.00  0.00    -0.376 OA
BRANCH  31  32
ATOM     32  C   UNL A   1      35.862  34.009  31.043  1.00  0.00     0.202 C 
BRANCH  32  33
ATOM     33  C   UNL A   1      36.282  33.085  32.199  1.00  0.00     0.261 C 
BRANCH  33  34
ATOM     34  O   UNL A   1      37.466  32.291  32.003  1.00  0.00    -0.460 OA
BRANCH  34  35
ATOM     35  C   UNL A   1      37.344  30.946  31.993  1.00  0.00     0.338 C 
ATOM     36  O   UNL A   1      36.377  30.294  32.355  1.00  0.00    -0.246 OA
BRANCH  35  37
ATOM     37  C   UNL A   1      38.507  30.390  31.267  1.00  0.00     0.060 A 
ATOM     38  C   UNL A   1      39.489  29.687  31.981  1.00  0.00     0.016 A 
ATOM     39  C   UNL A   1      38.624  30.555  29.886  1.00  0.00     0.016 A 
ATOM     40  C   UNL A   1      40.612  29.188  31.322  1.00  0.00     0.010 A 
ATOM     41  C   UNL A   1      39.762  30.077  29.230  1.00  0.00     0.010 A 
ATOM     42  C   UNL A   1      40.778  29.426  29.951  1.00  0.00    -0.014 A 
BRANCH  42  43
ATOM     43  C   UNL A   1      42.098  29.181  29.319  1.00  0.00     0.031 A 
ATOM     44  C   UNL A   1      42.379  27.812  28.763  1.00  0.00     0.074 A 
ATOM     45  C   UNL A   1      43.019  30.155  29.214  1.00  0.00     0.049 A 
ATOM     46  N   UNL A   1      43.465  27.348  28.202  1.00  0.00    -0.248 NA
ATOM     47  C   UNL A   1      41.285  26.831  28.857  1.00  0.00     0.031 C 
ATOM     48  C   UNL A   1      42.845  31.532  29.667  1.00  0.00     0.029 A 
ATOM     49  N   UNL A   1      44.289  30.127  28.692  1.00  0.00    -0.354 N 
ATOM     50  C   UNL A   1      43.190  26.023  27.886  1.00  0.00     0.074 A 
ATOM     51  C   UNL A   1      41.847  25.747  28.347  1.00  0.00     0.031 C 
ATOM     52  C   UNL A   1      43.971  32.219  29.408  1.00  0.00     0.029 A 
ATOM     53  C   UNL A   1      44.957  31.321  28.806  1.00  0.00     0.049 A 
ATOM     54  H   UNL A   1      44.682  29.326  28.276  1.00  0.00     0.167 HD
ATOM     55  C   UNL A   1      43.981  25.121  27.259  1.00  0.00     0.037 A 
ATOM     56  C   UNL A   1      46.225  31.647  28.481  1.00  0.00     0.037 A 
ATOM     57  C   UNL A   1      45.319  25.405  26.807  1.00  0.00     0.049 A 
ATOM     58  C   UNL A   1      47.121  30.610  27.856  1.00  0.00     0.074 A 
ATOM     59  C   UNL A   1      46.195  24.567  26.142  1.00  0.00     0.029 A 
ATOM     60  N   UNL A   1      45.979  26.612  26.988  1.00  0.00    -0.354 N 
ATOM     61  N   UNL A   1      46.845  29.365  27.543  1.00  0.00    -0.248 NA
ATOM     62  C   UNL A   1      48.497  31.017  27.540  1.00  0.00     0.031 C 
ATOM     63  C   UNL A   1      47.407  25.244  25.980  1.00  0.00     0.029 A 
ATOM     64  C   UNL A   1      47.266  26.528  26.481  1.00  0.00     0.049 A 
ATOM     65  H   UNL A   1      45.591  27.411  27.412  1.00  0.00     0.167 HD
ATOM     66  C   UNL A   1      48.007  28.845  26.979  1.00  0.00     0.074 A 
ATOM     67  C   UNL A   1      48.984  29.915  26.982  1.00  0.00     0.031 C 
ATOM     68  C   UNL A   1      48.238  27.597  26.500  1.00  0.00     0.037 A 
BRANCH  55  69
ATOM     69  C   UNL A   1      43.434  23.733  27.062  1.00  0.00     0.058 A 
ATOM     70  C   UNL A   1      43.018  23.309  25.790  1.00  0.00     0.135 A 
ATOM     71  C   UNL A   1      43.302  22.825  28.126  1.00  0.00     0.135 A 
ATOM     72  F   UNL A   1      43.127  24.130  24.734  1.00  0.00    -0.206 F 
ATOM     73  C   UNL A   1      42.491  22.040  25.580  1.00  0.00     0.059 A 
ATOM     74  C   UNL A   1      42.808  21.538  27.933  1.00  0.00     0.059 A 
ATOM     75  F   UNL A   1      43.704  23.169  29.361  1.00  0.00    -0.206 F 
ATOM     76  C   UNL A   1      42.396  21.157  26.656  1.00  0.00     0.060 A 
BRANCH  76  77
ATOM     77  S   UNL A   1      41.778  19.489  26.349  1.00  0.00     0.124 S 
ATOM     78  O   UNL A   1      42.441  19.148  25.097  1.00  0.00    -0.237 OA
ATOM     79  O   UNL A   1      42.240  18.771  27.534  1.00  0.00    -0.237 OA
ATOM     80  O   UNL A   1      40.332  19.675  26.266  1.00  0.00    -0.744 OA
ENDBRANCH  76  77
ENDBRANCH  55  69
BRANCH  56  81
ATOM     81  C   UNL A   1      46.704  33.032  28.738  1.00  0.00     0.058 A 
ATOM     82  C   UNL A   1      47.480  33.332  29.869  1.00  0.00     0.135 A 
ATOM     83  C   UNL A   1      46.322  34.094  27.907  1.00  0.00     0.135 A 
ATOM     84  F   UNL A   1      47.873  32.351  30.697  1.00  0.00    -0.206 F 
ATOM     85  C   UNL A   1      47.814  34.642  30.196  1.00  0.00     0.059 A 
ATOM     86  C   UNL A   1      46.665  35.411  28.199  1.00  0.00     0.059 A 
ATOM     87  F   UNL A   1      45.598  33.854  26.803  1.00  0.00    -0.206 F 
ATOM     88  C   UNL A   1      47.388  35.677  29.362  1.00  0.00     0.060 A 
BRANCH  88  89
ATOM     89  S   UNL A   1      47.755  37.375  29.852  1.00  0.00     0.124 S 
ATOM     90  O   UNL A   1      48.128  37.971  28.573  1.00  0.00    -0.237 OA
ATOM     91  O   UNL A   1      46.480  37.813  30.411  1.00  0.00    -0.237 OA
ATOM     92  O   UNL A   1      48.842  37.223  30.813  1.00  0.00    -0.744 OA
ENDBRANCH  88  89
ENDBRANCH  56  81
BRANCH  68  93
ATOM     93  C   UNL A   1      49.600  27.301  25.928  1.00  0.00     0.058 A 
ATOM     94  C   UNL A   1      49.811  27.324  24.539  1.00  0.00     0.135 A 
ATOM     95  C   UNL A   1      50.672  26.905  26.743  1.00  0.00     0.135 A 
ATOM     96  F   UNL A   1      48.819  27.687  23.709  1.00  0.00    -0.206 F 
ATOM     97  C   UNL A   1      51.026  26.944  23.979  1.00  0.00     0.059 A 
ATOM     98  C   UNL A   1      51.908  26.551  26.205  1.00  0.00     0.059 A 
ATOM     99  F   UNL A   1      50.530  26.873  28.078  1.00  0.00    -0.206 F 
ATOM    100  C   UNL A   1      52.069  26.557  24.820  1.00  0.00     0.060 A 
BRANCH 100 101
ATOM    101  S   UNL A   1      53.641  26.076  24.073  1.00  0.00     0.124 S 
ATOM    102  O   UNL A   1      54.522  27.155  24.506  1.00  0.00    -0.237 OA
ATOM    103  O   UNL A   1      53.884  24.772  24.682  1.00  0.00    -0.237 OA
ATOM    104  O   UNL A   1      53.342  26.047  22.644  1.00  0.00    -0.744 OA
ENDBRANCH 100 101
ENDBRANCH  68  93
ENDBRANCH  42  43
ENDBRANCH  35  37
ENDBRANCH  34  35
ENDBRANCH  33  34
ENDBRANCH  32  33
ENDBRANCH  31  32
ENDBRANCH  30  31
ENDBRANCH  29  30
ENDBRANCH   1  29
TORSDOF 26
ENDMDL
