MODEL 1
REMARK VINA RESULT:      -6.3      0.000      0.000
REMARK SMILES CC[C@@H](C(=O)OCCOCCOCCOCCOC(=O)c1ccc(-c2c3nc(c(-c4c(F)cc(S(=O)(=O)[O-])cc4F)c4ccc([nH]4)c(-c4c(F)cc(S(=O)(=O)[O-])cc4F)c4nc(c(-c5c(F)cc(S(=O)(=O)[O-])cc5F)c5ccc2[nH]5)C=C4)C=C3)cc1)N1CCN(Cc2cccc(C)c2)C(=O)C1=O
REMARK SMILES IDX 12 1 11 2 10 3 9 4 8 5 7 6 6 7 4 8 5 9 3 10 2 11 1 12 87 13
REMARK SMILES IDX 88 14 101 15 89 16 99 17 102 18 90 19 100 20 91 21 92 22
REMARK SMILES IDX 93 23 98 24 94 25 96 26 95 27 97 28 13 29 14 30 15 31 16 32
REMARK SMILES IDX 17 33 18 34 19 35 20 36 21 37 22 38 86 39 23 40 85 41 24 42
REMARK SMILES IDX 25 43 26 44 79 45 27 46 84 47 78 48 80 49 28 50 83 51 77 52
REMARK SMILES IDX 76 53 29 55 63 56 42 57 62 58 43 59 46 60 61 61 81 62 44 63
REMARK SMILES IDX 45 64 60 66 82 67 47 68 30 69 31 70 40 71 32 72 33 73 39 74
REMARK SMILES IDX 41 75 34 76 35 77 36 78 37 79 38 80 64 81 65 82 74 83 66 84
REMARK SMILES IDX 67 85 73 86 75 87 68 88 69 89 70 90 71 91 72 92 48 93 49 94
REMARK SMILES IDX 58 95 50 96 51 97 57 98 59 99 52 100 53 101 54 102 55 103
REMARK SMILES IDX 56 104
REMARK H PARENT 80 54 46 65
REMARK Flexibility Score: inf
ROOT
ATOM      1  O   UNL A   1      43.913  39.861  33.090  1.00  0.00    -0.377 OA
ENDROOT
BRANCH   1   2
ATOM      2  C   UNL A   1      43.758  38.545  33.597  1.00  0.00     0.188 C 
BRANCH   2   3
ATOM      3  C   UNL A   1      42.707  38.267  34.684  1.00  0.00     0.188 C 
BRANCH   3   4
ATOM      4  O   UNL A   1      42.788  36.974  35.275  1.00  0.00    -0.376 OA
BRANCH   4   5
ATOM      5  C   UNL A   1      41.943  35.986  34.684  1.00  0.00     0.202 C 
BRANCH   5   6
ATOM      6  C   UNL A   1      40.561  35.860  35.331  1.00  0.00     0.261 C 
BRANCH   6   7
ATOM      7  O   UNL A   1      39.933  34.617  34.979  1.00  0.00    -0.462 OA
BRANCH   7   8
ATOM      8  C   UNL A   1      38.735  34.324  35.534  1.00  0.00     0.328 C 
ATOM      9  O   UNL A   1      38.527  34.300  36.740  1.00  0.00    -0.250 OA
BRANCH   8  10
ATOM     10  C   UNL A   1      37.654  34.063  34.447  1.00  0.00     0.195 C 
BRANCH  10  11
ATOM     11  C   UNL A   1      36.208  34.117  35.026  1.00  0.00     0.034 C 
ATOM     12  C   UNL A   1      35.096  34.653  34.135  1.00  0.00     0.007 C 
ENDBRANCH  10  11
BRANCH  10  13
ATOM     13  N   UNL A   1      37.902  32.847  33.590  1.00  0.00    -0.319 N 
ATOM     14  C   UNL A   1      38.454  32.956  32.240  1.00  0.00     0.142 C 
ATOM     15  C   UNL A   1      37.941  31.564  34.171  1.00  0.00     0.312 C 
ATOM     16  C   UNL A   1      39.715  32.104  32.103  1.00  0.00     0.142 C 
ATOM     17  C   UNL A   1      38.429  30.379  33.263  1.00  0.00     0.312 C 
ATOM     18  O   UNL A   1      37.672  31.329  35.339  1.00  0.00    -0.263 OA
ATOM     19  N   UNL A   1      39.396  30.702  32.305  1.00  0.00    -0.328 N 
ATOM     20  O   UNL A   1      38.008  29.245  33.452  1.00  0.00    -0.263 OA
BRANCH  19  21
ATOM     21  C   UNL A   1      40.260  29.653  31.763  1.00  0.00     0.155 C 
BRANCH  21  22
ATOM     22  C   UNL A   1      40.075  29.365  30.289  1.00  0.00    -0.028 A 
ATOM     23  C   UNL A   1      38.809  29.052  29.778  1.00  0.00     0.005 A 
ATOM     24  C   UNL A   1      41.166  29.379  29.405  1.00  0.00     0.009 A 
ATOM     25  C   UNL A   1      38.641  28.773  28.419  1.00  0.00     0.001 A 
ATOM     26  C   UNL A   1      40.996  29.177  28.030  1.00  0.00    -0.051 A 
ATOM     27  C   UNL A   1      39.726  28.849  27.547  1.00  0.00     0.003 A 
ATOM     28  C   UNL A   1      42.156  29.310  27.088  1.00  0.00     0.044 C 
ENDBRANCH  21  22
ENDBRANCH  19  21
ENDBRANCH  10  13
ENDBRANCH   8  10
ENDBRANCH   7   8
ENDBRANCH   6   7
ENDBRANCH   5   6
ENDBRANCH   4   5
ENDBRANCH   3   4
ENDBRANCH   2   3
ENDBRANCH   1   2
BRANCH   1  29
ATOM     29  C   UNL A   1      42.850  40.446  32.342  1.00  0.00     0.188 C 
BRANCH  29  30
ATOM     30  C   UNL A   1      43.073  41.761  31.568  1.00  0.00     0.188 C 
BRANCH  30  31
ATOM     31  O   UNL A   1      42.755  41.706  30.184  1.00  0.00    -0.376 OA
BRANCH  31  32
ATOM     32  C   UNL A   1      43.848  41.556  29.289  1.00  0.00     0.202 C 
BRANCH  32  33
ATOM     33  C   UNL A   1      43.700  40.431  28.254  1.00  0.00     0.261 C 
BRANCH  33  34
ATOM     34  O   UNL A   1      43.687  39.097  28.790  1.00  0.00    -0.460 OA
BRANCH  34  35
ATOM     35  C   UNL A   1      42.657  38.297  28.438  1.00  0.00     0.338 C 
ATOM     36  O   UNL A   1      41.600  38.630  27.933  1.00  0.00    -0.246 OA
BRANCH  35  37
ATOM     37  C   UNL A   1      43.094  36.900  28.610  1.00  0.00     0.060 A 
ATOM     38  C   UNL A   1      42.137  35.879  28.549  1.00  0.00     0.016 A 
ATOM     39  C   UNL A   1      44.437  36.608  28.855  1.00  0.00     0.016 A 
ATOM     40  C   UNL A   1      42.519  34.558  28.780  1.00  0.00     0.010 A 
ATOM     41  C   UNL A   1      44.814  35.287  29.104  1.00  0.00     0.010 A 
ATOM     42  C   UNL A   1      43.850  34.265  29.108  1.00  0.00    -0.014 A 
BRANCH  42  43
ATOM     43  C   UNL A   1      44.188  32.936  29.670  1.00  0.00     0.031 A 
ATOM     44  C   UNL A   1      43.891  32.686  31.123  1.00  0.00     0.074 A 
ATOM     45  C   UNL A   1      44.727  31.967  28.908  1.00  0.00     0.049 A 
ATOM     46  N   UNL A   1      44.120  31.623  31.848  1.00  0.00    -0.248 NA
ATOM     47  C   UNL A   1      43.248  33.789  31.859  1.00  0.00     0.031 C 
ATOM     48  C   UNL A   1      45.028  32.079  27.483  1.00  0.00     0.029 A 
ATOM     49  N   UNL A   1      45.124  30.695  29.238  1.00  0.00    -0.354 N 
ATOM     50  C   UNL A   1      43.652  31.926  33.121  1.00  0.00     0.074 A 
ATOM     51  C   UNL A   1      43.158  33.285  33.080  1.00  0.00     0.031 C 
ATOM     52  C   UNL A   1      45.574  30.924  27.061  1.00  0.00     0.029 A 
ATOM     53  C   UNL A   1      45.683  30.004  28.192  1.00  0.00     0.049 A 
ATOM     54  H   UNL A   1      45.017  30.315  30.140  1.00  0.00     0.167 HD
ATOM     55  C   UNL A   1      43.626  31.141  34.222  1.00  0.00     0.037 A 
ATOM     56  C   UNL A   1      46.235  28.773  28.160  1.00  0.00     0.037 A 
ATOM     57  C   UNL A   1      44.128  29.793  34.261  1.00  0.00     0.049 A 
ATOM     58  C   UNL A   1      46.259  27.940  29.416  1.00  0.00     0.074 A 
ATOM     59  C   UNL A   1      44.142  28.910  35.326  1.00  0.00     0.029 A 
ATOM     60  N   UNL A   1      44.712  29.136  33.188  1.00  0.00    -0.354 N 
ATOM     61  N   UNL A   1      45.792  28.231  30.609  1.00  0.00    -0.248 NA
ATOM     62  C   UNL A   1      46.880  26.612  29.323  1.00  0.00     0.031 C 
ATOM     63  C   UNL A   1      44.776  27.735  34.911  1.00  0.00     0.029 A 
ATOM     64  C   UNL A   1      45.110  27.866  33.572  1.00  0.00     0.049 A 
ATOM     65  H   UNL A   1      44.826  29.516  32.288  1.00  0.00     0.167 HD
ATOM     66  C   UNL A   1      46.036  27.109  31.397  1.00  0.00     0.074 A 
ATOM     67  C   UNL A   1      46.685  26.134  30.545  1.00  0.00     0.031 C 
ATOM     68  C   UNL A   1      45.747  26.904  32.708  1.00  0.00     0.037 A 
BRANCH  55  69
ATOM     69  C   UNL A   1      43.060  31.735  35.482  1.00  0.00     0.058 A 
ATOM     70  C   UNL A   1      41.739  31.489  35.885  1.00  0.00     0.135 A 
ATOM     71  C   UNL A   1      43.854  32.553  36.302  1.00  0.00     0.135 A 
ATOM     72  F   UNL A   1      40.929  30.732  35.126  1.00  0.00    -0.206 F 
ATOM     73  C   UNL A   1      41.215  32.052  37.044  1.00  0.00     0.059 A 
ATOM     74  C   UNL A   1      43.360  33.106  37.479  1.00  0.00     0.059 A 
ATOM     75  F   UNL A   1      45.123  32.826  35.958  1.00  0.00    -0.206 F 
ATOM     76  C   UNL A   1      42.033  32.862  37.833  1.00  0.00     0.060 A 
BRANCH  76  77
ATOM     77  S   UNL A   1      41.340  33.590  39.332  1.00  0.00     0.124 S 
ATOM     78  O   UNL A   1      42.487  33.545  40.234  1.00  0.00    -0.237 OA
ATOM     79  O   UNL A   1      40.942  34.919  38.879  1.00  0.00    -0.237 OA
ATOM     80  O   UNL A   1      40.241  32.691  39.670  1.00  0.00    -0.744 OA
ENDBRANCH  76  77
ENDBRANCH  55  69
BRANCH  56  81
ATOM     81  C   UNL A   1      46.820  28.253  26.894  1.00  0.00     0.058 A 
ATOM     82  C   UNL A   1      48.194  28.364  26.630  1.00  0.00     0.135 A 
ATOM     83  C   UNL A   1      46.015  27.642  25.920  1.00  0.00     0.135 A 
ATOM     84  F   UNL A   1      49.003  28.952  27.524  1.00  0.00    -0.206 F 
ATOM     85  C   UNL A   1      48.747  27.900  25.441  1.00  0.00     0.059 A 
ATOM     86  C   UNL A   1      46.549  27.148  24.734  1.00  0.00     0.059 A 
ATOM     87  F   UNL A   1      44.696  27.505  26.127  1.00  0.00    -0.206 F 
ATOM     88  C   UNL A   1      47.916  27.292  24.499  1.00  0.00     0.060 A 
BRANCH  88  89
ATOM     89  S   UNL A   1      48.650  26.650  22.979  1.00  0.00     0.124 S 
ATOM     90  O   UNL A   1      48.253  25.248  23.030  1.00  0.00    -0.237 OA
ATOM     91  O   UNL A   1      47.998  27.463  21.957  1.00  0.00    -0.237 OA
ATOM     92  O   UNL A   1      50.075  26.910  23.160  1.00  0.00    -0.744 OA
ENDBRANCH  88  89
ENDBRANCH  56  81
BRANCH  68  93
ATOM     93  C   UNL A   1      46.091  25.562  33.295  1.00  0.00     0.058 A 
ATOM     94  C   UNL A   1      47.343  25.308  33.877  1.00  0.00     0.135 A 
ATOM     95  C   UNL A   1      45.134  24.535  33.327  1.00  0.00     0.135 A 
ATOM     96  F   UNL A   1      48.295  26.255  33.871  1.00  0.00    -0.206 F 
ATOM     97  C   UNL A   1      47.641  24.075  34.449  1.00  0.00     0.059 A 
ATOM     98  C   UNL A   1      45.401  23.304  33.916  1.00  0.00     0.059 A 
ATOM     99  F   UNL A   1      43.916  24.729  32.795  1.00  0.00    -0.206 F 
ATOM    100  C   UNL A   1      46.662  23.079  34.465  1.00  0.00     0.060 A 
BRANCH 100 101
ATOM    101  S   UNL A   1      47.051  21.494  35.237  1.00  0.00     0.124 S 
ATOM    102  O   UNL A   1      48.506  21.561  35.329  1.00  0.00    -0.237 OA
ATOM    103  O   UNL A   1      46.330  21.577  36.503  1.00  0.00    -0.237 OA
ATOM    104  O   UNL A   1      46.527  20.516  34.288  1.00  0.00    -0.744 OA
ENDBRANCH 100 101
ENDBRANCH  68  93
ENDBRANCH  42  43
ENDBRANCH  35  37
ENDBRANCH  34  35
ENDBRANCH  33  34
ENDBRANCH  32  33
ENDBRANCH  31  32
ENDBRANCH  30  31
ENDBRANCH  29  30
ENDBRANCH   1  29
TORSDOF 27
ENDMDL
MODEL 2
REMARK VINA RESULT:      -5.8      6.355     12.184
REMARK SMILES CC[C@@H](C(=O)OCCOCCOCCOCCOC(=O)c1ccc(-c2c3nc(c(-c4c(F)cc(S(=O)(=O)[O-])cc4F)c4ccc([nH]4)c(-c4c(F)cc(S(=O)(=O)[O-])cc4F)c4nc(c(-c5c(F)cc(S(=O)(=O)[O-])cc5F)c5ccc2[nH]5)C=C4)C=C3)cc1)N1CCN(Cc2cccc(C)c2)C(=O)C1=O
REMARK SMILES IDX 12 1 11 2 10 3 9 4 8 5 7 6 6 7 4 8 5 9 3 10 2 11 1 12 87 13
REMARK SMILES IDX 88 14 101 15 89 16 99 17 102 18 90 19 100 20 91 21 92 22
REMARK SMILES IDX 93 23 98 24 94 25 96 26 95 27 97 28 13 29 14 30 15 31 16 32
REMARK SMILES IDX 17 33 18 34 19 35 20 36 21 37 22 38 86 39 23 40 85 41 24 42
REMARK SMILES IDX 25 43 26 44 79 45 27 46 84 47 78 48 80 49 28 50 83 51 77 52
REMARK SMILES IDX 76 53 29 55 63 56 42 57 62 58 43 59 46 60 61 61 81 62 44 63
REMARK SMILES IDX 45 64 60 66 82 67 47 68 30 69 31 70 40 71 32 72 33 73 39 74
REMARK SMILES IDX 41 75 34 76 35 77 36 78 37 79 38 80 64 81 65 82 74 83 66 84
REMARK SMILES IDX 67 85 73 86 75 87 68 88 69 89 70 90 71 91 72 92 48 93 49 94
REMARK SMILES IDX 58 95 50 96 51 97 57 98 59 99 52 100 53 101 54 102 55 103
REMARK SMILES IDX 56 104
REMARK H PARENT 80 54 46 65
REMARK Flexibility Score: inf
ROOT
ATOM      1  O   UNL A   1      41.938  24.969  26.829  1.00  0.00    -0.377 OA
ENDROOT
BRANCH   1   2
ATOM      2  C   UNL A   1      40.604  25.448  26.875  1.00  0.00     0.188 C 
BRANCH   2   3
ATOM      3  C   UNL A   1      39.435  24.464  26.695  1.00  0.00     0.188 C 
BRANCH   3   4
ATOM      4  O   UNL A   1      39.792  23.215  26.114  1.00  0.00    -0.376 OA
BRANCH   4   5
ATOM      5  C   UNL A   1      38.980  22.109  26.512  1.00  0.00     0.202 C 
BRANCH   5   6
ATOM      6  C   UNL A   1      38.209  21.441  25.371  1.00  0.00     0.261 C 
BRANCH   6   7
ATOM      7  O   UNL A   1      36.916  22.042  25.196  1.00  0.00    -0.462 OA
BRANCH   7   8
ATOM      8  C   UNL A   1      35.853  21.230  25.001  1.00  0.00     0.328 C 
ATOM      9  O   UNL A   1      35.806  20.062  25.365  1.00  0.00    -0.250 OA
BRANCH   8  10
ATOM     10  C   UNL A   1      34.686  21.979  24.296  1.00  0.00     0.195 C 
BRANCH  10  11
ATOM     11  C   UNL A   1      35.190  22.946  23.182  1.00  0.00     0.034 C 
ATOM     12  C   UNL A   1      34.155  23.720  22.380  1.00  0.00     0.007 C 
ENDBRANCH  10  11
BRANCH  10  13
ATOM     13  N   UNL A   1      33.694  22.624  25.233  1.00  0.00    -0.319 N 
ATOM     14  C   UNL A   1      34.044  23.792  26.040  1.00  0.00     0.142 C 
ATOM     15  C   UNL A   1      32.319  22.348  25.110  1.00  0.00     0.312 C 
ATOM     16  C   UNL A   1      33.066  24.936  25.783  1.00  0.00     0.142 C 
ATOM     17  C   UNL A   1      31.331  23.223  25.962  1.00  0.00     0.312 C 
ATOM     18  O   UNL A   1      31.849  21.514  24.350  1.00  0.00    -0.263 OA
ATOM     19  N   UNL A   1      31.725  24.548  26.181  1.00  0.00    -0.328 N 
ATOM     20  O   UNL A   1      30.266  22.756  26.343  1.00  0.00    -0.263 OA
BRANCH  19  21
ATOM     21  C   UNL A   1      30.719  25.559  26.509  1.00  0.00     0.155 C 
BRANCH  21  22
ATOM     22  C   UNL A   1      30.786  26.824  25.682  1.00  0.00    -0.028 A 
ATOM     23  C   UNL A   1      30.254  26.857  24.386  1.00  0.00     0.005 A 
ATOM     24  C   UNL A   1      31.403  27.984  26.179  1.00  0.00     0.009 A 
ATOM     25  C   UNL A   1      30.328  28.022  23.618  1.00  0.00     0.001 A 
ATOM     26  C   UNL A   1      31.413  29.178  25.447  1.00  0.00    -0.051 A 
ATOM     27  C   UNL A   1      30.891  29.180  24.150  1.00  0.00     0.003 A 
ATOM     28  C   UNL A   1      31.973  30.435  26.043  1.00  0.00     0.044 C 
ENDBRANCH  21  22
ENDBRANCH  19  21
ENDBRANCH  10  13
ENDBRANCH   8  10
ENDBRANCH   7   8
ENDBRANCH   6   7
ENDBRANCH   5   6
ENDBRANCH   4   5
ENDBRANCH   3   4
ENDBRANCH   2   3
ENDBRANCH   1   2
BRANCH   1  29
ATOM     29  C   UNL A   1      42.585  24.839  25.566  1.00  0.00     0.188 C 
BRANCH  29  30
ATOM     30  C   UNL A   1      43.805  23.909  25.407  1.00  0.00     0.188 C 
BRANCH  30  31
ATOM     31  O   UNL A   1      44.818  24.391  24.535  1.00  0.00    -0.376 OA
BRANCH  31  32
ATOM     32  C   UNL A   1      45.672  25.402  25.053  1.00  0.00     0.202 C 
BRANCH  32  33
ATOM     33  C   UNL A   1      45.680  25.536  26.582  1.00  0.00     0.261 C 
BRANCH  33  34
ATOM     34  O   UNL A   1      44.868  26.597  27.112  1.00  0.00    -0.460 OA
BRANCH  34  35
ATOM     35  C   UNL A   1      44.881  26.778  28.451  1.00  0.00     0.338 C 
ATOM     36  O   UNL A   1      44.784  25.925  29.315  1.00  0.00    -0.246 OA
BRANCH  35  37
ATOM     37  C   UNL A   1      45.210  28.191  28.710  1.00  0.00     0.060 A 
ATOM     38  C   UNL A   1      46.117  28.499  29.732  1.00  0.00     0.016 A 
ATOM     39  C   UNL A   1      44.606  29.203  27.962  1.00  0.00     0.016 A 
ATOM     40  C   UNL A   1      46.387  29.832  30.040  1.00  0.00     0.010 A 
ATOM     41  C   UNL A   1      44.863  30.537  28.285  1.00  0.00     0.010 A 
ATOM     42  C   UNL A   1      45.722  30.855  29.350  1.00  0.00    -0.014 A 
BRANCH  42  43
ATOM     43  C   UNL A   1      45.752  32.237  29.885  1.00  0.00     0.031 A 
ATOM     44  C   UNL A   1      44.691  32.636  30.874  1.00  0.00     0.074 A 
ATOM     45  C   UNL A   1      46.707  33.111  29.520  1.00  0.00     0.049 A 
ATOM     46  N   UNL A   1      44.489  33.787  31.457  1.00  0.00    -0.248 NA
ATOM     47  C   UNL A   1      43.724  31.591  31.253  1.00  0.00     0.031 C 
ATOM     48  C   UNL A   1      47.806  32.830  28.599  1.00  0.00     0.029 A 
ATOM     49  N   UNL A   1      46.896  34.421  29.881  1.00  0.00    -0.354 N 
ATOM     50  C   UNL A   1      43.376  33.608  32.271  1.00  0.00     0.074 A 
ATOM     51  C   UNL A   1      42.925  32.247  32.079  1.00  0.00     0.031 C 
ATOM     52  C   UNL A   1      48.550  33.941  28.457  1.00  0.00     0.029 A 
ATOM     53  C   UNL A   1      47.965  35.016  29.258  1.00  0.00     0.049 A 
ATOM     54  H   UNL A   1      46.318  34.890  30.527  1.00  0.00     0.167 HD
ATOM     55  C   UNL A   1      42.789  34.493  33.109  1.00  0.00     0.037 A 
ATOM     56  C   UNL A   1      48.408  36.289  29.317  1.00  0.00     0.037 A 
ATOM     57  C   UNL A   1      43.236  35.848  33.289  1.00  0.00     0.049 A 
ATOM     58  C   UNL A   1      47.697  37.278  30.206  1.00  0.00     0.074 A 
ATOM     59  C   UNL A   1      42.715  36.824  34.120  1.00  0.00     0.029 A 
ATOM     60  N   UNL A   1      44.307  36.423  32.620  1.00  0.00    -0.354 N 
ATOM     61  N   UNL A   1      46.659  37.090  30.988  1.00  0.00    -0.248 NA
ATOM     62  C   UNL A   1      48.219  38.652  30.224  1.00  0.00     0.031 C 
ATOM     63  C   UNL A   1      43.441  38.002  33.920  1.00  0.00     0.029 A 
ATOM     64  C   UNL A   1      44.449  37.746  33.003  1.00  0.00     0.049 A 
ATOM     65  H   UNL A   1      44.882  35.959  31.970  1.00  0.00     0.167 HD
ATOM     66  C   UNL A   1      46.425  38.312  31.612  1.00  0.00     0.074 A 
ATOM     67  C   UNL A   1      47.433  39.230  31.123  1.00  0.00     0.031 C 
ATOM     68  C   UNL A   1      45.464  38.644  32.512  1.00  0.00     0.037 A 
BRANCH  55  69
ATOM     69  C   UNL A   1      41.582  34.026  33.873  1.00  0.00     0.058 A 
ATOM     70  C   UNL A   1      40.288  34.120  33.338  1.00  0.00     0.135 A 
ATOM     71  C   UNL A   1      41.723  33.466  35.153  1.00  0.00     0.135 A 
ATOM     72  F   UNL A   1      40.094  34.668  32.127  1.00  0.00    -0.206 F 
ATOM     73  C   UNL A   1      39.173  33.698  34.055  1.00  0.00     0.059 A 
ATOM     74  C   UNL A   1      40.625  33.014  35.877  1.00  0.00     0.059 A 
ATOM     75  F   UNL A   1      42.939  33.359  35.714  1.00  0.00    -0.206 F 
ATOM     76  C   UNL A   1      39.352  33.149  35.325  1.00  0.00     0.060 A 
BRANCH  76  77
ATOM     77  S   UNL A   1      37.895  32.610  36.245  1.00  0.00     0.124 S 
ATOM     78  O   UNL A   1      37.038  32.119  35.170  1.00  0.00    -0.237 OA
ATOM     79  O   UNL A   1      38.446  31.590  37.132  1.00  0.00    -0.237 OA
ATOM     80  O   UNL A   1      37.438  33.829  36.904  1.00  0.00    -0.744 OA
ENDBRANCH  76  77
ENDBRANCH  55  69
BRANCH  56  81
ATOM     81  C   UNL A   1      49.582  36.707  28.505  1.00  0.00     0.058 A 
ATOM     82  C   UNL A   1      50.883  36.656  29.030  1.00  0.00     0.135 A 
ATOM     83  C   UNL A   1      49.426  37.174  27.191  1.00  0.00     0.135 A 
ATOM     84  F   UNL A   1      51.083  36.230  30.286  1.00  0.00    -0.206 F 
ATOM     85  C   UNL A   1      51.985  37.065  28.286  1.00  0.00     0.059 A 
ATOM     86  C   UNL A   1      50.516  37.565  26.419  1.00  0.00     0.059 A 
ATOM     87  F   UNL A   1      48.205  37.236  26.639  1.00  0.00    -0.206 F 
ATOM     88  C   UNL A   1      51.792  37.517  26.979  1.00  0.00     0.060 A 
BRANCH  88  89
ATOM     89  S   UNL A   1      53.233  38.000  26.006  1.00  0.00     0.124 S 
ATOM     90  O   UNL A   1      54.247  37.079  26.505  1.00  0.00    -0.237 OA
ATOM     91  O   UNL A   1      52.773  37.765  24.640  1.00  0.00    -0.237 OA
ATOM     92  O   UNL A   1      53.423  39.403  26.362  1.00  0.00    -0.744 OA
ENDBRANCH  88  89
ENDBRANCH  56  81
BRANCH  68  93
ATOM     93  C   UNL A   1      45.477  40.046  33.058  1.00  0.00     0.058 A 
ATOM     94  C   UNL A   1      46.237  40.394  34.186  1.00  0.00     0.135 A 
ATOM     95  C   UNL A   1      44.764  41.067  32.409  1.00  0.00     0.135 A 
ATOM     96  F   UNL A   1      46.934  39.455  34.846  1.00  0.00    -0.206 F 
ATOM     97  C   UNL A   1      46.270  41.700  34.665  1.00  0.00     0.059 A 
ATOM     98  C   UNL A   1      44.805  42.384  32.854  1.00  0.00     0.059 A 
ATOM     99  F   UNL A   1      44.032  40.792  31.318  1.00  0.00    -0.206 F 
ATOM    100  C   UNL A   1      45.552  42.689  33.991  1.00  0.00     0.060 A 
BRANCH 100 101
ATOM    101  S   UNL A   1      45.628  44.386  34.603  1.00  0.00     0.124 S 
ATOM    102  O   UNL A   1      44.397  44.950  34.059  1.00  0.00    -0.237 OA
ATOM    103  O   UNL A   1      45.654  44.196  36.050  1.00  0.00    -0.237 OA
ATOM    104  O   UNL A   1      46.865  44.901  34.023  1.00  0.00    -0.744 OA
ENDBRANCH 100 101
ENDBRANCH  68  93
ENDBRANCH  42  43
ENDBRANCH  35  37
ENDBRANCH  34  35
ENDBRANCH  33  34
ENDBRANCH  32  33
ENDBRANCH  31  32
ENDBRANCH  30  31
ENDBRANCH  29  30
ENDBRANCH   1  29
TORSDOF 27
ENDMDL
MODEL 3
REMARK VINA RESULT:      -5.8      4.493     10.042
REMARK SMILES CC[C@@H](C(=O)OCCOCCOCCOCCOC(=O)c1ccc(-c2c3nc(c(-c4c(F)cc(S(=O)(=O)[O-])cc4F)c4ccc([nH]4)c(-c4c(F)cc(S(=O)(=O)[O-])cc4F)c4nc(c(-c5c(F)cc(S(=O)(=O)[O-])cc5F)c5ccc2[nH]5)C=C4)C=C3)cc1)N1CCN(Cc2cccc(C)c2)C(=O)C1=O
REMARK SMILES IDX 12 1 11 2 10 3 9 4 8 5 7 6 6 7 4 8 5 9 3 10 2 11 1 12 87 13
REMARK SMILES IDX 88 14 101 15 89 16 99 17 102 18 90 19 100 20 91 21 92 22
REMARK SMILES IDX 93 23 98 24 94 25 96 26 95 27 97 28 13 29 14 30 15 31 16 32
REMARK SMILES IDX 17 33 18 34 19 35 20 36 21 37 22 38 86 39 23 40 85 41 24 42
REMARK SMILES IDX 25 43 26 44 79 45 27 46 84 47 78 48 80 49 28 50 83 51 77 52
REMARK SMILES IDX 76 53 29 55 63 56 42 57 62 58 43 59 46 60 61 61 81 62 44 63
REMARK SMILES IDX 45 64 60 66 82 67 47 68 30 69 31 70 40 71 32 72 33 73 39 74
REMARK SMILES IDX 41 75 34 76 35 77 36 78 37 79 38 80 64 81 65 82 74 83 66 84
REMARK SMILES IDX 67 85 73 86 75 87 68 88 69 89 70 90 71 91 72 92 48 93 49 94
REMARK SMILES IDX 58 95 50 96 51 97 57 98 59 99 52 100 53 101 54 102 55 103
REMARK SMILES IDX 56 104
REMARK H PARENT 80 54 46 65
REMARK Flexibility Score: inf
ROOT
ATOM      1  O   UNL A   1      36.265  33.278  33.369  1.00  0.00    -0.377 OA
ENDROOT
BRANCH   1   2
ATOM      2  C   UNL A   1      37.538  32.680  33.183  1.00  0.00     0.188 C 
BRANCH   2   3
ATOM      3  C   UNL A   1      38.796  33.564  33.152  1.00  0.00     0.188 C 
BRANCH   3   4
ATOM      4  O   UNL A   1      39.950  32.939  32.601  1.00  0.00    -0.376 OA
BRANCH   4   5
ATOM      5  C   UNL A   1      41.156  33.696  32.707  1.00  0.00     0.202 C 
BRANCH   5   6
ATOM      6  C   UNL A   1      41.270  34.537  33.981  1.00  0.00     0.261 C 
BRANCH   6   7
ATOM      7  O   UNL A   1      42.109  35.685  33.773  1.00  0.00    -0.462 OA
BRANCH   7   8
ATOM      8  C   UNL A   1      42.295  36.539  34.805  1.00  0.00     0.328 C 
ATOM      9  O   UNL A   1      42.272  37.758  34.698  1.00  0.00    -0.250 OA
BRANCH   8  10
ATOM     10  C   UNL A   1      42.497  35.776  36.145  1.00  0.00     0.195 C 
BRANCH  10  11
ATOM     11  C   UNL A   1      41.786  36.480  37.340  1.00  0.00     0.034 C 
ATOM     12  C   UNL A   1      40.372  36.045  37.693  1.00  0.00     0.007 C 
ENDBRANCH  10  11
BRANCH  10  13
ATOM     13  N   UNL A   1      43.927  35.400  36.446  1.00  0.00    -0.319 N 
ATOM     14  C   UNL A   1      44.816  36.288  37.193  1.00  0.00     0.142 C 
ATOM     15  C   UNL A   1      44.349  34.061  36.328  1.00  0.00     0.312 C 
ATOM     16  C   UNL A   1      45.396  35.570  38.410  1.00  0.00     0.142 C 
ATOM     17  C   UNL A   1      45.778  33.707  36.874  1.00  0.00     0.312 C 
ATOM     18  O   UNL A   1      43.658  33.159  35.878  1.00  0.00    -0.263 OA
ATOM     19  N   UNL A   1      46.205  34.441  37.987  1.00  0.00    -0.328 N 
ATOM     20  O   UNL A   1      46.424  32.800  36.367  1.00  0.00    -0.263 OA
BRANCH  19  21
ATOM     21  C   UNL A   1      47.245  33.896  38.859  1.00  0.00     0.155 C 
BRANCH  21  22
ATOM     22  C   UNL A   1      48.665  34.202  38.435  1.00  0.00    -0.028 A 
ATOM     23  C   UNL A   1      49.141  35.520  38.441  1.00  0.00     0.005 A 
ATOM     24  C   UNL A   1      49.528  33.183  38.002  1.00  0.00     0.009 A 
ATOM     25  C   UNL A   1      50.449  35.803  38.037  1.00  0.00     0.001 A 
ATOM     26  C   UNL A   1      50.863  33.447  37.669  1.00  0.00    -0.051 A 
ATOM     27  C   UNL A   1      51.310  34.771  37.666  1.00  0.00     0.003 A 
ATOM     28  C   UNL A   1      51.799  32.329  37.320  1.00  0.00     0.044 C 
ENDBRANCH  21  22
ENDBRANCH  19  21
ENDBRANCH  10  13
ENDBRANCH   8  10
ENDBRANCH   7   8
ENDBRANCH   6   7
ENDBRANCH   5   6
ENDBRANCH   4   5
ENDBRANCH   3   4
ENDBRANCH   2   3
ENDBRANCH   1   2
BRANCH   1  29
ATOM     29  C   UNL A   1      35.312  33.223  32.311  1.00  0.00     0.188 C 
BRANCH  29  30
ATOM     30  C   UNL A   1      35.121  34.431  31.370  1.00  0.00     0.188 C 
BRANCH  30  31
ATOM     31  O   UNL A   1      34.089  34.283  30.405  1.00  0.00    -0.376 OA
BRANCH  31  32
ATOM     32  C   UNL A   1      34.499  33.987  29.078  1.00  0.00     0.202 C 
BRANCH  32  33
ATOM     33  C   UNL A   1      34.203  32.558  28.602  1.00  0.00     0.261 C 
BRANCH  33  34
ATOM     34  O   UNL A   1      35.150  31.560  29.017  1.00  0.00    -0.460 OA
BRANCH  34  35
ATOM     35  C   UNL A   1      35.138  30.381  28.358  1.00  0.00     0.338 C 
ATOM     36  O   UNL A   1      34.225  29.906  27.705  1.00  0.00    -0.246 OA
BRANCH  35  37
ATOM     37  C   UNL A   1      36.500  29.820  28.414  1.00  0.00     0.060 A 
ATOM     38  C   UNL A   1      37.005  29.389  29.647  1.00  0.00     0.016 A 
ATOM     39  C   UNL A   1      37.278  29.746  27.257  1.00  0.00     0.016 A 
ATOM     40  C   UNL A   1      38.316  28.921  29.733  1.00  0.00     0.010 A 
ATOM     41  C   UNL A   1      38.597  29.296  27.349  1.00  0.00     0.010 A 
ATOM     42  C   UNL A   1      39.132  28.921  28.593  1.00  0.00    -0.014 A 
BRANCH  42  43
ATOM     43  C   UNL A   1      40.596  28.744  28.742  1.00  0.00     0.031 A 
ATOM     44  C   UNL A   1      41.184  27.402  28.400  1.00  0.00     0.074 A 
ATOM     45  C   UNL A   1      41.387  29.751  29.150  1.00  0.00     0.049 A 
ATOM     46  N   UNL A   1      42.423  26.994  28.476  1.00  0.00    -0.248 NA
ATOM     47  C   UNL A   1      40.242  26.381  27.908  1.00  0.00     0.031 C 
ATOM     48  C   UNL A   1      40.939  31.103  29.476  1.00  0.00     0.029 A 
ATOM     49  N   UNL A   1      42.742  29.783  29.367  1.00  0.00    -0.354 N 
ATOM     50  C   UNL A   1      42.411  25.673  28.042  1.00  0.00     0.074 A 
ATOM     51  C   UNL A   1      41.038  25.337  27.739  1.00  0.00     0.031 C 
ATOM     52  C   UNL A   1      42.001  31.833  29.863  1.00  0.00     0.029 A 
ATOM     53  C   UNL A   1      43.197  30.991  29.836  1.00  0.00     0.049 A 
ATOM     54  H   UNL A   1      43.332  29.012  29.201  1.00  0.00     0.167 HD
ATOM     55  C   UNL A   1      43.452  24.820  27.900  1.00  0.00     0.037 A 
ATOM     56  C   UNL A   1      44.436  31.366  30.215  1.00  0.00     0.037 A 
ATOM     57  C   UNL A   1      44.815  25.156  28.213  1.00  0.00     0.049 A 
ATOM     58  C   UNL A   1      45.571  30.378  30.113  1.00  0.00     0.074 A 
ATOM     59  C   UNL A   1      45.945  24.366  28.097  1.00  0.00     0.029 A 
ATOM     60  N   UNL A   1      45.234  26.381  28.711  1.00  0.00    -0.354 N 
ATOM     61  N   UNL A   1      45.551  29.138  29.680  1.00  0.00    -0.248 NA
ATOM     62  C   UNL A   1      46.897  30.839  30.548  1.00  0.00     0.031 C 
ATOM     63  C   UNL A   1      47.040  25.097  28.568  1.00  0.00     0.029 A 
ATOM     64  C   UNL A   1      46.601  26.362  28.928  1.00  0.00     0.049 A 
ATOM     65  H   UNL A   1      44.645  27.151  28.884  1.00  0.00     0.167 HD
ATOM     66  C   UNL A   1      46.864  28.685  29.762  1.00  0.00     0.074 A 
ATOM     67  C   UNL A   1      47.653  29.783  30.279  1.00  0.00     0.031 C 
ATOM     68  C   UNL A   1      47.372  27.469  29.436  1.00  0.00     0.037 A 
BRANCH  55  69
ATOM     69  C   UNL A   1      43.147  23.433  27.410  1.00  0.00     0.058 A 
ATOM     70  C   UNL A   1      42.649  22.440  28.267  1.00  0.00     0.135 A 
ATOM     71  C   UNL A   1      43.345  23.095  26.061  1.00  0.00     0.135 A 
ATOM     72  F   UNL A   1      42.463  22.702  29.571  1.00  0.00    -0.206 F 
ATOM     73  C   UNL A   1      42.381  21.153  27.811  1.00  0.00     0.059 A 
ATOM     74  C   UNL A   1      43.059  21.822  25.578  1.00  0.00     0.059 A 
ATOM     75  F   UNL A   1      43.825  24.006  25.200  1.00  0.00    -0.206 F 
ATOM     76  C   UNL A   1      42.592  20.854  26.465  1.00  0.00     0.060 A 
BRANCH  76  77
ATOM     77  S   UNL A   1      42.243  19.179  25.888  1.00  0.00     0.124 S 
ATOM     78  O   UNL A   1      42.715  18.380  27.015  1.00  0.00    -0.237 OA
ATOM     79  O   UNL A   1      40.798  19.210  25.694  1.00  0.00    -0.237 OA
ATOM     80  O   UNL A   1      43.035  19.068  24.666  1.00  0.00    -0.744 OA
ENDBRANCH  76  77
ENDBRANCH  55  69
BRANCH  56  81
ATOM     81  C   UNL A   1      44.672  32.740  30.734  1.00  0.00     0.058 A 
ATOM     82  C   UNL A   1      44.798  33.833  29.864  1.00  0.00     0.135 A 
ATOM     83  C   UNL A   1      44.784  32.986  32.112  1.00  0.00     0.135 A 
ATOM     84  F   UNL A   1      44.712  33.648  28.538  1.00  0.00    -0.206 F 
ATOM     85  C   UNL A   1      45.040  35.118  30.338  1.00  0.00     0.059 A 
ATOM     86  C   UNL A   1      45.001  34.266  32.611  1.00  0.00     0.059 A 
ATOM     87  F   UNL A   1      44.664  31.976  32.987  1.00  0.00    -0.206 F 
ATOM     88  C   UNL A   1      45.139  35.325  31.715  1.00  0.00     0.060 A 
BRANCH  88  89
ATOM     89  S   UNL A   1      45.405  37.004  32.323  1.00  0.00     0.124 S 
ATOM     90  O   UNL A   1      46.673  37.349  31.690  1.00  0.00    -0.237 OA
ATOM     91  O   UNL A   1      44.227  37.703  31.818  1.00  0.00    -0.237 OA
ATOM     92  O   UNL A   1      45.449  36.833  33.772  1.00  0.00    -0.744 OA
ENDBRANCH  88  89
ENDBRANCH  56  81
BRANCH  68  93
ATOM     93  C   UNL A   1      48.856  27.270  29.589  1.00  0.00     0.058 A 
ATOM     94  C   UNL A   1      49.760  27.639  28.581  1.00  0.00     0.135 A 
ATOM     95  C   UNL A   1      49.384  26.759  30.786  1.00  0.00     0.135 A 
ATOM     96  F   UNL A   1      49.308  28.130  27.416  1.00  0.00    -0.206 F 
ATOM     97  C   UNL A   1      51.133  27.484  28.743  1.00  0.00     0.059 A 
ATOM     98  C   UNL A   1      50.754  26.621  30.981  1.00  0.00     0.059 A 
ATOM     99  F   UNL A   1      48.565  26.403  31.788  1.00  0.00    -0.206 F 
ATOM    100  C   UNL A   1      51.621  26.975  29.948  1.00  0.00     0.060 A 
BRANCH 100 101
ATOM    101  S   UNL A   1      53.407  26.808  30.160  1.00  0.00     0.124 S 
ATOM    102  O   UNL A   1      53.797  26.205  28.889  1.00  0.00    -0.237 OA
ATOM    103  O   UNL A   1      53.829  28.191  30.363  1.00  0.00    -0.237 OA
ATOM    104  O   UNL A   1      53.531  25.944  31.329  1.00  0.00    -0.744 OA
ENDBRANCH 100 101
ENDBRANCH  68  93
ENDBRANCH  42  43
ENDBRANCH  35  37
ENDBRANCH  34  35
ENDBRANCH  33  34
ENDBRANCH  32  33
ENDBRANCH  31  32
ENDBRANCH  30  31
ENDBRANCH  29  30
ENDBRANCH   1  29
TORSDOF 27
ENDMDL
