MODEL 1
REMARK VINA RESULT:      -7.4      0.000      0.000
REMARK SMILES O=C(OCCOCCOCCOCCOC(=O)c1ccccc1Nc1nc(Cl)nc(Nc2ccc(N3CCOCC3=O)cc2)n1)c1ccc(-c2c3nc(c(-c4c(F)cc(S(=O)(=O)[O-])cc4F)c4ccc([nH]4)c(-c4c(F)cc(S(=O)(=O)[O-])cc4F)c4nc(c(-c5c(F)cc(S(=O)(=O)[O-])cc5F)c5ccc2[nH]5)C=C4)C=C3)cc1
REMARK SMILES IDX 10 1 9 2 8 3 7 4 6 5 5 6 4 7 3 8 2 9 1 10 46 11 47 12 111 13
REMARK SMILES IDX 48 14 110 15 49 16 50 17 51 18 104 19 52 20 109 21 103 22
REMARK SMILES IDX 105 23 53 24 108 25 102 26 101 27 54 29 88 30 67 31 87 32
REMARK SMILES IDX 68 33 71 34 86 35 106 36 69 37 70 38 85 40 107 41 72 42
REMARK SMILES IDX 55 43 56 44 65 45 57 46 58 47 64 48 66 49 59 50 60 51 61 52
REMARK SMILES IDX 62 53 63 54 89 55 90 56 99 57 91 58 92 59 98 60 100 61 93 62
REMARK SMILES IDX 94 63 95 64 96 65 97 66 73 67 74 68 83 69 75 70 76 71 82 72
REMARK SMILES IDX 84 73 77 74 78 75 79 76 80 77 81 78 11 79 12 80 13 81 14 82
REMARK SMILES IDX 15 83 16 84 17 85 18 86 19 87 23 88 20 89 22 90 21 91 24 92
REMARK SMILES IDX 25 94 26 95 45 96 27 97 30 98 28 99 29 100 31 101 32 103
REMARK SMILES IDX 33 104 44 105 34 106 43 107 35 108 36 109 37 110 41 111
REMARK SMILES IDX 38 112 40 113 42 114 39 115
REMARK H PARENT 105 28 71 39 24 93 31 102
REMARK Flexibility Score: inf
ROOT
ATOM      1  C   UNL A   1      40.808  31.857  35.189  1.00  0.00     0.188 C 
ENDROOT
BRANCH   1   2
ATOM      2  O   UNL A   1      39.744  32.696  34.748  1.00  0.00    -0.377 OA
BRANCH   2   3
ATOM      3  C   UNL A   1      38.509  32.045  34.444  1.00  0.00     0.188 C 
BRANCH   3   4
ATOM      4  C   UNL A   1      38.457  30.558  34.802  1.00  0.00     0.188 C 
BRANCH   4   5
ATOM      5  O   UNL A   1      37.633  29.844  33.879  1.00  0.00    -0.376 OA
BRANCH   5   6
ATOM      6  C   UNL A   1      37.178  30.591  32.751  1.00  0.00     0.202 C 
BRANCH   6   7
ATOM      7  C   UNL A   1      37.603  30.005  31.403  1.00  0.00     0.261 C 
BRANCH   7   8
ATOM      8  O   UNL A   1      38.346  28.787  31.551  1.00  0.00    -0.460 OA
BRANCH   8   9
ATOM      9  C   UNL A   1      39.672  28.658  31.821  1.00  0.00     0.338 C 
ATOM     10  O   UNL A   1      40.028  27.741  32.560  1.00  0.00    -0.246 OA
BRANCH   9  11
ATOM     11  C   UNL A   1      40.732  29.549  31.252  1.00  0.00     0.060 A 
ATOM     12  C   UNL A   1      40.861  29.891  29.906  1.00  0.00     0.016 A 
ATOM     13  C   UNL A   1      41.632  30.136  32.160  1.00  0.00     0.016 A 
ATOM     14  C   UNL A   1      41.884  30.705  29.451  1.00  0.00     0.010 A 
ATOM     15  C   UNL A   1      42.648  30.991  31.719  1.00  0.00     0.010 A 
ATOM     16  C   UNL A   1      42.791  31.249  30.351  1.00  0.00    -0.014 A 
BRANCH  16  17
ATOM     17  C   UNL A   1      43.964  31.934  29.783  1.00  0.00     0.031 A 
ATOM     18  C   UNL A   1      43.999  33.431  29.858  1.00  0.00     0.074 A 
ATOM     19  C   UNL A   1      45.038  31.213  29.406  1.00  0.00     0.049 A 
ATOM     20  N   UNL A   1      44.907  34.260  29.422  1.00  0.00    -0.248 NA
ATOM     21  C   UNL A   1      42.864  34.084  30.537  1.00  0.00     0.031 C 
ATOM     22  C   UNL A   1      45.131  29.750  29.456  1.00  0.00     0.029 A 
ATOM     23  N   UNL A   1      46.265  31.607  28.948  1.00  0.00    -0.354 N 
ATOM     24  C   UNL A   1      44.442  35.528  29.752  1.00  0.00     0.074 A 
ATOM     25  C   UNL A   1      43.172  35.365  30.417  1.00  0.00     0.031 C 
ATOM     26  C   UNL A   1      46.359  29.374  29.064  1.00  0.00     0.029 A 
ATOM     27  C   UNL A   1      47.109  30.559  28.664  1.00  0.00     0.049 A 
ATOM     28  H   UNL A   1      46.519  32.551  28.832  1.00  0.00     0.167 HD
ATOM     29  C   UNL A   1      45.035  36.718  29.509  1.00  0.00     0.037 A 
ATOM     30  C   UNL A   1      48.334  30.569  28.103  1.00  0.00     0.037 A 
ATOM     31  C   UNL A   1      46.303  36.835  28.845  1.00  0.00     0.049 A 
ATOM     32  C   UNL A   1      48.919  31.908  27.739  1.00  0.00     0.074 A 
ATOM     33  C   UNL A   1      46.974  37.976  28.452  1.00  0.00     0.029 A 
ATOM     34  N   UNL A   1      47.097  35.753  28.484  1.00  0.00    -0.354 N 
ATOM     35  N   UNL A   1      48.429  33.108  27.959  1.00  0.00    -0.248 NA
ATOM     36  C   UNL A   1      50.206  31.902  27.035  1.00  0.00     0.031 C 
ATOM     37  C   UNL A   1      48.158  37.582  27.817  1.00  0.00     0.029 A 
ATOM     38  C   UNL A   1      48.247  36.198  27.860  1.00  0.00     0.049 A 
ATOM     39  H   UNL A   1      46.874  34.808  28.648  1.00  0.00     0.167 HD
ATOM     40  C   UNL A   1      49.353  34.000  27.429  1.00  0.00     0.074 A 
ATOM     41  C   UNL A   1      50.444  33.200  26.907  1.00  0.00     0.031 C 
ATOM     42  C   UNL A   1      49.307  35.355  27.365  1.00  0.00     0.037 A 
BRANCH  29  43
ATOM     43  C   UNL A   1      44.282  37.957  29.900  1.00  0.00     0.058 A 
ATOM     44  C   UNL A   1      44.315  38.468  31.207  1.00  0.00     0.135 A 
ATOM     45  C   UNL A   1      43.499  38.634  28.952  1.00  0.00     0.135 A 
ATOM     46  F   UNL A   1      45.015  37.836  32.163  1.00  0.00    -0.206 F 
ATOM     47  C   UNL A   1      43.587  39.600  31.564  1.00  0.00     0.059 A 
ATOM     48  C   UNL A   1      42.781  39.781  29.280  1.00  0.00     0.059 A 
ATOM     49  F   UNL A   1      43.416  38.176  27.694  1.00  0.00    -0.206 F 
ATOM     50  C   UNL A   1      42.825  40.251  30.591  1.00  0.00     0.060 A 
BRANCH  50  51
ATOM     51  S   UNL A   1      41.894  41.724  31.067  1.00  0.00     0.124 S 
ATOM     52  O   UNL A   1      41.754  41.530  32.507  1.00  0.00    -0.237 OA
ATOM     53  O   UNL A   1      42.788  42.802  30.657  1.00  0.00    -0.237 OA
ATOM     54  O   UNL A   1      40.660  41.609  30.295  1.00  0.00    -0.744 OA
ENDBRANCH  50  51
ENDBRANCH  29  43
BRANCH  30  55
ATOM     55  C   UNL A   1      49.037  29.296  27.777  1.00  0.00     0.058 A 
ATOM     56  C   UNL A   1      50.051  28.780  28.597  1.00  0.00     0.135 A 
ATOM     57  C   UNL A   1      48.731  28.584  26.604  1.00  0.00     0.135 A 
ATOM     58  F   UNL A   1      50.391  29.420  29.727  1.00  0.00    -0.206 F 
ATOM     59  C   UNL A   1      50.759  27.629  28.252  1.00  0.00     0.059 A 
ATOM     60  C   UNL A   1      49.399  27.415  26.254  1.00  0.00     0.059 A 
ATOM     61  F   UNL A   1      47.763  29.021  25.783  1.00  0.00    -0.206 F 
ATOM     62  C   UNL A   1      50.429  26.958  27.073  1.00  0.00     0.060 A 
BRANCH  62  63
ATOM     63  S   UNL A   1      51.352  25.471  26.625  1.00  0.00     0.124 S 
ATOM     64  O   UNL A   1      50.541  24.428  27.244  1.00  0.00    -0.237 OA
ATOM     65  O   UNL A   1      51.328  25.519  25.167  1.00  0.00    -0.237 OA
ATOM     66  O   UNL A   1      52.661  25.695  27.231  1.00  0.00    -0.744 OA
ENDBRANCH  62  63
ENDBRANCH  30  55
BRANCH  42  67
ATOM     67  C   UNL A   1      50.484  36.038  26.735  1.00  0.00     0.058 A 
ATOM     68  C   UNL A   1      50.530  36.294  25.356  1.00  0.00     0.135 A 
ATOM     69  C   UNL A   1      51.553  36.480  27.529  1.00  0.00     0.135 A 
ATOM     70  F   UNL A   1      49.532  35.884  24.557  1.00  0.00    -0.206 F 
ATOM     71  C   UNL A   1      51.615  36.941  24.779  1.00  0.00     0.059 A 
ATOM     72  C   UNL A   1      52.633  37.157  26.977  1.00  0.00     0.059 A 
ATOM     73  F   UNL A   1      51.545  36.269  28.854  1.00  0.00    -0.206 F 
ATOM     74  C   UNL A   1      52.662  37.369  25.599  1.00  0.00     0.060 A 
BRANCH  74  75
ATOM     75  S   UNL A   1      54.053  38.233  24.843  1.00  0.00     0.124 S 
ATOM     76  O   UNL A   1      53.824  37.969  23.426  1.00  0.00    -0.237 OA
ATOM     77  O   UNL A   1      53.839  39.610  25.275  1.00  0.00    -0.237 OA
ATOM     78  O   UNL A   1      55.218  37.573  25.426  1.00  0.00    -0.744 OA
ENDBRANCH  74  75
ENDBRANCH  42  67
ENDBRANCH  16  17
ENDBRANCH   9  11
ENDBRANCH   8   9
ENDBRANCH   7   8
ENDBRANCH   6   7
ENDBRANCH   5   6
ENDBRANCH   4   5
ENDBRANCH   3   4
ENDBRANCH   2   3
ENDBRANCH   1   2
BRANCH   1  79
ATOM     79  C   UNL A   1      41.223  31.915  36.676  1.00  0.00     0.188 C 
BRANCH  79  80
ATOM     80  O   UNL A   1      42.101  30.869  37.064  1.00  0.00    -0.376 OA
BRANCH  80  81
ATOM     81  C   UNL A   1      42.015  29.668  36.306  1.00  0.00     0.202 C 
BRANCH  81  82
ATOM     82  C   UNL A   1      43.327  28.899  36.087  1.00  0.00     0.261 C 
BRANCH  82  83
ATOM     83  O   UNL A   1      43.193  27.535  35.652  1.00  0.00    -0.460 OA
BRANCH  83  84
ATOM     84  C   UNL A   1      43.498  27.198  34.378  1.00  0.00     0.340 C 
ATOM     85  O   UNL A   1      43.778  27.963  33.472  1.00  0.00    -0.246 OA
BRANCH  84  86
ATOM     86  C   UNL A   1      43.625  25.709  34.318  1.00  0.00     0.083 A 
ATOM     87  C   UNL A   1      42.844  24.967  35.218  1.00  0.00     0.018 A 
ATOM     88  C   UNL A   1      44.389  25.049  33.323  1.00  0.00     0.055 A 
ATOM     89  C   UNL A   1      42.800  23.576  35.128  1.00  0.00     0.001 A 
ATOM     90  C   UNL A   1      44.365  23.646  33.287  1.00  0.00     0.027 A 
ATOM     91  C   UNL A   1      43.566  22.917  34.170  1.00  0.00     0.002 A 
BRANCH  88  92
ATOM     92  N   UNL A   1      45.144  25.785  32.392  1.00  0.00    -0.323 N 
ATOM     93  H   UNL A   1      45.768  26.449  32.766  1.00  0.00     0.170 HD
BRANCH  92  94
ATOM     94  C   UNL A   1      45.112  25.686  31.012  1.00  0.00     0.233 A 
ATOM     95  N   UNL A   1      46.217  25.486  30.315  1.00  0.00    -0.182 NA
ATOM     96  N   UNL A   1      43.904  25.830  30.486  1.00  0.00    -0.176 NA
ATOM     97  C   UNL A   1      45.995  25.385  29.016  1.00  0.00     0.228 A 
ATOM     98  C   UNL A   1      43.823  25.800  29.168  1.00  0.00     0.233 A 
ATOM     99  Cl  UNL A   1      47.366  25.082  28.042  1.00  0.00    -0.041 Cl
ATOM    100  N   UNL A   1      44.849  25.534  28.374  1.00  0.00    -0.182 NA
BRANCH  98 101
ATOM    101  N   UNL A   1      42.597  26.187  28.642  1.00  0.00    -0.324 N 
ATOM    102  H   UNL A   1      42.361  27.136  28.756  1.00  0.00     0.170 HD
BRANCH 101 103
ATOM    103  C   UNL A   1      41.661  25.403  27.976  1.00  0.00     0.041 A 
ATOM    104  C   UNL A   1      41.652  24.017  28.156  1.00  0.00     0.028 A 
ATOM    105  C   UNL A   1      40.659  25.993  27.203  1.00  0.00     0.028 A 
ATOM    106  C   UNL A   1      40.630  23.239  27.603  1.00  0.00     0.028 A 
ATOM    107  C   UNL A   1      39.676  25.216  26.602  1.00  0.00     0.028 A 
ATOM    108  C   UNL A   1      39.641  23.836  26.815  1.00  0.00     0.044 A 
BRANCH 108 109
ATOM    109  N   UNL A   1      38.559  23.071  26.301  1.00  0.00    -0.308 N 
ATOM    110  C   UNL A   1      37.366  23.824  25.901  1.00  0.00     0.154 C 
ATOM    111  C   UNL A   1      38.772  21.765  25.846  1.00  0.00     0.253 C 
ATOM    112  C   UNL A   1      36.193  22.932  25.521  1.00  0.00     0.183 C 
ATOM    113  C   UNL A   1      37.593  21.121  25.107  1.00  0.00     0.260 C 
ATOM    114  O   UNL A   1      39.785  21.101  26.075  1.00  0.00    -0.272 OA
ATOM    115  O   UNL A   1      36.612  21.980  24.546  1.00  0.00    -0.370 OA
ENDBRANCH 108 109
ENDBRANCH 101 103
ENDBRANCH  98 101
ENDBRANCH  92  94
ENDBRANCH  88  92
ENDBRANCH  84  86
ENDBRANCH  83  84
ENDBRANCH  82  83
ENDBRANCH  81  82
ENDBRANCH  80  81
ENDBRANCH  79  80
ENDBRANCH   1  79
TORSDOF 28
ENDMDL
MODEL 2
REMARK VINA RESULT:      -7.4      5.106     14.220
REMARK SMILES O=C(OCCOCCOCCOCCOC(=O)c1ccccc1Nc1nc(Cl)nc(Nc2ccc(N3CCOCC3=O)cc2)n1)c1ccc(-c2c3nc(c(-c4c(F)cc(S(=O)(=O)[O-])cc4F)c4ccc([nH]4)c(-c4c(F)cc(S(=O)(=O)[O-])cc4F)c4nc(c(-c5c(F)cc(S(=O)(=O)[O-])cc5F)c5ccc2[nH]5)C=C4)C=C3)cc1
REMARK SMILES IDX 10 1 9 2 8 3 7 4 6 5 5 6 4 7 3 8 2 9 1 10 46 11 47 12 111 13
REMARK SMILES IDX 48 14 110 15 49 16 50 17 51 18 104 19 52 20 109 21 103 22
REMARK SMILES IDX 105 23 53 24 108 25 102 26 101 27 54 29 88 30 67 31 87 32
REMARK SMILES IDX 68 33 71 34 86 35 106 36 69 37 70 38 85 40 107 41 72 42
REMARK SMILES IDX 55 43 56 44 65 45 57 46 58 47 64 48 66 49 59 50 60 51 61 52
REMARK SMILES IDX 62 53 63 54 89 55 90 56 99 57 91 58 92 59 98 60 100 61 93 62
REMARK SMILES IDX 94 63 95 64 96 65 97 66 73 67 74 68 83 69 75 70 76 71 82 72
REMARK SMILES IDX 84 73 77 74 78 75 79 76 80 77 81 78 11 79 12 80 13 81 14 82
REMARK SMILES IDX 15 83 16 84 17 85 18 86 19 87 23 88 20 89 22 90 21 91 24 92
REMARK SMILES IDX 25 94 26 95 45 96 27 97 30 98 28 99 29 100 31 101 32 103
REMARK SMILES IDX 33 104 44 105 34 106 43 107 35 108 36 109 37 110 41 111
REMARK SMILES IDX 38 112 40 113 42 114 39 115
REMARK H PARENT 105 28 71 39 24 93 31 102
REMARK Flexibility Score: inf
ROOT
ATOM      1  C   UNL A   1      42.942  36.406  26.753  1.00  0.00     0.188 C 
ENDROOT
BRANCH   1   2
ATOM      2  O   UNL A   1      43.590  37.605  27.171  1.00  0.00    -0.377 OA
BRANCH   2   3
ATOM      3  C   UNL A   1      42.998  38.291  28.275  1.00  0.00     0.188 C 
BRANCH   3   4
ATOM      4  C   UNL A   1      43.643  38.008  29.634  1.00  0.00     0.188 C 
BRANCH   4   5
ATOM      5  O   UNL A   1      44.675  38.956  29.911  1.00  0.00    -0.376 OA
BRANCH   5   6
ATOM      6  C   UNL A   1      45.537  38.631  31.002  1.00  0.00     0.202 C 
BRANCH   6   7
ATOM      7  C   UNL A   1      44.846  38.637  32.366  1.00  0.00     0.261 C 
BRANCH   7   8
ATOM      8  O   UNL A   1      45.025  37.401  33.070  1.00  0.00    -0.460 OA
BRANCH   8   9
ATOM      9  C   UNL A   1      45.841  36.369  32.730  1.00  0.00     0.338 C 
ATOM     10  O   UNL A   1      47.054  36.512  32.887  1.00  0.00    -0.246 OA
BRANCH   9  11
ATOM     11  C   UNL A   1      45.355  35.057  32.198  1.00  0.00     0.060 A 
ATOM     12  C   UNL A   1      44.939  33.976  32.976  1.00  0.00     0.016 A 
ATOM     13  C   UNL A   1      45.253  34.929  30.801  1.00  0.00     0.016 A 
ATOM     14  C   UNL A   1      44.523  32.784  32.410  1.00  0.00     0.010 A 
ATOM     15  C   UNL A   1      44.798  33.742  30.216  1.00  0.00     0.010 A 
ATOM     16  C   UNL A   1      44.462  32.654  31.029  1.00  0.00    -0.014 A 
BRANCH  16  17
ATOM     17  C   UNL A   1      44.208  31.304  30.497  1.00  0.00     0.031 A 
ATOM     18  C   UNL A   1      45.313  30.297  30.602  1.00  0.00     0.074 A 
ATOM     19  C   UNL A   1      42.960  30.959  30.126  1.00  0.00     0.049 A 
ATOM     20  N   UNL A   1      45.342  29.056  30.201  1.00  0.00    -0.248 NA
ATOM     21  C   UNL A   1      46.550  30.742  31.272  1.00  0.00     0.031 C 
ATOM     22  C   UNL A   1      41.795  31.851  30.150  1.00  0.00     0.029 A 
ATOM     23  N   UNL A   1      42.451  29.763  29.701  1.00  0.00    -0.354 N 
ATOM     24  C   UNL A   1      46.602  28.582  30.546  1.00  0.00     0.074 A 
ATOM     25  C   UNL A   1      47.313  29.664  31.184  1.00  0.00     0.031 C 
ATOM     26  C   UNL A   1      40.706  31.162  29.774  1.00  0.00     0.029 A 
ATOM     27  C   UNL A   1      41.107  29.808  29.413  1.00  0.00     0.049 A 
ATOM     28  H   UNL A   1      42.995  28.948  29.609  1.00  0.00     0.167 HD
ATOM     29  C   UNL A   1      47.110  27.347  30.339  1.00  0.00     0.037 A 
ATOM     30  C   UNL A   1      40.310  28.864  28.876  1.00  0.00     0.037 A 
ATOM     31  C   UNL A   1      46.365  26.296  29.702  1.00  0.00     0.049 A 
ATOM     32  C   UNL A   1      40.935  27.532  28.549  1.00  0.00     0.074 A 
ATOM     33  C   UNL A   1      46.785  25.030  29.345  1.00  0.00     0.029 A 
ATOM     34  N   UNL A   1      45.029  26.399  29.336  1.00  0.00    -0.354 N 
ATOM     35  N   UNL A   1      42.161  27.119  28.784  1.00  0.00    -0.248 NA
ATOM     36  C   UNL A   1      40.087  26.548  27.871  1.00  0.00     0.031 C 
ATOM     37  C   UNL A   1      45.711  24.380  28.725  1.00  0.00     0.029 A 
ATOM     38  C   UNL A   1      44.610  25.223  28.743  1.00  0.00     0.049 A 
ATOM     39  H   UNL A   1      44.463  27.193  29.477  1.00  0.00     0.167 HD
ATOM     40  C   UNL A   1      42.227  25.823  28.290  1.00  0.00     0.074 A 
ATOM     41  C   UNL A   1      40.908  25.512  27.773  1.00  0.00     0.031 C 
ATOM     42  C   UNL A   1      43.278  24.965  28.252  1.00  0.00     0.037 A 
BRANCH  29  43
ATOM     43  C   UNL A   1      48.537  27.110  30.740  1.00  0.00     0.058 A 
ATOM     44  C   UNL A   1      49.613  27.458  29.909  1.00  0.00     0.135 A 
ATOM     45  C   UNL A   1      48.831  26.507  31.974  1.00  0.00     0.135 A 
ATOM     46  F   UNL A   1      49.387  28.000  28.701  1.00  0.00    -0.206 F 
ATOM     47  C   UNL A   1      50.931  27.204  30.281  1.00  0.00     0.059 A 
ATOM     48  C   UNL A   1      50.141  26.264  32.376  1.00  0.00     0.059 A 
ATOM     49  F   UNL A   1      47.838  26.135  32.797  1.00  0.00    -0.206 F 
ATOM     50  C   UNL A   1      51.184  26.609  31.518  1.00  0.00     0.060 A 
BRANCH  50  51
ATOM     51  S   UNL A   1      52.899  26.294  31.990  1.00  0.00     0.124 S 
ATOM     52  O   UNL A   1      53.032  27.127  33.182  1.00  0.00    -0.237 OA
ATOM     53  O   UNL A   1      52.896  24.853  32.222  1.00  0.00    -0.237 OA
ATOM     54  O   UNL A   1      53.659  26.738  30.826  1.00  0.00    -0.744 OA
ENDBRANCH  50  51
ENDBRANCH  29  43
BRANCH  30  55
ATOM     55  C   UNL A   1      38.889  29.161  28.539  1.00  0.00     0.058 A 
ATOM     56  C   UNL A   1      37.869  29.085  29.498  1.00  0.00     0.135 A 
ATOM     57  C   UNL A   1      38.515  29.493  27.224  1.00  0.00     0.135 A 
ATOM     58  F   UNL A   1      38.165  28.767  30.768  1.00  0.00    -0.206 F 
ATOM     59  C   UNL A   1      36.531  29.291  29.164  1.00  0.00     0.059 A 
ATOM     60  C   UNL A   1      37.192  29.736  26.872  1.00  0.00     0.059 A 
ATOM     61  F   UNL A   1      39.446  29.591  26.263  1.00  0.00    -0.206 F 
ATOM     62  C   UNL A   1      36.202  29.609  27.845  1.00  0.00     0.060 A 
BRANCH  62  63
ATOM     63  S   UNL A   1      34.468  29.868  27.414  1.00  0.00     0.124 S 
ATOM     64  O   UNL A   1      34.426  29.351  26.051  1.00  0.00    -0.237 OA
ATOM     65  O   UNL A   1      33.776  29.072  28.422  1.00  0.00    -0.237 OA
ATOM     66  O   UNL A   1      34.302  31.313  27.545  1.00  0.00    -0.744 OA
ENDBRANCH  62  63
ENDBRANCH  30  55
BRANCH  42  67
ATOM     67  C   UNL A   1      43.021  23.612  27.658  1.00  0.00     0.058 A 
ATOM     68  C   UNL A   1      43.403  23.305  26.343  1.00  0.00     0.135 A 
ATOM     69  C   UNL A   1      42.428  22.602  28.432  1.00  0.00     0.135 A 
ATOM     70  F   UNL A   1      43.968  24.241  25.566  1.00  0.00    -0.206 F 
ATOM     71  C   UNL A   1      43.176  22.045  25.804  1.00  0.00     0.059 A 
ATOM     72  C   UNL A   1      42.221  21.327  27.922  1.00  0.00     0.059 A 
ATOM     73  F   UNL A   1      42.059  22.847  29.699  1.00  0.00    -0.206 F 
ATOM     74  C   UNL A   1      42.584  21.063  26.601  1.00  0.00     0.060 A 
BRANCH  74  75
ATOM     75  S   UNL A   1      42.320  19.423  25.899  1.00  0.00     0.124 S 
ATOM     76  O   UNL A   1      42.884  18.567  26.937  1.00  0.00    -0.237 OA
ATOM     77  O   UNL A   1      40.869  19.374  25.754  1.00  0.00    -0.237 OA
ATOM     78  O   UNL A   1      43.067  19.468  24.645  1.00  0.00    -0.744 OA
ENDBRANCH  74  75
ENDBRANCH  42  67
ENDBRANCH  16  17
ENDBRANCH   9  11
ENDBRANCH   8   9
ENDBRANCH   7   8
ENDBRANCH   6   7
ENDBRANCH   5   6
ENDBRANCH   4   5
ENDBRANCH   3   4
ENDBRANCH   2   3
ENDBRANCH   1   2
BRANCH   1  79
ATOM     79  C   UNL A   1      43.660  35.059  26.995  1.00  0.00     0.188 C 
BRANCH  79  80
ATOM     80  O   UNL A   1      43.940  34.341  25.803  1.00  0.00    -0.376 OA
BRANCH  80  81
ATOM     81  C   UNL A   1      45.306  34.289  25.411  1.00  0.00     0.202 C 
BRANCH  81  82
ATOM     82  C   UNL A   1      46.211  35.421  25.922  1.00  0.00     0.261 C 
BRANCH  82  83
ATOM     83  O   UNL A   1      47.621  35.256  25.686  1.00  0.00    -0.460 OA
BRANCH  83  84
ATOM     84  C   UNL A   1      48.280  34.208  26.231  1.00  0.00     0.340 C 
ATOM     85  O   UNL A   1      48.777  33.271  25.630  1.00  0.00    -0.246 OA
BRANCH  84  86
ATOM     86  C   UNL A   1      48.468  34.493  27.686  1.00  0.00     0.083 A 
ATOM     87  C   UNL A   1      48.120  33.472  28.584  1.00  0.00     0.018 A 
ATOM     88  C   UNL A   1      49.088  35.677  28.156  1.00  0.00     0.055 A 
ATOM     89  C   UNL A   1      48.399  33.608  29.945  1.00  0.00     0.001 A 
ATOM     90  C   UNL A   1      49.312  35.809  29.536  1.00  0.00     0.027 A 
ATOM     91  C   UNL A   1      48.985  34.778  30.420  1.00  0.00     0.002 A 
BRANCH  88  92
ATOM     92  N   UNL A   1      49.475  36.690  27.260  1.00  0.00    -0.323 N 
ATOM     93  H   UNL A   1      49.994  36.401  26.474  1.00  0.00     0.170 HD
BRANCH  92  94
ATOM     94  C   UNL A   1      49.213  38.046  27.355  1.00  0.00     0.233 A 
ATOM     95  N   UNL A   1      49.972  38.840  28.090  1.00  0.00    -0.182 NA
ATOM     96  N   UNL A   1      48.147  38.442  26.674  1.00  0.00    -0.176 NA
ATOM     97  C   UNL A   1      49.596  40.105  28.039  1.00  0.00     0.228 A 
ATOM     98  C   UNL A   1      47.817  39.717  26.775  1.00  0.00     0.233 A 
ATOM     99  Cl  UNL A   1      50.551  41.209  28.928  1.00  0.00    -0.041 Cl
ATOM    100  N   UNL A   1      48.544  40.615  27.422  1.00  0.00    -0.182 NA
BRANCH  98 101
ATOM    101  N   UNL A   1      46.575  40.050  26.250  1.00  0.00    -0.324 N 
ATOM    102  H   UNL A   1      45.800  39.613  26.671  1.00  0.00     0.170 HD
BRANCH 101 103
ATOM    103  C   UNL A   1      46.288  40.921  25.206  1.00  0.00     0.041 A 
ATOM    104  C   UNL A   1      46.996  40.831  24.004  1.00  0.00     0.028 A 
ATOM    105  C   UNL A   1      45.228  41.823  25.301  1.00  0.00     0.028 A 
ATOM    106  C   UNL A   1      46.621  41.607  22.902  1.00  0.00     0.028 A 
ATOM    107  C   UNL A   1      44.890  42.640  24.227  1.00  0.00     0.028 A 
ATOM    108  C   UNL A   1      45.570  42.522  23.013  1.00  0.00     0.044 A 
BRANCH 108 109
ATOM    109  N   UNL A   1      45.132  43.269  21.886  1.00  0.00    -0.308 N 
ATOM    110  C   UNL A   1      46.155  44.063  21.197  1.00  0.00     0.154 C 
ATOM    111  C   UNL A   1      43.922  42.954  21.259  1.00  0.00     0.253 C 
ATOM    112  C   UNL A   1      45.585  44.963  20.111  1.00  0.00     0.183 C 
ATOM    113  C   UNL A   1      43.661  43.669  19.927  1.00  0.00     0.260 C 
ATOM    114  O   UNL A   1      43.050  42.229  21.743  1.00  0.00    -0.272 OA
ATOM    115  O   UNL A   1      44.778  44.192  19.225  1.00  0.00    -0.370 OA
ENDBRANCH 108 109
ENDBRANCH 101 103
ENDBRANCH  98 101
ENDBRANCH  92  94
ENDBRANCH  88  92
ENDBRANCH  84  86
ENDBRANCH  83  84
ENDBRANCH  82  83
ENDBRANCH  81  82
ENDBRANCH  80  81
ENDBRANCH  79  80
ENDBRANCH   1  79
TORSDOF 28
ENDMDL
MODEL 3
REMARK VINA RESULT:      -7.3      4.234      8.183
REMARK SMILES O=C(OCCOCCOCCOCCOC(=O)c1ccccc1Nc1nc(Cl)nc(Nc2ccc(N3CCOCC3=O)cc2)n1)c1ccc(-c2c3nc(c(-c4c(F)cc(S(=O)(=O)[O-])cc4F)c4ccc([nH]4)c(-c4c(F)cc(S(=O)(=O)[O-])cc4F)c4nc(c(-c5c(F)cc(S(=O)(=O)[O-])cc5F)c5ccc2[nH]5)C=C4)C=C3)cc1
REMARK SMILES IDX 10 1 9 2 8 3 7 4 6 5 5 6 4 7 3 8 2 9 1 10 46 11 47 12 111 13
REMARK SMILES IDX 48 14 110 15 49 16 50 17 51 18 104 19 52 20 109 21 103 22
REMARK SMILES IDX 105 23 53 24 108 25 102 26 101 27 54 29 88 30 67 31 87 32
REMARK SMILES IDX 68 33 71 34 86 35 106 36 69 37 70 38 85 40 107 41 72 42
REMARK SMILES IDX 55 43 56 44 65 45 57 46 58 47 64 48 66 49 59 50 60 51 61 52
REMARK SMILES IDX 62 53 63 54 89 55 90 56 99 57 91 58 92 59 98 60 100 61 93 62
REMARK SMILES IDX 94 63 95 64 96 65 97 66 73 67 74 68 83 69 75 70 76 71 82 72
REMARK SMILES IDX 84 73 77 74 78 75 79 76 80 77 81 78 11 79 12 80 13 81 14 82
REMARK SMILES IDX 15 83 16 84 17 85 18 86 19 87 23 88 20 89 22 90 21 91 24 92
REMARK SMILES IDX 25 94 26 95 45 96 27 97 30 98 28 99 29 100 31 101 32 103
REMARK SMILES IDX 33 104 44 105 34 106 43 107 35 108 36 109 37 110 41 111
REMARK SMILES IDX 38 112 40 113 42 114 39 115
REMARK H PARENT 105 28 71 39 24 93 31 102
REMARK Flexibility Score: inf
ROOT
ATOM      1  C   UNL A   1      41.020  30.262  35.263  1.00  0.00     0.188 C 
ENDROOT
BRANCH   1   2
ATOM      2  O   UNL A   1      41.162  30.368  33.849  1.00  0.00    -0.377 OA
BRANCH   2   3
ATOM      3  C   UNL A   1      39.988  30.115  33.075  1.00  0.00     0.188 C 
BRANCH   3   4
ATOM      4  C   UNL A   1      39.338  31.356  32.460  1.00  0.00     0.188 C 
BRANCH   4   5
ATOM      5  O   UNL A   1      40.189  31.933  31.469  1.00  0.00    -0.376 OA
BRANCH   5   6
ATOM      6  C   UNL A   1      40.739  33.210  31.793  1.00  0.00     0.202 C 
BRANCH   6   7
ATOM      7  C   UNL A   1      40.463  34.292  30.748  1.00  0.00     0.261 C 
BRANCH   7   8
ATOM      8  O   UNL A   1      41.666  34.933  30.301  1.00  0.00    -0.460 OA
BRANCH   8   9
ATOM      9  C   UNL A   1      42.276  34.792  29.095  1.00  0.00     0.338 C 
ATOM     10  O   UNL A   1      41.741  35.301  28.109  1.00  0.00    -0.246 OA
BRANCH   9  11
ATOM     11  C   UNL A   1      43.574  34.075  28.892  1.00  0.00     0.060 A 
ATOM     12  C   UNL A   1      44.362  34.144  27.743  1.00  0.00     0.016 A 
ATOM     13  C   UNL A   1      44.067  33.321  29.973  1.00  0.00     0.016 A 
ATOM     14  C   UNL A   1      45.543  33.433  27.620  1.00  0.00     0.010 A 
ATOM     15  C   UNL A   1      45.279  32.627  29.876  1.00  0.00     0.010 A 
ATOM     16  C   UNL A   1      46.003  32.661  28.680  1.00  0.00    -0.014 A 
BRANCH  16  17
ATOM     17  C   UNL A   1      47.150  31.777  28.411  1.00  0.00     0.031 A 
ATOM     18  C   UNL A   1      48.513  32.276  28.783  1.00  0.00     0.074 A 
ATOM     19  C   UNL A   1      46.934  30.501  28.039  1.00  0.00     0.049 A 
ATOM     20  N   UNL A   1      49.673  31.698  28.639  1.00  0.00    -0.248 NA
ATOM     21  C   UNL A   1      48.577  33.602  29.428  1.00  0.00     0.031 C 
ATOM     22  C   UNL A   1      45.615  29.900  27.812  1.00  0.00     0.029 A 
ATOM     23  N   UNL A   1      47.807  29.470  27.828  1.00  0.00    -0.354 N 
ATOM     24  C   UNL A   1      50.603  32.596  29.150  1.00  0.00     0.074 A 
ATOM     25  C   UNL A   1      49.879  33.760  29.603  1.00  0.00     0.031 C 
ATOM     26  C   UNL A   1      45.770  28.600  27.512  1.00  0.00     0.029 A 
ATOM     27  C   UNL A   1      47.194  28.297  27.453  1.00  0.00     0.049 A 
ATOM     28  H   UNL A   1      48.782  29.559  27.934  1.00  0.00     0.167 HD
ATOM     29  C   UNL A   1      51.945  32.450  29.224  1.00  0.00     0.037 A 
ATOM     30  C   UNL A   1      47.739  27.128  27.066  1.00  0.00     0.037 A 
ATOM     31  C   UNL A   1      52.626  31.272  28.763  1.00  0.00     0.049 A 
ATOM     32  C   UNL A   1      49.243  27.034  27.049  1.00  0.00     0.074 A 
ATOM     33  C   UNL A   1      53.983  31.027  28.691  1.00  0.00     0.029 A 
ATOM     34  N   UNL A   1      51.983  30.130  28.301  1.00  0.00    -0.354 N 
ATOM     35  N   UNL A   1      50.127  27.926  27.438  1.00  0.00    -0.248 NA
ATOM     36  C   UNL A   1      49.827  25.794  26.528  1.00  0.00     0.031 C 
ATOM     37  C   UNL A   1      54.162  29.750  28.147  1.00  0.00     0.029 A 
ATOM     38  C   UNL A   1      52.916  29.181  27.928  1.00  0.00     0.049 A 
ATOM     39  H   UNL A   1      51.007  30.014  28.245  1.00  0.00     0.167 HD
ATOM     40  C   UNL A   1      51.371  27.351  27.216  1.00  0.00     0.074 A 
ATOM     41  C   UNL A   1      51.123  26.022  26.689  1.00  0.00     0.031 C 
ATOM     42  C   UNL A   1      52.611  27.868  27.415  1.00  0.00     0.037 A 
BRANCH  29  43
ATOM     43  C   UNL A   1      52.738  33.609  29.753  1.00  0.00     0.058 A 
ATOM     44  C   UNL A   1      53.171  34.656  28.926  1.00  0.00     0.135 A 
ATOM     45  C   UNL A   1      53.086  33.663  31.113  1.00  0.00     0.135 A 
ATOM     46  F   UNL A   1      52.902  34.634  27.610  1.00  0.00    -0.206 F 
ATOM     47  C   UNL A   1      53.934  35.710  29.424  1.00  0.00     0.059 A 
ATOM     48  C   UNL A   1      53.828  34.718  31.637  1.00  0.00     0.059 A 
ATOM     49  F   UNL A   1      52.715  32.676  31.943  1.00  0.00    -0.206 F 
ATOM     50  C   UNL A   1      54.254  35.733  30.783  1.00  0.00     0.060 A 
BRANCH  50  51
ATOM     51  S   UNL A   1      55.235  37.110  31.416  1.00  0.00     0.124 S 
ATOM     52  O   UNL A   1      54.796  37.167  32.807  1.00  0.00    -0.237 OA
ATOM     53  O   UNL A   1      56.601  36.642  31.202  1.00  0.00    -0.237 OA
ATOM     54  O   UNL A   1      54.823  38.234  30.581  1.00  0.00    -0.744 OA
ENDBRANCH  50  51
ENDBRANCH  29  43
BRANCH  30  55
ATOM     55  C   UNL A   1      46.883  26.005  26.587  1.00  0.00     0.058 A 
ATOM     56  C   UNL A   1      46.636  24.874  27.379  1.00  0.00     0.135 A 
ATOM     57  C   UNL A   1      46.323  26.025  25.297  1.00  0.00     0.135 A 
ATOM     58  F   UNL A   1      47.149  24.797  28.617  1.00  0.00    -0.206 F 
ATOM     59  C   UNL A   1      45.897  23.793  26.901  1.00  0.00     0.059 A 
ATOM     60  C   UNL A   1      45.555  24.973  24.810  1.00  0.00     0.059 A 
ATOM     61  F   UNL A   1      46.516  27.083  24.495  1.00  0.00    -0.206 F 
ATOM     62  C   UNL A   1      45.366  23.850  25.611  1.00  0.00     0.060 A 
BRANCH  62  63
ATOM     63  S   UNL A   1      44.415  22.444  24.993  1.00  0.00     0.124 S 
ATOM     64  O   UNL A   1      44.682  22.519  23.561  1.00  0.00    -0.237 OA
ATOM     65  O   UNL A   1      45.025  21.323  25.700  1.00  0.00    -0.237 OA
ATOM     66  O   UNL A   1      43.048  22.761  25.398  1.00  0.00    -0.744 OA
ENDBRANCH  62  63
ENDBRANCH  30  55
BRANCH  42  67
ATOM     67  C   UNL A   1      53.771  26.977  27.087  1.00  0.00     0.058 A 
ATOM     68  C   UNL A   1      54.376  26.999  25.821  1.00  0.00     0.135 A 
ATOM     69  C   UNL A   1      54.310  26.128  28.066  1.00  0.00     0.135 A 
ATOM     70  F   UNL A   1      53.891  27.792  24.852  1.00  0.00    -0.206 F 
ATOM     71  C   UNL A   1      55.461  26.184  25.527  1.00  0.00     0.059 A 
ATOM     72  C   UNL A   1      55.413  25.328  27.802  1.00  0.00     0.059 A 
ATOM     73  F   UNL A   1      53.772  26.085  29.295  1.00  0.00    -0.206 F 
ATOM     74  C   UNL A   1      55.973  25.351  26.525  1.00  0.00     0.060 A 
BRANCH  74  75
ATOM     75  S   UNL A   1      57.399  24.317  26.140  1.00  0.00     0.124 S 
ATOM     76  O   UNL A   1      56.837  23.401  25.153  1.00  0.00    -0.237 OA
ATOM     77  O   UNL A   1      58.361  25.288  25.630  1.00  0.00    -0.237 OA
ATOM     78  O   UNL A   1      57.742  23.721  27.427  1.00  0.00    -0.744 OA
ENDBRANCH  74  75
ENDBRANCH  42  67
ENDBRANCH  16  17
ENDBRANCH   9  11
ENDBRANCH   8   9
ENDBRANCH   7   8
ENDBRANCH   6   7
ENDBRANCH   5   6
ENDBRANCH   4   5
ENDBRANCH   3   4
ENDBRANCH   2   3
ENDBRANCH   1   2
BRANCH   1  79
ATOM     79  C   UNL A   1      42.297  30.116  36.121  1.00  0.00     0.188 C 
BRANCH  79  80
ATOM     80  O   UNL A   1      42.490  28.808  36.637  1.00  0.00    -0.376 OA
BRANCH  80  81
ATOM     81  C   UNL A   1      41.673  27.788  36.075  1.00  0.00     0.202 C 
BRANCH  81  82
ATOM     82  C   UNL A   1      42.329  26.886  35.018  1.00  0.00     0.261 C 
BRANCH  82  83
ATOM     83  O   UNL A   1      42.278  27.365  33.663  1.00  0.00    -0.460 OA
BRANCH  83  84
ATOM     84  C   UNL A   1      43.408  27.789  33.053  1.00  0.00     0.340 C 
ATOM     85  O   UNL A   1      44.149  28.678  33.434  1.00  0.00    -0.246 OA
BRANCH  84  86
ATOM     86  C   UNL A   1      43.702  26.847  31.930  1.00  0.00     0.083 A 
ATOM     87  C   UNL A   1      44.485  25.721  32.233  1.00  0.00     0.018 A 
ATOM     88  C   UNL A   1      43.122  26.988  30.644  1.00  0.00     0.055 A 
ATOM     89  C   UNL A   1      44.682  24.725  31.276  1.00  0.00     0.001 A 
ATOM     90  C   UNL A   1      43.379  25.996  29.685  1.00  0.00     0.027 A 
ATOM     91  C   UNL A   1      44.138  24.868  30.002  1.00  0.00     0.002 A 
BRANCH  88  92
ATOM     92  N   UNL A   1      42.305  28.093  30.343  1.00  0.00    -0.323 N 
ATOM     93  H   UNL A   1      42.269  28.805  31.022  1.00  0.00     0.170 HD
BRANCH  92  94
ATOM     94  C   UNL A   1      41.546  28.295  29.203  1.00  0.00     0.233 A 
ATOM     95  N   UNL A   1      42.116  28.513  28.031  1.00  0.00    -0.182 NA
ATOM     96  N   UNL A   1      40.237  28.269  29.412  1.00  0.00    -0.176 NA
ATOM     97  C   UNL A   1      41.241  28.652  27.051  1.00  0.00     0.228 A 
ATOM     98  C   UNL A   1      39.464  28.512  28.369  1.00  0.00     0.233 A 
ATOM     99  Cl  UNL A   1      41.894  28.895  25.490  1.00  0.00    -0.041 Cl
ATOM    100  N   UNL A   1      39.922  28.671  27.137  1.00  0.00    -0.182 NA
BRANCH  98 101
ATOM    101  N   UNL A   1      38.121  28.712  28.661  1.00  0.00    -0.324 N 
ATOM    102  H   UNL A   1      37.613  27.908  28.917  1.00  0.00     0.170 HD
BRANCH 101 103
ATOM    103  C   UNL A   1      37.404  29.903  28.638  1.00  0.00     0.041 A 
ATOM    104  C   UNL A   1      36.054  29.900  28.273  1.00  0.00     0.028 A 
ATOM    105  C   UNL A   1      37.985  31.094  29.074  1.00  0.00     0.028 A 
ATOM    106  C   UNL A   1      35.290  31.067  28.381  1.00  0.00     0.028 A 
ATOM    107  C   UNL A   1      37.244  32.269  29.126  1.00  0.00     0.028 A 
ATOM    108  C   UNL A   1      35.886  32.260  28.801  1.00  0.00     0.044 A 
BRANCH 108 109
ATOM    109  N   UNL A   1      35.111  33.437  28.981  1.00  0.00    -0.308 N 
ATOM    110  C   UNL A   1      34.906  34.267  27.789  1.00  0.00     0.154 C 
ATOM    111  C   UNL A   1      34.288  33.574  30.103  1.00  0.00     0.253 C 
ATOM    112  C   UNL A   1      34.216  35.589  28.089  1.00  0.00     0.183 C 
ATOM    113  C   UNL A   1      33.331  34.773  30.080  1.00  0.00     0.260 C 
ATOM    114  O   UNL A   1      34.349  32.862  31.108  1.00  0.00    -0.272 OA
ATOM    115  O   UNL A   1      33.016  35.347  28.821  1.00  0.00    -0.370 OA
ENDBRANCH 108 109
ENDBRANCH 101 103
ENDBRANCH  98 101
ENDBRANCH  92  94
ENDBRANCH  88  92
ENDBRANCH  84  86
ENDBRANCH  83  84
ENDBRANCH  82  83
ENDBRANCH  81  82
ENDBRANCH  80  81
ENDBRANCH  79  80
ENDBRANCH   1  79
TORSDOF 28
ENDMDL
