MODEL 1
REMARK VINA RESULT:      -9.3      0.000      0.000
REMARK SMILES COc1ccc(/C=C2/C(=O)N(c3ccccc3)C(=O)N=C2OCCOCCOCCOCCOC(=O)c2ccc(-c3c4nc(c(-c5c(F)cc(S(=O)(=O)[O-])cc5F)c5ccc([nH]5)c(-c5c(F)cc(S(=O)(=O)[O-])cc5F)c5nc(c(-c6c(F)cc(S(=O)(=O)[O-])cc6F)c6ccc3[nH]6)C=C5)C=C4)cc2)cc1C(=O)[O-]
REMARK SMILES IDX 29 1 28 2 27 3 26 4 25 5 24 6 23 7 22 8 21 9 7 10 8 11 9 12
REMARK SMILES IDX 10 13 11 14 20 15 18 16 19 17 6 18 3 19 4 20 104 21 5 22
REMARK SMILES IDX 103 23 2 24 1 25 105 26 106 27 107 28 12 29 13 30 17 31
REMARK SMILES IDX 14 32 16 33 15 34 30 35 31 36 32 37 33 38 34 39 35 40 36 41
REMARK SMILES IDX 37 42 38 43 102 44 39 45 101 46 40 47 41 48 42 49 95 50
REMARK SMILES IDX 43 51 100 52 94 53 96 54 44 55 99 56 93 57 92 58 45 60 79 61
REMARK SMILES IDX 58 62 78 63 59 64 62 65 77 66 97 67 60 68 61 69 76 71 98 72
REMARK SMILES IDX 63 73 46 74 47 75 56 76 48 77 49 78 55 79 57 80 50 81 51 82
REMARK SMILES IDX 52 83 53 84 54 85 80 86 81 87 90 88 82 89 83 90 89 91 91 92
REMARK SMILES IDX 84 93 85 94 86 95 87 96 88 97 64 98 65 99 74 100 66 101
REMARK SMILES IDX 67 102 73 103 75 104 68 105 69 106 70 107 71 108 72 109
REMARK H PARENT 96 59 62 70
REMARK Flexibility Score: inf
ROOT
ATOM      1  C   UNL A   1      44.432  39.243  27.870  1.00  0.00     0.188 C 
ENDROOT
BRANCH   1   2
ATOM      2  O   UNL A   1      43.558  39.375  26.761  1.00  0.00    -0.377 OA
BRANCH   2   3
ATOM      3  C   UNL A   1      42.633  40.442  26.870  1.00  0.00     0.188 C 
BRANCH   3   4
ATOM      4  C   UNL A   1      41.931  40.966  25.603  1.00  0.00     0.188 C 
BRANCH   4   5
ATOM      5  O   UNL A   1      42.616  41.436  24.447  1.00  0.00    -0.376 OA
BRANCH   5   6
ATOM      6  C   UNL A   1      42.333  42.635  23.751  1.00  0.00     0.201 C 
BRANCH   6   7
ATOM      7  C   UNL A   1      41.849  42.617  22.302  1.00  0.00     0.260 C 
BRANCH   7   8
ATOM      8  O   UNL A   1      42.892  42.361  21.352  1.00  0.00    -0.475 OA
BRANCH   8   9
ATOM      9  C   UNL A   1      42.933  43.115  20.244  1.00  0.00     0.231 C 
ATOM     10  C   UNL A   1      45.408  43.704  20.659  1.00  0.00     0.027 C 
ATOM     11  C   UNL A   1      44.205  43.831  20.034  1.00  0.00     0.103 C 
ATOM     12  C   UNL A   1      44.072  44.967  19.038  1.00  0.00     0.272 C 
ATOM     13  O   UNL A   1      45.039  45.669  18.742  1.00  0.00    -0.268 OA
ATOM     14  N   UNL A   1      42.781  45.171  18.553  1.00  0.00    -0.226 N 
ATOM     15  N   UNL A   1      41.865  43.241  19.551  1.00  0.00    -0.156 NA
ATOM     16  C   UNL A   1      41.771  44.210  18.611  1.00  0.00     0.358 C 
ATOM     17  O   UNL A   1      40.791  44.231  17.869  1.00  0.00    -0.245 OA
BRANCH  10  18
ATOM     18  C   UNL A   1      45.969  42.888  21.787  1.00  0.00    -0.024 A 
ATOM     19  C   UNL A   1      46.774  41.383  24.087  1.00  0.00     0.127 A 
ATOM     20  C   UNL A   1      46.899  40.862  22.805  1.00  0.00     0.048 A 
ATOM     21  C   UNL A   1      46.406  42.721  24.218  1.00  0.00     0.040 A 
ATOM     22  C   UNL A   1      46.564  41.630  21.677  1.00  0.00     0.012 A 
ATOM     23  C   UNL A   1      45.942  43.438  23.088  1.00  0.00     0.022 A 
BRANCH  19  24
ATOM     24  O   UNL A   1      47.142  40.546  25.104  1.00  0.00    -0.496 OA
ATOM     25  C   UNL A   1      47.252  39.176  24.712  1.00  0.00     0.278 C 
ENDBRANCH  19  24
BRANCH  21  26
ATOM     26  C   UNL A   1      46.590  43.484  25.472  1.00  0.00     0.075 C 
ATOM     27  O   UNL A   1      47.547  43.407  26.221  1.00  0.00    -0.545 OA
ATOM     28  O   UNL A   1      45.497  44.203  25.783  1.00  0.00    -0.545 OA
ENDBRANCH  21  26
ENDBRANCH  10  18
BRANCH  14  29
ATOM     29  C   UNL A   1      42.468  46.342  17.808  1.00  0.00     0.054 A 
ATOM     30  C   UNL A   1      41.955  46.207  16.506  1.00  0.00     0.027 A 
ATOM     31  C   UNL A   1      42.824  47.605  18.284  1.00  0.00     0.027 A 
ATOM     32  C   UNL A   1      41.803  47.326  15.688  1.00  0.00     0.002 A 
ATOM     33  C   UNL A   1      42.702  48.718  17.448  1.00  0.00     0.002 A 
ATOM     34  C   UNL A   1      42.193  48.579  16.155  1.00  0.00     0.000 A 
ENDBRANCH  14  29
ENDBRANCH   8   9
ENDBRANCH   7   8
ENDBRANCH   6   7
ENDBRANCH   5   6
ENDBRANCH   4   5
ENDBRANCH   3   4
ENDBRANCH   2   3
ENDBRANCH   1   2
BRANCH   1  35
ATOM     35  C   UNL A   1      44.550  40.559  28.649  1.00  0.00     0.188 C 
BRANCH  35  36
ATOM     36  O   UNL A   1      45.271  40.409  29.864  1.00  0.00    -0.376 OA
BRANCH  36  37
ATOM     37  C   UNL A   1      45.598  39.094  30.299  1.00  0.00     0.202 C 
BRANCH  37  38
ATOM     38  C   UNL A   1      47.070  38.670  30.487  1.00  0.00     0.261 C 
BRANCH  38  39
ATOM     39  O   UNL A   1      47.463  37.403  29.939  1.00  0.00    -0.460 OA
BRANCH  39  40
ATOM     40  C   UNL A   1      48.153  36.554  30.728  1.00  0.00     0.338 C 
ATOM     41  O   UNL A   1      48.741  36.822  31.759  1.00  0.00    -0.246 OA
BRANCH  40  42
ATOM     42  C   UNL A   1      47.873  35.183  30.242  1.00  0.00     0.060 A 
ATOM     43  C   UNL A   1      47.296  35.027  28.975  1.00  0.00     0.016 A 
ATOM     44  C   UNL A   1      48.218  34.063  31.005  1.00  0.00     0.016 A 
ATOM     45  C   UNL A   1      47.017  33.752  28.488  1.00  0.00     0.010 A 
ATOM     46  C   UNL A   1      47.914  32.784  30.529  1.00  0.00     0.010 A 
ATOM     47  C   UNL A   1      47.272  32.630  29.287  1.00  0.00    -0.014 A 
BRANCH  47  48
ATOM     48  C   UNL A   1      46.624  31.346  28.935  1.00  0.00     0.031 A 
ATOM     49  C   UNL A   1      47.492  30.265  28.349  1.00  0.00     0.074 A 
ATOM     50  C   UNL A   1      45.324  31.117  29.182  1.00  0.00     0.049 A 
ATOM     51  N   UNL A   1      47.184  29.041  28.014  1.00  0.00    -0.248 NA
ATOM     52  C   UNL A   1      48.905  30.616  28.123  1.00  0.00     0.031 C 
ATOM     53  C   UNL A   1      44.400  32.065  29.799  1.00  0.00     0.029 A 
ATOM     54  N   UNL A   1      44.558  30.005  28.945  1.00  0.00    -0.354 N 
ATOM     55  C   UNL A   1      48.365  28.470  27.554  1.00  0.00     0.074 A 
ATOM     56  C   UNL A   1      49.383  29.496  27.605  1.00  0.00     0.031 C 
ATOM     57  C   UNL A   1      43.182  31.499  29.873  1.00  0.00     0.029 A 
ATOM     58  C   UNL A   1      43.243  30.152  29.308  1.00  0.00     0.049 A 
ATOM     59  H   UNL A   1      44.919  29.177  28.550  1.00  0.00     0.167 HD
ATOM     60  C   UNL A   1      48.591  27.199  27.145  1.00  0.00     0.037 A 
ATOM     61  C   UNL A   1      42.210  29.294  29.197  1.00  0.00     0.037 A 
ATOM     62  C   UNL A   1      47.569  26.190  27.072  1.00  0.00     0.049 A 
ATOM     63  C   UNL A   1      42.458  27.912  28.651  1.00  0.00     0.074 A 
ATOM     64  C   UNL A   1      47.683  24.872  26.668  1.00  0.00     0.029 A 
ATOM     65  N   UNL A   1      46.235  26.395  27.397  1.00  0.00    -0.354 N 
ATOM     66  N   UNL A   1      43.585  27.373  28.244  1.00  0.00    -0.248 NA
ATOM     67  C   UNL A   1      41.298  27.014  28.567  1.00  0.00     0.031 C 
ATOM     68  C   UNL A   1      46.409  24.293  26.702  1.00  0.00     0.029 A 
ATOM     69  C   UNL A   1      45.509  25.236  27.179  1.00  0.00     0.049 A 
ATOM     70  H   UNL A   1      45.859  27.240  27.733  1.00  0.00     0.167 HD
ATOM     71  C   UNL A   1      43.277  26.063  27.892  1.00  0.00     0.074 A 
ATOM     72  C   UNL A   1      41.858  25.892  28.135  1.00  0.00     0.031 C 
ATOM     73  C   UNL A   1      44.095  25.086  27.423  1.00  0.00     0.037 A 
BRANCH  60  74
ATOM     74  C   UNL A   1      49.991  26.863  26.713  1.00  0.00     0.058 A 
ATOM     75  C   UNL A   1      50.973  26.461  27.636  1.00  0.00     0.135 A 
ATOM     76  C   UNL A   1      50.368  26.985  25.367  1.00  0.00     0.135 A 
ATOM     77  F   UNL A   1      50.672  26.350  28.939  1.00  0.00    -0.206 F 
ATOM     78  C   UNL A   1      52.291  26.243  27.245  1.00  0.00     0.059 A 
ATOM     79  C   UNL A   1      51.674  26.742  24.950  1.00  0.00     0.059 A 
ATOM     80  F   UNL A   1      49.472  27.370  24.445  1.00  0.00    -0.206 F 
ATOM     81  C   UNL A   1      52.633  26.397  25.901  1.00  0.00     0.060 A 
BRANCH  81  82
ATOM     82  S   UNL A   1      54.355  26.157  25.414  1.00  0.00     0.124 S 
ATOM     83  O   UNL A   1      54.233  25.067  24.451  1.00  0.00    -0.237 OA
ATOM     84  O   UNL A   1      54.707  27.458  24.855  1.00  0.00    -0.237 OA
ATOM     85  O   UNL A   1      55.018  25.817  26.668  1.00  0.00    -0.744 OA
ENDBRANCH  81  82
ENDBRANCH  60  74
BRANCH  61  86
ATOM     86  C   UNL A   1      40.855  29.709  29.648  1.00  0.00     0.058 A 
ATOM     87  C   UNL A   1      39.831  29.956  28.725  1.00  0.00     0.135 A 
ATOM     88  C   UNL A   1      40.553  29.836  31.013  1.00  0.00     0.135 A 
ATOM     89  F   UNL A   1      40.075  29.858  27.409  1.00  0.00    -0.206 F 
ATOM     90  C   UNL A   1      38.550  30.316  29.136  1.00  0.00     0.059 A 
ATOM     91  C   UNL A   1      39.274  30.172  31.450  1.00  0.00     0.059 A 
ATOM     92  F   UNL A   1      41.499  29.604  31.936  1.00  0.00    -0.206 F 
ATOM     93  C   UNL A   1      38.280  30.412  30.502  1.00  0.00     0.060 A 
BRANCH  93  94
ATOM     94  S   UNL A   1      36.595  30.803  31.020  1.00  0.00     0.124 S 
ATOM     95  O   UNL A   1      36.717  32.207  31.392  1.00  0.00    -0.237 OA
ATOM     96  O   UNL A   1      35.833  30.527  29.805  1.00  0.00    -0.237 OA
ATOM     97  O   UNL A   1      36.357  29.875  32.122  1.00  0.00    -0.744 OA
ENDBRANCH  93  94
ENDBRANCH  61  86
BRANCH  73  98
ATOM     98  C   UNL A   1      43.482  23.733  27.179  1.00  0.00     0.058 A 
ATOM     99  C   UNL A   1      43.337  22.785  28.204  1.00  0.00     0.135 A 
ATOM    100  C   UNL A   1      43.006  23.393  25.901  1.00  0.00     0.135 A 
ATOM    101  F   UNL A   1      43.777  23.059  29.443  1.00  0.00    -0.206 F 
ATOM    102  C   UNL A   1      42.782  21.533  27.963  1.00  0.00     0.059 A 
ATOM    103  C   UNL A   1      42.419  22.158  25.644  1.00  0.00     0.059 A 
ATOM    104  F   UNL A   1      43.103  24.267  24.888  1.00  0.00    -0.206 F 
ATOM    105  C   UNL A   1      42.330  21.227  26.678  1.00  0.00     0.060 A 
BRANCH 105 106
ATOM    106  S   UNL A   1      41.610  19.599  26.376  1.00  0.00     0.124 S 
ATOM    107  O   UNL A   1      40.236  19.947  26.028  1.00  0.00    -0.237 OA
ATOM    108  O   UNL A   1      42.431  19.090  25.282  1.00  0.00    -0.237 OA
ATOM    109  O   UNL A   1      41.781  18.910  27.652  1.00  0.00    -0.744 OA
ENDBRANCH 105 106
ENDBRANCH  73  98
ENDBRANCH  47  48
ENDBRANCH  40  42
ENDBRANCH  39  40
ENDBRANCH  38  39
ENDBRANCH  37  38
ENDBRANCH  36  37
ENDBRANCH  35  36
ENDBRANCH   1  35
TORSDOF 26
ENDMDL
MODEL 2
REMARK VINA RESULT:      -9.0      3.631     10.196
REMARK SMILES COc1ccc(/C=C2/C(=O)N(c3ccccc3)C(=O)N=C2OCCOCCOCCOCCOC(=O)c2ccc(-c3c4nc(c(-c5c(F)cc(S(=O)(=O)[O-])cc5F)c5ccc([nH]5)c(-c5c(F)cc(S(=O)(=O)[O-])cc5F)c5nc(c(-c6c(F)cc(S(=O)(=O)[O-])cc6F)c6ccc3[nH]6)C=C5)C=C4)cc2)cc1C(=O)[O-]
REMARK SMILES IDX 29 1 28 2 27 3 26 4 25 5 24 6 23 7 22 8 21 9 7 10 8 11 9 12
REMARK SMILES IDX 10 13 11 14 20 15 18 16 19 17 6 18 3 19 4 20 104 21 5 22
REMARK SMILES IDX 103 23 2 24 1 25 105 26 106 27 107 28 12 29 13 30 17 31
REMARK SMILES IDX 14 32 16 33 15 34 30 35 31 36 32 37 33 38 34 39 35 40 36 41
REMARK SMILES IDX 37 42 38 43 102 44 39 45 101 46 40 47 41 48 42 49 95 50
REMARK SMILES IDX 43 51 100 52 94 53 96 54 44 55 99 56 93 57 92 58 45 60 79 61
REMARK SMILES IDX 58 62 78 63 59 64 62 65 77 66 97 67 60 68 61 69 76 71 98 72
REMARK SMILES IDX 63 73 46 74 47 75 56 76 48 77 49 78 55 79 57 80 50 81 51 82
REMARK SMILES IDX 52 83 53 84 54 85 80 86 81 87 90 88 82 89 83 90 89 91 91 92
REMARK SMILES IDX 84 93 85 94 86 95 87 96 88 97 64 98 65 99 74 100 66 101
REMARK SMILES IDX 67 102 73 103 75 104 68 105 69 106 70 107 71 108 72 109
REMARK H PARENT 96 59 62 70
REMARK Flexibility Score: inf
ROOT
ATOM      1  C   UNL A   1      45.516  40.470  34.322  1.00  0.00     0.188 C 
ENDROOT
BRANCH   1   2
ATOM      2  O   UNL A   1      44.128  40.576  34.592  1.00  0.00    -0.377 OA
BRANCH   2   3
ATOM      3  C   UNL A   1      43.303  40.508  33.444  1.00  0.00     0.188 C 
BRANCH   3   4
ATOM      4  C   UNL A   1      42.908  41.809  32.719  1.00  0.00     0.188 C 
BRANCH   4   5
ATOM      5  O   UNL A   1      43.635  42.369  31.631  1.00  0.00    -0.376 OA
BRANCH   5   6
ATOM      6  C   UNL A   1      43.884  41.734  30.391  1.00  0.00     0.201 C 
BRANCH   6   7
ATOM      7  C   UNL A   1      44.878  40.580  30.274  1.00  0.00     0.260 C 
BRANCH   7   8
ATOM      8  O   UNL A   1      44.460  39.551  29.366  1.00  0.00    -0.475 OA
BRANCH   8   9
ATOM      9  C   UNL A   1      44.310  38.309  29.850  1.00  0.00     0.231 C 
ATOM     10  C   UNL A   1      44.860  37.280  27.550  1.00  0.00     0.027 C 
ATOM     11  C   UNL A   1      44.429  37.239  28.841  1.00  0.00     0.103 C 
ATOM     12  C   UNL A   1      43.853  35.922  29.325  1.00  0.00     0.272 C 
ATOM     13  O   UNL A   1      43.871  34.920  28.611  1.00  0.00    -0.268 OA
ATOM     14  N   UNL A   1      43.265  35.971  30.589  1.00  0.00    -0.226 N 
ATOM     15  N   UNL A   1      43.972  38.167  31.074  1.00  0.00    -0.156 NA
ATOM     16  C   UNL A   1      43.524  36.972  31.526  1.00  0.00     0.358 C 
ATOM     17  O   UNL A   1      43.328  36.822  32.730  1.00  0.00    -0.245 OA
BRANCH  10  18
ATOM     18  C   UNL A   1      45.335  38.334  26.594  1.00  0.00    -0.024 A 
ATOM     19  C   UNL A   1      46.226  40.543  25.002  1.00  0.00     0.127 A 
ATOM     20  C   UNL A   1      46.914  39.336  25.009  1.00  0.00     0.048 A 
ATOM     21  C   UNL A   1      44.996  40.600  25.656  1.00  0.00     0.040 A 
ATOM     22  C   UNL A   1      46.436  38.235  25.740  1.00  0.00     0.012 A 
ATOM     23  C   UNL A   1      44.596  39.533  26.498  1.00  0.00     0.022 A 
BRANCH  19  24
ATOM     24  O   UNL A   1      46.783  41.537  24.245  1.00  0.00    -0.496 OA
ATOM     25  C   UNL A   1      47.243  41.098  22.965  1.00  0.00     0.278 C 
ENDBRANCH  19  24
BRANCH  21  26
ATOM     26  C   UNL A   1      44.013  41.681  25.422  1.00  0.00     0.075 C 
ATOM     27  O   UNL A   1      43.720  42.563  26.209  1.00  0.00    -0.545 OA
ATOM     28  O   UNL A   1      43.355  41.513  24.262  1.00  0.00    -0.545 OA
ENDBRANCH  21  26
ENDBRANCH  10  18
BRANCH  14  29
ATOM     29  C   UNL A   1      42.478  34.882  31.059  1.00  0.00     0.054 A 
ATOM     30  C   UNL A   1      41.165  34.731  30.581  1.00  0.00     0.027 A 
ATOM     31  C   UNL A   1      42.931  34.076  32.106  1.00  0.00     0.027 A 
ATOM     32  C   UNL A   1      40.312  33.784  31.148  1.00  0.00     0.002 A 
ATOM     33  C   UNL A   1      42.062  33.154  32.693  1.00  0.00     0.002 A 
ATOM     34  C   UNL A   1      40.757  33.008  32.216  1.00  0.00     0.000 A 
ENDBRANCH  14  29
ENDBRANCH   8   9
ENDBRANCH   7   8
ENDBRANCH   6   7
ENDBRANCH   5   6
ENDBRANCH   4   5
ENDBRANCH   3   4
ENDBRANCH   2   3
ENDBRANCH   1   2
BRANCH   1  35
ATOM     35  C   UNL A   1      45.793  39.457  33.204  1.00  0.00     0.188 C 
BRANCH  35  36
ATOM     36  O   UNL A   1      47.175  39.161  33.068  1.00  0.00    -0.376 OA
BRANCH  36  37
ATOM     37  C   UNL A   1      47.548  37.931  32.457  1.00  0.00     0.202 C 
BRANCH  37  38
ATOM     38  C   UNL A   1      48.263  37.914  31.090  1.00  0.00     0.261 C 
BRANCH  38  39
ATOM     39  O   UNL A   1      47.687  37.100  30.057  1.00  0.00    -0.460 OA
BRANCH  39  40
ATOM     40  C   UNL A   1      48.501  36.279  29.364  1.00  0.00     0.338 C 
ATOM     41  O   UNL A   1      49.684  36.443  29.129  1.00  0.00    -0.246 OA
BRANCH  40  42
ATOM     42  C   UNL A   1      47.758  35.017  29.137  1.00  0.00     0.060 A 
ATOM     43  C   UNL A   1      47.463  34.207  30.241  1.00  0.00     0.016 A 
ATOM     44  C   UNL A   1      47.316  34.662  27.859  1.00  0.00     0.016 A 
ATOM     45  C   UNL A   1      46.767  33.013  30.063  1.00  0.00     0.010 A 
ATOM     46  C   UNL A   1      46.641  33.451  27.676  1.00  0.00     0.010 A 
ATOM     47  C   UNL A   1      46.405  32.604  28.773  1.00  0.00    -0.014 A 
BRANCH  47  48
ATOM     48  C   UNL A   1      46.031  31.187  28.557  1.00  0.00     0.031 A 
ATOM     49  C   UNL A   1      44.606  30.792  28.840  1.00  0.00     0.074 A 
ATOM     50  C   UNL A   1      46.902  30.291  28.067  1.00  0.00     0.049 A 
ATOM     51  N   UNL A   1      44.015  29.639  28.677  1.00  0.00    -0.248 NA
ATOM     52  C   UNL A   1      43.730  31.851  29.370  1.00  0.00     0.031 C 
ATOM     53  C   UNL A   1      48.289  30.571  27.702  1.00  0.00     0.029 A 
ATOM     54  N   UNL A   1      46.742  28.958  27.789  1.00  0.00    -0.354 N 
ATOM     55  C   UNL A   1      42.695  29.837  29.066  1.00  0.00     0.074 A 
ATOM     56  C   UNL A   1      42.585  31.205  29.522  1.00  0.00     0.031 C 
ATOM     57  C   UNL A   1      48.861  29.435  27.264  1.00  0.00     0.029 A 
ATOM     58  C   UNL A   1      47.881  28.350  27.321  1.00  0.00     0.049 A 
ATOM     59  H   UNL A   1      45.889  28.481  27.913  1.00  0.00     0.167 HD
ATOM     60  C   UNL A   1      41.660  28.965  29.029  1.00  0.00     0.037 A 
ATOM     61  C   UNL A   1      48.102  27.067  26.978  1.00  0.00     0.037 A 
ATOM     62  C   UNL A   1      41.781  27.598  28.599  1.00  0.00     0.049 A 
ATOM     63  C   UNL A   1      46.960  26.084  27.032  1.00  0.00     0.074 A 
ATOM     64  C   UNL A   1      40.800  26.626  28.526  1.00  0.00     0.029 A 
ATOM     65  N   UNL A   1      42.965  27.005  28.185  1.00  0.00    -0.354 N 
ATOM     66  N   UNL A   1      45.709  26.289  27.376  1.00  0.00    -0.248 NA
ATOM     67  C   UNL A   1      47.256  24.702  26.633  1.00  0.00     0.031 C 
ATOM     68  C   UNL A   1      41.401  25.431  28.113  1.00  0.00     0.029 A 
ATOM     69  C   UNL A   1      42.747  25.672  27.878  1.00  0.00     0.049 A 
ATOM     70  H   UNL A   1      43.833  27.463  28.119  1.00  0.00     0.167 HD
ATOM     71  C   UNL A   1      45.060  25.071  27.198  1.00  0.00     0.074 A 
ATOM     72  C   UNL A   1      46.059  24.137  26.715  1.00  0.00     0.031 C 
ATOM     73  C   UNL A   1      43.756  24.756  27.402  1.00  0.00     0.037 A 
BRANCH  60  74
ATOM     74  C   UNL A   1      40.327  29.473  29.505  1.00  0.00     0.058 A 
ATOM     75  C   UNL A   1      39.296  29.799  28.607  1.00  0.00     0.135 A 
ATOM     76  C   UNL A   1      40.092  29.677  30.873  1.00  0.00     0.135 A 
ATOM     77  F   UNL A   1      39.475  29.645  27.286  1.00  0.00    -0.206 F 
ATOM     78  C   UNL A   1      38.099  30.357  29.046  1.00  0.00     0.059 A 
ATOM     79  C   UNL A   1      38.891  30.206  31.337  1.00  0.00     0.059 A 
ATOM     80  F   UNL A   1      41.044  29.387  31.774  1.00  0.00    -0.206 F 
ATOM     81  C   UNL A   1      37.912  30.568  30.413  1.00  0.00     0.060 A 
BRANCH  81  82
ATOM     82  S   UNL A   1      36.375  31.335  30.967  1.00  0.00     0.124 S 
ATOM     83  O   UNL A   1      36.876  32.517  31.663  1.00  0.00    -0.237 OA
ATOM     84  O   UNL A   1      35.679  31.589  29.710  1.00  0.00    -0.237 OA
ATOM     85  O   UNL A   1      35.773  30.314  31.818  1.00  0.00    -0.744 OA
ENDBRANCH  81  82
ENDBRANCH  60  74
BRANCH  61  86
ATOM     86  C   UNL A   1      49.453  26.648  26.519  1.00  0.00     0.058 A 
ATOM     87  C   UNL A   1      50.357  26.036  27.396  1.00  0.00     0.135 A 
ATOM     88  C   UNL A   1      49.852  26.827  25.184  1.00  0.00     0.135 A 
ATOM     89  F   UNL A   1      50.024  25.853  28.683  1.00  0.00    -0.206 F 
ATOM     90  C   UNL A   1      51.613  25.612  26.970  1.00  0.00     0.059 A 
ATOM     91  C   UNL A   1      51.093  26.391  24.729  1.00  0.00     0.059 A 
ATOM     92  F   UNL A   1      49.018  27.404  24.304  1.00  0.00    -0.206 F 
ATOM     93  C   UNL A   1      51.968  25.787  25.631  1.00  0.00     0.060 A 
BRANCH  93  94
ATOM     94  S   UNL A   1      53.569  25.162  25.077  1.00  0.00     0.124 S 
ATOM     95  O   UNL A   1      54.482  25.836  25.991  1.00  0.00    -0.237 OA
ATOM     96  O   UNL A   1      53.415  23.722  25.271  1.00  0.00    -0.237 OA
ATOM     97  O   UNL A   1      53.636  25.594  23.684  1.00  0.00    -0.744 OA
ENDBRANCH  93  94
ENDBRANCH  61  86
BRANCH  73  98
ATOM     98  C   UNL A   1      43.325  23.353  27.067  1.00  0.00     0.058 A 
ATOM     99  C   UNL A   1      43.036  22.958  25.751  1.00  0.00     0.135 A 
ATOM    100  C   UNL A   1      43.227  22.383  28.079  1.00  0.00     0.135 A 
ATOM    101  F   UNL A   1      43.111  23.846  24.748  1.00  0.00    -0.206 F 
ATOM    102  C   UNL A   1      42.625  21.662  25.456  1.00  0.00     0.059 A 
ATOM    103  C   UNL A   1      42.848  21.074  27.802  1.00  0.00     0.059 A 
ATOM    104  F   UNL A   1      43.508  22.702  29.351  1.00  0.00    -0.206 F 
ATOM    105  C   UNL A   1      42.530  20.728  26.489  1.00  0.00     0.060 A 
BRANCH 105 106
ATOM    106  S   UNL A   1      41.997  19.049  26.095  1.00  0.00     0.124 S 
ATOM    107  O   UNL A   1      42.376  18.329  27.306  1.00  0.00    -0.237 OA
ATOM    108  O   UNL A   1      40.564  19.217  25.879  1.00  0.00    -0.237 OA
ATOM    109  O   UNL A   1      42.770  18.720  24.899  1.00  0.00    -0.744 OA
ENDBRANCH 105 106
ENDBRANCH  73  98
ENDBRANCH  47  48
ENDBRANCH  40  42
ENDBRANCH  39  40
ENDBRANCH  38  39
ENDBRANCH  37  38
ENDBRANCH  36  37
ENDBRANCH  35  36
ENDBRANCH   1  35
TORSDOF 26
ENDMDL
MODEL 3
REMARK VINA RESULT:      -8.4      1.745      2.431
REMARK SMILES COc1ccc(/C=C2/C(=O)N(c3ccccc3)C(=O)N=C2OCCOCCOCCOCCOC(=O)c2ccc(-c3c4nc(c(-c5c(F)cc(S(=O)(=O)[O-])cc5F)c5ccc([nH]5)c(-c5c(F)cc(S(=O)(=O)[O-])cc5F)c5nc(c(-c6c(F)cc(S(=O)(=O)[O-])cc6F)c6ccc3[nH]6)C=C5)C=C4)cc2)cc1C(=O)[O-]
REMARK SMILES IDX 29 1 28 2 27 3 26 4 25 5 24 6 23 7 22 8 21 9 7 10 8 11 9 12
REMARK SMILES IDX 10 13 11 14 20 15 18 16 19 17 6 18 3 19 4 20 104 21 5 22
REMARK SMILES IDX 103 23 2 24 1 25 105 26 106 27 107 28 12 29 13 30 17 31
REMARK SMILES IDX 14 32 16 33 15 34 30 35 31 36 32 37 33 38 34 39 35 40 36 41
REMARK SMILES IDX 37 42 38 43 102 44 39 45 101 46 40 47 41 48 42 49 95 50
REMARK SMILES IDX 43 51 100 52 94 53 96 54 44 55 99 56 93 57 92 58 45 60 79 61
REMARK SMILES IDX 58 62 78 63 59 64 62 65 77 66 97 67 60 68 61 69 76 71 98 72
REMARK SMILES IDX 63 73 46 74 47 75 56 76 48 77 49 78 55 79 57 80 50 81 51 82
REMARK SMILES IDX 52 83 53 84 54 85 80 86 81 87 90 88 82 89 83 90 89 91 91 92
REMARK SMILES IDX 84 93 85 94 86 95 87 96 88 97 64 98 65 99 74 100 66 101
REMARK SMILES IDX 67 102 73 103 75 104 68 105 69 106 70 107 71 108 72 109
REMARK H PARENT 96 59 62 70
REMARK Flexibility Score: inf
ROOT
ATOM      1  C   UNL A   1      44.722  39.305  28.249  1.00  0.00     0.188 C 
ENDROOT
BRANCH   1   2
ATOM      2  O   UNL A   1      44.062  39.507  27.010  1.00  0.00    -0.377 OA
BRANCH   2   3
ATOM      3  C   UNL A   1      42.871  40.267  27.100  1.00  0.00     0.188 C 
BRANCH   3   4
ATOM      4  C   UNL A   1      42.224  40.813  25.813  1.00  0.00     0.188 C 
BRANCH   4   5
ATOM      5  O   UNL A   1      42.955  41.372  24.727  1.00  0.00    -0.376 OA
BRANCH   5   6
ATOM      6  C   UNL A   1      42.702  42.625  24.120  1.00  0.00     0.201 C 
BRANCH   6   7
ATOM      7  C   UNL A   1      42.287  42.728  22.653  1.00  0.00     0.260 C 
BRANCH   7   8
ATOM      8  O   UNL A   1      43.307  42.305  21.737  1.00  0.00    -0.475 OA
BRANCH   8   9
ATOM      9  C   UNL A   1      43.485  43.025  20.619  1.00  0.00     0.231 C 
ATOM     10  C   UNL A   1      45.771  43.875  21.456  1.00  0.00     0.027 C 
ATOM     11  C   UNL A   1      44.701  43.860  20.614  1.00  0.00     0.103 C 
ATOM     12  C   UNL A   1      44.653  44.945  19.555  1.00  0.00     0.272 C 
ATOM     13  O   UNL A   1      45.588  45.732  19.409  1.00  0.00    -0.268 OA
ATOM     14  N   UNL A   1      43.463  45.001  18.830  1.00  0.00    -0.226 N 
ATOM     15  N   UNL A   1      42.561  43.020  19.735  1.00  0.00    -0.156 NA
ATOM     16  C   UNL A   1      42.556  43.945  18.747  1.00  0.00     0.358 C 
ATOM     17  O   UNL A   1      41.737  43.842  17.836  1.00  0.00    -0.245 OA
BRANCH  10  18
ATOM     18  C   UNL A   1      46.182  43.157  22.708  1.00  0.00    -0.024 A 
ATOM     19  C   UNL A   1      46.705  41.888  25.223  1.00  0.00     0.127 A 
ATOM     20  C   UNL A   1      46.805  41.187  24.027  1.00  0.00     0.048 A 
ATOM     21  C   UNL A   1      46.510  43.267  25.159  1.00  0.00     0.040 A 
ATOM     22  C   UNL A   1      46.611  41.831  22.793  1.00  0.00     0.012 A 
ATOM     23  C   UNL A   1      46.182  43.876  23.923  1.00  0.00     0.022 A 
BRANCH  19  24
ATOM     24  O   UNL A   1      46.926  41.157  26.357  1.00  0.00    -0.496 OA
ATOM     25  C   UNL A   1      47.706  39.979  26.142  1.00  0.00     0.278 C 
ENDBRANCH  19  24
BRANCH  21  26
ATOM     26  C   UNL A   1      46.749  44.164  26.312  1.00  0.00     0.075 C 
ATOM     27  O   UNL A   1      46.220  44.078  27.405  1.00  0.00    -0.545 OA
ATOM     28  O   UNL A   1      47.541  45.199  25.982  1.00  0.00    -0.545 OA
ENDBRANCH  21  26
ENDBRANCH  10  18
BRANCH  14  29
ATOM     29  C   UNL A   1      43.189  46.111  17.982  1.00  0.00     0.054 A 
ATOM     30  C   UNL A   1      43.639  47.388  18.360  1.00  0.00     0.027 A 
ATOM     31  C   UNL A   1      42.340  45.974  16.883  1.00  0.00     0.027 A 
ATOM     32  C   UNL A   1      43.240  48.517  17.646  1.00  0.00     0.002 A 
ATOM     33  C   UNL A   1      41.915  47.111  16.192  1.00  0.00     0.002 A 
ATOM     34  C   UNL A   1      42.363  48.378  16.572  1.00  0.00     0.000 A 
ENDBRANCH  14  29
ENDBRANCH   8   9
ENDBRANCH   7   8
ENDBRANCH   6   7
ENDBRANCH   5   6
ENDBRANCH   4   5
ENDBRANCH   3   4
ENDBRANCH   2   3
ENDBRANCH   1   2
BRANCH   1  35
ATOM     35  C   UNL A   1      44.534  40.506  29.185  1.00  0.00     0.188 C 
BRANCH  35  36
ATOM     36  O   UNL A   1      44.450  40.123  30.550  1.00  0.00    -0.376 OA
BRANCH  36  37
ATOM     37  C   UNL A   1      44.340  38.739  30.860  1.00  0.00     0.202 C 
BRANCH  37  38
ATOM     38  C   UNL A   1      45.113  38.133  32.050  1.00  0.00     0.261 C 
BRANCH  38  39
ATOM     39  O   UNL A   1      45.902  36.963  31.794  1.00  0.00    -0.460 OA
BRANCH  39  40
ATOM     40  C   UNL A   1      46.091  36.087  32.802  1.00  0.00     0.338 C 
ATOM     41  O   UNL A   1      46.018  36.314  33.996  1.00  0.00    -0.246 OA
BRANCH  40  42
ATOM     42  C   UNL A   1      46.172  34.737  32.198  1.00  0.00     0.060 A 
ATOM     43  C   UNL A   1      46.484  34.631  30.837  1.00  0.00     0.016 A 
ATOM     44  C   UNL A   1      45.990  33.588  32.974  1.00  0.00     0.016 A 
ATOM     45  C   UNL A   1      46.566  33.377  30.235  1.00  0.00     0.010 A 
ATOM     46  C   UNL A   1      46.045  32.331  32.366  1.00  0.00     0.010 A 
ATOM     47  C   UNL A   1      46.290  32.227  30.985  1.00  0.00    -0.014 A 
BRANCH  47  48
ATOM     48  C   UNL A   1      45.997  30.965  30.267  1.00  0.00     0.031 A 
ATOM     49  C   UNL A   1      47.154  30.052  29.961  1.00  0.00     0.074 A 
ATOM     50  C   UNL A   1      44.743  30.605  29.949  1.00  0.00     0.049 A 
ATOM     51  N   UNL A   1      47.158  28.872  29.400  1.00  0.00    -0.248 NA
ATOM     52  C   UNL A   1      48.488  30.537  30.357  1.00  0.00     0.031 C 
ATOM     53  C   UNL A   1      43.540  31.379  30.244  1.00  0.00     0.029 A 
ATOM     54  N   UNL A   1      44.276  29.488  29.307  1.00  0.00    -0.354 N 
ATOM     55  C   UNL A   1      48.487  28.466  29.391  1.00  0.00     0.074 A 
ATOM     56  C   UNL A   1      49.267  29.547  29.954  1.00  0.00     0.031 C 
ATOM     57  C   UNL A   1      42.470  30.720  29.766  1.00  0.00     0.029 A 
ATOM     58  C   UNL A   1      42.915  29.480  29.129  1.00  0.00     0.049 A 
ATOM     59  H   UNL A   1      44.863  28.758  29.001  1.00  0.00     0.167 HD
ATOM     60  C   UNL A   1      49.012  27.291  28.971  1.00  0.00     0.037 A 
ATOM     61  C   UNL A   1      42.123  28.574  28.524  1.00  0.00     0.037 A 
ATOM     62  C   UNL A   1      48.235  26.231  28.387  1.00  0.00     0.049 A 
ATOM     63  C   UNL A   1      42.736  27.312  27.975  1.00  0.00     0.074 A 
ATOM     64  C   UNL A   1      48.663  25.002  27.922  1.00  0.00     0.029 A 
ATOM     65  N   UNL A   1      46.864  26.285  28.174  1.00  0.00    -0.354 N 
ATOM     66  N   UNL A   1      43.992  26.926  27.995  1.00  0.00    -0.248 NA
ATOM     67  C   UNL A   1      41.823  26.354  27.339  1.00  0.00     0.031 C 
ATOM     68  C   UNL A   1      47.560  24.331  27.382  1.00  0.00     0.029 A 
ATOM     69  C   UNL A   1      46.433  25.121  27.560  1.00  0.00     0.049 A 
ATOM     70  H   UNL A   1      46.284  27.040  28.422  1.00  0.00     0.167 HD
ATOM     71  C   UNL A   1      44.013  25.664  27.410  1.00  0.00     0.074 A 
ATOM     72  C   UNL A   1      42.644  25.354  27.047  1.00  0.00     0.031 C 
ATOM     73  C   UNL A   1      45.065  24.832  27.203  1.00  0.00     0.037 A 
BRANCH  60  74
ATOM     74  C   UNL A   1      50.502  27.129  29.099  1.00  0.00     0.058 A 
ATOM     75  C   UNL A   1      51.091  26.597  30.259  1.00  0.00     0.135 A 
ATOM     76  C   UNL A   1      51.354  27.550  28.067  1.00  0.00     0.135 A 
ATOM     77  F   UNL A   1      50.323  26.200  31.287  1.00  0.00    -0.206 F 
ATOM     78  C   UNL A   1      52.472  26.537  30.411  1.00  0.00     0.059 A 
ATOM     79  C   UNL A   1      52.739  27.471  28.185  1.00  0.00     0.059 A 
ATOM     80  F   UNL A   1      50.846  28.070  26.939  1.00  0.00    -0.206 F 
ATOM     81  C   UNL A   1      53.288  26.987  29.371  1.00  0.00     0.060 A 
BRANCH  81  82
ATOM     82  S   UNL A   1      55.078  26.947  29.598  1.00  0.00     0.124 S 
ATOM     83  O   UNL A   1      55.188  27.020  31.052  1.00  0.00    -0.237 OA
ATOM     84  O   UNL A   1      55.442  25.667  28.999  1.00  0.00    -0.237 OA
ATOM     85  O   UNL A   1      55.538  28.128  28.874  1.00  0.00    -0.744 OA
ENDBRANCH  81  82
ENDBRANCH  60  74
BRANCH  61  86
ATOM     86  C   UNL A   1      40.658  28.815  28.439  1.00  0.00     0.058 A 
ATOM     87  C   UNL A   1      39.836  28.670  29.564  1.00  0.00     0.135 A 
ATOM     88  C   UNL A   1      40.059  29.223  27.237  1.00  0.00     0.135 A 
ATOM     89  F   UNL A   1      40.362  28.272  30.733  1.00  0.00    -0.206 F 
ATOM     90  C   UNL A   1      38.468  28.922  29.504  1.00  0.00     0.059 A 
ATOM     91  C   UNL A   1      38.697  29.503  27.158  1.00  0.00     0.059 A 
ATOM     92  F   UNL A   1      40.806  29.382  26.133  1.00  0.00    -0.206 F 
ATOM     93  C   UNL A   1      37.910  29.347  28.297  1.00  0.00     0.060 A 
BRANCH  93  94
ATOM     94  S   UNL A   1      36.149  29.745  28.257  1.00  0.00     0.124 S 
ATOM     95  O   UNL A   1      35.618  28.654  27.448  1.00  0.00    -0.237 OA
ATOM     96  O   UNL A   1      35.799  29.719  29.675  1.00  0.00    -0.237 OA
ATOM     97  O   UNL A   1      36.115  31.066  27.636  1.00  0.00    -0.744 OA
ENDBRANCH  93  94
ENDBRANCH  61  86
BRANCH  73  98
ATOM     98  C   UNL A   1      44.771  23.489  26.589  1.00  0.00     0.058 A 
ATOM     99  C   UNL A   1      45.115  23.186  25.263  1.00  0.00     0.135 A 
ATOM    100  C   UNL A   1      44.158  22.481  27.354  1.00  0.00     0.135 A 
ATOM    101  F   UNL A   1      45.700  24.114  24.488  1.00  0.00    -0.206 F 
ATOM    102  C   UNL A   1      44.825  21.947  24.702  1.00  0.00     0.059 A 
ATOM    103  C   UNL A   1      43.887  21.225  26.823  1.00  0.00     0.059 A 
ATOM    104  F   UNL A   1      43.823  22.711  28.632  1.00  0.00    -0.206 F 
ATOM    105  C   UNL A   1      44.206  20.973  25.489  1.00  0.00     0.060 A 
BRANCH 105 106
ATOM    106  S   UNL A   1      43.835  19.367  24.753  1.00  0.00     0.124 S 
ATOM    107  O   UNL A   1      44.235  19.582  23.366  1.00  0.00    -0.237 OA
ATOM    108  O   UNL A   1      44.683  18.464  25.524  1.00  0.00    -0.237 OA
ATOM    109  O   UNL A   1      42.400  19.214  24.978  1.00  0.00    -0.744 OA
ENDBRANCH 105 106
ENDBRANCH  73  98
ENDBRANCH  47  48
ENDBRANCH  40  42
ENDBRANCH  39  40
ENDBRANCH  38  39
ENDBRANCH  37  38
ENDBRANCH  36  37
ENDBRANCH  35  36
ENDBRANCH   1  35
TORSDOF 26
ENDMDL
