MODEL 1
REMARK VINA RESULT:      -9.5      0.000      0.000
REMARK SMILES O=C(/C=C\C(F)(C(F)(F)F)C(F)(F)F)OCCOCCOCCOCCOC(=O)c1ccc(-c2c3nc(c(-c4c(F)cc(S(=O)(=O)[O-])cc4F)c4ccc([nH]4)c(-c4c(F)cc(S(=O)(=O)[O-])cc4F)c4nc(c(-c5c(F)cc(S(=O)(=O)[O-])cc5F)c5ccc2[nH]5)C=C4)C=C3)cc1
REMARK SMILES IDX 22 1 21 2 20 3 19 4 18 5 17 6 16 7 15 8 2 9 1 10 3 11 4 12
REMARK SMILES IDX 5 13 6 14 7 15 8 16 9 17 10 18 11 19 12 20 13 21 14 22 23 23
REMARK SMILES IDX 24 24 25 25 26 26 27 27 28 28 29 29 30 30 31 31 95 32 32 33
REMARK SMILES IDX 94 34 33 35 34 36 35 37 88 38 36 39 93 40 87 41 89 42 37 43
REMARK SMILES IDX 92 44 86 45 85 46 38 48 72 49 51 50 71 51 52 52 55 53 70 54
REMARK SMILES IDX 90 55 53 56 54 57 69 59 91 60 56 61 39 62 40 63 49 64 41 65
REMARK SMILES IDX 42 66 48 67 50 68 43 69 44 70 45 71 46 72 47 73 73 74 74 75
REMARK SMILES IDX 83 76 75 77 76 78 82 79 84 80 77 81 78 82 79 83 80 84 81 85
REMARK SMILES IDX 57 86 58 87 67 88 59 89 60 90 66 91 68 92 61 93 62 94 63 95
REMARK SMILES IDX 64 96 65 97
REMARK H PARENT 89 47 55 58
REMARK Flexibility Score: inf
ROOT
ATOM      1  C   UNL A   1      36.534  21.994  25.626  1.00  0.00     0.188 C 
ENDROOT
BRANCH   1   2
ATOM      2  O   UNL A   1      35.479  21.094  25.929  1.00  0.00    -0.377 OA
BRANCH   2   3
ATOM      3  C   UNL A   1      35.100  20.118  24.976  1.00  0.00     0.188 C 
BRANCH   3   4
ATOM      4  C   UNL A   1      33.608  19.796  24.980  1.00  0.00     0.188 C 
BRANCH   4   5
ATOM      5  O   UNL A   1      32.701  20.752  24.449  1.00  0.00    -0.376 OA
BRANCH   5   6
ATOM      6  C   UNL A   1      32.005  21.639  25.303  1.00  0.00     0.202 C 
BRANCH   6   7
ATOM      7  C   UNL A   1      31.104  22.654  24.605  1.00  0.00     0.261 C 
BRANCH   7   8
ATOM      8  O   UNL A   1      30.996  24.018  25.085  1.00  0.00    -0.460 OA
BRANCH   8   9
ATOM      9  C   UNL A   1      31.600  24.681  26.075  1.00  0.00     0.330 C 
ATOM     10  O   UNL A   1      31.266  24.492  27.245  1.00  0.00    -0.247 OA
BRANCH   9  11
ATOM     11  C   UNL A   1      32.705  25.627  25.847  1.00  0.00     0.093 C 
ATOM     12  C   UNL A   1      32.910  26.952  25.752  1.00  0.00     0.040 C 
BRANCH  12  13
ATOM     13  C   UNL A   1      32.044  28.210  25.808  1.00  0.00     0.317 C 
ATOM     14  F   UNL A   1      30.751  27.836  25.543  1.00  0.00    -0.219 F 
BRANCH  13  15
ATOM     15  C   UNL A   1      32.031  28.791  27.218  1.00  0.00     0.435 C 
ATOM     16  F   UNL A   1      33.250  28.764  27.803  1.00  0.00    -0.167 F 
ATOM     17  F   UNL A   1      31.582  30.063  27.263  1.00  0.00    -0.167 F 
ATOM     18  F   UNL A   1      31.207  28.069  28.028  1.00  0.00    -0.167 F 
ENDBRANCH  13  15
BRANCH  13  19
ATOM     19  C   UNL A   1      32.418  29.381  24.919  1.00  0.00     0.435 C 
ATOM     20  F   UNL A   1      33.396  30.139  25.465  1.00  0.00    -0.167 F 
ATOM     21  F   UNL A   1      32.866  28.985  23.712  1.00  0.00    -0.167 F 
ATOM     22  F   UNL A   1      31.362  30.190  24.680  1.00  0.00    -0.167 F 
ENDBRANCH  13  19
ENDBRANCH  12  13
ENDBRANCH   9  11
ENDBRANCH   8   9
ENDBRANCH   7   8
ENDBRANCH   6   7
ENDBRANCH   5   6
ENDBRANCH   4   5
ENDBRANCH   3   4
ENDBRANCH   2   3
ENDBRANCH   1   2
BRANCH   1  23
ATOM     23  C   UNL A   1      37.815  21.436  24.971  1.00  0.00     0.188 C 
BRANCH  23  24
ATOM     24  O   UNL A   1      38.959  21.233  25.802  1.00  0.00    -0.376 OA
BRANCH  24  25
ATOM     25  C   UNL A   1      39.278  22.208  26.785  1.00  0.00     0.202 C 
BRANCH  25  26
ATOM     26  C   UNL A   1      40.365  23.237  26.447  1.00  0.00     0.261 C 
BRANCH  26  27
ATOM     27  O   UNL A   1      39.831  24.553  26.212  1.00  0.00    -0.460 OA
BRANCH  27  28
ATOM     28  C   UNL A   1      40.747  25.546  26.103  1.00  0.00     0.338 C 
ATOM     29  O   UNL A   1      41.282  25.923  25.067  1.00  0.00    -0.246 OA
BRANCH  28  30
ATOM     30  C   UNL A   1      40.859  26.291  27.383  1.00  0.00     0.060 A 
ATOM     31  C   UNL A   1      39.859  26.075  28.343  1.00  0.00     0.016 A 
ATOM     32  C   UNL A   1      41.908  27.175  27.659  1.00  0.00     0.016 A 
ATOM     33  C   UNL A   1      39.861  26.790  29.539  1.00  0.00     0.010 A 
ATOM     34  C   UNL A   1      41.902  27.905  28.857  1.00  0.00     0.010 A 
ATOM     35  C   UNL A   1      40.850  27.753  29.778  1.00  0.00    -0.014 A 
BRANCH  35  36
ATOM     36  C   UNL A   1      40.614  28.763  30.841  1.00  0.00     0.031 A 
ATOM     37  C   UNL A   1      41.500  28.715  32.061  1.00  0.00     0.074 A 
ATOM     38  C   UNL A   1      39.702  29.745  30.711  1.00  0.00     0.049 A 
ATOM     39  N   UNL A   1      41.525  29.505  33.104  1.00  0.00    -0.248 NA
ATOM     40  C   UNL A   1      42.498  27.632  32.105  1.00  0.00     0.031 C 
ATOM     41  C   UNL A   1      38.807  29.929  29.571  1.00  0.00     0.029 A 
ATOM     42  N   UNL A   1      39.383  30.778  31.559  1.00  0.00    -0.354 N 
ATOM     43  C   UNL A   1      42.547  29.025  33.915  1.00  0.00     0.074 A 
ATOM     44  C   UNL A   1      43.090  27.852  33.268  1.00  0.00     0.031 C 
ATOM     45  C   UNL A   1      38.029  31.005  29.797  1.00  0.00     0.029 A 
ATOM     46  C   UNL A   1      38.362  31.577  31.101  1.00  0.00     0.049 A 
ATOM     47  H   UNL A   1      39.843  30.933  32.415  1.00  0.00     0.167 HD
ATOM     48  C   UNL A   1      43.008  29.523  35.086  1.00  0.00     0.037 A 
ATOM     49  C   UNL A   1      37.759  32.639  31.677  1.00  0.00     0.037 A 
ATOM     50  C   UNL A   1      42.466  30.679  35.744  1.00  0.00     0.049 A 
ATOM     51  C   UNL A   1      38.244  33.133  33.021  1.00  0.00     0.074 A 
ATOM     52  C   UNL A   1      42.858  31.252  36.941  1.00  0.00     0.029 A 
ATOM     53  N   UNL A   1      41.411  31.440  35.264  1.00  0.00    -0.354 N 
ATOM     54  N   UNL A   1      39.225  32.679  33.765  1.00  0.00    -0.248 NA
ATOM     55  C   UNL A   1      37.542  34.289  33.598  1.00  0.00     0.031 C 
ATOM     56  C   UNL A   1      42.016  32.337  37.204  1.00  0.00     0.029 A 
ATOM     57  C   UNL A   1      41.128  32.467  36.149  1.00  0.00     0.049 A 
ATOM     58  H   UNL A   1      40.934  31.275  34.419  1.00  0.00     0.167 HD
ATOM     59  C   UNL A   1      39.272  33.509  34.882  1.00  0.00     0.074 A 
ATOM     60  C   UNL A   1      38.234  34.503  34.708  1.00  0.00     0.031 C 
ATOM     61  C   UNL A   1      40.096  33.453  35.959  1.00  0.00     0.037 A 
BRANCH  48  62
ATOM     62  C   UNL A   1      44.156  28.806  35.736  1.00  0.00     0.058 A 
ATOM     63  C   UNL A   1      43.944  27.751  36.637  1.00  0.00     0.135 A 
ATOM     64  C   UNL A   1      45.481  29.152  35.427  1.00  0.00     0.135 A 
ATOM     65  F   UNL A   1      42.696  27.400  36.985  1.00  0.00    -0.206 F 
ATOM     66  C   UNL A   1      45.007  27.070  37.219  1.00  0.00     0.059 A 
ATOM     67  C   UNL A   1      46.560  28.468  35.981  1.00  0.00     0.059 A 
ATOM     68  F   UNL A   1      45.737  30.160  34.579  1.00  0.00    -0.206 F 
ATOM     69  C   UNL A   1      46.312  27.434  36.883  1.00  0.00     0.060 A 
BRANCH  69  70
ATOM     70  S   UNL A   1      47.679  26.523  37.628  1.00  0.00     0.124 S 
ATOM     71  O   UNL A   1      47.642  27.015  39.002  1.00  0.00    -0.237 OA
ATOM     72  O   UNL A   1      47.269  25.135  37.440  1.00  0.00    -0.237 OA
ATOM     73  O   UNL A   1      48.836  26.943  36.844  1.00  0.00    -0.744 OA
ENDBRANCH  69  70
ENDBRANCH  48  62
BRANCH  49  74
ATOM     74  C   UNL A   1      36.609  33.309  31.009  1.00  0.00     0.058 A 
ATOM     75  C   UNL A   1      36.792  34.132  29.888  1.00  0.00     0.135 A 
ATOM     76  C   UNL A   1      35.308  33.183  31.519  1.00  0.00     0.135 A 
ATOM     77  F   UNL A   1      38.021  34.297  29.371  1.00  0.00    -0.206 F 
ATOM     78  C   UNL A   1      35.734  34.832  29.315  1.00  0.00     0.059 A 
ATOM     79  C   UNL A   1      34.229  33.851  30.948  1.00  0.00     0.059 A 
ATOM     80  F   UNL A   1      35.077  32.402  32.586  1.00  0.00    -0.206 F 
ATOM     81  C   UNL A   1      34.456  34.688  29.856  1.00  0.00     0.060 A 
BRANCH  81  82
ATOM     82  S   UNL A   1      33.083  35.587  29.099  1.00  0.00     0.124 S 
ATOM     83  O   UNL A   1      33.787  36.634  28.369  1.00  0.00    -0.237 OA
ATOM     84  O   UNL A   1      32.451  34.554  28.285  1.00  0.00    -0.237 OA
ATOM     85  O   UNL A   1      32.303  36.033  30.249  1.00  0.00    -0.744 OA
ENDBRANCH  81  82
ENDBRANCH  49  74
BRANCH  61  86
ATOM     86  C   UNL A   1      39.931  34.512  37.015  1.00  0.00     0.058 A 
ATOM     87  C   UNL A   1      40.643  35.721  36.966  1.00  0.00     0.135 A 
ATOM     88  C   UNL A   1      39.023  34.329  38.071  1.00  0.00     0.135 A 
ATOM     89  F   UNL A   1      41.522  35.947  35.978  1.00  0.00    -0.206 F 
ATOM     90  C   UNL A   1      40.489  36.695  37.947  1.00  0.00     0.059 A 
ATOM     91  C   UNL A   1      38.832  35.302  39.048  1.00  0.00     0.059 A 
ATOM     92  F   UNL A   1      38.304  33.198  38.157  1.00  0.00    -0.206 F 
ATOM     93  C   UNL A   1      39.584  36.474  38.988  1.00  0.00     0.060 A 
BRANCH  93  94
ATOM     94  S   UNL A   1      39.386  37.748  40.252  1.00  0.00     0.124 S 
ATOM     95  O   UNL A   1      40.503  38.637  39.948  1.00  0.00    -0.237 OA
ATOM     96  O   UNL A   1      38.057  38.277  39.962  1.00  0.00    -0.237 OA
ATOM     97  O   UNL A   1      39.498  37.004  41.503  1.00  0.00    -0.744 OA
ENDBRANCH  93  94
ENDBRANCH  61  86
ENDBRANCH  35  36
ENDBRANCH  28  30
ENDBRANCH  27  28
ENDBRANCH  26  27
ENDBRANCH  25  26
ENDBRANCH  24  25
ENDBRANCH  23  24
ENDBRANCH   1  23
TORSDOF 26
ENDMDL
MODEL 2
REMARK VINA RESULT:      -9.2      1.722      2.754
REMARK SMILES O=C(/C=C\C(F)(C(F)(F)F)C(F)(F)F)OCCOCCOCCOCCOC(=O)c1ccc(-c2c3nc(c(-c4c(F)cc(S(=O)(=O)[O-])cc4F)c4ccc([nH]4)c(-c4c(F)cc(S(=O)(=O)[O-])cc4F)c4nc(c(-c5c(F)cc(S(=O)(=O)[O-])cc5F)c5ccc2[nH]5)C=C4)C=C3)cc1
REMARK SMILES IDX 22 1 21 2 20 3 19 4 18 5 17 6 16 7 15 8 2 9 1 10 3 11 4 12
REMARK SMILES IDX 5 13 6 14 7 15 8 16 9 17 10 18 11 19 12 20 13 21 14 22 23 23
REMARK SMILES IDX 24 24 25 25 26 26 27 27 28 28 29 29 30 30 31 31 95 32 32 33
REMARK SMILES IDX 94 34 33 35 34 36 35 37 88 38 36 39 93 40 87 41 89 42 37 43
REMARK SMILES IDX 92 44 86 45 85 46 38 48 72 49 51 50 71 51 52 52 55 53 70 54
REMARK SMILES IDX 90 55 53 56 54 57 69 59 91 60 56 61 39 62 40 63 49 64 41 65
REMARK SMILES IDX 42 66 48 67 50 68 43 69 44 70 45 71 46 72 47 73 73 74 74 75
REMARK SMILES IDX 83 76 75 77 76 78 82 79 84 80 77 81 78 82 79 83 80 84 81 85
REMARK SMILES IDX 57 86 58 87 67 88 59 89 60 90 66 91 68 92 61 93 62 94 63 95
REMARK SMILES IDX 64 96 65 97
REMARK H PARENT 89 47 55 58
REMARK Flexibility Score: inf
ROOT
ATOM      1  C   UNL A   1      41.310  19.249  25.902  1.00  0.00     0.188 C 
ENDROOT
BRANCH   1   2
ATOM      2  O   UNL A   1      40.095  19.967  26.060  1.00  0.00    -0.377 OA
BRANCH   2   3
ATOM      3  C   UNL A   1      40.112  21.235  26.691  1.00  0.00     0.188 C 
BRANCH   3   4
ATOM      4  C   UNL A   1      39.065  22.207  26.154  1.00  0.00     0.188 C 
BRANCH   4   5
ATOM      5  O   UNL A   1      37.957  21.688  25.432  1.00  0.00    -0.376 OA
BRANCH   5   6
ATOM      6  C   UNL A   1      36.692  22.318  25.498  1.00  0.00     0.202 C 
BRANCH   6   7
ATOM      7  C   UNL A   1      35.552  21.453  26.028  1.00  0.00     0.261 C 
BRANCH   7   8
ATOM      8  O   UNL A   1      34.167  21.804  25.782  1.00  0.00    -0.460 OA
BRANCH   8   9
ATOM      9  C   UNL A   1      33.524  22.257  24.703  1.00  0.00     0.330 C 
ATOM     10  O   UNL A   1      34.060  22.214  23.595  1.00  0.00    -0.247 OA
BRANCH   9  11
ATOM     11  C   UNL A   1      32.151  22.787  24.754  1.00  0.00     0.093 C 
ATOM     12  C   UNL A   1      31.510  23.967  24.691  1.00  0.00     0.040 C 
BRANCH  12  13
ATOM     13  C   UNL A   1      31.911  25.436  24.559  1.00  0.00     0.317 C 
ATOM     14  F   UNL A   1      31.974  25.729  23.220  1.00  0.00    -0.219 F 
BRANCH  13  15
ATOM     15  C   UNL A   1      30.828  26.342  25.136  1.00  0.00     0.435 C 
ATOM     16  F   UNL A   1      30.761  27.538  24.510  1.00  0.00    -0.167 F 
ATOM     17  F   UNL A   1      29.598  25.788  25.096  1.00  0.00    -0.167 F 
ATOM     18  F   UNL A   1      31.078  26.614  26.447  1.00  0.00    -0.167 F 
ENDBRANCH  13  15
BRANCH  13  19
ATOM     19  C   UNL A   1      33.189  25.896  25.233  1.00  0.00     0.435 C 
ATOM     20  F   UNL A   1      34.289  25.543  24.530  1.00  0.00    -0.167 F 
ATOM     21  F   UNL A   1      33.238  27.235  25.377  1.00  0.00    -0.167 F 
ATOM     22  F   UNL A   1      33.317  25.381  26.475  1.00  0.00    -0.167 F 
ENDBRANCH  13  19
ENDBRANCH  12  13
ENDBRANCH   9  11
ENDBRANCH   8   9
ENDBRANCH   7   8
ENDBRANCH   6   7
ENDBRANCH   5   6
ENDBRANCH   4   5
ENDBRANCH   3   4
ENDBRANCH   2   3
ENDBRANCH   1   2
BRANCH   1  23
ATOM     23  C   UNL A   1      42.637  19.964  26.230  1.00  0.00     0.188 C 
BRANCH  23  24
ATOM     24  O   UNL A   1      43.393  20.504  25.144  1.00  0.00    -0.376 OA
BRANCH  24  25
ATOM     25  C   UNL A   1      44.220  21.636  25.376  1.00  0.00     0.202 C 
BRANCH  25  26
ATOM     26  C   UNL A   1      43.840  22.576  26.529  1.00  0.00     0.261 C 
BRANCH  26  27
ATOM     27  O   UNL A   1      42.768  23.472  26.186  1.00  0.00    -0.460 OA
BRANCH  27  28
ATOM     28  C   UNL A   1      43.134  24.749  25.917  1.00  0.00     0.338 C 
ATOM     29  O   UNL A   1      43.789  25.122  24.951  1.00  0.00    -0.246 OA
BRANCH  28  30
ATOM     30  C   UNL A   1      42.439  25.691  26.830  1.00  0.00     0.060 A 
ATOM     31  C   UNL A   1      42.971  26.984  26.947  1.00  0.00     0.016 A 
ATOM     32  C   UNL A   1      41.293  25.342  27.555  1.00  0.00     0.016 A 
ATOM     33  C   UNL A   1      42.413  27.901  27.837  1.00  0.00     0.010 A 
ATOM     34  C   UNL A   1      40.740  26.260  28.460  1.00  0.00     0.010 A 
ATOM     35  C   UNL A   1      41.330  27.525  28.642  1.00  0.00    -0.014 A 
BRANCH  35  36
ATOM     36  C   UNL A   1      41.016  28.349  29.838  1.00  0.00     0.031 A 
ATOM     37  C   UNL A   1      41.859  28.142  31.071  1.00  0.00     0.074 A 
ATOM     38  C   UNL A   1      40.071  29.307  29.822  1.00  0.00     0.049 A 
ATOM     39  N   UNL A   1      41.815  28.761  32.224  1.00  0.00    -0.248 NA
ATOM     40  C   UNL A   1      42.898  27.100  30.990  1.00  0.00     0.031 C 
ATOM     41  C   UNL A   1      39.211  29.636  28.688  1.00  0.00     0.029 A 
ATOM     42  N   UNL A   1      39.681  30.185  30.805  1.00  0.00    -0.354 N 
ATOM     43  C   UNL A   1      42.827  28.196  32.992  1.00  0.00     0.074 A 
ATOM     44  C   UNL A   1      43.439  27.157  32.196  1.00  0.00     0.031 C 
ATOM     45  C   UNL A   1      38.383  30.637  29.044  1.00  0.00     0.029 A 
ATOM     46  C   UNL A   1      38.646  31.010  30.434  1.00  0.00     0.049 A 
ATOM     47  H   UNL A   1      40.104  30.220  31.693  1.00  0.00     0.167 HD
ATOM     48  C   UNL A   1      43.225  28.521  34.245  1.00  0.00     0.037 A 
ATOM     49  C   UNL A   1      37.981  31.949  31.141  1.00  0.00     0.037 A 
ATOM     50  C   UNL A   1      42.613  29.542  35.050  1.00  0.00     0.049 A 
ATOM     51  C   UNL A   1      38.397  32.244  32.563  1.00  0.00     0.074 A 
ATOM     52  C   UNL A   1      42.940  29.935  36.336  1.00  0.00     0.029 A 
ATOM     53  N   UNL A   1      41.547  30.332  34.648  1.00  0.00    -0.354 N 
ATOM     54  N   UNL A   1      39.369  31.714  33.269  1.00  0.00    -0.248 NA
ATOM     55  C   UNL A   1      37.630  33.272  33.281  1.00  0.00     0.031 C 
ATOM     56  C   UNL A   1      42.046  30.937  36.727  1.00  0.00     0.029 A 
ATOM     57  C   UNL A   1      41.192  31.199  35.669  1.00  0.00     0.049 A 
ATOM     58  H   UNL A   1      41.107  30.284  33.769  1.00  0.00     0.167 HD
ATOM     59  C   UNL A   1      39.343  32.361  34.501  1.00  0.00     0.074 A 
ATOM     60  C   UNL A   1      38.273  33.335  34.439  1.00  0.00     0.031 C 
ATOM     61  C   UNL A   1      40.129  32.167  35.590  1.00  0.00     0.037 A 
BRANCH  48  62
ATOM     62  C   UNL A   1      44.377  27.752  34.824  1.00  0.00     0.058 A 
ATOM     63  C   UNL A   1      44.178  26.545  35.514  1.00  0.00     0.135 A 
ATOM     64  C   UNL A   1      45.695  28.203  34.655  1.00  0.00     0.135 A 
ATOM     65  F   UNL A   1      42.934  26.085  35.725  1.00  0.00    -0.206 F 
ATOM     66  C   UNL A   1      45.246  25.819  36.028  1.00  0.00     0.059 A 
ATOM     67  C   UNL A   1      46.780  27.480  35.141  1.00  0.00     0.059 A 
ATOM     68  F   UNL A   1      45.938  29.355  34.011  1.00  0.00    -0.206 F 
ATOM     69  C   UNL A   1      46.544  26.293  35.834  1.00  0.00     0.060 A 
BRANCH  69  70
ATOM     70  S   UNL A   1      47.921  25.325  36.485  1.00  0.00     0.124 S 
ATOM     71  O   UNL A   1      47.686  25.418  37.923  1.00  0.00    -0.237 OA
ATOM     72  O   UNL A   1      47.690  24.013  35.889  1.00  0.00    -0.237 OA
ATOM     73  O   UNL A   1      49.098  26.035  35.996  1.00  0.00    -0.744 OA
ENDBRANCH  69  70
ENDBRANCH  48  62
BRANCH  49  74
ATOM     74  C   UNL A   1      36.830  32.675  30.537  1.00  0.00     0.058 A 
ATOM     75  C   UNL A   1      37.024  33.745  29.650  1.00  0.00     0.135 A 
ATOM     76  C   UNL A   1      35.510  32.346  30.882  1.00  0.00     0.135 A 
ATOM     77  F   UNL A   1      38.268  34.110  29.301  1.00  0.00    -0.206 F 
ATOM     78  C   UNL A   1      35.954  34.485  29.154  1.00  0.00     0.059 A 
ATOM     79  C   UNL A   1      34.423  33.053  30.378  1.00  0.00     0.059 A 
ATOM     80  F   UNL A   1      35.269  31.326  31.720  1.00  0.00    -0.206 F 
ATOM     81  C   UNL A   1      34.657  34.133  29.528  1.00  0.00     0.060 A 
BRANCH  81  82
ATOM     82  S   UNL A   1      33.270  35.086  28.869  1.00  0.00     0.124 S 
ATOM     83  O   UNL A   1      32.690  34.142  27.922  1.00  0.00    -0.237 OA
ATOM     84  O   UNL A   1      32.484  35.354  30.068  1.00  0.00    -0.237 OA
ATOM     85  O   UNL A   1      33.918  36.254  28.280  1.00  0.00    -0.744 OA
ENDBRANCH  81  82
ENDBRANCH  49  74
BRANCH  61  86
ATOM     86  C   UNL A   1      39.884  33.043  36.789  1.00  0.00     0.058 A 
ATOM     87  C   UNL A   1      40.600  34.233  36.993  1.00  0.00     0.135 A 
ATOM     88  C   UNL A   1      38.895  32.704  37.727  1.00  0.00     0.135 A 
ATOM     89  F   UNL A   1      41.555  34.603  36.125  1.00  0.00    -0.206 F 
ATOM     90  C   UNL A   1      40.372  35.037  38.104  1.00  0.00     0.059 A 
ATOM     91  C   UNL A   1      38.631  33.509  38.832  1.00  0.00     0.059 A 
ATOM     92  F   UNL A   1      38.169  31.586  37.572  1.00  0.00    -0.206 F 
ATOM     93  C   UNL A   1      39.388  34.664  39.022  1.00  0.00     0.060 A 
BRANCH  93  94
ATOM     94  S   UNL A   1      39.094  35.718  40.458  1.00  0.00     0.124 S 
ATOM     95  O   UNL A   1      37.901  35.106  41.032  1.00  0.00    -0.237 OA
ATOM     96  O   UNL A   1      40.324  35.553  41.228  1.00  0.00    -0.237 OA
ATOM     97  O   UNL A   1      38.902  37.042  39.873  1.00  0.00    -0.744 OA
ENDBRANCH  93  94
ENDBRANCH  61  86
ENDBRANCH  35  36
ENDBRANCH  28  30
ENDBRANCH  27  28
ENDBRANCH  26  27
ENDBRANCH  25  26
ENDBRANCH  24  25
ENDBRANCH  23  24
ENDBRANCH   1  23
TORSDOF 26
ENDMDL
MODEL 3
REMARK VINA RESULT:      -9.1      1.437      2.134
REMARK SMILES O=C(/C=C\C(F)(C(F)(F)F)C(F)(F)F)OCCOCCOCCOCCOC(=O)c1ccc(-c2c3nc(c(-c4c(F)cc(S(=O)(=O)[O-])cc4F)c4ccc([nH]4)c(-c4c(F)cc(S(=O)(=O)[O-])cc4F)c4nc(c(-c5c(F)cc(S(=O)(=O)[O-])cc5F)c5ccc2[nH]5)C=C4)C=C3)cc1
REMARK SMILES IDX 22 1 21 2 20 3 19 4 18 5 17 6 16 7 15 8 2 9 1 10 3 11 4 12
REMARK SMILES IDX 5 13 6 14 7 15 8 16 9 17 10 18 11 19 12 20 13 21 14 22 23 23
REMARK SMILES IDX 24 24 25 25 26 26 27 27 28 28 29 29 30 30 31 31 95 32 32 33
REMARK SMILES IDX 94 34 33 35 34 36 35 37 88 38 36 39 93 40 87 41 89 42 37 43
REMARK SMILES IDX 92 44 86 45 85 46 38 48 72 49 51 50 71 51 52 52 55 53 70 54
REMARK SMILES IDX 90 55 53 56 54 57 69 59 91 60 56 61 39 62 40 63 49 64 41 65
REMARK SMILES IDX 42 66 48 67 50 68 43 69 44 70 45 71 46 72 47 73 73 74 74 75
REMARK SMILES IDX 83 76 75 77 76 78 82 79 84 80 77 81 78 82 79 83 80 84 81 85
REMARK SMILES IDX 57 86 58 87 67 88 59 89 60 90 66 91 68 92 61 93 62 94 63 95
REMARK SMILES IDX 64 96 65 97
REMARK H PARENT 89 47 55 58
REMARK Flexibility Score: inf
ROOT
ATOM      1  C   UNL A   1      38.166  21.409  25.413  1.00  0.00     0.188 C 
ENDROOT
BRANCH   1   2
ATOM      2  O   UNL A   1      36.802  21.192  25.082  1.00  0.00    -0.377 OA
BRANCH   2   3
ATOM      3  C   UNL A   1      35.842  22.185  25.393  1.00  0.00     0.188 C 
BRANCH   3   4
ATOM      4  C   UNL A   1      34.483  21.960  24.735  1.00  0.00     0.188 C 
BRANCH   4   5
ATOM      5  O   UNL A   1      34.175  22.671  23.544  1.00  0.00    -0.376 OA
BRANCH   5   6
ATOM      6  C   UNL A   1      33.949  24.067  23.574  1.00  0.00     0.202 C 
BRANCH   6   7
ATOM      7  C   UNL A   1      32.583  24.524  23.072  1.00  0.00     0.261 C 
BRANCH   7   8
ATOM      8  O   UNL A   1      31.368  24.181  23.786  1.00  0.00    -0.460 OA
BRANCH   8   9
ATOM      9  C   UNL A   1      31.031  24.229  25.077  1.00  0.00     0.330 C 
ATOM     10  O   UNL A   1      31.130  23.225  25.784  1.00  0.00    -0.247 OA
BRANCH   9  11
ATOM     11  C   UNL A   1      30.570  25.460  25.740  1.00  0.00     0.093 C 
ATOM     12  C   UNL A   1      30.934  26.748  25.865  1.00  0.00     0.040 C 
BRANCH  12  13
ATOM     13  C   UNL A   1      32.089  27.622  25.377  1.00  0.00     0.317 C 
ATOM     14  F   UNL A   1      32.191  27.455  24.019  1.00  0.00    -0.219 F 
BRANCH  13  15
ATOM     15  C   UNL A   1      31.774  29.099  25.595  1.00  0.00     0.435 C 
ATOM     16  F   UNL A   1      32.819  29.904  25.297  1.00  0.00    -0.167 F 
ATOM     17  F   UNL A   1      30.711  29.525  24.880  1.00  0.00    -0.167 F 
ATOM     18  F   UNL A   1      31.472  29.338  26.901  1.00  0.00    -0.167 F 
ENDBRANCH  13  15
BRANCH  13  19
ATOM     19  C   UNL A   1      33.454  27.429  26.009  1.00  0.00     0.435 C 
ATOM     20  F   UNL A   1      34.447  27.918  25.231  1.00  0.00    -0.167 F 
ATOM     21  F   UNL A   1      33.558  28.047  27.201  1.00  0.00    -0.167 F 
ATOM     22  F   UNL A   1      33.722  26.124  26.238  1.00  0.00    -0.167 F 
ENDBRANCH  13  19
ENDBRANCH  12  13
ENDBRANCH   9  11
ENDBRANCH   8   9
ENDBRANCH   7   8
ENDBRANCH   6   7
ENDBRANCH   5   6
ENDBRANCH   4   5
ENDBRANCH   3   4
ENDBRANCH   2   3
ENDBRANCH   1   2
BRANCH   1  23
ATOM     23  C   UNL A   1      39.097  20.187  25.544  1.00  0.00     0.188 C 
BRANCH  23  24
ATOM     24  O   UNL A   1      40.268  20.319  26.352  1.00  0.00    -0.376 OA
BRANCH  24  25
ATOM     25  C   UNL A   1      40.763  21.620  26.640  1.00  0.00     0.202 C 
BRANCH  25  26
ATOM     26  C   UNL A   1      42.120  22.017  26.042  1.00  0.00     0.261 C 
BRANCH  26  27
ATOM     27  O   UNL A   1      42.724  23.131  26.724  1.00  0.00    -0.460 OA
BRANCH  27  28
ATOM     28  C   UNL A   1      42.690  24.312  26.061  1.00  0.00     0.338 C 
ATOM     29  O   UNL A   1      42.920  24.476  24.868  1.00  0.00    -0.246 OA
BRANCH  28  30
ATOM     30  C   UNL A   1      42.108  25.374  26.920  1.00  0.00     0.060 A 
ATOM     31  C   UNL A   1      42.690  26.648  26.853  1.00  0.00     0.016 A 
ATOM     32  C   UNL A   1      41.018  25.152  27.770  1.00  0.00     0.016 A 
ATOM     33  C   UNL A   1      42.242  27.676  27.680  1.00  0.00     0.010 A 
ATOM     34  C   UNL A   1      40.576  26.182  28.613  1.00  0.00     0.010 A 
ATOM     35  C   UNL A   1      41.221  27.433  28.608  1.00  0.00    -0.014 A 
BRANCH  35  36
ATOM     36  C   UNL A   1      41.038  28.391  29.729  1.00  0.00     0.031 A 
ATOM     37  C   UNL A   1      42.020  28.326  30.872  1.00  0.00     0.074 A 
ATOM     38  C   UNL A   1      40.087  29.344  29.713  1.00  0.00     0.049 A 
ATOM     39  N   UNL A   1      42.103  29.074  31.942  1.00  0.00    -0.248 NA
ATOM     40  C   UNL A   1      43.053  27.279  30.791  1.00  0.00     0.031 C 
ATOM     41  C   UNL A   1      39.098  29.541  28.656  1.00  0.00     0.029 A 
ATOM     42  N   UNL A   1      39.804  30.330  30.626  1.00  0.00    -0.354 N 
ATOM     43  C   UNL A   1      43.203  28.599  32.648  1.00  0.00     0.074 A 
ATOM     44  C   UNL A   1      43.730  27.473  31.911  1.00  0.00     0.031 C 
ATOM     45  C   UNL A   1      38.306  30.579  28.988  1.00  0.00     0.029 A 
ATOM     46  C   UNL A   1      38.724  31.110  30.285  1.00  0.00     0.049 A 
ATOM     47  H   UNL A   1      40.326  30.467  31.449  1.00  0.00     0.167 HD
ATOM     48  C   UNL A   1      43.740  29.066  33.800  1.00  0.00     0.037 A 
ATOM     49  C   UNL A   1      38.135  32.125  30.951  1.00  0.00     0.037 A 
ATOM     50  C   UNL A   1      43.214  30.176  34.547  1.00  0.00     0.049 A 
ATOM     51  C   UNL A   1      38.710  32.582  32.272  1.00  0.00     0.074 A 
ATOM     52  C   UNL A   1      43.683  30.714  35.732  1.00  0.00     0.029 A 
ATOM     53  N   UNL A   1      42.100  30.916  34.184  1.00  0.00    -0.354 N 
ATOM     54  N   UNL A   1      39.762  32.135  32.916  1.00  0.00    -0.248 NA
ATOM     55  C   UNL A   1      38.020  33.689  32.951  1.00  0.00     0.031 C 
ATOM     56  C   UNL A   1      42.829  31.756  36.107  1.00  0.00     0.029 A 
ATOM     57  C   UNL A   1      41.856  31.897  35.132  1.00  0.00     0.049 A 
ATOM     58  H   UNL A   1      41.562  30.768  33.373  1.00  0.00     0.167 HD
ATOM     59  C   UNL A   1      39.872  32.921  34.061  1.00  0.00     0.074 A 
ATOM     60  C   UNL A   1      38.791  33.883  34.011  1.00  0.00     0.031 C 
ATOM     61  C   UNL A   1      40.781  32.852  35.066  1.00  0.00     0.037 A 
BRANCH  48  62
ATOM     62  C   UNL A   1      44.959  28.366  34.326  1.00  0.00     0.058 A 
ATOM     63  C   UNL A   1      44.854  27.241  35.160  1.00  0.00     0.135 A 
ATOM     64  C   UNL A   1      46.244  28.799  33.964  1.00  0.00     0.135 A 
ATOM     65  F   UNL A   1      43.648  26.804  35.556  1.00  0.00    -0.206 F 
ATOM     66  C   UNL A   1      45.983  26.577  35.626  1.00  0.00     0.059 A 
ATOM     67  C   UNL A   1      47.386  28.134  34.401  1.00  0.00     0.059 A 
ATOM     68  F   UNL A   1      46.398  29.875  33.177  1.00  0.00    -0.206 F 
ATOM     69  C   UNL A   1      47.244  27.029  35.239  1.00  0.00     0.060 A 
BRANCH  69  70
ATOM     70  S   UNL A   1      48.698  26.140  35.833  1.00  0.00     0.124 S 
ATOM     71  O   UNL A   1      48.092  25.159  36.729  1.00  0.00    -0.237 OA
ATOM     72  O   UNL A   1      49.263  25.605  34.598  1.00  0.00    -0.237 OA
ATOM     73  O   UNL A   1      49.490  27.179  36.484  1.00  0.00    -0.744 OA
ENDBRANCH  69  70
ENDBRANCH  48  62
BRANCH  49  74
ATOM     74  C   UNL A   1      36.914  32.780  30.405  1.00  0.00     0.058 A 
ATOM     75  C   UNL A   1      36.996  33.774  29.418  1.00  0.00     0.135 A 
ATOM     76  C   UNL A   1      35.642  32.461  30.906  1.00  0.00     0.135 A 
ATOM     77  F   UNL A   1      38.191  34.125  28.918  1.00  0.00    -0.206 F 
ATOM     78  C   UNL A   1      35.866  34.452  28.970  1.00  0.00     0.059 A 
ATOM     79  C   UNL A   1      34.495  33.107  30.454  1.00  0.00     0.059 A 
ATOM     80  F   UNL A   1      35.508  31.513  31.845  1.00  0.00    -0.206 F 
ATOM     81  C   UNL A   1      34.620  34.113  29.497  1.00  0.00     0.060 A 
BRANCH  81  82
ATOM     82  S   UNL A   1      33.154  34.986  28.901  1.00  0.00     0.124 S 
ATOM     83  O   UNL A   1      32.438  35.240  30.146  1.00  0.00    -0.237 OA
ATOM     84  O   UNL A   1      33.736  36.154  28.249  1.00  0.00    -0.237 OA
ATOM     85  O   UNL A   1      32.533  34.019  28.001  1.00  0.00    -0.744 OA
ENDBRANCH  81  82
ENDBRANCH  49  74
BRANCH  61  86
ATOM     86  C   UNL A   1      40.667  33.861  36.176  1.00  0.00     0.058 A 
ATOM     87  C   UNL A   1      39.828  33.651  37.282  1.00  0.00     0.135 A 
ATOM     88  C   UNL A   1      41.432  35.038  36.149  1.00  0.00     0.135 A 
ATOM     89  F   UNL A   1      39.076  32.542  37.356  1.00  0.00    -0.206 F 
ATOM     90  C   UNL A   1      39.723  34.588  38.304  1.00  0.00     0.059 A 
ATOM     91  C   UNL A   1      41.364  35.977  37.175  1.00  0.00     0.059 A 
ATOM     92  F   UNL A   1      42.264  35.283  35.124  1.00  0.00    -0.206 F 
ATOM     93  C   UNL A   1      40.492  35.752  38.239  1.00  0.00     0.060 A 
BRANCH  93  94
ATOM     94  S   UNL A   1      40.355  36.960  39.575  1.00  0.00     0.124 S 
ATOM     95  O   UNL A   1      40.070  36.099  40.718  1.00  0.00    -0.237 OA
ATOM     96  O   UNL A   1      41.671  37.590  39.568  1.00  0.00    -0.237 OA
ATOM     97  O   UNL A   1      39.254  37.817  39.144  1.00  0.00    -0.744 OA
ENDBRANCH  93  94
ENDBRANCH  61  86
ENDBRANCH  35  36
ENDBRANCH  28  30
ENDBRANCH  27  28
ENDBRANCH  26  27
ENDBRANCH  25  26
ENDBRANCH  24  25
ENDBRANCH  23  24
ENDBRANCH   1  23
TORSDOF 26
ENDMDL
