MODEL 1
REMARK VINA RESULT:      -9.8      0.000      0.000
REMARK SMILES O=C(Nc1ccc2c(c1)[C@@H]1C=CC[C@@H]1[C@H](C(=O)OCCOCCOCCOCCOC(=O)c1ccc(-c3c4nc(c(-c5c(F)cc(S(=O)(=O)[O-])cc5F)c5ccc([nH]5)c(-c5c(F)cc(S(=O)(=O)[O-])cc5F)c5nc(c(-c6c(F)cc(S(=O)(=O)[O-])cc6F)c6ccc3[nH]6)C=C5)C=C4)cc1)N2)c1ccccc1
REMARK SMILES IDX 25 1 24 2 23 3 22 4 21 5 20 6 19 7 18 8 16 9 17 10 15 11
REMARK SMILES IDX 4 12 5 13 9 14 6 15 8 16 7 17 10 18 99 19 11 20 14 21 12 23
REMARK SMILES IDX 13 24 3 25 1 26 2 27 100 29 101 30 105 31 102 32 104 33
REMARK SMILES IDX 103 34 26 35 27 36 28 37 29 38 30 39 31 40 32 41 33 42 34 43
REMARK SMILES IDX 98 44 35 45 97 46 36 47 37 48 38 49 91 50 39 51 96 52 90 53
REMARK SMILES IDX 92 54 40 55 95 56 89 57 88 58 41 60 75 61 54 62 74 63 55 64
REMARK SMILES IDX 58 65 73 66 93 67 56 68 57 69 72 71 94 72 59 73 42 74 43 75
REMARK SMILES IDX 52 76 44 77 45 78 51 79 53 80 46 81 47 82 48 83 49 84 50 85
REMARK SMILES IDX 76 86 77 87 86 88 78 89 79 90 85 91 87 92 80 93 81 94 82 95
REMARK SMILES IDX 83 96 84 97 60 98 61 99 70 100 62 101 63 102 69 103 71 104
REMARK SMILES IDX 64 105 65 106 66 107 67 108 68 109
REMARK H PARENT 99 22 3 28 92 59 58 70
REMARK Flexibility Score: inf
ROOT
ATOM      1  C   UNL A   1      33.409  36.338  29.119  1.00  0.00     0.188 C 
ENDROOT
BRANCH   1   2
ATOM      2  O   UNL A   1      34.445  35.787  28.310  1.00  0.00    -0.377 OA
BRANCH   2   3
ATOM      3  C   UNL A   1      34.279  34.520  27.705  1.00  0.00     0.188 C 
BRANCH   3   4
ATOM      4  C   UNL A   1      34.902  33.300  28.388  1.00  0.00     0.188 C 
BRANCH   4   5
ATOM      5  O   UNL A   1      34.111  32.141  28.480  1.00  0.00    -0.376 OA
BRANCH   5   6
ATOM      6  C   UNL A   1      34.158  31.112  27.507  1.00  0.00     0.202 C 
BRANCH   6   7
ATOM      7  C   UNL A   1      33.028  30.125  27.148  1.00  0.00     0.261 C 
BRANCH   7   8
ATOM      8  O   UNL A   1      33.045  29.502  25.860  1.00  0.00    -0.462 OA
BRANCH   8   9
ATOM      9  C   UNL A   1      31.837  29.392  25.269  1.00  0.00     0.328 C 
ATOM     10  O   UNL A   1      31.083  30.348  25.070  1.00  0.00    -0.250 OA
BRANCH   9  11
ATOM     11  C   UNL A   1      31.422  27.979  24.845  1.00  0.00     0.194 C 
ATOM     12  C   UNL A   1      31.398  22.944  25.585  1.00  0.00     0.041 A 
ATOM     13  C   UNL A   1      31.711  23.527  26.808  1.00  0.00     0.028 A 
ATOM     14  C   UNL A   1      31.088  23.755  24.491  1.00  0.00     0.032 A 
ATOM     15  C   UNL A   1      31.856  24.908  26.890  1.00  0.00     0.028 A 
ATOM     16  C   UNL A   1      31.272  25.142  24.552  1.00  0.00    -0.015 A 
ATOM     17  C   UNL A   1      31.657  25.719  25.770  1.00  0.00     0.039 A 
ATOM     18  C   UNL A   1      31.072  25.999  23.319  1.00  0.00     0.050 C 
ATOM     19  N   UNL A   1      31.911  27.067  25.873  1.00  0.00    -0.372 N 
ATOM     20  C   UNL A   1      31.817  25.513  22.105  1.00  0.00    -0.023 C 
ATOM     21  C   UNL A   1      31.669  27.421  23.449  1.00  0.00     0.038 C 
ATOM     22  H   UNL A   1      32.422  27.416  26.639  1.00  0.00     0.161 HD
ATOM     23  C   UNL A   1      32.927  26.229  21.881  1.00  0.00    -0.030 C 
ATOM     24  C   UNL A   1      33.097  27.311  22.910  1.00  0.00     0.034 C 
BRANCH  12  25
ATOM     25  N   UNL A   1      31.466  21.547  25.493  1.00  0.00    -0.322 N 
ATOM     26  O   UNL A   1      32.230  19.566  24.711  1.00  0.00    -0.269 OA
ATOM     27  C   UNL A   1      32.445  20.759  24.920  1.00  0.00     0.255 C 
ATOM     28  H   UNL A   1      30.710  21.058  25.893  1.00  0.00     0.170 HD
BRANCH  27  29
ATOM     29  C   UNL A   1      33.794  21.312  24.627  1.00  0.00     0.040 A 
ATOM     30  C   UNL A   1      33.978  22.368  23.721  1.00  0.00     0.014 A 
ATOM     31  C   UNL A   1      34.898  20.759  25.284  1.00  0.00     0.014 A 
ATOM     32  C   UNL A   1      35.266  22.814  23.423  1.00  0.00     0.001 A 
ATOM     33  C   UNL A   1      36.184  21.216  24.988  1.00  0.00     0.001 A 
ATOM     34  C   UNL A   1      36.367  22.234  24.051  1.00  0.00     0.000 A 
ENDBRANCH  27  29
ENDBRANCH  12  25
ENDBRANCH   9  11
ENDBRANCH   8   9
ENDBRANCH   7   8
ENDBRANCH   6   7
ENDBRANCH   5   6
ENDBRANCH   4   5
ENDBRANCH   3   4
ENDBRANCH   2   3
ENDBRANCH   1   2
BRANCH   1  35
ATOM     35  C   UNL A   1      32.944  35.628  30.405  1.00  0.00     0.188 C 
BRANCH  35  36
ATOM     36  O   UNL A   1      32.564  36.492  31.462  1.00  0.00    -0.376 OA
BRANCH  36  37
ATOM     37  C   UNL A   1      33.213  36.348  32.717  1.00  0.00     0.202 C 
BRANCH  37  38
ATOM     38  C   UNL A   1      34.596  35.675  32.744  1.00  0.00     0.261 C 
BRANCH  38  39
ATOM     39  O   UNL A   1      34.676  34.389  33.379  1.00  0.00    -0.460 OA
BRANCH  39  40
ATOM     40  C   UNL A   1      34.867  33.305  32.593  1.00  0.00     0.338 C 
ATOM     41  O   UNL A   1      34.018  32.632  32.051  1.00  0.00    -0.246 OA
BRANCH  40  42
ATOM     42  C   UNL A   1      36.321  33.185  32.349  1.00  0.00     0.060 A 
ATOM     43  C   UNL A   1      36.860  33.722  31.172  1.00  0.00     0.016 A 
ATOM     44  C   UNL A   1      37.140  32.530  33.270  1.00  0.00     0.016 A 
ATOM     45  C   UNL A   1      38.218  33.568  30.894  1.00  0.00     0.010 A 
ATOM     46  C   UNL A   1      38.496  32.357  32.979  1.00  0.00     0.010 A 
ATOM     47  C   UNL A   1      39.033  32.844  31.773  1.00  0.00    -0.014 A 
BRANCH  47  48
ATOM     48  C   UNL A   1      40.386  32.416  31.339  1.00  0.00     0.031 A 
ATOM     49  C   UNL A   1      41.537  33.360  31.564  1.00  0.00     0.074 A 
ATOM     50  C   UNL A   1      40.597  31.211  30.780  1.00  0.00     0.049 A 
ATOM     51  N   UNL A   1      42.792  33.238  31.222  1.00  0.00    -0.248 NA
ATOM     52  C   UNL A   1      41.226  34.614  32.272  1.00  0.00     0.031 C 
ATOM     53  C   UNL A   1      39.574  30.192  30.557  1.00  0.00     0.029 A 
ATOM     54  N   UNL A   1      41.748  30.646  30.291  1.00  0.00    -0.354 N 
ATOM     55  C   UNL A   1      43.419  34.398  31.664  1.00  0.00     0.074 A 
ATOM     56  C   UNL A   1      42.399  35.227  32.269  1.00  0.00     0.031 C 
ATOM     57  C   UNL A   1      40.142  29.128  29.961  1.00  0.00     0.029 A 
ATOM     58  C   UNL A   1      41.559  29.406  29.728  1.00  0.00     0.049 A 
ATOM     59  H   UNL A   1      42.627  31.087  30.337  1.00  0.00     0.167 HD
ATOM     60  C   UNL A   1      44.727  34.737  31.582  1.00  0.00     0.037 A 
ATOM     61  C   UNL A   1      42.426  28.601  29.080  1.00  0.00     0.037 A 
ATOM     62  C   UNL A   1      45.735  33.909  30.973  1.00  0.00     0.049 A 
ATOM     63  C   UNL A   1      43.862  29.038  28.922  1.00  0.00     0.074 A 
ATOM     64  C   UNL A   1      47.089  34.160  30.843  1.00  0.00     0.029 A 
ATOM     65  N   UNL A   1      45.497  32.676  30.382  1.00  0.00    -0.354 N 
ATOM     66  N   UNL A   1      44.446  30.131  29.356  1.00  0.00    -0.248 NA
ATOM     67  C   UNL A   1      44.758  28.132  28.190  1.00  0.00     0.031 C 
ATOM     68  C   UNL A   1      47.660  33.106  30.122  1.00  0.00     0.029 A 
ATOM     69  C   UNL A   1      46.675  32.166  29.863  1.00  0.00     0.049 A 
ATOM     70  H   UNL A   1      44.621  32.230  30.340  1.00  0.00     0.167 HD
ATOM     71  C   UNL A   1      45.782  30.026  28.979  1.00  0.00     0.074 A 
ATOM     72  C   UNL A   1      45.921  28.760  28.291  1.00  0.00     0.031 C 
ATOM     73  C   UNL A   1      46.803  30.897  29.188  1.00  0.00     0.037 A 
BRANCH  60  74
ATOM     74  C   UNL A   1      45.138  36.074  32.138  1.00  0.00     0.058 A 
ATOM     75  C   UNL A   1      45.118  37.240  31.357  1.00  0.00     0.135 A 
ATOM     76  C   UNL A   1      45.528  36.196  33.482  1.00  0.00     0.135 A 
ATOM     77  F   UNL A   1      44.773  37.181  30.060  1.00  0.00    -0.206 F 
ATOM     78  C   UNL A   1      45.496  38.473  31.879  1.00  0.00     0.059 A 
ATOM     79  C   UNL A   1      45.879  37.424  34.035  1.00  0.00     0.059 A 
ATOM     80  F   UNL A   1      45.571  35.113  34.274  1.00  0.00    -0.206 F 
ATOM     81  C   UNL A   1      45.873  38.555  33.220  1.00  0.00     0.060 A 
BRANCH  81  82
ATOM     82  S   UNL A   1      46.352  40.163  33.884  1.00  0.00     0.124 S 
ATOM     83  O   UNL A   1      45.856  40.074  35.253  1.00  0.00    -0.237 OA
ATOM     84  O   UNL A   1      47.803  40.142  33.732  1.00  0.00    -0.237 OA
ATOM     85  O   UNL A   1      45.649  41.111  33.024  1.00  0.00    -0.744 OA
ENDBRANCH  81  82
ENDBRANCH  60  74
BRANCH  61  86
ATOM     86  C   UNL A   1      41.962  27.303  28.516  1.00  0.00     0.058 A 
ATOM     87  C   UNL A   1      42.342  26.083  29.095  1.00  0.00     0.135 A 
ATOM     88  C   UNL A   1      41.137  27.256  27.381  1.00  0.00     0.135 A 
ATOM     89  F   UNL A   1      43.142  26.073  30.172  1.00  0.00    -0.206 F 
ATOM     90  C   UNL A   1      41.932  24.864  28.565  1.00  0.00     0.059 A 
ATOM     91  C   UNL A   1      40.689  26.050  26.849  1.00  0.00     0.059 A 
ATOM     92  F   UNL A   1      40.739  28.393  26.790  1.00  0.00    -0.206 F 
ATOM     93  C   UNL A   1      41.101  24.858  27.444  1.00  0.00     0.060 A 
BRANCH  93  94
ATOM     94  S   UNL A   1      40.531  23.270  26.798  1.00  0.00     0.124 S 
ATOM     95  O   UNL A   1      40.589  22.430  27.987  1.00  0.00    -0.237 OA
ATOM     96  O   UNL A   1      39.195  23.602  26.314  1.00  0.00    -0.237 OA
ATOM     97  O   UNL A   1      41.508  22.962  25.756  1.00  0.00    -0.744 OA
ENDBRANCH  93  94
ENDBRANCH  61  86
BRANCH  73  98
ATOM     98  C   UNL A   1      48.174  30.496  28.711  1.00  0.00     0.058 A 
ATOM     99  C   UNL A   1      48.676  30.901  27.465  1.00  0.00     0.135 A 
ATOM    100  C   UNL A   1      49.021  29.745  29.544  1.00  0.00     0.135 A 
ATOM    101  F   UNL A   1      47.909  31.617  26.627  1.00  0.00    -0.206 F 
ATOM    102  C   UNL A   1      49.959  30.555  27.051  1.00  0.00     0.059 A 
ATOM    103  C   UNL A   1      50.319  29.416  29.164  1.00  0.00     0.059 A 
ATOM    104  F   UNL A   1      48.597  29.341  30.753  1.00  0.00    -0.206 F 
ATOM    105  C   UNL A   1      50.775  29.815  27.910  1.00  0.00     0.060 A 
BRANCH 105 106
ATOM    106  S   UNL A   1      52.448  29.404  27.374  1.00  0.00     0.124 S 
ATOM    107  O   UNL A   1      53.184  29.467  28.632  1.00  0.00    -0.237 OA
ATOM    108  O   UNL A   1      52.275  28.071  26.807  1.00  0.00    -0.237 OA
ATOM    109  O   UNL A   1      52.765  30.453  26.408  1.00  0.00    -0.744 OA
ENDBRANCH 105 106
ENDBRANCH  73  98
ENDBRANCH  47  48
ENDBRANCH  40  42
ENDBRANCH  39  40
ENDBRANCH  38  39
ENDBRANCH  37  38
ENDBRANCH  36  37
ENDBRANCH  35  36
ENDBRANCH   1  35
TORSDOF 25
ENDMDL
MODEL 2
REMARK VINA RESULT:      -9.4      3.732      4.495
REMARK SMILES O=C(Nc1ccc2c(c1)[C@@H]1C=CC[C@@H]1[C@H](C(=O)OCCOCCOCCOCCOC(=O)c1ccc(-c3c4nc(c(-c5c(F)cc(S(=O)(=O)[O-])cc5F)c5ccc([nH]5)c(-c5c(F)cc(S(=O)(=O)[O-])cc5F)c5nc(c(-c6c(F)cc(S(=O)(=O)[O-])cc6F)c6ccc3[nH]6)C=C5)C=C4)cc1)N2)c1ccccc1
REMARK SMILES IDX 25 1 24 2 23 3 22 4 21 5 20 6 19 7 18 8 16 9 17 10 15 11
REMARK SMILES IDX 4 12 5 13 9 14 6 15 8 16 7 17 10 18 99 19 11 20 14 21 12 23
REMARK SMILES IDX 13 24 3 25 1 26 2 27 100 29 101 30 105 31 102 32 104 33
REMARK SMILES IDX 103 34 26 35 27 36 28 37 29 38 30 39 31 40 32 41 33 42 34 43
REMARK SMILES IDX 98 44 35 45 97 46 36 47 37 48 38 49 91 50 39 51 96 52 90 53
REMARK SMILES IDX 92 54 40 55 95 56 89 57 88 58 41 60 75 61 54 62 74 63 55 64
REMARK SMILES IDX 58 65 73 66 93 67 56 68 57 69 72 71 94 72 59 73 42 74 43 75
REMARK SMILES IDX 52 76 44 77 45 78 51 79 53 80 46 81 47 82 48 83 49 84 50 85
REMARK SMILES IDX 76 86 77 87 86 88 78 89 79 90 85 91 87 92 80 93 81 94 82 95
REMARK SMILES IDX 83 96 84 97 60 98 61 99 70 100 62 101 63 102 69 103 71 104
REMARK SMILES IDX 64 105 65 106 66 107 67 108 68 109
REMARK H PARENT 99 22 3 28 92 59 58 70
REMARK Flexibility Score: inf
ROOT
ATOM      1  C   UNL A   1      33.378  36.464  28.952  1.00  0.00     0.188 C 
ENDROOT
BRANCH   1   2
ATOM      2  O   UNL A   1      34.533  35.779  28.476  1.00  0.00    -0.377 OA
BRANCH   2   3
ATOM      3  C   UNL A   1      34.398  34.658  27.626  1.00  0.00     0.188 C 
BRANCH   3   4
ATOM      4  C   UNL A   1      35.015  33.329  28.070  1.00  0.00     0.188 C 
BRANCH   4   5
ATOM      5  O   UNL A   1      34.160  32.214  28.137  1.00  0.00    -0.376 OA
BRANCH   5   6
ATOM      6  C   UNL A   1      34.448  30.998  27.469  1.00  0.00     0.202 C 
BRANCH   6   7
ATOM      7  C   UNL A   1      33.453  29.867  27.134  1.00  0.00     0.261 C 
BRANCH   7   8
ATOM      8  O   UNL A   1      33.270  29.499  25.764  1.00  0.00    -0.462 OA
BRANCH   8   9
ATOM      9  C   UNL A   1      31.983  29.405  25.371  1.00  0.00     0.328 C 
ATOM     10  O   UNL A   1      31.198  30.357  25.361  1.00  0.00    -0.250 OA
BRANCH   9  11
ATOM     11  C   UNL A   1      31.515  28.014  24.928  1.00  0.00     0.194 C 
ATOM     12  C   UNL A   1      31.380  22.964  25.546  1.00  0.00     0.041 A 
ATOM     13  C   UNL A   1      31.751  23.508  26.772  1.00  0.00     0.028 A 
ATOM     14  C   UNL A   1      31.054  23.810  24.484  1.00  0.00     0.032 A 
ATOM     15  C   UNL A   1      31.936  24.883  26.882  1.00  0.00     0.028 A 
ATOM     16  C   UNL A   1      31.278  25.190  24.572  1.00  0.00    -0.015 A 
ATOM     17  C   UNL A   1      31.720  25.726  25.789  1.00  0.00     0.039 A 
ATOM     18  C   UNL A   1      31.058  26.083  23.368  1.00  0.00     0.050 C 
ATOM     19  N   UNL A   1      32.014  27.064  25.915  1.00  0.00    -0.372 N 
ATOM     20  C   UNL A   1      31.747  25.608  22.117  1.00  0.00    -0.023 C 
ATOM     21  C   UNL A   1      31.697  27.485  23.511  1.00  0.00     0.038 C 
ATOM     22  H   UNL A   1      32.560  27.380  26.671  1.00  0.00     0.161 HD
ATOM     23  C   UNL A   1      32.868  26.300  21.871  1.00  0.00    -0.030 C 
ATOM     24  C   UNL A   1      33.103  27.351  22.919  1.00  0.00     0.034 C 
BRANCH  12  25
ATOM     25  N   UNL A   1      31.407  21.568  25.419  1.00  0.00    -0.322 N 
ATOM     26  O   UNL A   1      32.145  19.585  24.621  1.00  0.00    -0.269 OA
ATOM     27  C   UNL A   1      32.388  20.763  24.875  1.00  0.00     0.255 C 
ATOM     28  H   UNL A   1      30.615  21.096  25.764  1.00  0.00     0.170 HD
BRANCH  27  29
ATOM     29  C   UNL A   1      33.769  21.278  24.669  1.00  0.00     0.040 A 
ATOM     30  C   UNL A   1      34.065  22.214  23.667  1.00  0.00     0.014 A 
ATOM     31  C   UNL A   1      34.786  20.809  25.507  1.00  0.00     0.014 A 
ATOM     32  C   UNL A   1      35.384  22.622  23.462  1.00  0.00     0.001 A 
ATOM     33  C   UNL A   1      36.102  21.228  25.302  1.00  0.00     0.001 A 
ATOM     34  C   UNL A   1      36.401  22.124  24.275  1.00  0.00     0.000 A 
ENDBRANCH  27  29
ENDBRANCH  12  25
ENDBRANCH   9  11
ENDBRANCH   8   9
ENDBRANCH   7   8
ENDBRANCH   6   7
ENDBRANCH   5   6
ENDBRANCH   4   5
ENDBRANCH   3   4
ENDBRANCH   2   3
ENDBRANCH   1   2
BRANCH   1  35
ATOM     35  C   UNL A   1      32.561  35.912  30.138  1.00  0.00     0.188 C 
BRANCH  35  36
ATOM     36  O   UNL A   1      32.299  36.846  31.170  1.00  0.00    -0.376 OA
BRANCH  36  37
ATOM     37  C   UNL A   1      32.560  36.460  32.511  1.00  0.00     0.202 C 
BRANCH  37  38
ATOM     38  C   UNL A   1      33.970  35.955  32.858  1.00  0.00     0.261 C 
BRANCH  38  39
ATOM     39  O   UNL A   1      34.080  34.586  33.279  1.00  0.00    -0.460 OA
BRANCH  39  40
ATOM     40  C   UNL A   1      34.619  33.698  32.413  1.00  0.00     0.338 C 
ATOM     41  O   UNL A   1      34.124  33.276  31.390  1.00  0.00    -0.246 OA
BRANCH  40  42
ATOM     42  C   UNL A   1      36.018  33.462  32.832  1.00  0.00     0.060 A 
ATOM     43  C   UNL A   1      37.010  34.366  32.427  1.00  0.00     0.016 A 
ATOM     44  C   UNL A   1      36.346  32.347  33.604  1.00  0.00     0.016 A 
ATOM     45  C   UNL A   1      38.344  34.131  32.761  1.00  0.00     0.010 A 
ATOM     46  C   UNL A   1      37.686  32.102  33.918  1.00  0.00     0.010 A 
ATOM     47  C   UNL A   1      38.694  32.973  33.467  1.00  0.00    -0.014 A 
BRANCH  47  48
ATOM     48  C   UNL A   1      40.118  32.565  33.554  1.00  0.00     0.031 A 
ATOM     49  C   UNL A   1      40.904  32.979  34.770  1.00  0.00     0.074 A 
ATOM     50  C   UNL A   1      40.698  31.826  32.591  1.00  0.00     0.049 A 
ATOM     51  N   UNL A   1      42.168  32.795  35.045  1.00  0.00    -0.248 NA
ATOM     52  C   UNL A   1      40.159  33.700  35.816  1.00  0.00     0.031 C 
ATOM     53  C   UNL A   1      40.029  31.323  31.394  1.00  0.00     0.029 A 
ATOM     54  N   UNL A   1      41.989  31.378  32.469  1.00  0.00    -0.354 N 
ATOM     55  C   UNL A   1      42.373  33.382  36.289  1.00  0.00     0.074 A 
ATOM     56  C   UNL A   1      41.111  33.959  36.699  1.00  0.00     0.031 C 
ATOM     57  C   UNL A   1      40.920  30.643  30.650  1.00  0.00     0.029 A 
ATOM     58  C   UNL A   1      42.230  30.695  31.300  1.00  0.00     0.049 A 
ATOM     59  H   UNL A   1      42.679  31.530  33.155  1.00  0.00     0.167 HD
ATOM     60  C   UNL A   1      43.506  33.428  37.028  1.00  0.00     0.037 A 
ATOM     61  C   UNL A   1      43.379  30.195  30.803  1.00  0.00     0.037 A 
ATOM     62  C   UNL A   1      44.761  32.857  36.609  1.00  0.00     0.049 A 
ATOM     63  C   UNL A   1      44.651  30.334  31.603  1.00  0.00     0.074 A 
ATOM     64  C   UNL A   1      45.967  32.846  37.286  1.00  0.00     0.029 A 
ATOM     65  N   UNL A   1      44.972  32.206  35.402  1.00  0.00    -0.354 N 
ATOM     66  N   UNL A   1      44.830  30.880  32.784  1.00  0.00    -0.248 NA
ATOM     67  C   UNL A   1      45.878  29.787  31.006  1.00  0.00     0.031 C 
ATOM     68  C   UNL A   1      46.922  32.240  36.463  1.00  0.00     0.029 A 
ATOM     69  C   UNL A   1      46.296  31.813  35.303  1.00  0.00     0.049 A 
ATOM     70  H   UNL A   1      44.282  32.047  34.718  1.00  0.00     0.167 HD
ATOM     71  C   UNL A   1      46.179  30.710  33.083  1.00  0.00     0.074 A 
ATOM     72  C   UNL A   1      46.767  30.004  31.965  1.00  0.00     0.031 C 
ATOM     73  C   UNL A   1      46.868  31.100  34.186  1.00  0.00     0.037 A 
BRANCH  60  74
ATOM     74  C   UNL A   1      43.451  34.146  38.349  1.00  0.00     0.058 A 
ATOM     75  C   UNL A   1      43.162  33.473  39.547  1.00  0.00     0.135 A 
ATOM     76  C   UNL A   1      43.721  35.523  38.422  1.00  0.00     0.135 A 
ATOM     77  F   UNL A   1      42.876  32.161  39.535  1.00  0.00    -0.206 F 
ATOM     78  C   UNL A   1      43.116  34.144  40.765  1.00  0.00     0.059 A 
ATOM     79  C   UNL A   1      43.711  36.208  39.634  1.00  0.00     0.059 A 
ATOM     80  F   UNL A   1      43.997  36.217  37.307  1.00  0.00    -0.206 F 
ATOM     81  C   UNL A   1      43.394  35.511  40.799  1.00  0.00     0.060 A 
BRANCH  81  82
ATOM     82  S   UNL A   1      43.338  36.363  42.388  1.00  0.00     0.124 S 
ATOM     83  O   UNL A   1      42.730  37.636  42.015  1.00  0.00    -0.237 OA
ATOM     84  O   UNL A   1      42.504  35.473  43.189  1.00  0.00    -0.237 OA
ATOM     85  O   UNL A   1      44.740  36.432  42.789  1.00  0.00    -0.744 OA
ENDBRANCH  81  82
ENDBRANCH  60  74
BRANCH  61  86
ATOM     86  C   UNL A   1      43.389  29.524  29.474  1.00  0.00     0.058 A 
ATOM     87  C   UNL A   1      43.097  28.158  29.348  1.00  0.00     0.135 A 
ATOM     88  C   UNL A   1      43.698  30.234  28.303  1.00  0.00     0.135 A 
ATOM     89  F   UNL A   1      42.809  27.430  30.438  1.00  0.00    -0.206 F 
ATOM     90  C   UNL A   1      43.124  27.516  28.114  1.00  0.00     0.059 A 
ATOM     91  C   UNL A   1      43.702  29.622  27.052  1.00  0.00     0.059 A 
ATOM     92  F   UNL A   1      43.980  31.545  28.364  1.00  0.00    -0.206 F 
ATOM     93  C   UNL A   1      43.423  28.258  26.971  1.00  0.00     0.060 A 
BRANCH  93  94
ATOM     94  S   UNL A   1      43.400  27.425  25.368  1.00  0.00     0.124 S 
ATOM     95  O   UNL A   1      44.759  27.659  24.895  1.00  0.00    -0.237 OA
ATOM     96  O   UNL A   1      43.081  26.052  25.745  1.00  0.00    -0.237 OA
ATOM     97  O   UNL A   1      42.347  28.128  24.639  1.00  0.00    -0.744 OA
ENDBRANCH  93  94
ENDBRANCH  61  86
BRANCH  73  98
ATOM     98  C   UNL A   1      48.326  30.733  34.267  1.00  0.00     0.058 A 
ATOM     99  C   UNL A   1      49.337  31.596  33.814  1.00  0.00     0.135 A 
ATOM    100  C   UNL A   1      48.720  29.524  34.864  1.00  0.00     0.135 A 
ATOM    101  F   UNL A   1      49.019  32.763  33.231  1.00  0.00    -0.206 F 
ATOM    102  C   UNL A   1      50.683  31.261  33.927  1.00  0.00     0.059 A 
ATOM    103  C   UNL A   1      50.060  29.184  35.018  1.00  0.00     0.059 A 
ATOM    104  F   UNL A   1      47.795  28.666  35.327  1.00  0.00    -0.206 F 
ATOM    105  C   UNL A   1      51.035  30.054  34.535  1.00  0.00     0.060 A 
BRANCH 105 106
ATOM    106  S   UNL A   1      52.786  29.651  34.707  1.00  0.00     0.124 S 
ATOM    107  O   UNL A   1      53.395  30.566  33.748  1.00  0.00    -0.237 OA
ATOM    108  O   UNL A   1      53.036  29.947  36.114  1.00  0.00    -0.237 OA
ATOM    109  O   UNL A   1      52.847  28.236  34.351  1.00  0.00    -0.744 OA
ENDBRANCH 105 106
ENDBRANCH  73  98
ENDBRANCH  47  48
ENDBRANCH  40  42
ENDBRANCH  39  40
ENDBRANCH  38  39
ENDBRANCH  37  38
ENDBRANCH  36  37
ENDBRANCH  35  36
ENDBRANCH   1  35
TORSDOF 25
ENDMDL
MODEL 3
REMARK VINA RESULT:      -9.2      4.641      5.681
REMARK SMILES O=C(Nc1ccc2c(c1)[C@@H]1C=CC[C@@H]1[C@H](C(=O)OCCOCCOCCOCCOC(=O)c1ccc(-c3c4nc(c(-c5c(F)cc(S(=O)(=O)[O-])cc5F)c5ccc([nH]5)c(-c5c(F)cc(S(=O)(=O)[O-])cc5F)c5nc(c(-c6c(F)cc(S(=O)(=O)[O-])cc6F)c6ccc3[nH]6)C=C5)C=C4)cc1)N2)c1ccccc1
REMARK SMILES IDX 25 1 24 2 23 3 22 4 21 5 20 6 19 7 18 8 16 9 17 10 15 11
REMARK SMILES IDX 4 12 5 13 9 14 6 15 8 16 7 17 10 18 99 19 11 20 14 21 12 23
REMARK SMILES IDX 13 24 3 25 1 26 2 27 100 29 101 30 105 31 102 32 104 33
REMARK SMILES IDX 103 34 26 35 27 36 28 37 29 38 30 39 31 40 32 41 33 42 34 43
REMARK SMILES IDX 98 44 35 45 97 46 36 47 37 48 38 49 91 50 39 51 96 52 90 53
REMARK SMILES IDX 92 54 40 55 95 56 89 57 88 58 41 60 75 61 54 62 74 63 55 64
REMARK SMILES IDX 58 65 73 66 93 67 56 68 57 69 72 71 94 72 59 73 42 74 43 75
REMARK SMILES IDX 52 76 44 77 45 78 51 79 53 80 46 81 47 82 48 83 49 84 50 85
REMARK SMILES IDX 76 86 77 87 86 88 78 89 79 90 85 91 87 92 80 93 81 94 82 95
REMARK SMILES IDX 83 96 84 97 60 98 61 99 70 100 62 101 63 102 69 103 71 104
REMARK SMILES IDX 64 105 65 106 66 107 67 108 68 109
REMARK H PARENT 99 22 3 28 92 59 58 70
REMARK Flexibility Score: inf
ROOT
ATOM      1  C   UNL A   1      33.418  36.616  28.878  1.00  0.00     0.188 C 
ENDROOT
BRANCH   1   2
ATOM      2  O   UNL A   1      34.546  35.948  28.317  1.00  0.00    -0.377 OA
BRANCH   2   3
ATOM      3  C   UNL A   1      34.371  34.770  27.556  1.00  0.00     0.188 C 
BRANCH   3   4
ATOM      4  C   UNL A   1      34.802  33.435  28.171  1.00  0.00     0.188 C 
BRANCH   4   5
ATOM      5  O   UNL A   1      33.853  32.399  28.186  1.00  0.00    -0.376 OA
BRANCH   5   6
ATOM      6  C   UNL A   1      34.146  31.096  27.710  1.00  0.00     0.202 C 
BRANCH   6   7
ATOM      7  C   UNL A   1      33.132  30.029  27.248  1.00  0.00     0.261 C 
BRANCH   7   8
ATOM      8  O   UNL A   1      33.124  29.641  25.871  1.00  0.00    -0.462 OA
BRANCH   8   9
ATOM      9  C   UNL A   1      31.898  29.546  25.317  1.00  0.00     0.328 C 
ATOM     10  O   UNL A   1      31.142  30.506  25.157  1.00  0.00    -0.250 OA
BRANCH   9  11
ATOM     11  C   UNL A   1      31.464  28.140  24.883  1.00  0.00     0.194 C 
ATOM     12  C   UNL A   1      31.375  23.101  25.587  1.00  0.00     0.041 A 
ATOM     13  C   UNL A   1      31.697  23.672  26.814  1.00  0.00     0.028 A 
ATOM     14  C   UNL A   1      31.074  23.924  24.499  1.00  0.00     0.032 A 
ATOM     15  C   UNL A   1      31.860  25.050  26.906  1.00  0.00     0.028 A 
ATOM     16  C   UNL A   1      31.277  25.308  24.569  1.00  0.00    -0.015 A 
ATOM     17  C   UNL A   1      31.670  25.871  25.791  1.00  0.00     0.039 A 
ATOM     18  C   UNL A   1      31.087  26.177  23.343  1.00  0.00     0.050 C 
ATOM     19  N   UNL A   1      31.942  27.215  25.903  1.00  0.00    -0.372 N 
ATOM     20  C   UNL A   1      31.824  25.689  22.124  1.00  0.00    -0.023 C 
ATOM     21  C   UNL A   1      31.702  27.590  23.482  1.00  0.00     0.038 C 
ATOM     22  H   UNL A   1      32.458  27.551  26.672  1.00  0.00     0.161 HD
ATOM     23  C   UNL A   1      32.943  26.393  21.904  1.00  0.00    -0.030 C 
ATOM     24  C   UNL A   1      33.129  27.465  22.941  1.00  0.00     0.034 C 
BRANCH  12  25
ATOM     25  N   UNL A   1      31.425  21.704  25.485  1.00  0.00    -0.322 N 
ATOM     26  O   UNL A   1      32.143  19.720  24.669  1.00  0.00    -0.269 OA
ATOM     27  C   UNL A   1      32.378  20.909  24.879  1.00  0.00     0.255 C 
ATOM     28  H   UNL A   1      30.675  21.221  25.902  1.00  0.00     0.170 HD
BRANCH  27  29
ATOM     29  C   UNL A   1      33.724  21.449  24.551  1.00  0.00     0.040 A 
ATOM     30  C   UNL A   1      33.900  22.467  23.602  1.00  0.00     0.014 A 
ATOM     31  C   UNL A   1      34.835  20.921  25.218  1.00  0.00     0.014 A 
ATOM     32  C   UNL A   1      35.185  22.900  23.274  1.00  0.00     0.001 A 
ATOM     33  C   UNL A   1      36.117  21.365  24.892  1.00  0.00     0.001 A 
ATOM     34  C   UNL A   1      36.292  22.345  23.914  1.00  0.00     0.000 A 
ENDBRANCH  27  29
ENDBRANCH  12  25
ENDBRANCH   9  11
ENDBRANCH   8   9
ENDBRANCH   7   8
ENDBRANCH   6   7
ENDBRANCH   5   6
ENDBRANCH   4   5
ENDBRANCH   3   4
ENDBRANCH   2   3
ENDBRANCH   1   2
BRANCH   1  35
ATOM     35  C   UNL A   1      32.783  36.130  30.196  1.00  0.00     0.188 C 
BRANCH  35  36
ATOM     36  O   UNL A   1      32.637  37.125  31.192  1.00  0.00    -0.376 OA
BRANCH  36  37
ATOM     37  C   UNL A   1      32.996  36.801  32.527  1.00  0.00     0.202 C 
BRANCH  37  38
ATOM     38  C   UNL A   1      34.363  36.138  32.769  1.00  0.00     0.261 C 
BRANCH  38  39
ATOM     39  O   UNL A   1      34.348  34.799  33.287  1.00  0.00    -0.460 OA
BRANCH  39  40
ATOM     40  C   UNL A   1      34.607  33.784  32.429  1.00  0.00     0.338 C 
ATOM     41  O   UNL A   1      33.916  33.408  31.508  1.00  0.00    -0.246 OA
BRANCH  40  42
ATOM     42  C   UNL A   1      35.986  33.322  32.694  1.00  0.00     0.060 A 
ATOM     43  C   UNL A   1      36.188  32.262  33.588  1.00  0.00     0.016 A 
ATOM     44  C   UNL A   1      37.071  33.944  32.074  1.00  0.00     0.016 A 
ATOM     45  C   UNL A   1      37.484  31.848  33.897  1.00  0.00     0.010 A 
ATOM     46  C   UNL A   1      38.369  33.543  32.402  1.00  0.00     0.010 A 
ATOM     47  C   UNL A   1      38.582  32.519  33.343  1.00  0.00    -0.014 A 
BRANCH  47  48
ATOM     48  C   UNL A   1      39.940  32.293  33.897  1.00  0.00     0.031 A 
ATOM     49  C   UNL A   1      40.352  33.080  35.112  1.00  0.00     0.074 A 
ATOM     50  C   UNL A   1      40.781  31.394  33.354  1.00  0.00     0.049 A 
ATOM     51  N   UNL A   1      41.498  33.101  35.740  1.00  0.00    -0.248 NA
ATOM     52  C   UNL A   1      39.330  33.966  35.696  1.00  0.00     0.031 C 
ATOM     53  C   UNL A   1      40.478  30.537  32.210  1.00  0.00     0.029 A 
ATOM     54  N   UNL A   1      42.068  31.062  33.692  1.00  0.00    -0.354 N 
ATOM     55  C   UNL A   1      41.340  34.004  36.786  1.00  0.00     0.074 A 
ATOM     56  C   UNL A   1      39.997  34.536  36.687  1.00  0.00     0.031 C 
ATOM     57  C   UNL A   1      41.557  29.784  31.933  1.00  0.00     0.029 A 
ATOM     58  C   UNL A   1      42.638  30.132  32.855  1.00  0.00     0.049 A 
ATOM     59  H   UNL A   1      42.541  31.454  34.462  1.00  0.00     0.167 HD
ATOM     60  C   UNL A   1      42.227  34.351  37.747  1.00  0.00     0.037 A 
ATOM     61  C   UNL A   1      43.893  29.639  32.824  1.00  0.00     0.037 A 
ATOM     62  C   UNL A   1      43.564  33.822  37.834  1.00  0.00     0.049 A 
ATOM     63  C   UNL A   1      44.894  30.106  33.852  1.00  0.00     0.074 A 
ATOM     64  C   UNL A   1      44.540  34.106  38.772  1.00  0.00     0.029 A 
ATOM     65  N   UNL A   1      44.115  32.909  36.946  1.00  0.00    -0.354 N 
ATOM     66  N   UNL A   1      44.729  30.951  34.844  1.00  0.00    -0.248 NA
ATOM     67  C   UNL A   1      46.252  29.552  33.759  1.00  0.00     0.031 C 
ATOM     68  C   UNL A   1      45.700  33.410  38.417  1.00  0.00     0.029 A 
ATOM     69  C   UNL A   1      45.426  32.640  37.299  1.00  0.00     0.049 A 
ATOM     70  H   UNL A   1      43.642  32.512  36.179  1.00  0.00     0.167 HD
ATOM     71  C   UNL A   1      45.950  31.000  35.511  1.00  0.00     0.074 A 
ATOM     72  C   UNL A   1      46.840  30.095  34.816  1.00  0.00     0.031 C 
ATOM     73  C   UNL A   1      46.301  31.726  36.603  1.00  0.00     0.037 A 
BRANCH  60  74
ATOM     74  C   UNL A   1      41.793  35.374  38.762  1.00  0.00     0.058 A 
ATOM     75  C   UNL A   1      41.182  35.005  39.971  1.00  0.00     0.135 A 
ATOM     76  C   UNL A   1      42.019  36.742  38.536  1.00  0.00     0.135 A 
ATOM     77  F   UNL A   1      40.922  33.714  40.233  1.00  0.00    -0.206 F 
ATOM     78  C   UNL A   1      40.787  35.956  40.907  1.00  0.00     0.059 A 
ATOM     79  C   UNL A   1      41.661  37.708  39.471  1.00  0.00     0.059 A 
ATOM     80  F   UNL A   1      42.595  37.151  37.394  1.00  0.00    -0.206 F 
ATOM     81  C   UNL A   1      41.033  37.306  40.648  1.00  0.00     0.060 A 
BRANCH  81  82
ATOM     82  S   UNL A   1      40.521  38.525  41.876  1.00  0.00     0.124 S 
ATOM     83  O   UNL A   1      39.653  37.727  42.735  1.00  0.00    -0.237 OA
ATOM     84  O   UNL A   1      41.795  38.929  42.462  1.00  0.00    -0.237 OA
ATOM     85  O   UNL A   1      39.847  39.547  41.081  1.00  0.00    -0.744 OA
ENDBRANCH  81  82
ENDBRANCH  60  74
BRANCH  61  86
ATOM     86  C   UNL A   1      44.284  28.656  31.776  1.00  0.00     0.058 A 
ATOM     87  C   UNL A   1      44.237  27.275  32.023  1.00  0.00     0.135 A 
ATOM     88  C   UNL A   1      44.720  29.076  30.510  1.00  0.00     0.135 A 
ATOM     89  F   UNL A   1      43.840  26.822  33.222  1.00  0.00    -0.206 F 
ATOM     90  C   UNL A   1      44.619  26.348  31.059  1.00  0.00     0.059 A 
ATOM     91  C   UNL A   1      45.080  28.167  29.518  1.00  0.00     0.059 A 
ATOM     92  F   UNL A   1      44.779  30.385  30.218  1.00  0.00    -0.206 F 
ATOM     93  C   UNL A   1      45.035  26.805  29.808  1.00  0.00     0.060 A 
BRANCH  93  94
ATOM     94  S   UNL A   1      45.477  25.589  28.547  1.00  0.00     0.124 S 
ATOM     95  O   UNL A   1      44.324  24.698  28.578  1.00  0.00    -0.237 OA
ATOM     96  O   UNL A   1      45.609  26.422  27.356  1.00  0.00    -0.237 OA
ATOM     97  O   UNL A   1      46.727  25.024  29.048  1.00  0.00    -0.744 OA
ENDBRANCH  93  94
ENDBRANCH  61  86
BRANCH  73  98
ATOM     98  C   UNL A   1      47.692  31.542  37.149  1.00  0.00     0.058 A 
ATOM     99  C   UNL A   1      47.999  30.542  38.086  1.00  0.00     0.135 A 
ATOM    100  C   UNL A   1      48.748  32.341  36.679  1.00  0.00     0.135 A 
ATOM    101  F   UNL A   1      47.029  29.751  38.572  1.00  0.00    -0.206 F 
ATOM    102  C   UNL A   1      49.296  30.358  38.555  1.00  0.00     0.059 A 
ATOM    103  C   UNL A   1      50.058  32.154  37.109  1.00  0.00     0.059 A 
ATOM    104  F   UNL A   1      48.514  33.305  35.773  1.00  0.00    -0.206 F 
ATOM    105  C   UNL A   1      50.320  31.167  38.057  1.00  0.00     0.060 A 
BRANCH 105 106
ATOM    106  S   UNL A   1      52.003  30.893  38.648  1.00  0.00     0.124 S 
ATOM    107  O   UNL A   1      52.742  30.785  37.395  1.00  0.00    -0.237 OA
ATOM    108  O   UNL A   1      52.257  32.098  39.432  1.00  0.00    -0.237 OA
ATOM    109  O   UNL A   1      51.897  29.660  39.422  1.00  0.00    -0.744 OA
ENDBRANCH 105 106
ENDBRANCH  73  98
ENDBRANCH  47  48
ENDBRANCH  40  42
ENDBRANCH  39  40
ENDBRANCH  38  39
ENDBRANCH  37  38
ENDBRANCH  36  37
ENDBRANCH  35  36
ENDBRANCH   1  35
TORSDOF 25
ENDMDL
