MODEL 1
REMARK VINA RESULT:      -8.2      0.000      0.000
REMARK SMILES C[C@@H]1C[NH+](Cc2ccccc2/C=C/C(=O)OCCOCCOCCOCCOC(=O)c2ccc(-c3c4nc(c(-c5c(F)cc(S(=O)(=O)[O-])cc5F)c5ccc([nH]5)c(-c5c(F)cc(S(=O)(=O)[O-])cc5F)c5nc(c(-c6c(F)cc(S(=O)(=O)[O-])cc6F)c6ccc3[nH]6)C=C5)C=C4)cc2)C[C@H]1C
REMARK SMILES IDX 22 1 21 2 20 3 19 4 18 5 17 6 16 7 14 8 15 9 13 10 12 11
REMARK SMILES IDX 11 12 6 13 7 14 8 15 10 16 9 17 5 18 4 19 1 20 2 21 3 22
REMARK SMILES IDX 98 23 97 24 99 25 23 27 24 28 25 29 26 30 27 31 28 32 29 33
REMARK SMILES IDX 30 34 31 35 32 36 96 37 33 38 95 39 34 40 35 41 36 42 89 43
REMARK SMILES IDX 37 44 94 45 88 46 90 47 38 48 93 49 87 50 86 51 39 53 73 54
REMARK SMILES IDX 52 55 72 56 53 57 56 58 71 59 91 60 54 61 55 62 70 64 92 65
REMARK SMILES IDX 57 66 40 67 41 68 50 69 42 70 43 71 49 72 51 73 44 74 45 75
REMARK SMILES IDX 46 76 47 77 48 78 74 79 75 80 84 81 76 82 77 83 83 84 85 85
REMARK SMILES IDX 78 86 79 87 80 88 81 89 82 90 58 91 59 92 68 93 60 94 61 95
REMARK SMILES IDX 67 96 69 97 62 98 63 99 64 100 65 101 66 102
REMARK H PARENT 4 26 90 52 56 63
REMARK Flexibility Score: inf
ROOT
ATOM      1  O   UNL A   1      46.406  30.036  25.412  1.00  0.00    -0.377 OA
ENDROOT
BRANCH   1   2
ATOM      2  C   UNL A   1      45.836  30.837  26.427  1.00  0.00     0.188 C 
BRANCH   2   3
ATOM      3  C   UNL A   1      46.546  32.187  26.643  1.00  0.00     0.188 C 
BRANCH   3   4
ATOM      4  O   UNL A   1      46.336  33.273  25.756  1.00  0.00    -0.376 OA
BRANCH   4   5
ATOM      5  C   UNL A   1      45.510  34.383  26.066  1.00  0.00     0.202 C 
BRANCH   5   6
ATOM      6  C   UNL A   1      45.508  35.137  27.403  1.00  0.00     0.261 C 
BRANCH   6   7
ATOM      7  O   UNL A   1      46.588  36.031  27.652  1.00  0.00    -0.460 OA
BRANCH   7   8
ATOM      8  C   UNL A   1      47.054  36.728  26.598  1.00  0.00     0.330 C 
ATOM      9  O   UNL A   1      48.152  36.611  26.078  1.00  0.00    -0.247 OA
BRANCH   8  10
ATOM     10  C   UNL A   1      46.069  37.738  26.153  1.00  0.00     0.094 C 
ATOM     11  C   UNL A   1      45.722  38.840  26.843  1.00  0.00     0.016 C 
BRANCH  11  12
ATOM     12  C   UNL A   1      44.995  39.929  26.193  1.00  0.00    -0.017 A 
ATOM     13  C   UNL A   1      43.600  40.094  26.353  1.00  0.00     0.013 A 
ATOM     14  C   UNL A   1      43.009  41.237  25.775  1.00  0.00     0.010 A 
ATOM     15  C   UNL A   1      43.764  42.167  25.052  1.00  0.00     0.001 A 
ATOM     16  C   UNL A   1      45.734  40.847  25.425  1.00  0.00     0.008 A 
ATOM     17  C   UNL A   1      45.125  41.964  24.865  1.00  0.00     0.001 A 
BRANCH  13  18
ATOM     18  C   UNL A   1      42.678  39.082  27.036  1.00  0.00     0.299 C 
BRANCH  18  19
ATOM     19  N   UNL A   1      42.402  39.204  28.463  1.00  0.00    -0.331 N 
ATOM     20  C   UNL A   1      42.195  41.927  30.978  1.00  0.00     0.014 C 
ATOM     21  C   UNL A   1      42.784  40.994  29.933  1.00  0.00     0.049 C 
ATOM     22  C   UNL A   1      41.763  40.410  28.964  1.00  0.00     0.266 C 
ATOM     23  C   UNL A   1      43.405  39.746  30.559  1.00  0.00     0.049 C 
ATOM     24  C   UNL A   1      43.418  38.749  29.402  1.00  0.00     0.266 C 
ATOM     25  C   UNL A   1      44.767  40.035  31.171  1.00  0.00     0.014 C 
ATOM     26  H   UNL A   1      41.668  38.495  28.443  1.00  0.00     0.348 HD
ENDBRANCH  18  19
ENDBRANCH  13  18
ENDBRANCH  11  12
ENDBRANCH   8  10
ENDBRANCH   7   8
ENDBRANCH   6   7
ENDBRANCH   5   6
ENDBRANCH   4   5
ENDBRANCH   3   4
ENDBRANCH   2   3
ENDBRANCH   1   2
BRANCH   1  27
ATOM     27  C   UNL A   1      46.604  28.659  25.715  1.00  0.00     0.188 C 
BRANCH  27  28
ATOM     28  C   UNL A   1      45.655  27.613  25.087  1.00  0.00     0.188 C 
BRANCH  28  29
ATOM     29  O   UNL A   1      46.301  26.444  24.602  1.00  0.00    -0.376 OA
BRANCH  29  30
ATOM     30  C   UNL A   1      46.006  25.184  25.182  1.00  0.00     0.202 C 
BRANCH  30  31
ATOM     31  C   UNL A   1      44.531  24.775  25.314  1.00  0.00     0.261 C 
BRANCH  31  32
ATOM     32  O   UNL A   1      43.934  24.954  26.604  1.00  0.00    -0.460 OA
BRANCH  32  33
ATOM     33  C   UNL A   1      42.591  24.859  26.690  1.00  0.00     0.338 C 
ATOM     34  O   UNL A   1      41.880  24.004  26.189  1.00  0.00    -0.246 OA
BRANCH  33  35
ATOM     35  C   UNL A   1      42.141  25.864  27.672  1.00  0.00     0.060 A 
ATOM     36  C   UNL A   1      42.876  27.047  27.828  1.00  0.00     0.016 A 
ATOM     37  C   UNL A   1      40.989  25.636  28.428  1.00  0.00     0.016 A 
ATOM     38  C   UNL A   1      42.486  27.990  28.779  1.00  0.00     0.010 A 
ATOM     39  C   UNL A   1      40.614  26.567  29.395  1.00  0.00     0.010 A 
ATOM     40  C   UNL A   1      41.385  27.726  29.602  1.00  0.00    -0.014 A 
BRANCH  40  41
ATOM     41  C   UNL A   1      41.178  28.512  30.841  1.00  0.00     0.031 A 
ATOM     42  C   UNL A   1      40.104  29.564  30.826  1.00  0.00     0.074 A 
ATOM     43  C   UNL A   1      41.930  28.317  31.937  1.00  0.00     0.049 A 
ATOM     44  N   UNL A   1      39.819  30.475  31.716  1.00  0.00    -0.248 NA
ATOM     45  C   UNL A   1      39.244  29.595  29.631  1.00  0.00     0.031 C 
ATOM     46  C   UNL A   1      42.965  27.297  32.083  1.00  0.00     0.029 A 
ATOM     47  N   UNL A   1      41.951  28.996  33.129  1.00  0.00    -0.354 N 
ATOM     48  C   UNL A   1      38.756  31.197  31.185  1.00  0.00     0.074 A 
ATOM     49  C   UNL A   1      38.472  30.641  29.881  1.00  0.00     0.031 C 
ATOM     50  C   UNL A   1      43.546  27.439  33.287  1.00  0.00     0.029 A 
ATOM     51  C   UNL A   1      42.952  28.586  33.976  1.00  0.00     0.049 A 
ATOM     52  H   UNL A   1      41.310  29.709  33.356  1.00  0.00     0.167 HD
ATOM     53  C   UNL A   1      38.074  32.227  31.738  1.00  0.00     0.037 A 
ATOM     54  C   UNL A   1      43.366  29.106  35.149  1.00  0.00     0.037 A 
ATOM     55  C   UNL A   1      38.380  32.782  33.030  1.00  0.00     0.049 A 
ATOM     56  C   UNL A   1      42.650  30.306  35.718  1.00  0.00     0.074 A 
ATOM     57  C   UNL A   1      37.760  33.829  33.686  1.00  0.00     0.029 A 
ATOM     58  N   UNL A   1      39.404  32.340  33.857  1.00  0.00    -0.354 N 
ATOM     59  N   UNL A   1      41.643  30.980  35.214  1.00  0.00    -0.248 NA
ATOM     60  C   UNL A   1      43.123  30.815  37.013  1.00  0.00     0.031 C 
ATOM     61  C   UNL A   1      38.444  34.058  34.883  1.00  0.00     0.029 A 
ATOM     62  C   UNL A   1      39.446  33.107  35.008  1.00  0.00     0.049 A 
ATOM     63  H   UNL A   1      40.011  31.592  33.654  1.00  0.00     0.167 HD
ATOM     64  C   UNL A   1      41.338  31.969  36.145  1.00  0.00     0.074 A 
ATOM     65  C   UNL A   1      42.270  31.806  37.243  1.00  0.00     0.031 C 
ATOM     66  C   UNL A   1      40.370  32.918  36.102  1.00  0.00     0.037 A 
BRANCH  53  67
ATOM     67  C   UNL A   1      36.964  32.836  30.925  1.00  0.00     0.058 A 
ATOM     68  C   UNL A   1      37.216  33.780  29.915  1.00  0.00     0.135 A 
ATOM     69  C   UNL A   1      35.628  32.479  31.167  1.00  0.00     0.135 A 
ATOM     70  F   UNL A   1      38.474  34.174  29.656  1.00  0.00    -0.206 F 
ATOM     71  C   UNL A   1      36.182  34.381  29.206  1.00  0.00     0.059 A 
ATOM     72  C   UNL A   1      34.579  33.042  30.445  1.00  0.00     0.059 A 
ATOM     73  F   UNL A   1      35.328  31.585  32.121  1.00  0.00    -0.206 F 
ATOM     74  C   UNL A   1      34.866  34.008  29.481  1.00  0.00     0.060 A 
BRANCH  74  75
ATOM     75  S   UNL A   1      33.533  34.816  28.572  1.00  0.00     0.124 S 
ATOM     76  O   UNL A   1      33.358  33.907  27.443  1.00  0.00    -0.237 OA
ATOM     77  O   UNL A   1      32.450  34.826  29.550  1.00  0.00    -0.237 OA
ATOM     78  O   UNL A   1      34.090  36.124  28.242  1.00  0.00    -0.744 OA
ENDBRANCH  74  75
ENDBRANCH  53  67
BRANCH  54  79
ATOM     79  C   UNL A   1      44.533  28.502  35.848  1.00  0.00     0.058 A 
ATOM     80  C   UNL A   1      44.367  27.482  36.795  1.00  0.00     0.135 A 
ATOM     81  C   UNL A   1      45.844  28.917  35.560  1.00  0.00     0.135 A 
ATOM     82  F   UNL A   1      43.135  27.059  37.118  1.00  0.00    -0.206 F 
ATOM     83  C   UNL A   1      45.456  26.892  37.431  1.00  0.00     0.059 A 
ATOM     84  C   UNL A   1      46.949  28.325  36.161  1.00  0.00     0.059 A 
ATOM     85  F   UNL A   1      46.058  29.886  34.656  1.00  0.00    -0.206 F 
ATOM     86  C   UNL A   1      46.745  27.315  37.099  1.00  0.00     0.060 A 
BRANCH  86  87
ATOM     87  S   UNL A   1      48.152  26.490  37.876  1.00  0.00     0.124 S 
ATOM     88  O   UNL A   1      48.082  27.007  39.238  1.00  0.00    -0.237 OA
ATOM     89  O   UNL A   1      47.808  25.081  37.709  1.00  0.00    -0.237 OA
ATOM     90  O   UNL A   1      49.290  26.948  37.085  1.00  0.00    -0.744 OA
ENDBRANCH  86  87
ENDBRANCH  54  79
BRANCH  66  91
ATOM     91  C   UNL A   1      40.212  33.826  37.292  1.00  0.00     0.058 A 
ATOM     92  C   UNL A   1      40.963  35.002  37.438  1.00  0.00     0.135 A 
ATOM     93  C   UNL A   1      39.214  33.563  38.246  1.00  0.00     0.135 A 
ATOM     94  F   UNL A   1      41.934  35.298  36.559  1.00  0.00    -0.206 F 
ATOM     95  C   UNL A   1      40.733  35.884  38.491  1.00  0.00     0.059 A 
ATOM     96  C   UNL A   1      38.948  34.445  39.288  1.00  0.00     0.059 A 
ATOM     97  F   UNL A   1      38.460  32.458  38.147  1.00  0.00    -0.206 F 
ATOM     98  C   UNL A   1      39.716  35.601  39.405  1.00  0.00     0.060 A 
BRANCH  98  99
ATOM     99  S   UNL A   1      39.381  36.790  40.722  1.00  0.00     0.124 S 
ATOM    100  O   UNL A   1      40.728  37.100  41.190  1.00  0.00    -0.237 OA
ATOM    101  O   UNL A   1      38.696  37.861  40.006  1.00  0.00    -0.237 OA
ATOM    102  O   UNL A   1      38.550  36.038  41.658  1.00  0.00    -0.744 OA
ENDBRANCH  98  99
ENDBRANCH  66  91
ENDBRANCH  40  41
ENDBRANCH  33  35
ENDBRANCH  32  33
ENDBRANCH  31  32
ENDBRANCH  30  31
ENDBRANCH  29  30
ENDBRANCH  28  29
ENDBRANCH  27  28
ENDBRANCH   1  27
TORSDOF 26
ENDMDL
MODEL 2
REMARK VINA RESULT:      -8.0      4.772     12.527
REMARK SMILES C[C@@H]1C[NH+](Cc2ccccc2/C=C/C(=O)OCCOCCOCCOCCOC(=O)c2ccc(-c3c4nc(c(-c5c(F)cc(S(=O)(=O)[O-])cc5F)c5ccc([nH]5)c(-c5c(F)cc(S(=O)(=O)[O-])cc5F)c5nc(c(-c6c(F)cc(S(=O)(=O)[O-])cc6F)c6ccc3[nH]6)C=C5)C=C4)cc2)C[C@H]1C
REMARK SMILES IDX 22 1 21 2 20 3 19 4 18 5 17 6 16 7 14 8 15 9 13 10 12 11
REMARK SMILES IDX 11 12 6 13 7 14 8 15 10 16 9 17 5 18 4 19 1 20 2 21 3 22
REMARK SMILES IDX 98 23 97 24 99 25 23 27 24 28 25 29 26 30 27 31 28 32 29 33
REMARK SMILES IDX 30 34 31 35 32 36 96 37 33 38 95 39 34 40 35 41 36 42 89 43
REMARK SMILES IDX 37 44 94 45 88 46 90 47 38 48 93 49 87 50 86 51 39 53 73 54
REMARK SMILES IDX 52 55 72 56 53 57 56 58 71 59 91 60 54 61 55 62 70 64 92 65
REMARK SMILES IDX 57 66 40 67 41 68 50 69 42 70 43 71 49 72 51 73 44 74 45 75
REMARK SMILES IDX 46 76 47 77 48 78 74 79 75 80 84 81 76 82 77 83 83 84 85 85
REMARK SMILES IDX 78 86 79 87 80 88 81 89 82 90 58 91 59 92 68 93 60 94 61 95
REMARK SMILES IDX 67 96 69 97 62 98 63 99 64 100 65 101 66 102
REMARK H PARENT 4 26 90 52 56 63
REMARK Flexibility Score: inf
ROOT
ATOM      1  O   UNL A   1      38.108  34.211  33.963  1.00  0.00    -0.377 OA
ENDROOT
BRANCH   1   2
ATOM      2  C   UNL A   1      39.303  33.461  33.870  1.00  0.00     0.188 C 
BRANCH   2   3
ATOM      3  C   UNL A   1      39.314  32.179  34.724  1.00  0.00     0.188 C 
BRANCH   3   4
ATOM      4  O   UNL A   1      40.013  32.128  35.956  1.00  0.00    -0.376 OA
BRANCH   4   5
ATOM      5  C   UNL A   1      41.228  32.819  36.192  1.00  0.00     0.202 C 
BRANCH   5   6
ATOM      6  C   UNL A   1      42.581  32.471  35.556  1.00  0.00     0.261 C 
BRANCH   6   7
ATOM      7  O   UNL A   1      43.640  32.101  36.433  1.00  0.00    -0.460 OA
BRANCH   7   8
ATOM      8  C   UNL A   1      43.753  30.793  36.731  1.00  0.00     0.330 C 
ATOM      9  O   UNL A   1      43.733  30.298  37.847  1.00  0.00    -0.247 OA
BRANCH   8  10
ATOM     10  C   UNL A   1      43.971  29.988  35.510  1.00  0.00     0.094 C 
ATOM     11  C   UNL A   1      45.072  29.260  35.246  1.00  0.00     0.016 C 
BRANCH  11  12
ATOM     12  C   UNL A   1      45.066  28.256  34.184  1.00  0.00    -0.017 A 
ATOM     13  C   UNL A   1      45.382  26.901  34.436  1.00  0.00     0.013 A 
ATOM     14  C   UNL A   1      45.244  25.990  33.368  1.00  0.00     0.010 A 
ATOM     15  C   UNL A   1      44.829  26.407  32.098  1.00  0.00     0.001 A 
ATOM     16  C   UNL A   1      44.696  28.669  32.891  1.00  0.00     0.008 A 
ATOM     17  C   UNL A   1      44.569  27.749  31.856  1.00  0.00     0.001 A 
BRANCH  13  18
ATOM     18  C   UNL A   1      45.938  26.371  35.758  1.00  0.00     0.299 C 
BRANCH  18  19
ATOM     19  N   UNL A   1      45.023  25.907  36.794  1.00  0.00    -0.331 N 
ATOM     20  C   UNL A   1      44.654  26.268  40.471  1.00  0.00     0.014 C 
ATOM     21  C   UNL A   1      45.260  25.888  39.130  1.00  0.00     0.049 C 
ATOM     22  C   UNL A   1      44.784  26.741  37.960  1.00  0.00     0.266 C 
ATOM     23  C   UNL A   1      44.865  24.477  38.697  1.00  0.00     0.049 C 
ATOM     24  C   UNL A   1      45.080  24.505  37.186  1.00  0.00     0.266 C 
ATOM     25  C   UNL A   1      45.660  23.412  39.437  1.00  0.00     0.014 C 
ATOM     26  H   UNL A   1      44.199  26.023  36.203  1.00  0.00     0.348 HD
ENDBRANCH  18  19
ENDBRANCH  13  18
ENDBRANCH  11  12
ENDBRANCH   8  10
ENDBRANCH   7   8
ENDBRANCH   6   7
ENDBRANCH   5   6
ENDBRANCH   4   5
ENDBRANCH   3   4
ENDBRANCH   2   3
ENDBRANCH   1   2
BRANCH   1  27
ATOM     27  C   UNL A   1      37.316  34.307  32.784  1.00  0.00     0.188 C 
BRANCH  27  28
ATOM     28  C   UNL A   1      35.908  34.938  32.880  1.00  0.00     0.188 C 
BRANCH  28  29
ATOM     29  O   UNL A   1      34.879  34.035  33.259  1.00  0.00    -0.376 OA
BRANCH  29  30
ATOM     30  C   UNL A   1      34.757  32.787  32.596  1.00  0.00     0.202 C 
BRANCH  30  31
ATOM     31  C   UNL A   1      34.730  32.784  31.059  1.00  0.00     0.261 C 
BRANCH  31  32
ATOM     32  O   UNL A   1      34.988  31.528  30.421  1.00  0.00    -0.460 OA
BRANCH  32  33
ATOM     33  C   UNL A   1      35.488  31.554  29.169  1.00  0.00     0.338 C 
ATOM     34  O   UNL A   1      35.090  32.226  28.231  1.00  0.00    -0.246 OA
BRANCH  33  35
ATOM     35  C   UNL A   1      36.738  30.772  29.177  1.00  0.00     0.060 A 
ATOM     36  C   UNL A   1      37.303  30.396  30.404  1.00  0.00     0.016 A 
ATOM     37  C   UNL A   1      37.343  30.407  27.973  1.00  0.00     0.016 A 
ATOM     38  C   UNL A   1      38.505  29.690  30.431  1.00  0.00     0.010 A 
ATOM     39  C   UNL A   1      38.557  29.722  28.001  1.00  0.00     0.010 A 
ATOM     40  C   UNL A   1      39.163  29.399  29.229  1.00  0.00    -0.014 A 
BRANCH  40  41
ATOM     41  C   UNL A   1      40.588  28.995  29.242  1.00  0.00     0.031 A 
ATOM     42  C   UNL A   1      41.608  30.053  29.553  1.00  0.00     0.074 A 
ATOM     43  C   UNL A   1      40.969  27.736  28.965  1.00  0.00     0.049 A 
ATOM     44  N   UNL A   1      42.911  29.998  29.488  1.00  0.00    -0.248 NA
ATOM     45  C   UNL A   1      41.079  31.358  29.984  1.00  0.00     0.031 C 
ATOM     46  C   UNL A   1      40.068  26.618  28.698  1.00  0.00     0.029 A 
ATOM     47  N   UNL A   1      42.225  27.198  28.840  1.00  0.00    -0.354 N 
ATOM     48  C   UNL A   1      43.358  31.262  29.858  1.00  0.00     0.074 A 
ATOM     49  C   UNL A   1      42.187  32.072  30.108  1.00  0.00     0.031 C 
ATOM     50  C   UNL A   1      40.803  25.531  28.403  1.00  0.00     0.029 A 
ATOM     51  C   UNL A   1      42.221  25.889  28.423  1.00  0.00     0.049 A 
ATOM     52  H   UNL A   1      43.050  27.702  29.031  1.00  0.00     0.167 HD
ATOM     53  C   UNL A   1      44.631  31.705  29.981  1.00  0.00     0.037 A 
ATOM     54  C   UNL A   1      43.244  25.091  28.057  1.00  0.00     0.037 A 
ATOM     55  C   UNL A   1      45.786  30.893  29.711  1.00  0.00     0.049 A 
ATOM     56  C   UNL A   1      44.655  25.622  28.121  1.00  0.00     0.074 A 
ATOM     57  C   UNL A   1      47.122  31.240  29.797  1.00  0.00     0.029 A 
ATOM     58  N   UNL A   1      45.742  29.572  29.287  1.00  0.00    -0.354 N 
ATOM     59  N   UNL A   1      45.070  26.816  28.475  1.00  0.00    -0.248 NA
ATOM     60  C   UNL A   1      45.735  24.701  27.739  1.00  0.00     0.031 C 
ATOM     61  C   UNL A   1      47.884  30.147  29.372  1.00  0.00     0.029 A 
ATOM     62  C   UNL A   1      47.025  29.095  29.089  1.00  0.00     0.049 A 
ATOM     63  H   UNL A   1      44.918  29.051  29.148  1.00  0.00     0.167 HD
ATOM     64  C   UNL A   1      46.460  26.778  28.394  1.00  0.00     0.074 A 
ATOM     65  C   UNL A   1      46.814  25.444  27.954  1.00  0.00     0.031 C 
ATOM     66  C   UNL A   1      47.361  27.755  28.668  1.00  0.00     0.037 A 
BRANCH  53  67
ATOM     67  C   UNL A   1      44.825  33.141  30.389  1.00  0.00     0.058 A 
ATOM     68  C   UNL A   1      45.019  33.512  31.730  1.00  0.00     0.135 A 
ATOM     69  C   UNL A   1      44.806  34.162  29.425  1.00  0.00     0.135 A 
ATOM     70  F   UNL A   1      45.025  32.579  32.696  1.00  0.00    -0.206 F 
ATOM     71  C   UNL A   1      45.141  34.845  32.106  1.00  0.00     0.059 A 
ATOM     72  C   UNL A   1      44.962  35.500  29.774  1.00  0.00     0.059 A 
ATOM     73  F   UNL A   1      44.621  33.866  28.129  1.00  0.00    -0.206 F 
ATOM     74  C   UNL A   1      45.107  35.833  31.120  1.00  0.00     0.060 A 
BRANCH  74  75
ATOM     75  S   UNL A   1      45.241  37.559  31.626  1.00  0.00     0.124 S 
ATOM     76  O   UNL A   1      43.956  37.769  32.287  1.00  0.00    -0.237 OA
ATOM     77  O   UNL A   1      46.407  37.538  32.503  1.00  0.00    -0.237 OA
ATOM     78  O   UNL A   1      45.420  38.272  30.365  1.00  0.00    -0.744 OA
ENDBRANCH  74  75
ENDBRANCH  53  67
BRANCH  54  79
ATOM     79  C   UNL A   1      42.962  23.711  27.575  1.00  0.00     0.058 A 
ATOM     80  C   UNL A   1      42.815  22.642  28.471  1.00  0.00     0.135 A 
ATOM     81  C   UNL A   1      42.805  23.439  26.206  1.00  0.00     0.135 A 
ATOM     82  F   UNL A   1      42.969  22.845  29.789  1.00  0.00    -0.206 F 
ATOM     83  C   UNL A   1      42.521  21.355  28.030  1.00  0.00     0.059 A 
ATOM     84  C   UNL A   1      42.485  22.168  25.743  1.00  0.00     0.059 A 
ATOM     85  F   UNL A   1      42.931  24.428  25.307  1.00  0.00    -0.206 F 
ATOM     86  C   UNL A   1      42.349  21.131  26.663  1.00  0.00     0.060 A 
BRANCH  86  87
ATOM     87  S   UNL A   1      41.894  19.472  26.111  1.00  0.00     0.124 S 
ATOM     88  O   UNL A   1      42.241  18.667  27.277  1.00  0.00    -0.237 OA
ATOM     89  O   UNL A   1      40.468  19.622  25.839  1.00  0.00    -0.237 OA
ATOM     90  O   UNL A   1      42.731  19.268  24.933  1.00  0.00    -0.744 OA
ENDBRANCH  86  87
ENDBRANCH  54  79
BRANCH  66  91
ATOM     91  C   UNL A   1      48.825  27.419  28.566  1.00  0.00     0.058 A 
ATOM     92  C   UNL A   1      49.584  27.732  27.428  1.00  0.00     0.135 A 
ATOM     93  C   UNL A   1      49.497  26.870  29.671  1.00  0.00     0.135 A 
ATOM     94  F   UNL A   1      48.992  28.252  26.341  1.00  0.00    -0.206 F 
ATOM     95  C   UNL A   1      50.958  27.509  27.389  1.00  0.00     0.059 A 
ATOM     96  C   UNL A   1      50.872  26.666  29.664  1.00  0.00     0.059 A 
ATOM     97  F   UNL A   1      48.820  26.562  30.788  1.00  0.00    -0.206 F 
ATOM     98  C   UNL A   1      51.594  26.985  28.516  1.00  0.00     0.060 A 
BRANCH  98  99
ATOM     99  S   UNL A   1      53.387  26.770  28.475  1.00  0.00     0.124 S 
ATOM    100  O   UNL A   1      53.836  28.105  28.098  1.00  0.00    -0.237 OA
ATOM    101  O   UNL A   1      53.682  26.363  29.845  1.00  0.00    -0.237 OA
ATOM    102  O   UNL A   1      53.584  25.734  27.465  1.00  0.00    -0.744 OA
ENDBRANCH  98  99
ENDBRANCH  66  91
ENDBRANCH  40  41
ENDBRANCH  33  35
ENDBRANCH  32  33
ENDBRANCH  31  32
ENDBRANCH  30  31
ENDBRANCH  29  30
ENDBRANCH  28  29
ENDBRANCH  27  28
ENDBRANCH   1  27
TORSDOF 26
ENDMDL
MODEL 3
REMARK VINA RESULT:      -8.0      3.261      5.608
REMARK SMILES C[C@@H]1C[NH+](Cc2ccccc2/C=C/C(=O)OCCOCCOCCOCCOC(=O)c2ccc(-c3c4nc(c(-c5c(F)cc(S(=O)(=O)[O-])cc5F)c5ccc([nH]5)c(-c5c(F)cc(S(=O)(=O)[O-])cc5F)c5nc(c(-c6c(F)cc(S(=O)(=O)[O-])cc6F)c6ccc3[nH]6)C=C5)C=C4)cc2)C[C@H]1C
REMARK SMILES IDX 22 1 21 2 20 3 19 4 18 5 17 6 16 7 14 8 15 9 13 10 12 11
REMARK SMILES IDX 11 12 6 13 7 14 8 15 10 16 9 17 5 18 4 19 1 20 2 21 3 22
REMARK SMILES IDX 98 23 97 24 99 25 23 27 24 28 25 29 26 30 27 31 28 32 29 33
REMARK SMILES IDX 30 34 31 35 32 36 96 37 33 38 95 39 34 40 35 41 36 42 89 43
REMARK SMILES IDX 37 44 94 45 88 46 90 47 38 48 93 49 87 50 86 51 39 53 73 54
REMARK SMILES IDX 52 55 72 56 53 57 56 58 71 59 91 60 54 61 55 62 70 64 92 65
REMARK SMILES IDX 57 66 40 67 41 68 50 69 42 70 43 71 49 72 51 73 44 74 45 75
REMARK SMILES IDX 46 76 47 77 48 78 74 79 75 80 84 81 76 82 77 83 83 84 85 85
REMARK SMILES IDX 78 86 79 87 80 88 81 89 82 90 58 91 59 92 68 93 60 94 61 95
REMARK SMILES IDX 67 96 69 97 62 98 63 99 64 100 65 101 66 102
REMARK H PARENT 4 26 90 52 56 63
REMARK Flexibility Score: inf
ROOT
ATOM      1  O   UNL A   1      46.027  30.007  25.911  1.00  0.00    -0.377 OA
ENDROOT
BRANCH   1   2
ATOM      2  C   UNL A   1      45.458  30.378  27.151  1.00  0.00     0.188 C 
BRANCH   2   3
ATOM      3  C   UNL A   1      44.370  31.464  27.049  1.00  0.00     0.188 C 
BRANCH   3   4
ATOM      4  O   UNL A   1      43.693  31.930  28.205  1.00  0.00    -0.376 OA
BRANCH   4   5
ATOM      5  C   UNL A   1      43.769  33.269  28.666  1.00  0.00     0.202 C 
BRANCH   5   6
ATOM      6  C   UNL A   1      44.390  33.710  29.999  1.00  0.00     0.261 C 
BRANCH   6   7
ATOM      7  O   UNL A   1      43.704  33.342  31.192  1.00  0.00    -0.460 OA
BRANCH   7   8
ATOM      8  C   UNL A   1      44.408  32.649  32.107  1.00  0.00     0.330 C 
ATOM      9  O   UNL A   1      44.120  32.499  33.284  1.00  0.00    -0.247 OA
BRANCH   8  10
ATOM     10  C   UNL A   1      45.655  32.111  31.520  1.00  0.00     0.094 C 
ATOM     11  C   UNL A   1      45.904  30.810  31.285  1.00  0.00     0.016 C 
BRANCH  11  12
ATOM     12  C   UNL A   1      47.010  30.406  30.420  1.00  0.00    -0.017 A 
ATOM     13  C   UNL A   1      47.323  29.045  30.194  1.00  0.00     0.013 A 
ATOM     14  C   UNL A   1      48.339  28.756  29.259  1.00  0.00     0.010 A 
ATOM     15  C   UNL A   1      49.030  29.772  28.591  1.00  0.00     0.001 A 
ATOM     16  C   UNL A   1      47.745  31.417  29.775  1.00  0.00     0.008 A 
ATOM     17  C   UNL A   1      48.743  31.104  28.860  1.00  0.00     0.001 A 
BRANCH  13  18
ATOM     18  C   UNL A   1      46.694  27.873  30.950  1.00  0.00     0.299 C 
BRANCH  18  19
ATOM     19  N   UNL A   1      47.430  27.231  32.032  1.00  0.00    -0.331 N 
ATOM     20  C   UNL A   1      50.852  27.380  33.466  1.00  0.00     0.014 C 
ATOM     21  C   UNL A   1      49.738  27.153  32.457  1.00  0.00     0.049 C 
ATOM     22  C   UNL A   1      48.478  27.970  32.717  1.00  0.00     0.266 C 
ATOM     23  C   UNL A   1      49.218  25.717  32.485  1.00  0.00     0.049 C 
ATOM     24  C   UNL A   1      47.829  25.840  31.863  1.00  0.00     0.266 C 
ATOM     25  C   UNL A   1      50.158  24.758  31.769  1.00  0.00     0.014 C 
ATOM     26  H   UNL A   1      46.630  27.242  32.665  1.00  0.00     0.348 HD
ENDBRANCH  18  19
ENDBRANCH  13  18
ENDBRANCH  11  12
ENDBRANCH   8  10
ENDBRANCH   7   8
ENDBRANCH   6   7
ENDBRANCH   5   6
ENDBRANCH   4   5
ENDBRANCH   3   4
ENDBRANCH   2   3
ENDBRANCH   1   2
BRANCH   1  27
ATOM     27  C   UNL A   1      46.537  28.683  25.809  1.00  0.00     0.188 C 
BRANCH  27  28
ATOM     28  C   UNL A   1      45.709  27.620  25.050  1.00  0.00     0.188 C 
BRANCH  28  29
ATOM     29  O   UNL A   1      46.459  26.505  24.588  1.00  0.00    -0.376 OA
BRANCH  29  30
ATOM     30  C   UNL A   1      46.268  25.232  25.182  1.00  0.00     0.202 C 
BRANCH  30  31
ATOM     31  C   UNL A   1      44.829  24.725  25.361  1.00  0.00     0.261 C 
BRANCH  31  32
ATOM     32  O   UNL A   1      44.227  24.957  26.640  1.00  0.00    -0.460 OA
BRANCH  32  33
ATOM     33  C   UNL A   1      42.884  24.853  26.727  1.00  0.00     0.338 C 
ATOM     34  O   UNL A   1      42.180  23.983  26.241  1.00  0.00    -0.246 OA
BRANCH  33  35
ATOM     35  C   UNL A   1      42.426  25.872  27.690  1.00  0.00     0.060 A 
ATOM     36  C   UNL A   1      43.206  27.018  27.898  1.00  0.00     0.016 A 
ATOM     37  C   UNL A   1      41.222  25.696  28.375  1.00  0.00     0.016 A 
ATOM     38  C   UNL A   1      42.805  27.972  28.833  1.00  0.00     0.010 A 
ATOM     39  C   UNL A   1      40.835  26.638  29.327  1.00  0.00     0.010 A 
ATOM     40  C   UNL A   1      41.647  27.757  29.589  1.00  0.00    -0.014 A 
BRANCH  40  41
ATOM     41  C   UNL A   1      41.406  28.545  30.820  1.00  0.00     0.031 A 
ATOM     42  C   UNL A   1      40.288  29.550  30.795  1.00  0.00     0.074 A 
ATOM     43  C   UNL A   1      42.164  28.392  31.918  1.00  0.00     0.049 A 
ATOM     44  N   UNL A   1      39.964  30.457  31.676  1.00  0.00    -0.248 NA
ATOM     45  C   UNL A   1      39.429  29.534  29.599  1.00  0.00     0.031 C 
ATOM     46  C   UNL A   1      43.240  27.417  32.075  1.00  0.00     0.029 A 
ATOM     47  N   UNL A   1      42.154  29.082  33.105  1.00  0.00    -0.354 N 
ATOM     48  C   UNL A   1      38.872  31.127  31.138  1.00  0.00     0.074 A 
ATOM     49  C   UNL A   1      38.613  30.549  29.839  1.00  0.00     0.031 C 
ATOM     50  C   UNL A   1      43.814  27.595  33.278  1.00  0.00     0.029 A 
ATOM     51  C   UNL A   1      43.171  28.721  33.956  1.00  0.00     0.049 A 
ATOM     52  H   UNL A   1      41.483  29.768  33.324  1.00  0.00     0.167 HD
ATOM     53  C   UNL A   1      38.147  32.133  31.682  1.00  0.00     0.037 A 
ATOM     54  C   UNL A   1      43.561  29.268  35.125  1.00  0.00     0.037 A 
ATOM     55  C   UNL A   1      38.427  32.711  32.968  1.00  0.00     0.049 A 
ATOM     56  C   UNL A   1      42.795  30.442  35.682  1.00  0.00     0.074 A 
ATOM     57  C   UNL A   1      37.762  33.737  33.614  1.00  0.00     0.029 A 
ATOM     58  N   UNL A   1      39.467  32.321  33.800  1.00  0.00    -0.354 N 
ATOM     59  N   UNL A   1      41.760  31.069  35.171  1.00  0.00    -0.248 NA
ATOM     60  C   UNL A   1      43.243  30.982  36.973  1.00  0.00     0.031 C 
ATOM     61  C   UNL A   1      38.434  34.006  34.811  1.00  0.00     0.029 A 
ATOM     62  C   UNL A   1      39.475  33.099  34.944  1.00  0.00     0.049 A 
ATOM     63  H   UNL A   1      40.106  31.597  33.605  1.00  0.00     0.167 HD
ATOM     64  C   UNL A   1      41.413  32.052  36.094  1.00  0.00     0.074 A 
ATOM     65  C   UNL A   1      42.349  31.938  37.194  1.00  0.00     0.031 C 
ATOM     66  C   UNL A   1      40.405  32.959  36.041  1.00  0.00     0.037 A 
BRANCH  53  67
ATOM     67  C   UNL A   1      37.013  32.688  30.862  1.00  0.00     0.058 A 
ATOM     68  C   UNL A   1      37.209  33.715  29.924  1.00  0.00     0.135 A 
ATOM     69  C   UNL A   1      35.709  32.192  31.025  1.00  0.00     0.135 A 
ATOM     70  F   UNL A   1      38.431  34.240  29.741  1.00  0.00    -0.206 F 
ATOM     71  C   UNL A   1      36.147  34.261  29.211  1.00  0.00     0.059 A 
ATOM     72  C   UNL A   1      34.638  32.700  30.296  1.00  0.00     0.059 A 
ATOM     73  F   UNL A   1      35.462  31.214  31.910  1.00  0.00    -0.206 F 
ATOM     74  C   UNL A   1      34.864  33.749  29.407  1.00  0.00     0.060 A 
BRANCH  74  75
ATOM     75  S   UNL A   1      33.493  34.487  28.495  1.00  0.00     0.124 S 
ATOM     76  O   UNL A   1      32.556  34.791  29.572  1.00  0.00    -0.237 OA
ATOM     77  O   UNL A   1      34.125  35.640  27.862  1.00  0.00    -0.237 OA
ATOM     78  O   UNL A   1      33.079  33.424  27.584  1.00  0.00    -0.744 OA
ENDBRANCH  74  75
ENDBRANCH  53  67
BRANCH  54  79
ATOM     79  C   UNL A   1      44.752  28.721  35.830  1.00  0.00     0.058 A 
ATOM     80  C   UNL A   1      44.626  27.720  36.804  1.00  0.00     0.135 A 
ATOM     81  C   UNL A   1      46.046  29.171  35.522  1.00  0.00     0.135 A 
ATOM     82  F   UNL A   1      43.409  27.266  37.146  1.00  0.00    -0.206 F 
ATOM     83  C   UNL A   1      45.737  27.182  37.446  1.00  0.00     0.059 A 
ATOM     84  C   UNL A   1      47.174  28.630  36.130  1.00  0.00     0.059 A 
ATOM     85  F   UNL A   1      46.223  30.123  34.593  1.00  0.00    -0.206 F 
ATOM     86  C   UNL A   1      47.009  27.638  37.094  1.00  0.00     0.060 A 
BRANCH  86  87
ATOM     87  S   UNL A   1      48.447  26.879  37.881  1.00  0.00     0.124 S 
ATOM     88  O   UNL A   1      49.432  26.928  36.807  1.00  0.00    -0.237 OA
ATOM     89  O   UNL A   1      48.685  27.777  39.008  1.00  0.00    -0.237 OA
ATOM     90  O   UNL A   1      47.971  25.547  38.241  1.00  0.00    -0.744 OA
ENDBRANCH  86  87
ENDBRANCH  54  79
BRANCH  66  91
ATOM     91  C   UNL A   1      40.207  33.870  37.222  1.00  0.00     0.058 A 
ATOM     92  C   UNL A   1      40.869  35.103  37.333  1.00  0.00     0.135 A 
ATOM     93  C   UNL A   1      39.258  33.546  38.206  1.00  0.00     0.135 A 
ATOM     94  F   UNL A   1      41.791  35.460  36.425  1.00  0.00    -0.206 F 
ATOM     95  C   UNL A   1      40.598  35.980  38.380  1.00  0.00     0.059 A 
ATOM     96  C   UNL A   1      38.951  34.419  39.243  1.00  0.00     0.059 A 
ATOM     97  F   UNL A   1      38.589  32.384  38.142  1.00  0.00    -0.206 F 
ATOM     98  C   UNL A   1      39.629  35.634  39.324  1.00  0.00     0.060 A 
BRANCH  98  99
ATOM     99  S   UNL A   1      39.237  36.813  40.634  1.00  0.00     0.124 S 
ATOM    100  O   UNL A   1      38.460  35.987  41.552  1.00  0.00    -0.237 OA
ATOM    101  O   UNL A   1      40.560  37.210  41.101  1.00  0.00    -0.237 OA
ATOM    102  O   UNL A   1      38.485  37.856  39.941  1.00  0.00    -0.744 OA
ENDBRANCH  98  99
ENDBRANCH  66  91
ENDBRANCH  40  41
ENDBRANCH  33  35
ENDBRANCH  32  33
ENDBRANCH  31  32
ENDBRANCH  30  31
ENDBRANCH  29  30
ENDBRANCH  28  29
ENDBRANCH  27  28
ENDBRANCH   1  27
TORSDOF 26
ENDMDL
