MODEL 1
REMARK VINA RESULT:      -9.0      0.000      0.000
REMARK SMILES CCC[C@@H]([NH2+]Cc1cc(Cl)cs1)C(=O)OCCOCCOCCOCCOC(=O)c1ccc(-c2c3nc(c(-c4c(F)cc(S(=O)(=O)[O-])cc4F)c4ccc([nH]4)c(-c4c(F)cc(S(=O)(=O)[O-])cc4F)c4nc(c(-c5c(F)cc(S(=O)(=O)[O-])cc5F)c5ccc2[nH]5)C=C4)C=C3)cc1
REMARK SMILES IDX 21 1 20 2 19 3 18 4 17 5 16 6 15 7 13 8 14 9 4 10 3 11 2 12
REMARK SMILES IDX 1 13 5 14 6 17 7 18 8 19 12 20 9 21 11 22 10 23 22 24 23 25
REMARK SMILES IDX 24 26 25 27 26 28 27 29 28 30 29 31 30 32 31 33 95 34 32 35
REMARK SMILES IDX 94 36 33 37 34 38 35 39 88 40 36 41 93 42 87 43 89 44 37 45
REMARK SMILES IDX 92 46 86 47 85 48 38 50 72 51 51 52 71 53 52 54 55 55 70 56
REMARK SMILES IDX 90 57 53 58 54 59 69 61 91 62 56 63 39 64 40 65 49 66 41 67
REMARK SMILES IDX 42 68 48 69 50 70 43 71 44 72 45 73 46 74 47 75 73 76 74 77
REMARK SMILES IDX 83 78 75 79 76 80 82 81 84 82 77 83 78 84 79 85 80 86 81 87
REMARK SMILES IDX 57 88 58 89 67 90 59 91 60 92 66 93 68 94 61 95 62 96 63 97
REMARK SMILES IDX 64 98 65 99
REMARK H PARENT 5 15 5 16 89 49 55 60
REMARK Flexibility Score: inf
ROOT
ATOM      1  O   UNL A   1      32.084  29.407  24.333  1.00  0.00    -0.377 OA
ENDROOT
BRANCH   1   2
ATOM      2  C   UNL A   1      30.750  29.864  24.325  1.00  0.00     0.188 C 
BRANCH   2   3
ATOM      3  C   UNL A   1      29.881  29.327  23.182  1.00  0.00     0.188 C 
BRANCH   3   4
ATOM      4  O   UNL A   1      29.909  27.964  22.806  1.00  0.00    -0.376 OA
BRANCH   4   5
ATOM      5  C   UNL A   1      29.201  26.943  23.491  1.00  0.00     0.202 C 
BRANCH   5   6
ATOM      6  C   UNL A   1      29.823  25.811  24.333  1.00  0.00     0.261 C 
BRANCH   6   7
ATOM      7  O   UNL A   1      29.949  25.996  25.749  1.00  0.00    -0.459 OA
BRANCH   7   8
ATOM      8  C   UNL A   1      31.219  25.922  26.200  1.00  0.00     0.364 C 
ATOM      9  O   UNL A   1      31.599  26.509  27.214  1.00  0.00    -0.245 OA
BRANCH   8  10
ATOM     10  C   UNL A   1      32.156  24.987  25.399  1.00  0.00     0.293 C 
BRANCH  10  11
ATOM     11  C   UNL A   1      33.578  25.491  25.053  1.00  0.00     0.077 C 
BRANCH  11  12
ATOM     12  C   UNL A   1      33.672  26.326  23.754  1.00  0.00     0.003 C 
ATOM     13  C   UNL A   1      33.176  25.625  22.493  1.00  0.00     0.004 C 
ENDBRANCH  11  12
ENDBRANCH  10  11
BRANCH  10  14
ATOM     14  N   UNL A   1      32.309  23.661  26.051  1.00  0.00    -0.330 N 
ATOM     15  H   UNL A   1      31.756  23.670  26.907  1.00  0.00     0.347 HD
ATOM     16  H   UNL A   1      33.312  23.544  26.197  1.00  0.00     0.347 HD
BRANCH  14  17
ATOM     17  C   UNL A   1      31.893  22.499  25.265  1.00  0.00     0.309 C 
BRANCH  17  18
ATOM     18  C   UNL A   1      32.949  21.445  25.078  1.00  0.00     0.060 A 
ATOM     19  C   UNL A   1      34.317  21.604  25.217  1.00  0.00     0.041 A 
ATOM     20  S   UNL A   1      32.560  19.847  24.593  1.00  0.00    -0.141 S 
ATOM     21  C   UNL A   1      35.034  20.408  24.952  1.00  0.00     0.052 A 
ATOM     22  C   UNL A   1      34.198  19.362  24.644  1.00  0.00     0.085 A 
ATOM     23  Cl  UNL A   1      36.738  20.312  25.016  1.00  0.00    -0.083 Cl
ENDBRANCH  17  18
ENDBRANCH  14  17
ENDBRANCH  10  14
ENDBRANCH   8  10
ENDBRANCH   7   8
ENDBRANCH   6   7
ENDBRANCH   5   6
ENDBRANCH   4   5
ENDBRANCH   3   4
ENDBRANCH   2   3
ENDBRANCH   1   2
BRANCH   1  24
ATOM     24  C   UNL A   1      32.818  29.451  25.551  1.00  0.00     0.188 C 
BRANCH  24  25
ATOM     25  C   UNL A   1      32.121  29.909  26.848  1.00  0.00     0.188 C 
BRANCH  25  26
ATOM     26  O   UNL A   1      32.864  30.843  27.619  1.00  0.00    -0.376 OA
BRANCH  26  27
ATOM     27  C   UNL A   1      34.274  30.890  27.447  1.00  0.00     0.202 C 
BRANCH  27  28
ATOM     28  C   UNL A   1      35.077  31.779  28.413  1.00  0.00     0.261 C 
BRANCH  28  29
ATOM     29  O   UNL A   1      35.795  31.099  29.457  1.00  0.00    -0.460 OA
BRANCH  29  30
ATOM     30  C   UNL A   1      36.961  31.634  29.865  1.00  0.00     0.338 C 
ATOM     31  O   UNL A   1      37.107  32.640  30.546  1.00  0.00    -0.246 OA
BRANCH  30  32
ATOM     32  C   UNL A   1      38.052  30.698  29.531  1.00  0.00     0.060 A 
ATOM     33  C   UNL A   1      39.053  30.476  30.487  1.00  0.00     0.016 A 
ATOM     34  C   UNL A   1      38.121  30.085  28.277  1.00  0.00     0.016 A 
ATOM     35  C   UNL A   1      40.168  29.711  30.160  1.00  0.00     0.010 A 
ATOM     36  C   UNL A   1      39.250  29.331  27.945  1.00  0.00     0.010 A 
ATOM     37  C   UNL A   1      40.306  29.193  28.864  1.00  0.00    -0.014 A 
BRANCH  37  38
ATOM     38  C   UNL A   1      41.652  28.756  28.419  1.00  0.00     0.031 A 
ATOM     39  C   UNL A   1      42.757  29.781  28.392  1.00  0.00     0.074 A 
ATOM     40  C   UNL A   1      41.913  27.468  28.132  1.00  0.00     0.049 A 
ATOM     41  N   UNL A   1      44.020  29.635  28.088  1.00  0.00    -0.248 NA
ATOM     42  C   UNL A   1      42.386  31.157  28.761  1.00  0.00     0.031 C 
ATOM     43  C   UNL A   1      40.938  26.380  28.165  1.00  0.00     0.029 A 
ATOM     44  N   UNL A   1      43.086  26.859  27.764  1.00  0.00    -0.354 N 
ATOM     45  C   UNL A   1      44.591  30.896  28.226  1.00  0.00     0.074 A 
ATOM     46  C   UNL A   1      43.529  31.804  28.600  1.00  0.00     0.031 C 
ATOM     47  C   UNL A   1      41.555  25.233  27.829  1.00  0.00     0.029 A 
ATOM     48  C   UNL A   1      42.961  25.511  27.535  1.00  0.00     0.049 A 
ATOM     49  H   UNL A   1      43.939  27.343  27.674  1.00  0.00     0.167 HD
ATOM     50  C   UNL A   1      45.885  31.265  28.073  1.00  0.00     0.037 A 
ATOM     51  C   UNL A   1      43.874  24.609  27.124  1.00  0.00     0.037 A 
ATOM     52  C   UNL A   1      46.939  30.357  27.704  1.00  0.00     0.049 A 
ATOM     53  C   UNL A   1      45.299  25.053  26.901  1.00  0.00     0.074 A 
ATOM     54  C   UNL A   1      48.285  30.625  27.533  1.00  0.00     0.029 A 
ATOM     55  N   UNL A   1      46.764  29.005  27.441  1.00  0.00    -0.354 N 
ATOM     56  N   UNL A   1      45.829  26.244  27.057  1.00  0.00    -0.248 NA
ATOM     57  C   UNL A   1      46.252  24.027  26.456  1.00  0.00     0.031 C 
ATOM     58  C   UNL A   1      48.914  29.449  27.110  1.00  0.00     0.029 A 
ATOM     59  C   UNL A   1      47.973  28.432  27.082  1.00  0.00     0.049 A 
ATOM     60  H   UNL A   1      45.907  28.525  27.499  1.00  0.00     0.167 HD
ATOM     61  C   UNL A   1      47.181  26.102  26.760  1.00  0.00     0.074 A 
ATOM     62  C   UNL A   1      47.389  24.707  26.433  1.00  0.00     0.031 C 
ATOM     63  C   UNL A   1      48.164  27.039  26.759  1.00  0.00     0.037 A 
BRANCH  50  64
ATOM     64  C   UNL A   1      46.225  32.718  28.275  1.00  0.00     0.058 A 
ATOM     65  C   UNL A   1      46.685  33.210  29.507  1.00  0.00     0.135 A 
ATOM     66  C   UNL A   1      46.107  33.627  27.212  1.00  0.00     0.135 A 
ATOM     67  F   UNL A   1      46.795  32.392  30.566  1.00  0.00    -0.206 F 
ATOM     68  C   UNL A   1      46.992  34.556  29.684  1.00  0.00     0.059 A 
ATOM     69  C   UNL A   1      46.439  34.971  27.356  1.00  0.00     0.059 A 
ATOM     70  F   UNL A   1      45.667  33.213  26.013  1.00  0.00    -0.206 F 
ATOM     71  C   UNL A   1      46.867  35.429  28.602  1.00  0.00     0.060 A 
BRANCH  71  72
ATOM     72  S   UNL A   1      47.277  37.170  28.845  1.00  0.00     0.124 S 
ATOM     73  O   UNL A   1      47.161  37.689  27.485  1.00  0.00    -0.237 OA
ATOM     74  O   UNL A   1      46.241  37.604  29.778  1.00  0.00    -0.237 OA
ATOM     75  O   UNL A   1      48.630  37.130  29.388  1.00  0.00    -0.744 OA
ENDBRANCH  71  72
ENDBRANCH  50  64
BRANCH  51  76
ATOM     76  C   UNL A   1      43.475  23.192  26.892  1.00  0.00     0.058 A 
ATOM     77  C   UNL A   1      43.196  22.326  27.960  1.00  0.00     0.135 A 
ATOM     78  C   UNL A   1      43.375  22.675  25.591  1.00  0.00     0.135 A 
ATOM     79  F   UNL A   1      43.292  22.768  29.224  1.00  0.00    -0.206 F 
ATOM     80  C   UNL A   1      42.851  20.995  27.750  1.00  0.00     0.059 A 
ATOM     81  C   UNL A   1      43.001  21.356  25.353  1.00  0.00     0.059 A 
ATOM     82  F   UNL A   1      43.622  23.462  24.532  1.00  0.00    -0.206 F 
ATOM     83  C   UNL A   1      42.751  20.520  26.440  1.00  0.00     0.060 A 
BRANCH  83  84
ATOM     84  S   UNL A   1      42.254  18.804  26.177  1.00  0.00     0.124 S 
ATOM     85  O   UNL A   1      40.858  18.959  25.784  1.00  0.00    -0.237 OA
ATOM     86  O   UNL A   1      43.171  18.379  25.125  1.00  0.00    -0.237 OA
ATOM     87  O   UNL A   1      42.477  18.187  27.481  1.00  0.00    -0.744 OA
ENDBRANCH  83  84
ENDBRANCH  51  76
BRANCH  63  88
ATOM     88  C   UNL A   1      49.561  26.578  26.431  1.00  0.00     0.058 A 
ATOM     89  C   UNL A   1      50.109  26.718  25.147  1.00  0.00     0.135 A 
ATOM     90  C   UNL A   1      50.370  26.006  27.428  1.00  0.00     0.135 A 
ATOM     91  F   UNL A   1      49.381  27.258  24.156  1.00  0.00    -0.206 F 
ATOM     92  C   UNL A   1      51.390  26.263  24.849  1.00  0.00     0.059 A 
ATOM     93  C   UNL A   1      51.667  25.577  27.161  1.00  0.00     0.059 A 
ATOM     94  F   UNL A   1      49.906  25.864  28.679  1.00  0.00    -0.206 F 
ATOM     95  C   UNL A   1      52.160  25.690  25.862  1.00  0.00     0.060 A 
BRANCH  95  96
ATOM     96  S   UNL A   1      53.817  25.096  25.461  1.00  0.00     0.124 S 
ATOM     97  O   UNL A   1      54.100  25.826  24.230  1.00  0.00    -0.237 OA
ATOM     98  O   UNL A   1      54.587  25.505  26.631  1.00  0.00    -0.237 OA
ATOM     99  O   UNL A   1      53.635  23.656  25.310  1.00  0.00    -0.744 OA
ENDBRANCH  95  96
ENDBRANCH  63  88
ENDBRANCH  37  38
ENDBRANCH  30  32
ENDBRANCH  29  30
ENDBRANCH  28  29
ENDBRANCH  27  28
ENDBRANCH  26  27
ENDBRANCH  25  26
ENDBRANCH  24  25
ENDBRANCH   1  24
TORSDOF 28
ENDMDL
MODEL 2
REMARK VINA RESULT:      -8.7      2.720      8.664
REMARK SMILES CCC[C@@H]([NH2+]Cc1cc(Cl)cs1)C(=O)OCCOCCOCCOCCOC(=O)c1ccc(-c2c3nc(c(-c4c(F)cc(S(=O)(=O)[O-])cc4F)c4ccc([nH]4)c(-c4c(F)cc(S(=O)(=O)[O-])cc4F)c4nc(c(-c5c(F)cc(S(=O)(=O)[O-])cc5F)c5ccc2[nH]5)C=C4)C=C3)cc1
REMARK SMILES IDX 21 1 20 2 19 3 18 4 17 5 16 6 15 7 13 8 14 9 4 10 3 11 2 12
REMARK SMILES IDX 1 13 5 14 6 17 7 18 8 19 12 20 9 21 11 22 10 23 22 24 23 25
REMARK SMILES IDX 24 26 25 27 26 28 27 29 28 30 29 31 30 32 31 33 95 34 32 35
REMARK SMILES IDX 94 36 33 37 34 38 35 39 88 40 36 41 93 42 87 43 89 44 37 45
REMARK SMILES IDX 92 46 86 47 85 48 38 50 72 51 51 52 71 53 52 54 55 55 70 56
REMARK SMILES IDX 90 57 53 58 54 59 69 61 91 62 56 63 39 64 40 65 49 66 41 67
REMARK SMILES IDX 42 68 48 69 50 70 43 71 44 72 45 73 46 74 47 75 73 76 74 77
REMARK SMILES IDX 83 78 75 79 76 80 82 81 84 82 77 83 78 84 79 85 80 86 81 87
REMARK SMILES IDX 57 88 58 89 67 90 59 91 60 92 66 93 68 94 61 95 62 96 63 97
REMARK SMILES IDX 64 98 65 99
REMARK H PARENT 5 15 5 16 89 49 55 60
REMARK Flexibility Score: inf
ROOT
ATOM      1  O   UNL A   1      30.523  27.437  24.722  1.00  0.00    -0.377 OA
ENDROOT
BRANCH   1   2
ATOM      2  C   UNL A   1      31.082  26.200  25.102  1.00  0.00     0.188 C 
BRANCH   2   3
ATOM      3  C   UNL A   1      30.568  24.982  24.327  1.00  0.00     0.188 C 
BRANCH   3   4
ATOM      4  O   UNL A   1      31.001  24.705  23.010  1.00  0.00    -0.376 OA
BRANCH   4   5
ATOM      5  C   UNL A   1      32.162  25.275  22.426  1.00  0.00     0.202 C 
BRANCH   5   6
ATOM      6  C   UNL A   1      33.602  25.160  22.965  1.00  0.00     0.261 C 
BRANCH   6   7
ATOM      7  O   UNL A   1      34.361  23.984  22.656  1.00  0.00    -0.459 OA
BRANCH   7   8
ATOM      8  C   UNL A   1      34.907  23.385  23.736  1.00  0.00     0.364 C 
ATOM      9  O   UNL A   1      36.044  23.641  24.132  1.00  0.00    -0.245 OA
BRANCH   8  10
ATOM     10  C   UNL A   1      33.979  22.404  24.491  1.00  0.00     0.293 C 
BRANCH  10  11
ATOM     11  C   UNL A   1      33.091  22.962  25.630  1.00  0.00     0.077 C 
BRANCH  11  12
ATOM     12  C   UNL A   1      33.132  22.145  26.944  1.00  0.00     0.003 C 
ATOM     13  C   UNL A   1      34.529  21.826  27.468  1.00  0.00     0.004 C 
ENDBRANCH  11  12
ENDBRANCH  10  11
BRANCH  10  14
ATOM     14  N   UNL A   1      33.088  21.657  23.567  1.00  0.00    -0.330 N 
ATOM     15  H   UNL A   1      33.671  21.247  22.838  1.00  0.00     0.347 HD
ATOM     16  H   UNL A   1      32.410  22.342  23.232  1.00  0.00     0.347 HD
BRANCH  14  17
ATOM     17  C   UNL A   1      32.293  20.581  24.159  1.00  0.00     0.309 C 
BRANCH  17  18
ATOM     18  C   UNL A   1      32.868  19.201  23.996  1.00  0.00     0.060 A 
ATOM     19  C   UNL A   1      33.807  18.589  24.809  1.00  0.00     0.041 A 
ATOM     20  S   UNL A   1      32.437  18.189  22.680  1.00  0.00    -0.141 S 
ATOM     21  C   UNL A   1      34.147  17.286  24.362  1.00  0.00     0.052 A 
ATOM     22  C   UNL A   1      33.441  16.924  23.239  1.00  0.00     0.085 A 
ATOM     23  Cl  UNL A   1      35.301  16.305  25.150  1.00  0.00    -0.083 Cl
ENDBRANCH  17  18
ENDBRANCH  14  17
ENDBRANCH  10  14
ENDBRANCH   8  10
ENDBRANCH   7   8
ENDBRANCH   6   7
ENDBRANCH   5   6
ENDBRANCH   4   5
ENDBRANCH   3   4
ENDBRANCH   2   3
ENDBRANCH   1   2
BRANCH   1  24
ATOM     24  C   UNL A   1      31.317  28.347  23.968  1.00  0.00     0.188 C 
BRANCH  24  25
ATOM     25  C   UNL A   1      32.170  29.404  24.697  1.00  0.00     0.188 C 
BRANCH  25  26
ATOM     26  O   UNL A   1      31.627  29.853  25.931  1.00  0.00    -0.376 OA
BRANCH  26  27
ATOM     27  C   UNL A   1      32.069  29.229  27.129  1.00  0.00     0.202 C 
BRANCH  27  28
ATOM     28  C   UNL A   1      33.585  29.186  27.390  1.00  0.00     0.261 C 
BRANCH  28  29
ATOM     29  O   UNL A   1      34.291  30.431  27.250  1.00  0.00    -0.460 OA
BRANCH  29  30
ATOM     30  C   UNL A   1      34.954  30.898  28.325  1.00  0.00     0.338 C 
ATOM     31  O   UNL A   1      34.521  31.660  29.178  1.00  0.00    -0.246 OA
BRANCH  30  32
ATOM     32  C   UNL A   1      36.240  30.182  28.434  1.00  0.00     0.060 A 
ATOM     33  C   UNL A   1      36.599  29.646  29.677  1.00  0.00     0.016 A 
ATOM     34  C   UNL A   1      37.107  30.085  27.342  1.00  0.00     0.016 A 
ATOM     35  C   UNL A   1      37.861  29.087  29.854  1.00  0.00     0.010 A 
ATOM     36  C   UNL A   1      38.381  29.539  27.526  1.00  0.00     0.010 A 
ATOM     37  C   UNL A   1      38.784  29.095  28.799  1.00  0.00    -0.014 A 
BRANCH  37  38
ATOM     38  C   UNL A   1      40.219  28.890  29.115  1.00  0.00     0.031 A 
ATOM     39  C   UNL A   1      40.842  27.565  28.755  1.00  0.00     0.074 A 
ATOM     40  C   UNL A   1      40.975  29.880  29.623  1.00  0.00     0.049 A 
ATOM     41  N   UNL A   1      42.079  27.164  28.885  1.00  0.00    -0.248 NA
ATOM     42  C   UNL A   1      39.945  26.557  28.164  1.00  0.00     0.031 C 
ATOM     43  C   UNL A   1      40.496  31.216  29.972  1.00  0.00     0.029 A 
ATOM     44  N   UNL A   1      42.313  29.910  29.927  1.00  0.00    -0.354 N 
ATOM     45  C   UNL A   1      42.108  25.861  28.397  1.00  0.00     0.074 A 
ATOM     46  C   UNL A   1      40.757  25.523  28.008  1.00  0.00     0.031 C 
ATOM     47  C   UNL A   1      41.528  31.938  30.443  1.00  0.00     0.029 A 
ATOM     48  C   UNL A   1      42.733  31.108  30.452  1.00  0.00     0.049 A 
ATOM     49  H   UNL A   1      42.916  29.146  29.781  1.00  0.00     0.167 HD
ATOM     50  C   UNL A   1      43.167  25.026  28.269  1.00  0.00     0.037 A 
ATOM     51  C   UNL A   1      43.947  31.485  30.899  1.00  0.00     0.037 A 
ATOM     52  C   UNL A   1      44.510  25.368  28.655  1.00  0.00     0.049 A 
ATOM     53  C   UNL A   1      45.100  30.516  30.802  1.00  0.00     0.074 A 
ATOM     54  C   UNL A   1      45.655  24.599  28.556  1.00  0.00     0.029 A 
ATOM     55  N   UNL A   1      44.888  26.577  29.221  1.00  0.00    -0.354 N 
ATOM     56  N   UNL A   1      45.118  29.296  30.318  1.00  0.00    -0.248 NA
ATOM     57  C   UNL A   1      46.402  30.981  31.301  1.00  0.00     0.031 C 
ATOM     58  C   UNL A   1      46.715  25.321  29.117  1.00  0.00     0.029 A 
ATOM     59  C   UNL A   1      46.244  26.566  29.503  1.00  0.00     0.049 A 
ATOM     60  H   UNL A   1      44.281  27.332  29.398  1.00  0.00     0.167 HD
ATOM     61  C   UNL A   1      46.436  28.861  30.427  1.00  0.00     0.074 A 
ATOM     62  C   UNL A   1      47.187  29.956  31.006  1.00  0.00     0.031 C 
ATOM     63  C   UNL A   1      46.978  27.665  30.080  1.00  0.00     0.037 A 
BRANCH  50  64
ATOM     64  C   UNL A   1      42.905  23.650  27.715  1.00  0.00     0.058 A 
ATOM     65  C   UNL A   1      42.451  22.596  28.523  1.00  0.00     0.135 A 
ATOM     66  C   UNL A   1      43.093  23.390  26.347  1.00  0.00     0.135 A 
ATOM     67  F   UNL A   1      42.275  22.779  29.841  1.00  0.00    -0.206 F 
ATOM     68  C   UNL A   1      42.216  21.327  28.001  1.00  0.00     0.059 A 
ATOM     69  C   UNL A   1      42.834  22.139  25.797  1.00  0.00     0.059 A 
ATOM     70  F   UNL A   1      43.531  24.359  25.529  1.00  0.00    -0.206 F 
ATOM     71  C   UNL A   1      42.409  21.108  26.635  1.00  0.00     0.060 A 
BRANCH  71  72
ATOM     72  S   UNL A   1      42.093  19.460  25.972  1.00  0.00     0.124 S 
ATOM     73  O   UNL A   1      40.646  19.495  25.780  1.00  0.00    -0.237 OA
ATOM     74  O   UNL A   1      42.893  19.459  24.750  1.00  0.00    -0.237 OA
ATOM     75  O   UNL A   1      42.564  18.571  27.028  1.00  0.00    -0.744 OA
ENDBRANCH  71  72
ENDBRANCH  50  64
BRANCH  51  76
ATOM     76  C   UNL A   1      44.142  32.841  31.483  1.00  0.00     0.058 A 
ATOM     77  C   UNL A   1      43.939  33.085  32.849  1.00  0.00     0.135 A 
ATOM     78  C   UNL A   1      44.525  33.926  30.677  1.00  0.00     0.135 A 
ATOM     79  F   UNL A   1      43.558  32.086  33.660  1.00  0.00    -0.206 F 
ATOM     80  C   UNL A   1      44.092  34.357  33.394  1.00  0.00     0.059 A 
ATOM     81  C   UNL A   1      44.714  35.199  31.204  1.00  0.00     0.059 A 
ATOM     82  F   UNL A   1      44.740  33.746  29.364  1.00  0.00    -0.206 F 
ATOM     83  C   UNL A   1      44.485  35.408  32.563  1.00  0.00     0.060 A 
BRANCH  83  84
ATOM     84  S   UNL A   1      44.728  37.042  33.290  1.00  0.00     0.124 S 
ATOM     85  O   UNL A   1      45.718  36.762  34.323  1.00  0.00    -0.237 OA
ATOM     86  O   UNL A   1      45.199  37.817  32.146  1.00  0.00    -0.237 OA
ATOM     87  O   UNL A   1      43.396  37.397  33.771  1.00  0.00    -0.744 OA
ENDBRANCH  83  84
ENDBRANCH  51  76
BRANCH  63  88
ATOM     88  C   UNL A   1      48.462  27.493  30.279  1.00  0.00     0.058 A 
ATOM     89  C   UNL A   1      49.003  27.046  31.494  1.00  0.00     0.135 A 
ATOM     90  C   UNL A   1      49.354  27.762  29.227  1.00  0.00     0.135 A 
ATOM     91  F   UNL A   1      48.197  26.774  32.533  1.00  0.00    -0.206 F 
ATOM     92  C   UNL A   1      50.377  26.917  31.675  1.00  0.00     0.059 A 
ATOM     93  C   UNL A   1      50.729  27.606  29.374  1.00  0.00     0.059 A 
ATOM     94  F   UNL A   1      48.893  28.175  28.035  1.00  0.00    -0.206 F 
ATOM     95  C   UNL A   1      51.232  27.204  30.611  1.00  0.00     0.060 A 
BRANCH  95  96
ATOM     96  S   UNL A   1      53.013  27.041  30.861  1.00  0.00     0.124 S 
ATOM     97  O   UNL A   1      53.524  27.328  29.525  1.00  0.00    -0.237 OA
ATOM     98  O   UNL A   1      53.279  28.057  31.874  1.00  0.00    -0.237 OA
ATOM     99  O   UNL A   1      53.168  25.661  31.310  1.00  0.00    -0.744 OA
ENDBRANCH  95  96
ENDBRANCH  63  88
ENDBRANCH  37  38
ENDBRANCH  30  32
ENDBRANCH  29  30
ENDBRANCH  28  29
ENDBRANCH  27  28
ENDBRANCH  26  27
ENDBRANCH  25  26
ENDBRANCH  24  25
ENDBRANCH   1  24
TORSDOF 28
ENDMDL
MODEL 3
REMARK VINA RESULT:      -8.4      5.930     10.344
REMARK SMILES CCC[C@@H]([NH2+]Cc1cc(Cl)cs1)C(=O)OCCOCCOCCOCCOC(=O)c1ccc(-c2c3nc(c(-c4c(F)cc(S(=O)(=O)[O-])cc4F)c4ccc([nH]4)c(-c4c(F)cc(S(=O)(=O)[O-])cc4F)c4nc(c(-c5c(F)cc(S(=O)(=O)[O-])cc5F)c5ccc2[nH]5)C=C4)C=C3)cc1
REMARK SMILES IDX 21 1 20 2 19 3 18 4 17 5 16 6 15 7 13 8 14 9 4 10 3 11 2 12
REMARK SMILES IDX 1 13 5 14 6 17 7 18 8 19 12 20 9 21 11 22 10 23 22 24 23 25
REMARK SMILES IDX 24 26 25 27 26 28 27 29 28 30 29 31 30 32 31 33 95 34 32 35
REMARK SMILES IDX 94 36 33 37 34 38 35 39 88 40 36 41 93 42 87 43 89 44 37 45
REMARK SMILES IDX 92 46 86 47 85 48 38 50 72 51 51 52 71 53 52 54 55 55 70 56
REMARK SMILES IDX 90 57 53 58 54 59 69 61 91 62 56 63 39 64 40 65 49 66 41 67
REMARK SMILES IDX 42 68 48 69 50 70 43 71 44 72 45 73 46 74 47 75 73 76 74 77
REMARK SMILES IDX 83 78 75 79 76 80 82 81 84 82 77 83 78 84 79 85 80 86 81 87
REMARK SMILES IDX 57 88 58 89 67 90 59 91 60 92 66 93 68 94 61 95 62 96 63 97
REMARK SMILES IDX 64 98 65 99
REMARK H PARENT 5 15 5 16 89 49 55 60
REMARK Flexibility Score: inf
ROOT
ATOM      1  O   UNL A   1      31.994  26.672  26.535  1.00  0.00    -0.377 OA
ENDROOT
BRANCH   1   2
ATOM      2  C   UNL A   1      31.462  25.489  25.981  1.00  0.00     0.188 C 
BRANCH   2   3
ATOM      3  C   UNL A   1      30.256  25.685  25.055  1.00  0.00     0.188 C 
BRANCH   3   4
ATOM      4  O   UNL A   1      29.851  26.970  24.626  1.00  0.00    -0.376 OA
BRANCH   4   5
ATOM      5  C   UNL A   1      30.052  27.461  23.310  1.00  0.00     0.202 C 
BRANCH   5   6
ATOM      6  C   UNL A   1      31.293  27.218  22.428  1.00  0.00     0.261 C 
BRANCH   6   7
ATOM      7  O   UNL A   1      31.511  25.906  21.893  1.00  0.00    -0.459 OA
BRANCH   7   8
ATOM      8  C   UNL A   1      32.803  25.512  21.919  1.00  0.00     0.364 C 
ATOM      9  O   UNL A   1      33.689  26.100  21.298  1.00  0.00    -0.245 OA
BRANCH   8  10
ATOM     10  C   UNL A   1      33.113  24.310  22.843  1.00  0.00     0.293 C 
BRANCH  10  11
ATOM     11  C   UNL A   1      33.046  22.885  22.242  1.00  0.00     0.077 C 
BRANCH  11  12
ATOM     12  C   UNL A   1      32.216  21.872  23.066  1.00  0.00     0.003 C 
ATOM     13  C   UNL A   1      32.122  20.471  22.471  1.00  0.00     0.004 C 
ENDBRANCH  11  12
ENDBRANCH  10  11
BRANCH  10  14
ATOM     14  N   UNL A   1      34.435  24.444  23.505  1.00  0.00    -0.330 N 
ATOM     15  H   UNL A   1      34.670  25.436  23.532  1.00  0.00     0.347 HD
ATOM     16  H   UNL A   1      35.075  23.874  22.952  1.00  0.00     0.347 HD
BRANCH  14  17
ATOM     17  C   UNL A   1      34.534  23.927  24.870  1.00  0.00     0.309 C 
BRANCH  17  18
ATOM     18  C   UNL A   1      35.673  22.975  25.110  1.00  0.00     0.060 A 
ATOM     19  C   UNL A   1      36.947  23.296  25.547  1.00  0.00     0.041 A 
ATOM     20  S   UNL A   1      35.530  21.294  24.803  1.00  0.00    -0.141 S 
ATOM     21  C   UNL A   1      37.789  22.157  25.652  1.00  0.00     0.052 A 
ATOM     22  C   UNL A   1      37.131  20.997  25.322  1.00  0.00     0.085 A 
ATOM     23  Cl  UNL A   1      39.423  22.252  26.138  1.00  0.00    -0.083 Cl
ENDBRANCH  17  18
ENDBRANCH  14  17
ENDBRANCH  10  14
ENDBRANCH   8  10
ENDBRANCH   7   8
ENDBRANCH   6   7
ENDBRANCH   5   6
ENDBRANCH   4   5
ENDBRANCH   3   4
ENDBRANCH   2   3
ENDBRANCH   1   2
BRANCH   1  24
ATOM     24  C   UNL A   1      33.300  27.085  26.149  1.00  0.00     0.188 C 
BRANCH  24  25
ATOM     25  C   UNL A   1      33.472  28.151  25.048  1.00  0.00     0.188 C 
BRANCH  25  26
ATOM     26  O   UNL A   1      33.984  29.394  25.505  1.00  0.00    -0.376 OA
BRANCH  26  27
ATOM     27  C   UNL A   1      33.328  30.037  26.590  1.00  0.00     0.202 C 
BRANCH  27  28
ATOM     28  C   UNL A   1      34.097  31.148  27.325  1.00  0.00     0.261 C 
BRANCH  28  29
ATOM     29  O   UNL A   1      33.315  32.016  28.164  1.00  0.00    -0.460 OA
BRANCH  29  30
ATOM     30  C   UNL A   1      33.739  33.284  28.321  1.00  0.00     0.338 C 
ATOM     31  O   UNL A   1      33.246  34.287  27.823  1.00  0.00    -0.246 OA
BRANCH  30  32
ATOM     32  C   UNL A   1      34.784  33.307  29.363  1.00  0.00     0.060 A 
ATOM     33  C   UNL A   1      35.944  34.055  29.123  1.00  0.00     0.016 A 
ATOM     34  C   UNL A   1      34.650  32.562  30.537  1.00  0.00     0.016 A 
ATOM     35  C   UNL A   1      37.008  33.992  30.018  1.00  0.00     0.010 A 
ATOM     36  C   UNL A   1      35.726  32.486  31.426  1.00  0.00     0.010 A 
ATOM     37  C   UNL A   1      36.932  33.151  31.137  1.00  0.00    -0.014 A 
BRANCH  37  38
ATOM     38  C   UNL A   1      38.192  32.779  31.827  1.00  0.00     0.031 A 
ATOM     39  C   UNL A   1      39.156  31.876  31.102  1.00  0.00     0.074 A 
ATOM     40  C   UNL A   1      38.516  33.298  33.025  1.00  0.00     0.049 A 
ATOM     41  N   UNL A   1      40.336  31.449  31.471  1.00  0.00    -0.248 NA
ATOM     42  C   UNL A   1      38.733  31.390  29.778  1.00  0.00     0.031 C 
ATOM     43  C   UNL A   1      37.685  34.215  33.803  1.00  0.00     0.029 A 
ATOM     44  N   UNL A   1      39.642  33.129  33.791  1.00  0.00    -0.354 N 
ATOM     45  C   UNL A   1      40.791  30.646  30.431  1.00  0.00     0.074 A 
ATOM     46  C   UNL A   1      39.745  30.610  29.434  1.00  0.00     0.031 C 
ATOM     47  C   UNL A   1      38.332  34.528  34.940  1.00  0.00     0.029 A 
ATOM     48  C   UNL A   1      39.609  33.816  34.980  1.00  0.00     0.049 A 
ATOM     49  H   UNL A   1      40.403  32.569  33.514  1.00  0.00     0.167 HD
ATOM     50  C   UNL A   1      41.981  30.009  30.308  1.00  0.00     0.037 A 
ATOM     51  C   UNL A   1      40.502  33.855  35.988  1.00  0.00     0.037 A 
ATOM     52  C   UNL A   1      43.020  30.052  31.302  1.00  0.00     0.049 A 
ATOM     53  C   UNL A   1      41.795  33.089  35.856  1.00  0.00     0.074 A 
ATOM     54  C   UNL A   1      44.266  29.452  31.270  1.00  0.00     0.029 A 
ATOM     55  N   UNL A   1      42.932  30.726  32.512  1.00  0.00    -0.354 N 
ATOM     56  N   UNL A   1      42.223  32.352  34.856  1.00  0.00    -0.248 NA
ATOM     57  C   UNL A   1      42.733  33.170  36.984  1.00  0.00     0.031 C 
ATOM     58  C   UNL A   1      44.908  29.715  32.485  1.00  0.00     0.029 A 
ATOM     59  C   UNL A   1      44.091  30.535  33.246  1.00  0.00     0.049 A 
ATOM     60  H   UNL A   1      42.159  31.261  32.805  1.00  0.00     0.167 HD
ATOM     61  C   UNL A   1      43.490  31.908  35.224  1.00  0.00     0.074 A 
ATOM     62  C   UNL A   1      43.765  32.475  36.528  1.00  0.00     0.031 C 
ATOM     63  C   UNL A   1      44.350  31.106  34.545  1.00  0.00     0.037 A 
BRANCH  50  64
ATOM     64  C   UNL A   1      42.206  29.189  29.065  1.00  0.00     0.058 A 
ATOM     65  C   UNL A   1      42.863  29.709  27.938  1.00  0.00     0.135 A 
ATOM     66  C   UNL A   1      41.774  27.854  29.010  1.00  0.00     0.135 A 
ATOM     67  F   UNL A   1      43.277  30.986  27.925  1.00  0.00    -0.206 F 
ATOM     68  C   UNL A   1      43.062  28.943  26.793  1.00  0.00     0.059 A 
ATOM     69  C   UNL A   1      41.990  27.059  27.889  1.00  0.00     0.059 A 
ATOM     70  F   UNL A   1      41.135  27.306  30.056  1.00  0.00    -0.206 F 
ATOM     71  C   UNL A   1      42.623  27.617  26.779  1.00  0.00     0.060 A 
BRANCH  71  72
ATOM     72  S   UNL A   1      42.896  26.635  25.290  1.00  0.00     0.124 S 
ATOM     73  O   UNL A   1      44.195  26.030  25.573  1.00  0.00    -0.237 OA
ATOM     74  O   UNL A   1      41.757  25.722  25.308  1.00  0.00    -0.237 OA
ATOM     75  O   UNL A   1      42.886  27.626  24.220  1.00  0.00    -0.744 OA
ENDBRANCH  71  72
ENDBRANCH  50  64
BRANCH  51  76
ATOM     76  C   UNL A   1      40.209  34.644  37.217  1.00  0.00     0.058 A 
ATOM     77  C   UNL A   1      40.663  35.963  37.366  1.00  0.00     0.135 A 
ATOM     78  C   UNL A   1      39.474  34.086  38.276  1.00  0.00     0.135 A 
ATOM     79  F   UNL A   1      41.383  36.538  36.390  1.00  0.00    -0.206 F 
ATOM     80  C   UNL A   1      40.417  36.694  38.524  1.00  0.00     0.059 A 
ATOM     81  C   UNL A   1      39.188  34.807  39.430  1.00  0.00     0.059 A 
ATOM     82  F   UNL A   1      39.008  32.830  38.183  1.00  0.00    -0.206 F 
ATOM     83  C   UNL A   1      39.672  36.108  39.550  1.00  0.00     0.060 A 
BRANCH  83  84
ATOM     84  S   UNL A   1      39.316  37.083  41.027  1.00  0.00     0.124 S 
ATOM     85  O   UNL A   1      38.553  38.194  40.470  1.00  0.00    -0.237 OA
ATOM     86  O   UNL A   1      38.563  36.136  41.843  1.00  0.00    -0.237 OA
ATOM     87  O   UNL A   1      40.642  37.420  41.535  1.00  0.00    -0.744 OA
ENDBRANCH  83  84
ENDBRANCH  51  76
BRANCH  63  88
ATOM     88  C   UNL A   1      45.687  30.826  35.183  1.00  0.00     0.058 A 
ATOM     89  C   UNL A   1      46.798  31.657  34.976  1.00  0.00     0.135 A 
ATOM     90  C   UNL A   1      45.848  29.719  36.034  1.00  0.00     0.135 A 
ATOM     91  F   UNL A   1      46.701  32.730  34.173  1.00  0.00    -0.206 F 
ATOM     92  C   UNL A   1      48.035  31.374  35.548  1.00  0.00     0.059 A 
ATOM     93  C   UNL A   1      47.066  29.437  36.645  1.00  0.00     0.059 A 
ATOM     94  F   UNL A   1      44.815  28.900  36.283  1.00  0.00    -0.206 F 
ATOM     95  C   UNL A   1      48.160  30.260  36.378  1.00  0.00     0.060 A 
BRANCH  95  96
ATOM     96  S   UNL A   1      49.771  29.898  37.108  1.00  0.00     0.124 S 
ATOM     97  O   UNL A   1      50.642  29.955  35.939  1.00  0.00    -0.237 OA
ATOM     98  O   UNL A   1      49.928  30.985  38.070  1.00  0.00    -0.237 OA
ATOM     99  O   UNL A   1      49.590  28.574  37.693  1.00  0.00    -0.744 OA
ENDBRANCH  95  96
ENDBRANCH  63  88
ENDBRANCH  37  38
ENDBRANCH  30  32
ENDBRANCH  29  30
ENDBRANCH  28  29
ENDBRANCH  27  28
ENDBRANCH  26  27
ENDBRANCH  25  26
ENDBRANCH  24  25
ENDBRANCH   1  24
TORSDOF 28
ENDMDL
