MODEL 1
REMARK VINA RESULT:      -7.6      0.000      0.000
REMARK SMILES COc1cccc(C(=O)Nc2ccc(NC(=O)[C@@H]3[C@@H](C(=O)OCCOCCOCCOCCOC(=O)c4ccc(-c5c6nc(c(-c7c(F)cc(S(=O)(=O)[O-])cc7F)c7ccc([nH]7)c(-c7c(F)cc(S(=O)(=O)[O-])cc7F)c7nc(c(-c8c(F)cc(S(=O)(=O)[O-])cc8F)c8ccc5[nH]8)C=C7)C=C6)cc4)[C@@H]4C=C[C@H]3C4)cc2)c1
REMARK SMILES IDX 27 1 26 2 25 3 24 4 23 5 22 6 20 7 21 8 19 9 18 10 106 11
REMARK SMILES IDX 103 12 105 13 107 14 104 15 16 16 15 17 17 19 14 20 11 21
REMARK SMILES IDX 12 22 109 23 13 24 108 25 10 26 8 27 9 28 7 30 3 31 4 32
REMARK SMILES IDX 110 33 5 34 6 35 2 36 1 37 28 38 29 39 30 40 31 41 32 42
REMARK SMILES IDX 33 43 34 44 35 45 36 46 37 47 38 48 102 49 39 50 101 51
REMARK SMILES IDX 40 52 41 53 42 54 95 55 43 56 100 57 94 58 96 59 44 60 99 61
REMARK SMILES IDX 93 62 92 63 45 65 79 66 58 67 78 68 59 69 62 70 77 71 97 72
REMARK SMILES IDX 60 73 61 74 76 76 98 77 63 78 46 79 47 80 56 81 48 82 49 83
REMARK SMILES IDX 55 84 57 85 50 86 51 87 52 88 53 89 54 90 80 91 81 92 90 93
REMARK SMILES IDX 82 94 83 95 89 96 91 97 84 98 85 99 86 100 87 101 88 102
REMARK SMILES IDX 64 103 65 104 74 105 66 106 67 107 73 108 75 109 68 110
REMARK SMILES IDX 69 111 70 112 71 113 72 114
REMARK H PARENT 15 18 10 29 96 64 62 75
REMARK Flexibility Score: inf
ROOT
ATOM      1  C   UNL A   1      46.321  23.684  25.746  1.00  0.00     0.188 C 
ENDROOT
BRANCH   1   2
ATOM      2  C   UNL A   1      46.992  24.717  26.672  1.00  0.00     0.188 C 
BRANCH   2   3
ATOM      3  O   UNL A   1      47.111  24.295  28.008  1.00  0.00    -0.376 OA
BRANCH   3   4
ATOM      4  C   UNL A   1      46.047  24.486  28.917  1.00  0.00     0.202 C 
BRANCH   4   5
ATOM      5  C   UNL A   1      46.112  25.428  30.133  1.00  0.00     0.261 C 
BRANCH   5   6
ATOM      6  O   UNL A   1      44.942  25.588  30.957  1.00  0.00    -0.463 OA
BRANCH   6   7
ATOM      7  C   UNL A   1      44.711  24.681  31.930  1.00  0.00     0.310 C 
ATOM      8  O   UNL A   1      44.331  23.538  31.706  1.00  0.00    -0.252 OA
BRANCH   7   9
ATOM      9  C   UNL A   1      45.004  25.181  33.342  1.00  0.00     0.119 C 
ATOM     10  C   UNL A   1      44.250  26.427  33.872  1.00  0.00     0.100 C 
ATOM     11  C   UNL A   1      45.263  27.017  34.904  1.00  0.00     0.025 C 
ATOM     12  C   UNL A   1      46.472  25.523  33.741  1.00  0.00     0.027 C 
ATOM     13  C   UNL A   1      45.819  26.009  35.887  1.00  0.00    -0.027 C 
ATOM     14  C   UNL A   1      46.487  27.054  33.982  1.00  0.00     0.017 C 
ATOM     15  C   UNL A   1      46.580  25.141  35.202  1.00  0.00    -0.027 C 
BRANCH  10  16
ATOM     16  C   UNL A   1      42.905  26.016  34.396  1.00  0.00     0.228 C 
ATOM     17  N   UNL A   1      41.826  26.854  34.367  1.00  0.00    -0.326 N 
ATOM     18  H   UNL A   1      40.971  26.368  34.416  1.00  0.00     0.169 HD
ATOM     19  O   UNL A   1      42.711  24.871  34.817  1.00  0.00    -0.274 OA
BRANCH  17  20
ATOM     20  C   UNL A   1      41.644  28.255  34.284  1.00  0.00     0.041 A 
ATOM     21  C   UNL A   1      42.098  31.021  34.237  1.00  0.00     0.041 A 
ATOM     22  C   UNL A   1      41.587  30.389  33.116  1.00  0.00     0.028 A 
ATOM     23  C   UNL A   1      42.146  30.336  35.446  1.00  0.00     0.028 A 
ATOM     24  C   UNL A   1      41.401  29.006  33.136  1.00  0.00     0.028 A 
ATOM     25  C   UNL A   1      41.896  28.959  35.471  1.00  0.00     0.028 A 
BRANCH  21  26
ATOM     26  N   UNL A   1      42.680  32.272  34.032  1.00  0.00    -0.322 N 
ATOM     27  C   UNL A   1      42.199  33.527  34.348  1.00  0.00     0.255 C 
ATOM     28  O   UNL A   1      42.908  34.503  34.104  1.00  0.00    -0.269 OA
ATOM     29  H   UNL A   1      43.564  32.258  33.600  1.00  0.00     0.170 HD
BRANCH  27  30
ATOM     30  C   UNL A   1      40.912  33.756  35.067  1.00  0.00     0.043 A 
ATOM     31  C   UNL A   1      39.427  33.560  36.986  1.00  0.00     0.119 A 
ATOM     32  C   UNL A   1      38.428  34.206  36.255  1.00  0.00     0.046 A 
ATOM     33  C   UNL A   1      40.689  33.402  36.411  1.00  0.00     0.060 A 
ATOM     34  C   UNL A   1      38.672  34.669  34.962  1.00  0.00     0.005 A 
ATOM     35  C   UNL A   1      39.907  34.430  34.363  1.00  0.00     0.014 A 
BRANCH  31  36
ATOM     36  O   UNL A   1      39.021  33.139  38.221  1.00  0.00    -0.497 OA
ATOM     37  C   UNL A   1      37.692  32.676  38.410  1.00  0.00     0.278 C 
ENDBRANCH  31  36
ENDBRANCH  27  30
ENDBRANCH  21  26
ENDBRANCH  17  20
ENDBRANCH  10  16
ENDBRANCH   7   9
ENDBRANCH   6   7
ENDBRANCH   5   6
ENDBRANCH   4   5
ENDBRANCH   3   4
ENDBRANCH   2   3
ENDBRANCH   1   2
BRANCH   1  38
ATOM     38  O   UNL A   1      45.857  22.411  26.165  1.00  0.00    -0.377 OA
BRANCH  38  39
ATOM     39  C   UNL A   1      45.776  21.364  25.220  1.00  0.00     0.188 C 
BRANCH  39  40
ATOM     40  C   UNL A   1      44.407  21.158  24.553  1.00  0.00     0.188 C 
BRANCH  40  41
ATOM     41  O   UNL A   1      43.709  20.013  25.022  1.00  0.00    -0.376 OA
BRANCH  41  42
ATOM     42  C   UNL A   1      42.651  20.195  25.950  1.00  0.00     0.202 C 
BRANCH  42  43
ATOM     43  C   UNL A   1      41.970  21.569  26.082  1.00  0.00     0.261 C 
BRANCH  43  44
ATOM     44  O   UNL A   1      40.873  21.670  26.996  1.00  0.00    -0.460 OA
BRANCH  44  45
ATOM     45  C   UNL A   1      39.829  22.446  26.640  1.00  0.00     0.338 C 
ATOM     46  O   UNL A   1      38.780  22.085  26.132  1.00  0.00    -0.246 OA
BRANCH  45  47
ATOM     47  C   UNL A   1      40.109  23.800  27.154  1.00  0.00     0.060 A 
ATOM     48  C   UNL A   1      39.658  24.912  26.431  1.00  0.00     0.016 A 
ATOM     49  C   UNL A   1      40.776  23.964  28.370  1.00  0.00     0.016 A 
ATOM     50  C   UNL A   1      39.888  26.197  26.917  1.00  0.00     0.010 A 
ATOM     51  C   UNL A   1      41.039  25.253  28.837  1.00  0.00     0.010 A 
ATOM     52  C   UNL A   1      40.620  26.372  28.097  1.00  0.00    -0.014 A 
BRANCH  52  53
ATOM     53  C   UNL A   1      41.160  27.712  28.421  1.00  0.00     0.031 A 
ATOM     54  C   UNL A   1      42.630  27.941  28.198  1.00  0.00     0.074 A 
ATOM     55  C   UNL A   1      40.367  28.703  28.866  1.00  0.00     0.049 A 
ATOM     56  N   UNL A   1      43.356  28.996  28.454  1.00  0.00    -0.248 NA
ATOM     57  C   UNL A   1      43.382  26.822  27.603  1.00  0.00     0.031 C 
ATOM     58  C   UNL A   1      38.922  28.609  29.062  1.00  0.00     0.029 A 
ATOM     59  N   UNL A   1      40.676  29.986  29.240  1.00  0.00    -0.354 N 
ATOM     60  C   UNL A   1      44.646  28.668  28.053  1.00  0.00     0.074 A 
ATOM     61  C   UNL A   1      44.613  27.306  27.573  1.00  0.00     0.031 C 
ATOM     62  C   UNL A   1      38.470  29.784  29.537  1.00  0.00     0.029 A 
ATOM     63  C   UNL A   1      39.597  30.699  29.710  1.00  0.00     0.049 A 
ATOM     64  H   UNL A   1      41.584  30.362  29.178  1.00  0.00     0.167 HD
ATOM     65  C   UNL A   1      45.757  29.441  28.073  1.00  0.00     0.037 A 
ATOM     66  C   UNL A   1      39.542  31.936  30.241  1.00  0.00     0.037 A 
ATOM     67  C   UNL A   1      45.778  30.791  28.568  1.00  0.00     0.049 A 
ATOM     68  C   UNL A   1      40.814  32.743  30.348  1.00  0.00     0.074 A 
ATOM     69  C   UNL A   1      46.850  31.661  28.649  1.00  0.00     0.029 A 
ATOM     70  N   UNL A   1      44.674  31.467  29.071  1.00  0.00    -0.354 N 
ATOM     71  N   UNL A   1      42.028  32.429  29.960  1.00  0.00    -0.248 NA
ATOM     72  C   UNL A   1      40.708  34.075  30.962  1.00  0.00     0.031 C 
ATOM     73  C   UNL A   1      46.406  32.843  29.250  1.00  0.00     0.029 A 
ATOM     74  C   UNL A   1      45.045  32.735  29.484  1.00  0.00     0.049 A 
ATOM     75  H   UNL A   1      43.763  31.097  29.126  1.00  0.00     0.167 HD
ATOM     76  C   UNL A   1      42.821  33.537  30.248  1.00  0.00     0.074 A 
ATOM     77  C   UNL A   1      41.946  34.531  30.833  1.00  0.00     0.031 C 
ATOM     78  C   UNL A   1      44.151  33.718  30.044  1.00  0.00     0.037 A 
BRANCH  65  79
ATOM     79  C   UNL A   1      47.037  28.833  27.572  1.00  0.00     0.058 A 
ATOM     80  C   UNL A   1      47.389  28.871  26.212  1.00  0.00     0.135 A 
ATOM     81  C   UNL A   1      47.934  28.224  28.462  1.00  0.00     0.135 A 
ATOM     82  F   UNL A   1      46.556  29.417  25.312  1.00  0.00    -0.206 F 
ATOM     83  C   UNL A   1      48.575  28.308  25.752  1.00  0.00     0.059 A 
ATOM     84  C   UNL A   1      49.140  27.681  28.029  1.00  0.00     0.059 A 
ATOM     85  F   UNL A   1      47.643  28.151  29.771  1.00  0.00    -0.206 F 
ATOM     86  C   UNL A   1      49.446  27.718  26.669  1.00  0.00     0.060 A 
BRANCH  86  87
ATOM     87  S   UNL A   1      50.987  27.004  26.056  1.00  0.00     0.124 S 
ATOM     88  O   UNL A   1      50.599  25.612  25.845  1.00  0.00    -0.237 OA
ATOM     89  O   UNL A   1      51.230  27.784  24.847  1.00  0.00    -0.237 OA
ATOM     90  O   UNL A   1      51.927  27.234  27.148  1.00  0.00    -0.744 OA
ENDBRANCH  86  87
ENDBRANCH  65  79
BRANCH  66  91
ATOM     91  C   UNL A   1      38.248  32.492  30.729  1.00  0.00     0.058 A 
ATOM     92  C   UNL A   1      37.846  32.331  32.064  1.00  0.00     0.135 A 
ATOM     93  C   UNL A   1      37.373  33.170  29.865  1.00  0.00     0.135 A 
ATOM     94  F   UNL A   1      38.640  31.681  32.929  1.00  0.00    -0.206 F 
ATOM     95  C   UNL A   1      36.617  32.799  32.517  1.00  0.00     0.059 A 
ATOM     96  C   UNL A   1      36.152  33.676  30.302  1.00  0.00     0.059 A 
ATOM     97  F   UNL A   1      37.715  33.355  28.581  1.00  0.00    -0.206 F 
ATOM     98  C   UNL A   1      35.776  33.473  31.629  1.00  0.00     0.060 A 
BRANCH  98  99
ATOM     99  S   UNL A   1      34.198  34.097  32.250  1.00  0.00     0.124 S 
ATOM    100  O   UNL A   1      33.525  34.480  31.013  1.00  0.00    -0.237 OA
ATOM    101  O   UNL A   1      33.656  32.926  32.932  1.00  0.00    -0.237 OA
ATOM    102  O   UNL A   1      34.582  35.198  33.127  1.00  0.00    -0.744 OA
ENDBRANCH  98  99
ENDBRANCH  66  91
BRANCH  78 103
ATOM    103  C   UNL A   1      44.735  35.060  30.401  1.00  0.00     0.058 A 
ATOM    104  C   UNL A   1      44.597  36.177  29.565  1.00  0.00     0.135 A 
ATOM    105  C   UNL A   1      45.388  35.239  31.633  1.00  0.00     0.135 A 
ATOM    106  F   UNL A   1      43.985  36.062  28.376  1.00  0.00    -0.206 F 
ATOM    107  C   UNL A   1      45.107  37.421  29.926  1.00  0.00     0.059 A 
ATOM    108  C   UNL A   1      45.876  36.480  32.028  1.00  0.00     0.059 A 
ATOM    109  F   UNL A   1      45.536  34.205  32.477  1.00  0.00    -0.206 F 
ATOM    110  C   UNL A   1      45.740  37.564  31.162  1.00  0.00     0.060 A 
BRANCH 110 111
ATOM    111  S   UNL A   1      46.362  39.191  31.634  1.00  0.00     0.124 S 
ATOM    112  O   UNL A   1      45.133  39.870  32.036  1.00  0.00    -0.237 OA
ATOM    113  O   UNL A   1      47.289  38.868  32.714  1.00  0.00    -0.237 OA
ATOM    114  O   UNL A   1      46.982  39.688  30.410  1.00  0.00    -0.744 OA
ENDBRANCH 110 111
ENDBRANCH  78 103
ENDBRANCH  52  53
ENDBRANCH  45  47
ENDBRANCH  44  45
ENDBRANCH  43  44
ENDBRANCH  42  43
ENDBRANCH  41  42
ENDBRANCH  40  41
ENDBRANCH  39  40
ENDBRANCH  38  39
ENDBRANCH   1  38
TORSDOF 28
ENDMDL
MODEL 2
REMARK VINA RESULT:      -6.7      3.314      6.811
REMARK SMILES COc1cccc(C(=O)Nc2ccc(NC(=O)[C@@H]3[C@@H](C(=O)OCCOCCOCCOCCOC(=O)c4ccc(-c5c6nc(c(-c7c(F)cc(S(=O)(=O)[O-])cc7F)c7ccc([nH]7)c(-c7c(F)cc(S(=O)(=O)[O-])cc7F)c7nc(c(-c8c(F)cc(S(=O)(=O)[O-])cc8F)c8ccc5[nH]8)C=C7)C=C6)cc4)[C@@H]4C=C[C@H]3C4)cc2)c1
REMARK SMILES IDX 27 1 26 2 25 3 24 4 23 5 22 6 20 7 21 8 19 9 18 10 106 11
REMARK SMILES IDX 103 12 105 13 107 14 104 15 16 16 15 17 17 19 14 20 11 21
REMARK SMILES IDX 12 22 109 23 13 24 108 25 10 26 8 27 9 28 7 30 3 31 4 32
REMARK SMILES IDX 110 33 5 34 6 35 2 36 1 37 28 38 29 39 30 40 31 41 32 42
REMARK SMILES IDX 33 43 34 44 35 45 36 46 37 47 38 48 102 49 39 50 101 51
REMARK SMILES IDX 40 52 41 53 42 54 95 55 43 56 100 57 94 58 96 59 44 60 99 61
REMARK SMILES IDX 93 62 92 63 45 65 79 66 58 67 78 68 59 69 62 70 77 71 97 72
REMARK SMILES IDX 60 73 61 74 76 76 98 77 63 78 46 79 47 80 56 81 48 82 49 83
REMARK SMILES IDX 55 84 57 85 50 86 51 87 52 88 53 89 54 90 80 91 81 92 90 93
REMARK SMILES IDX 82 94 83 95 89 96 91 97 84 98 85 99 86 100 87 101 88 102
REMARK SMILES IDX 64 103 65 104 74 105 66 106 67 107 73 108 75 109 68 110
REMARK SMILES IDX 69 111 70 112 71 113 72 114
REMARK H PARENT 15 18 10 29 96 64 62 75
REMARK Flexibility Score: inf
ROOT
ATOM      1  C   UNL A   1      46.541  23.909  25.756  1.00  0.00     0.188 C 
ENDROOT
BRANCH   1   2
ATOM      2  C   UNL A   1      47.531  24.763  26.571  1.00  0.00     0.188 C 
BRANCH   2   3
ATOM      3  O   UNL A   1      47.574  24.440  27.939  1.00  0.00    -0.376 OA
BRANCH   3   4
ATOM      4  C   UNL A   1      46.494  24.767  28.786  1.00  0.00     0.202 C 
BRANCH   4   5
ATOM      5  C   UNL A   1      46.650  25.157  30.268  1.00  0.00     0.261 C 
BRANCH   5   6
ATOM      6  O   UNL A   1      45.473  25.469  31.036  1.00  0.00    -0.463 OA
BRANCH   6   7
ATOM      7  C   UNL A   1      44.794  24.456  31.616  1.00  0.00     0.310 C 
ATOM      8  O   UNL A   1      44.203  23.592  30.978  1.00  0.00    -0.252 OA
BRANCH   7   9
ATOM      9  C   UNL A   1      44.857  24.444  33.141  1.00  0.00     0.119 C 
ATOM     10  C   UNL A   1      45.926  23.571  33.845  1.00  0.00     0.100 C 
ATOM     11  C   UNL A   1      45.247  23.248  35.213  1.00  0.00     0.025 C 
ATOM     12  C   UNL A   1      43.579  24.072  33.954  1.00  0.00     0.027 C 
ATOM     13  C   UNL A   1      44.677  24.452  35.933  1.00  0.00    -0.027 C 
ATOM     14  C   UNL A   1      43.915  22.732  34.657  1.00  0.00     0.017 C 
ATOM     15  C   UNL A   1      43.650  24.920  35.206  1.00  0.00    -0.027 C 
BRANCH  10  16
ATOM     16  C   UNL A   1      47.231  24.311  33.889  1.00  0.00     0.228 C 
ATOM     17  N   UNL A   1      48.426  23.670  34.052  1.00  0.00    -0.326 N 
ATOM     18  H   UNL A   1      49.188  24.205  33.731  1.00  0.00     0.169 HD
ATOM     19  O   UNL A   1      47.273  25.533  33.714  1.00  0.00    -0.274 OA
BRANCH  17  20
ATOM     20  C   UNL A   1      48.831  22.419  34.574  1.00  0.00     0.041 A 
ATOM     21  C   UNL A   1      50.298  20.101  35.156  1.00  0.00     0.041 A 
ATOM     22  C   UNL A   1      49.966  20.978  36.174  1.00  0.00     0.028 A 
ATOM     23  C   UNL A   1      49.697  20.241  33.909  1.00  0.00     0.028 A 
ATOM     24  C   UNL A   1      49.269  22.148  35.869  1.00  0.00     0.028 A 
ATOM     25  C   UNL A   1      48.945  21.388  33.629  1.00  0.00     0.028 A 
BRANCH  21  26
ATOM     26  N   UNL A   1      51.348  19.219  35.415  1.00  0.00    -0.322 N 
ATOM     27  C   UNL A   1      52.694  19.352  35.139  1.00  0.00     0.255 C 
ATOM     28  O   UNL A   1      53.454  18.452  35.493  1.00  0.00    -0.269 OA
ATOM     29  H   UNL A   1      51.091  18.380  35.860  1.00  0.00     0.170 HD
BRANCH  27  30
ATOM     30  C   UNL A   1      53.291  20.577  34.530  1.00  0.00     0.043 A 
ATOM     31  C   UNL A   1      54.568  22.647  34.616  1.00  0.00     0.119 A 
ATOM     32  C   UNL A   1      54.289  22.852  33.263  1.00  0.00     0.046 A 
ATOM     33  C   UNL A   1      54.126  21.471  35.225  1.00  0.00     0.060 A 
ATOM     34  C   UNL A   1      53.563  21.913  32.531  1.00  0.00     0.005 A 
ATOM     35  C   UNL A   1      53.050  20.785  33.168  1.00  0.00     0.014 A 
BRANCH  31  36
ATOM     36  O   UNL A   1      55.260  23.672  35.197  1.00  0.00    -0.497 OA
ATOM     37  C   UNL A   1      55.654  23.580  36.558  1.00  0.00     0.278 C 
ENDBRANCH  31  36
ENDBRANCH  27  30
ENDBRANCH  21  26
ENDBRANCH  17  20
ENDBRANCH  10  16
ENDBRANCH   7   9
ENDBRANCH   6   7
ENDBRANCH   5   6
ENDBRANCH   4   5
ENDBRANCH   3   4
ENDBRANCH   2   3
ENDBRANCH   1   2
BRANCH   1  38
ATOM     38  O   UNL A   1      46.130  22.598  26.109  1.00  0.00    -0.377 OA
BRANCH  38  39
ATOM     39  C   UNL A   1      46.130  21.588  25.121  1.00  0.00     0.188 C 
BRANCH  39  40
ATOM     40  C   UNL A   1      44.780  21.300  24.446  1.00  0.00     0.188 C 
BRANCH  40  41
ATOM     41  O   UNL A   1      44.178  20.085  24.868  1.00  0.00    -0.376 OA
BRANCH  41  42
ATOM     42  C   UNL A   1      43.092  20.145  25.779  1.00  0.00     0.202 C 
BRANCH  42  43
ATOM     43  C   UNL A   1      42.324  21.465  25.976  1.00  0.00     0.261 C 
BRANCH  43  44
ATOM     44  O   UNL A   1      41.187  21.437  26.845  1.00  0.00    -0.460 OA
BRANCH  44  45
ATOM     45  C   UNL A   1      40.132  22.213  26.524  1.00  0.00     0.338 C 
ATOM     46  O   UNL A   1      39.081  21.858  26.017  1.00  0.00    -0.246 OA
BRANCH  45  47
ATOM     47  C   UNL A   1      40.404  23.553  27.078  1.00  0.00     0.060 A 
ATOM     48  C   UNL A   1      39.890  24.680  26.423  1.00  0.00     0.016 A 
ATOM     49  C   UNL A   1      41.129  23.688  28.265  1.00  0.00     0.016 A 
ATOM     50  C   UNL A   1      40.113  25.951  26.948  1.00  0.00     0.010 A 
ATOM     51  C   UNL A   1      41.383  24.964  28.769  1.00  0.00     0.010 A 
ATOM     52  C   UNL A   1      40.900  26.100  28.096  1.00  0.00    -0.014 A 
BRANCH  52  53
ATOM     53  C   UNL A   1      41.423  27.440  28.445  1.00  0.00     0.031 A 
ATOM     54  C   UNL A   1      42.869  27.722  28.141  1.00  0.00     0.074 A 
ATOM     55  C   UNL A   1      40.634  28.386  28.983  1.00  0.00     0.049 A 
ATOM     56  N   UNL A   1      43.581  28.786  28.399  1.00  0.00    -0.248 NA
ATOM     57  C   UNL A   1      43.612  26.652  27.450  1.00  0.00     0.031 C 
ATOM     58  C   UNL A   1      39.207  28.240  29.265  1.00  0.00     0.029 A 
ATOM     59  N   UNL A   1      40.931  29.661  29.395  1.00  0.00    -0.354 N 
ATOM     60  C   UNL A   1      44.851  28.515  27.904  1.00  0.00     0.074 A 
ATOM     61  C   UNL A   1      44.825  27.174  27.366  1.00  0.00     0.031 C 
ATOM     62  C   UNL A   1      38.755  29.380  29.820  1.00  0.00     0.029 A 
ATOM     63  C   UNL A   1      39.865  30.320  29.963  1.00  0.00     0.049 A 
ATOM     64  H   UNL A   1      41.822  30.066  29.293  1.00  0.00     0.167 HD
ATOM     65  C   UNL A   1      45.940  29.319  27.890  1.00  0.00     0.037 A 
ATOM     66  C   UNL A   1      39.811  31.531  30.552  1.00  0.00     0.037 A 
ATOM     67  C   UNL A   1      45.956  30.646  28.442  1.00  0.00     0.049 A 
ATOM     68  C   UNL A   1      41.064  32.370  30.616  1.00  0.00     0.074 A 
ATOM     69  C   UNL A   1      47.007  31.544  28.495  1.00  0.00     0.029 A 
ATOM     70  N   UNL A   1      44.869  31.266  29.044  1.00  0.00    -0.354 N 
ATOM     71  N   UNL A   1      42.260  32.109  30.139  1.00  0.00    -0.248 NA
ATOM     72  C   UNL A   1      40.962  33.670  31.294  1.00  0.00     0.031 C 
ATOM     73  C   UNL A   1      46.571  32.685  29.176  1.00  0.00     0.029 A 
ATOM     74  C   UNL A   1      45.230  32.526  29.489  1.00  0.00     0.049 A 
ATOM     75  H   UNL A   1      43.974  30.867  29.139  1.00  0.00     0.167 HD
ATOM     76  C   UNL A   1      43.039  33.227  30.426  1.00  0.00     0.074 A 
ATOM     77  C   UNL A   1      42.176  34.169  31.110  1.00  0.00     0.031 C 
ATOM     78  C   UNL A   1      44.348  33.457  30.148  1.00  0.00     0.037 A 
BRANCH  65  79
ATOM     79  C   UNL A   1      47.201  28.772  27.282  1.00  0.00     0.058 A 
ATOM     80  C   UNL A   1      48.253  28.286  28.076  1.00  0.00     0.135 A 
ATOM     81  C   UNL A   1      47.354  28.712  25.888  1.00  0.00     0.135 A 
ATOM     82  F   UNL A   1      48.173  28.343  29.415  1.00  0.00    -0.206 F 
ATOM     83  C   UNL A   1      49.419  27.780  27.509  1.00  0.00     0.059 A 
ATOM     84  C   UNL A   1      48.498  28.182  25.299  1.00  0.00     0.059 A 
ATOM     85  F   UNL A   1      46.384  29.173  25.081  1.00  0.00    -0.206 F 
ATOM     86  C   UNL A   1      49.530  27.730  26.119  1.00  0.00     0.060 A 
BRANCH  86  87
ATOM     87  S   UNL A   1      51.044  27.057  25.401  1.00  0.00     0.124 S 
ATOM     88  O   UNL A   1      51.795  26.688  26.598  1.00  0.00    -0.237 OA
ATOM     89  O   UNL A   1      50.540  25.945  24.601  1.00  0.00    -0.237 OA
ATOM     90  O   UNL A   1      51.588  28.178  24.642  1.00  0.00    -0.744 OA
ENDBRANCH  86  87
ENDBRANCH  65  79
BRANCH  66  91
ATOM     91  C   UNL A   1      38.536  32.026  31.145  1.00  0.00     0.058 A 
ATOM     92  C   UNL A   1      37.632  32.788  30.389  1.00  0.00     0.135 A 
ATOM     93  C   UNL A   1      38.207  31.771  32.485  1.00  0.00     0.135 A 
ATOM     94  F   UNL A   1      37.902  33.070  29.105  1.00  0.00    -0.206 F 
ATOM     95  C   UNL A   1      36.465  33.300  30.946  1.00  0.00     0.059 A 
ATOM     96  C   UNL A   1      37.029  32.244  33.058  1.00  0.00     0.059 A 
ATOM     97  F   UNL A   1      39.036  31.041  33.248  1.00  0.00    -0.206 F 
ATOM     98  C   UNL A   1      36.169  33.021  32.283  1.00  0.00     0.060 A 
BRANCH  98  99
ATOM     99  S   UNL A   1      34.633  33.672  32.975  1.00  0.00     0.124 S 
ATOM    100  O   UNL A   1      33.643  32.767  32.400  1.00  0.00    -0.237 OA
ATOM    101  O   UNL A   1      34.864  33.532  34.409  1.00  0.00    -0.237 OA
ATOM    102  O   UNL A   1      34.589  35.047  32.488  1.00  0.00    -0.744 OA
ENDBRANCH  98  99
ENDBRANCH  66  91
BRANCH  78 103
ATOM    103  C   UNL A   1      44.917  34.798  30.528  1.00  0.00     0.058 A 
ATOM    104  C   UNL A   1      45.580  35.008  31.745  1.00  0.00     0.135 A 
ATOM    105  C   UNL A   1      44.851  35.873  29.624  1.00  0.00     0.135 A 
ATOM    106  F   UNL A   1      45.669  34.018  32.647  1.00  0.00    -0.206 F 
ATOM    107  C   UNL A   1      46.137  36.243  32.065  1.00  0.00     0.059 A 
ATOM    108  C   UNL A   1      45.429  37.105  29.908  1.00  0.00     0.059 A 
ATOM    109  F   UNL A   1      44.239  35.722  28.437  1.00  0.00    -0.206 F 
ATOM    110  C   UNL A   1      46.060  37.284  31.138  1.00  0.00     0.060 A 
BRANCH 110 111
ATOM    111  S   UNL A   1      46.822  38.868  31.549  1.00  0.00     0.124 S 
ATOM    112  O   UNL A   1      46.138  39.772  30.629  1.00  0.00    -0.237 OA
ATOM    113  O   UNL A   1      46.478  39.021  32.959  1.00  0.00    -0.237 OA
ATOM    114  O   UNL A   1      48.238  38.647  31.276  1.00  0.00    -0.744 OA
ENDBRANCH 110 111
ENDBRANCH  78 103
ENDBRANCH  52  53
ENDBRANCH  45  47
ENDBRANCH  44  45
ENDBRANCH  43  44
ENDBRANCH  42  43
ENDBRANCH  41  42
ENDBRANCH  40  41
ENDBRANCH  39  40
ENDBRANCH  38  39
ENDBRANCH   1  38
TORSDOF 28
ENDMDL
MODEL 3
REMARK VINA RESULT:      -6.7      7.453     12.227
REMARK SMILES COc1cccc(C(=O)Nc2ccc(NC(=O)[C@@H]3[C@@H](C(=O)OCCOCCOCCOCCOC(=O)c4ccc(-c5c6nc(c(-c7c(F)cc(S(=O)(=O)[O-])cc7F)c7ccc([nH]7)c(-c7c(F)cc(S(=O)(=O)[O-])cc7F)c7nc(c(-c8c(F)cc(S(=O)(=O)[O-])cc8F)c8ccc5[nH]8)C=C7)C=C6)cc4)[C@@H]4C=C[C@H]3C4)cc2)c1
REMARK SMILES IDX 27 1 26 2 25 3 24 4 23 5 22 6 20 7 21 8 19 9 18 10 106 11
REMARK SMILES IDX 103 12 105 13 107 14 104 15 16 16 15 17 17 19 14 20 11 21
REMARK SMILES IDX 12 22 109 23 13 24 108 25 10 26 8 27 9 28 7 30 3 31 4 32
REMARK SMILES IDX 110 33 5 34 6 35 2 36 1 37 28 38 29 39 30 40 31 41 32 42
REMARK SMILES IDX 33 43 34 44 35 45 36 46 37 47 38 48 102 49 39 50 101 51
REMARK SMILES IDX 40 52 41 53 42 54 95 55 43 56 100 57 94 58 96 59 44 60 99 61
REMARK SMILES IDX 93 62 92 63 45 65 79 66 58 67 78 68 59 69 62 70 77 71 97 72
REMARK SMILES IDX 60 73 61 74 76 76 98 77 63 78 46 79 47 80 56 81 48 82 49 83
REMARK SMILES IDX 55 84 57 85 50 86 51 87 52 88 53 89 54 90 80 91 81 92 90 93
REMARK SMILES IDX 82 94 83 95 89 96 91 97 84 98 85 99 86 100 87 101 88 102
REMARK SMILES IDX 64 103 65 104 74 105 66 106 67 107 73 108 75 109 68 110
REMARK SMILES IDX 69 111 70 112 71 113 72 114
REMARK H PARENT 15 18 10 29 96 64 62 75
REMARK Flexibility Score: inf
ROOT
ATOM      1  C   UNL A   1      49.144  22.079  35.577  1.00  0.00     0.188 C 
ENDROOT
BRANCH   1   2
ATOM      2  C   UNL A   1      48.058  21.192  34.939  1.00  0.00     0.188 C 
BRANCH   2   3
ATOM      3  O   UNL A   1      47.321  20.433  35.866  1.00  0.00    -0.376 OA
BRANCH   3   4
ATOM      4  C   UNL A   1      47.040  20.948  37.150  1.00  0.00     0.202 C 
BRANCH   4   5
ATOM      5  C   UNL A   1      46.164  20.230  38.193  1.00  0.00     0.261 C 
BRANCH   5   6
ATOM      6  O   UNL A   1      46.654  20.085  39.538  1.00  0.00    -0.463 OA
BRANCH   6   7
ATOM      7  C   UNL A   1      45.948  20.641  40.545  1.00  0.00     0.310 C 
ATOM      8  O   UNL A   1      45.455  21.761  40.480  1.00  0.00    -0.252 OA
BRANCH   7   9
ATOM      9  C   UNL A   1      45.773  19.742  41.767  1.00  0.00     0.119 C 
ATOM     10  C   UNL A   1      44.784  18.552  41.691  1.00  0.00     0.100 C 
ATOM     11  C   UNL A   1      44.349  18.382  43.180  1.00  0.00     0.025 C 
ATOM     12  C   UNL A   1      45.373  20.381  43.132  1.00  0.00     0.027 C 
ATOM     13  C   UNL A   1      45.494  18.337  44.169  1.00  0.00    -0.027 C 
ATOM     14  C   UNL A   1      43.954  19.840  43.439  1.00  0.00     0.017 C 
ATOM     15  C   UNL A   1      46.080  19.544  44.177  1.00  0.00    -0.027 C 
BRANCH  10  16
ATOM     16  C   UNL A   1      45.458  17.379  41.039  1.00  0.00     0.228 C 
ATOM     17  N   UNL A   1      44.760  16.285  40.611  1.00  0.00    -0.326 N 
ATOM     18  H   UNL A   1      45.248  15.772  39.926  1.00  0.00     0.169 HD
ATOM     19  O   UNL A   1      46.671  17.393  40.808  1.00  0.00    -0.274 OA
BRANCH  17  20
ATOM     20  C   UNL A   1      43.504  15.712  40.918  1.00  0.00     0.041 A 
ATOM     21  C   UNL A   1      41.457  13.887  41.503  1.00  0.00     0.041 A 
ATOM     22  C   UNL A   1      41.799  14.857  42.429  1.00  0.00     0.028 A 
ATOM     23  C   UNL A   1      41.949  13.977  40.205  1.00  0.00     0.028 A 
ATOM     24  C   UNL A   1      42.845  15.737  42.145  1.00  0.00     0.028 A 
ATOM     25  C   UNL A   1      42.954  14.906  39.910  1.00  0.00     0.028 A 
BRANCH  21  26
ATOM     26  N   UNL A   1      40.755  12.784  41.990  1.00  0.00    -0.322 N 
ATOM     27  C   UNL A   1      41.181  11.776  42.833  1.00  0.00     0.255 C 
ATOM     28  O   UNL A   1      40.370  10.911  43.164  1.00  0.00    -0.269 OA
ATOM     29  H   UNL A   1      39.821  12.715  41.691  1.00  0.00     0.170 HD
BRANCH  27  30
ATOM     30  C   UNL A   1      42.539  11.737  43.448  1.00  0.00     0.043 A 
ATOM     31  C   UNL A   1      44.384  12.703  44.708  1.00  0.00     0.119 A 
ATOM     32  C   UNL A   1      45.120  11.536  44.487  1.00  0.00     0.046 A 
ATOM     33  C   UNL A   1      43.069  12.768  44.247  1.00  0.00     0.060 A 
ATOM     34  C   UNL A   1      44.564  10.458  43.798  1.00  0.00     0.005 A 
ATOM     35  C   UNL A   1      43.281  10.565  43.265  1.00  0.00     0.014 A 
BRANCH  31  36
ATOM     36  O   UNL A   1      45.081  13.675  45.368  1.00  0.00    -0.497 OA
ATOM     37  C   UNL A   1      46.487  13.559  45.524  1.00  0.00     0.278 C 
ENDBRANCH  31  36
ENDBRANCH  27  30
ENDBRANCH  21  26
ENDBRANCH  17  20
ENDBRANCH  10  16
ENDBRANCH   7   9
ENDBRANCH   6   7
ENDBRANCH   5   6
ENDBRANCH   4   5
ENDBRANCH   3   4
ENDBRANCH   2   3
ENDBRANCH   1   2
BRANCH   1  38
ATOM     38  O   UNL A   1      50.348  21.592  36.146  1.00  0.00    -0.377 OA
BRANCH  38  39
ATOM     39  C   UNL A   1      50.924  22.285  37.234  1.00  0.00     0.188 C 
BRANCH  39  40
ATOM     40  C   UNL A   1      50.166  22.202  38.568  1.00  0.00     0.188 C 
BRANCH  40  41
ATOM     41  O   UNL A   1      49.352  23.335  38.834  1.00  0.00    -0.376 OA
BRANCH  41  42
ATOM     42  C   UNL A   1      49.805  24.611  38.411  1.00  0.00     0.202 C 
BRANCH  42  43
ATOM     43  C   UNL A   1      48.926  25.473  37.487  1.00  0.00     0.261 C 
BRANCH  43  44
ATOM     44  O   UNL A   1      47.750  26.056  38.059  1.00  0.00    -0.460 OA
BRANCH  44  45
ATOM     45  C   UNL A   1      47.687  27.401  38.129  1.00  0.00     0.338 C 
ATOM     46  O   UNL A   1      48.477  28.149  38.682  1.00  0.00    -0.246 OA
BRANCH  45  47
ATOM     47  C   UNL A   1      46.584  27.824  37.246  1.00  0.00     0.060 A 
ATOM     48  C   UNL A   1      46.778  28.912  36.385  1.00  0.00     0.016 A 
ATOM     49  C   UNL A   1      45.379  27.118  37.241  1.00  0.00     0.016 A 
ATOM     50  C   UNL A   1      45.756  29.307  35.524  1.00  0.00     0.010 A 
ATOM     51  C   UNL A   1      44.343  27.538  36.405  1.00  0.00     0.010 A 
ATOM     52  C   UNL A   1      44.520  28.652  35.565  1.00  0.00    -0.014 A 
BRANCH  52  53
ATOM     53  C   UNL A   1      43.346  29.281  34.921  1.00  0.00     0.031 A 
ATOM     54  C   UNL A   1      42.985  28.821  33.535  1.00  0.00     0.074 A 
ATOM     55  C   UNL A   1      42.603  30.205  35.557  1.00  0.00     0.049 A 
ATOM     56  N   UNL A   1      42.046  29.249  32.735  1.00  0.00    -0.248 NA
ATOM     57  C   UNL A   1      43.799  27.726  32.978  1.00  0.00     0.031 C 
ATOM     58  C   UNL A   1      42.827  30.680  36.921  1.00  0.00     0.029 A 
ATOM     59  N   UNL A   1      41.509  30.912  35.127  1.00  0.00    -0.354 N 
ATOM     60  C   UNL A   1      42.156  28.478  31.583  1.00  0.00     0.074 A 
ATOM     61  C   UNL A   1      43.275  27.584  31.771  1.00  0.00     0.031 C 
ATOM     62  C   UNL A   1      41.905  31.616  37.212  1.00  0.00     0.029 A 
ATOM     63  C   UNL A   1      41.051  31.829  36.045  1.00  0.00     0.049 A 
ATOM     64  H   UNL A   1      41.092  30.778  34.246  1.00  0.00     0.167 HD
ATOM     65  C   UNL A   1      41.383  28.508  30.472  1.00  0.00     0.037 A 
ATOM     66  C   UNL A   1      40.070  32.748  35.935  1.00  0.00     0.037 A 
ATOM     67  C   UNL A   1      40.281  29.414  30.293  1.00  0.00     0.049 A 
ATOM     68  C   UNL A   1      39.288  32.831  34.647  1.00  0.00     0.074 A 
ATOM     69  C   UNL A   1      39.440  29.540  29.202  1.00  0.00     0.029 A 
ATOM     70  N   UNL A   1      39.870  30.354  31.228  1.00  0.00    -0.354 N 
ATOM     71  N   UNL A   1      39.394  32.094  33.565  1.00  0.00    -0.248 NA
ATOM     72  C   UNL A   1      38.250  33.868  34.564  1.00  0.00     0.031 C 
ATOM     73  C   UNL A   1      38.555  30.592  29.456  1.00  0.00     0.029 A 
ATOM     74  C   UNL A   1      38.800  31.078  30.730  1.00  0.00     0.049 A 
ATOM     75  H   UNL A   1      40.280  30.485  32.113  1.00  0.00     0.167 HD
ATOM     76  C   UNL A   1      38.412  32.553  32.690  1.00  0.00     0.074 A 
ATOM     77  C   UNL A   1      37.718  33.625  33.374  1.00  0.00     0.031 C 
ATOM     78  C   UNL A   1      38.109  32.127  31.438  1.00  0.00     0.037 A 
BRANCH  65  79
ATOM     79  C   UNL A   1      41.723  27.552  29.363  1.00  0.00     0.058 A 
ATOM     80  C   UNL A   1      40.870  26.493  29.014  1.00  0.00     0.135 A 
ATOM     81  C   UNL A   1      42.906  27.708  28.624  1.00  0.00     0.135 A 
ATOM     82  F   UNL A   1      39.737  26.279  29.703  1.00  0.00    -0.206 F 
ATOM     83  C   UNL A   1      41.188  25.610  27.986  1.00  0.00     0.059 A 
ATOM     84  C   UNL A   1      43.230  26.856  27.572  1.00  0.00     0.059 A 
ATOM     85  F   UNL A   1      43.764  28.697  28.922  1.00  0.00    -0.206 F 
ATOM     86  C   UNL A   1      42.370  25.803  27.268  1.00  0.00     0.060 A 
BRANCH  86  87
ATOM     87  S   UNL A   1      42.759  24.657  25.929  1.00  0.00     0.124 S 
ATOM     88  O   UNL A   1      41.836  23.560  26.206  1.00  0.00    -0.237 OA
ATOM     89  O   UNL A   1      42.460  25.453  24.743  1.00  0.00    -0.237 OA
ATOM     90  O   UNL A   1      44.171  24.354  26.140  1.00  0.00    -0.744 OA
ENDBRANCH  86  87
ENDBRANCH  65  79
BRANCH  66  91
ATOM     91  C   UNL A   1      39.776  33.676  37.063  1.00  0.00     0.058 A 
ATOM     92  C   UNL A   1      40.375  34.943  37.136  1.00  0.00     0.135 A 
ATOM     93  C   UNL A   1      38.911  33.306  38.105  1.00  0.00     0.135 A 
ATOM     94  F   UNL A   1      41.219  35.342  36.172  1.00  0.00    -0.206 F 
ATOM     95  C   UNL A   1      40.149  35.797  38.211  1.00  0.00     0.059 A 
ATOM     96  C   UNL A   1      38.642  34.156  39.176  1.00  0.00     0.059 A 
ATOM     97  F   UNL A   1      38.308  32.108  38.078  1.00  0.00    -0.206 F 
ATOM     98  C   UNL A   1      39.278  35.395  39.227  1.00  0.00     0.060 A 
BRANCH  98  99
ATOM     99  S   UNL A   1      38.977  36.534  40.597  1.00  0.00     0.124 S 
ATOM    100  O   UNL A   1      40.304  36.631  41.198  1.00  0.00    -0.237 OA
ATOM    101  O   UNL A   1      38.507  37.728  39.901  1.00  0.00    -0.237 OA
ATOM    102  O   UNL A   1      37.969  35.850  41.400  1.00  0.00    -0.744 OA
ENDBRANCH  98  99
ENDBRANCH  66  91
BRANCH  78 103
ATOM    103  C   UNL A   1      36.942  32.777  30.743  1.00  0.00     0.058 A 
ATOM    104  C   UNL A   1      35.622  32.348  30.947  1.00  0.00     0.135 A 
ATOM    105  C   UNL A   1      37.148  33.889  29.908  1.00  0.00     0.135 A 
ATOM    106  F   UNL A   1      35.368  31.289  31.732  1.00  0.00    -0.206 F 
ATOM    107  C   UNL A   1      34.548  32.984  30.330  1.00  0.00     0.059 A 
ATOM    108  C   UNL A   1      36.088  34.559  29.308  1.00  0.00     0.059 A 
ATOM    109  F   UNL A   1      38.390  34.349  29.689  1.00  0.00    -0.206 F 
ATOM    110  C   UNL A   1      34.791  34.092  29.516  1.00  0.00     0.060 A 
BRANCH 110 111
ATOM    111  S   UNL A   1      33.387  34.931  28.753  1.00  0.00     0.124 S 
ATOM    112  O   UNL A   1      32.487  35.093  29.891  1.00  0.00    -0.237 OA
ATOM    113  O   UNL A   1      33.995  36.157  28.247  1.00  0.00    -0.237 OA
ATOM    114  O   UNL A   1      32.942  33.990  27.730  1.00  0.00    -0.744 OA
ENDBRANCH 110 111
ENDBRANCH  78 103
ENDBRANCH  52  53
ENDBRANCH  45  47
ENDBRANCH  44  45
ENDBRANCH  43  44
ENDBRANCH  42  43
ENDBRANCH  41  42
ENDBRANCH  40  41
ENDBRANCH  39  40
ENDBRANCH  38  39
ENDBRANCH   1  38
TORSDOF 28
ENDMDL
