MODEL 1
REMARK VINA RESULT:      -9.4      0.000      0.000
REMARK SMILES COC(=O)Cc1nc(NC(=O)[C@H]2CC[C@@H]2C(=O)OCCOCCOCCOCCOC(=O)c2ccc(-c3c4nc(c(-c5c(F)cc(S(=O)(=O)[O-])cc5F)c5ccc([nH]5)c(-c5c(F)cc(S(=O)(=O)[O-])cc5F)c5nc(c(-c6c(F)cc(S(=O)(=O)[O-])cc6F)c6ccc3[nH]6)C=C5)C=C4)cc2)sc1C
REMARK SMILES IDX 23 1 22 2 21 3 20 4 19 5 18 6 16 7 17 8 15 9 12 10 13 11
REMARK SMILES IDX 14 12 10 13 9 14 11 16 8 17 6 18 7 19 100 20 99 21 101 22
REMARK SMILES IDX 5 23 3 24 4 25 2 26 1 27 24 28 25 29 26 30 27 31 28 32 29 33
REMARK SMILES IDX 30 34 31 35 32 36 33 37 34 38 98 39 35 40 97 41 36 42 37 43
REMARK SMILES IDX 38 44 91 45 39 46 96 47 90 48 92 49 40 50 95 51 89 52 88 53
REMARK SMILES IDX 41 55 75 56 54 57 74 58 55 59 58 60 73 61 93 62 56 63 57 64
REMARK SMILES IDX 72 66 94 67 59 68 42 69 43 70 52 71 44 72 45 73 51 74 53 75
REMARK SMILES IDX 46 76 47 77 48 78 49 79 50 80 76 81 77 82 86 83 78 84 79 85
REMARK SMILES IDX 85 86 87 87 80 88 81 89 82 90 83 91 84 92 60 93 61 94 70 95
REMARK SMILES IDX 62 96 63 97 69 98 71 99 64 100 65 101 66 102 67 103 68 104
REMARK H PARENT 9 15 92 54 58 65
REMARK Flexibility Score: inf
ROOT
ATOM      1  C   UNL A   1      37.130  21.578  25.292  1.00  0.00     0.188 C 
ENDROOT
BRANCH   1   2
ATOM      2  C   UNL A   1      36.015  20.571  25.010  1.00  0.00     0.188 C 
BRANCH   2   3
ATOM      3  O   UNL A   1      34.676  20.899  25.325  1.00  0.00    -0.376 OA
BRANCH   3   4
ATOM      4  C   UNL A   1      34.415  21.648  26.506  1.00  0.00     0.202 C 
BRANCH   4   5
ATOM      5  C   UNL A   1      33.081  22.401  26.717  1.00  0.00     0.261 C 
BRANCH   5   6
ATOM      6  O   UNL A   1      32.437  22.996  25.558  1.00  0.00    -0.463 OA
BRANCH   6   7
ATOM      7  C   UNL A   1      32.544  24.354  25.426  1.00  0.00     0.309 C 
ATOM      8  O   UNL A   1      32.226  25.119  26.341  1.00  0.00    -0.252 OA
BRANCH   7   9
ATOM      9  C   UNL A   1      33.127  24.871  24.046  1.00  0.00     0.111 C 
ATOM     10  C   UNL A   1      32.567  24.420  22.633  1.00  0.00     0.093 C 
ATOM     11  C   UNL A   1      33.533  23.203  22.769  1.00  0.00     0.015 C 
ATOM     12  C   UNL A   1      34.417  24.077  23.663  1.00  0.00     0.017 C 
BRANCH  10  13
ATOM     13  C   UNL A   1      32.757  25.255  21.351  1.00  0.00     0.230 C 
ATOM     14  N   UNL A   1      32.492  26.617  21.310  1.00  0.00    -0.302 N 
ATOM     15  H   UNL A   1      32.826  27.043  20.487  1.00  0.00     0.172 HD
ATOM     16  O   UNL A   1      33.204  24.752  20.308  1.00  0.00    -0.274 OA
BRANCH  14  17
ATOM     17  C   UNL A   1      31.871  27.512  22.153  1.00  0.00     0.189 A 
ATOM     18  C   UNL A   1      30.168  28.522  23.202  1.00  0.00     0.068 A 
ATOM     19  N   UNL A   1      30.557  27.590  22.238  1.00  0.00    -0.224 NA
ATOM     20  C   UNL A   1      31.227  29.101  23.883  1.00  0.00     0.027 A 
ATOM     21  S   UNL A   1      32.696  28.518  23.242  1.00  0.00    -0.102 S 
ATOM     22  C   UNL A   1      31.210  30.083  25.003  1.00  0.00     0.058 C 
BRANCH  18  23
ATOM     23  C   UNL A   1      28.728  28.797  23.503  1.00  0.00     0.180 C 
BRANCH  23  24
ATOM     24  C   UNL A   1      28.142  30.015  22.849  1.00  0.00     0.311 C 
ATOM     25  O   UNL A   1      27.053  30.490  23.155  1.00  0.00    -0.252 OA
BRANCH  24  26
ATOM     26  O   UNL A   1      29.026  30.581  21.981  1.00  0.00    -0.469 OA
ATOM     27  C   UNL A   1      28.419  31.466  21.039  1.00  0.00     0.282 C 
ENDBRANCH  24  26
ENDBRANCH  23  24
ENDBRANCH  18  23
ENDBRANCH  14  17
ENDBRANCH  10  13
ENDBRANCH   7   9
ENDBRANCH   6   7
ENDBRANCH   5   6
ENDBRANCH   4   5
ENDBRANCH   3   4
ENDBRANCH   2   3
ENDBRANCH   1   2
BRANCH   1  28
ATOM     28  O   UNL A   1      38.452  21.090  25.273  1.00  0.00    -0.377 OA
BRANCH  28  29
ATOM     29  C   UNL A   1      39.388  21.721  26.133  1.00  0.00     0.188 C 
BRANCH  29  30
ATOM     30  C   UNL A   1      40.489  20.842  26.753  1.00  0.00     0.188 C 
BRANCH  30  31
ATOM     31  O   UNL A   1      40.586  19.532  26.206  1.00  0.00    -0.376 OA
BRANCH  31  32
ATOM     32  C   UNL A   1      41.869  18.957  25.999  1.00  0.00     0.202 C 
BRANCH  32  33
ATOM     33  C   UNL A   1      43.039  19.875  25.599  1.00  0.00     0.261 C 
BRANCH  33  34
ATOM     34  O   UNL A   1      43.769  19.515  24.423  1.00  0.00    -0.460 OA
BRANCH  34  35
ATOM     35  C   UNL A   1      45.065  19.887  24.348  1.00  0.00     0.338 C 
ATOM     36  O   UNL A   1      45.971  19.294  23.812  1.00  0.00    -0.246 OA
BRANCH  35  37
ATOM     37  C   UNL A   1      45.129  21.274  24.851  1.00  0.00     0.060 A 
ATOM     38  C   UNL A   1      44.884  22.319  23.954  1.00  0.00     0.016 A 
ATOM     39  C   UNL A   1      45.406  21.531  26.196  1.00  0.00     0.016 A 
ATOM     40  C   UNL A   1      44.961  23.637  24.392  1.00  0.00     0.010 A 
ATOM     41  C   UNL A   1      45.509  22.852  26.628  1.00  0.00     0.010 A 
ATOM     42  C   UNL A   1      45.327  23.905  25.716  1.00  0.00    -0.014 A 
BRANCH  42  43
ATOM     43  C   UNL A   1      45.749  25.276  26.077  1.00  0.00     0.031 A 
ATOM     44  C   UNL A   1      44.698  26.214  26.603  1.00  0.00     0.074 A 
ATOM     45  C   UNL A   1      47.033  25.656  25.977  1.00  0.00     0.049 A 
ATOM     46  N   UNL A   1      44.805  27.468  26.951  1.00  0.00    -0.248 NA
ATOM     47  C   UNL A   1      43.340  25.662  26.753  1.00  0.00     0.031 C 
ATOM     48  C   UNL A   1      48.133  24.807  25.522  1.00  0.00     0.029 A 
ATOM     49  N   UNL A   1      47.626  26.862  26.245  1.00  0.00    -0.354 N 
ATOM     50  C   UNL A   1      43.532  27.857  27.349  1.00  0.00     0.074 A 
ATOM     51  C   UNL A   1      42.661  26.717  27.174  1.00  0.00     0.031 C 
ATOM     52  C   UNL A   1      49.268  25.526  25.528  1.00  0.00     0.029 A 
ATOM     53  C   UNL A   1      48.968  26.892  25.953  1.00  0.00     0.049 A 
ATOM     54  H   UNL A   1      47.136  27.634  26.611  1.00  0.00     0.167 HD
ATOM     55  C   UNL A   1      43.130  29.058  27.826  1.00  0.00     0.037 A 
ATOM     56  C   UNL A   1      49.841  27.918  25.998  1.00  0.00     0.037 A 
ATOM     57  C   UNL A   1      44.013  30.181  27.994  1.00  0.00     0.049 A 
ATOM     58  C   UNL A   1      49.355  29.265  26.470  1.00  0.00     0.074 A 
ATOM     59  C   UNL A   1      43.718  31.440  28.484  1.00  0.00     0.029 A 
ATOM     60  N   UNL A   1      45.362  30.183  27.666  1.00  0.00    -0.354 N 
ATOM     61  N   UNL A   1      48.155  29.618  26.867  1.00  0.00    -0.248 NA
ATOM     62  C   UNL A   1      50.341  30.354  26.504  1.00  0.00     0.031 C 
ATOM     63  C   UNL A   1      44.874  32.221  28.394  1.00  0.00     0.029 A 
ATOM     64  C   UNL A   1      45.907  31.430  27.914  1.00  0.00     0.049 A 
ATOM     65  H   UNL A   1      45.857  29.410  27.308  1.00  0.00     0.167 HD
ATOM     66  C   UNL A   1      48.249  30.959  27.228  1.00  0.00     0.074 A 
ATOM     67  C   UNL A   1      49.627  31.349  27.013  1.00  0.00     0.031 C 
ATOM     68  C   UNL A   1      47.286  31.792  27.698  1.00  0.00     0.037 A 
BRANCH  55  69
ATOM     69  C   UNL A   1      41.674  29.227  28.163  1.00  0.00     0.058 A 
ATOM     70  C   UNL A   1      40.683  29.300  27.170  1.00  0.00     0.135 A 
ATOM     71  C   UNL A   1      41.260  29.287  29.504  1.00  0.00     0.135 A 
ATOM     72  F   UNL A   1      41.023  29.273  25.871  1.00  0.00    -0.206 F 
ATOM     73  C   UNL A   1      39.338  29.445  27.495  1.00  0.00     0.059 A 
ATOM     74  C   UNL A   1      39.919  29.401  29.851  1.00  0.00     0.059 A 
ATOM     75  F   UNL A   1      42.166  29.233  30.494  1.00  0.00    -0.206 F 
ATOM     76  C   UNL A   1      38.965  29.491  28.839  1.00  0.00     0.060 A 
BRANCH  76  77
ATOM     77  S   UNL A   1      37.214  29.662  29.241  1.00  0.00     0.124 S 
ATOM     78  O   UNL A   1      37.132  28.931  30.502  1.00  0.00    -0.237 OA
ATOM     79  O   UNL A   1      37.057  31.109  29.335  1.00  0.00    -0.237 OA
ATOM     80  O   UNL A   1      36.541  29.033  28.108  1.00  0.00    -0.744 OA
ENDBRANCH  76  77
ENDBRANCH  55  69
BRANCH  56  81
ATOM     81  C   UNL A   1      51.252  27.717  25.568  1.00  0.00     0.058 A 
ATOM     82  C   UNL A   1      52.258  27.401  26.491  1.00  0.00     0.135 A 
ATOM     83  C   UNL A   1      51.621  27.838  24.219  1.00  0.00     0.135 A 
ATOM     84  F   UNL A   1      51.959  27.283  27.795  1.00  0.00    -0.206 F 
ATOM     85  C   UNL A   1      53.582  27.229  26.099  1.00  0.00     0.059 A 
ATOM     86  C   UNL A   1      52.932  27.642  23.796  1.00  0.00     0.059 A 
ATOM     87  F   UNL A   1      50.696  28.130  23.291  1.00  0.00    -0.206 F 
ATOM     88  C   UNL A   1      53.908  27.349  24.747  1.00  0.00     0.060 A 
BRANCH  88  89
ATOM     89  S   UNL A   1      55.622  27.080  24.243  1.00  0.00     0.124 S 
ATOM     90  O   UNL A   1      56.293  28.211  24.873  1.00  0.00    -0.237 OA
ATOM     91  O   UNL A   1      55.904  25.768  24.816  1.00  0.00    -0.237 OA
ATOM     92  O   UNL A   1      55.552  27.117  22.785  1.00  0.00    -0.744 OA
ENDBRANCH  88  89
ENDBRANCH  56  81
BRANCH  68  93
ATOM     93  C   UNL A   1      47.695  33.196  28.054  1.00  0.00     0.058 A 
ATOM     94  C   UNL A   1      47.647  34.243  27.120  1.00  0.00     0.135 A 
ATOM     95  C   UNL A   1      48.081  33.508  29.368  1.00  0.00     0.135 A 
ATOM     96  F   UNL A   1      47.289  33.999  25.849  1.00  0.00    -0.206 F 
ATOM     97  C   UNL A   1      47.993  35.543  27.470  1.00  0.00     0.059 A 
ATOM     98  C   UNL A   1      48.398  34.807  29.749  1.00  0.00     0.059 A 
ATOM     99  F   UNL A   1      48.131  32.547  30.305  1.00  0.00    -0.206 F 
ATOM    100  C   UNL A   1      48.363  35.817  28.788  1.00  0.00     0.060 A 
BRANCH 100 101
ATOM    101  S   UNL A   1      48.775  37.516  29.235  1.00  0.00     0.124 S 
ATOM    102  O   UNL A   1      49.212  38.059  27.954  1.00  0.00    -0.237 OA
ATOM    103  O   UNL A   1      47.503  38.023  29.739  1.00  0.00    -0.237 OA
ATOM    104  O   UNL A   1      49.824  37.359  30.239  1.00  0.00    -0.744 OA
ENDBRANCH 100 101
ENDBRANCH  68  93
ENDBRANCH  42  43
ENDBRANCH  35  37
ENDBRANCH  34  35
ENDBRANCH  33  34
ENDBRANCH  32  33
ENDBRANCH  31  32
ENDBRANCH  30  31
ENDBRANCH  29  30
ENDBRANCH  28  29
ENDBRANCH   1  28
TORSDOF 28
ENDMDL
MODEL 2
REMARK VINA RESULT:      -8.8      0.800      7.968
REMARK SMILES COC(=O)Cc1nc(NC(=O)[C@H]2CC[C@@H]2C(=O)OCCOCCOCCOCCOC(=O)c2ccc(-c3c4nc(c(-c5c(F)cc(S(=O)(=O)[O-])cc5F)c5ccc([nH]5)c(-c5c(F)cc(S(=O)(=O)[O-])cc5F)c5nc(c(-c6c(F)cc(S(=O)(=O)[O-])cc6F)c6ccc3[nH]6)C=C5)C=C4)cc2)sc1C
REMARK SMILES IDX 23 1 22 2 21 3 20 4 19 5 18 6 16 7 17 8 15 9 12 10 13 11
REMARK SMILES IDX 14 12 10 13 9 14 11 16 8 17 6 18 7 19 100 20 99 21 101 22
REMARK SMILES IDX 5 23 3 24 4 25 2 26 1 27 24 28 25 29 26 30 27 31 28 32 29 33
REMARK SMILES IDX 30 34 31 35 32 36 33 37 34 38 98 39 35 40 97 41 36 42 37 43
REMARK SMILES IDX 38 44 91 45 39 46 96 47 90 48 92 49 40 50 95 51 89 52 88 53
REMARK SMILES IDX 41 55 75 56 54 57 74 58 55 59 58 60 73 61 93 62 56 63 57 64
REMARK SMILES IDX 72 66 94 67 59 68 42 69 43 70 52 71 44 72 45 73 51 74 53 75
REMARK SMILES IDX 46 76 47 77 48 78 49 79 50 80 76 81 77 82 86 83 78 84 79 85
REMARK SMILES IDX 85 86 87 87 80 88 81 89 82 90 83 91 84 92 60 93 61 94 70 95
REMARK SMILES IDX 62 96 63 97 69 98 71 99 64 100 65 101 66 102 67 103 68 104
REMARK H PARENT 9 15 92 54 58 65
REMARK Flexibility Score: inf
ROOT
ATOM      1  C   UNL A   1      37.122  21.547  25.408  1.00  0.00     0.188 C 
ENDROOT
BRANCH   1   2
ATOM      2  C   UNL A   1      35.859  20.691  25.295  1.00  0.00     0.188 C 
BRANCH   2   3
ATOM      3  O   UNL A   1      34.589  21.287  25.470  1.00  0.00    -0.376 OA
BRANCH   3   4
ATOM      4  C   UNL A   1      34.389  22.162  26.573  1.00  0.00     0.202 C 
BRANCH   4   5
ATOM      5  C   UNL A   1      33.091  22.988  26.736  1.00  0.00     0.261 C 
BRANCH   5   6
ATOM      6  O   UNL A   1      32.225  23.143  25.579  1.00  0.00    -0.463 OA
BRANCH   6   7
ATOM      7  C   UNL A   1      31.783  24.409  25.309  1.00  0.00     0.309 C 
ATOM      8  O   UNL A   1      30.884  24.934  25.971  1.00  0.00    -0.252 OA
BRANCH   7   9
ATOM      9  C   UNL A   1      32.519  25.159  24.123  1.00  0.00     0.111 C 
ATOM     10  C   UNL A   1      32.709  24.538  22.676  1.00  0.00     0.093 C 
ATOM     11  C   UNL A   1      33.991  23.868  23.260  1.00  0.00     0.015 C 
ATOM     12  C   UNL A   1      34.068  25.023  24.263  1.00  0.00     0.017 C 
BRANCH  10  13
ATOM     13  C   UNL A   1      32.946  25.398  21.419  1.00  0.00     0.230 C 
ATOM     14  N   UNL A   1      32.891  26.785  21.451  1.00  0.00    -0.302 N 
ATOM     15  H   UNL A   1      33.235  27.197  20.626  1.00  0.00     0.172 HD
ATOM     16  O   UNL A   1      33.247  24.887  20.329  1.00  0.00    -0.274 OA
BRANCH  14  17
ATOM     17  C   UNL A   1      32.466  27.720  22.370  1.00  0.00     0.189 A 
ATOM     18  C   UNL A   1      31.019  29.047  23.448  1.00  0.00     0.068 A 
ATOM     19  N   UNL A   1      31.222  28.157  22.392  1.00  0.00    -0.224 NA
ATOM     20  C   UNL A   1      32.129  29.222  24.257  1.00  0.00     0.027 A 
ATOM     21  S   UNL A   1      33.434  28.322  23.626  1.00  0.00    -0.102 S 
ATOM     22  C   UNL A   1      32.283  30.038  25.494  1.00  0.00     0.058 C 
BRANCH  18  23
ATOM     23  C   UNL A   1      29.689  29.685  23.702  1.00  0.00     0.180 C 
BRANCH  23  24
ATOM     24  C   UNL A   1      28.524  29.093  22.961  1.00  0.00     0.311 C 
ATOM     25  O   UNL A   1      28.277  29.335  21.785  1.00  0.00    -0.252 OA
BRANCH  24  26
ATOM     26  O   UNL A   1      27.873  28.171  23.724  1.00  0.00    -0.469 OA
ATOM     27  C   UNL A   1      28.394  26.847  23.593  1.00  0.00     0.282 C 
ENDBRANCH  24  26
ENDBRANCH  23  24
ENDBRANCH  18  23
ENDBRANCH  14  17
ENDBRANCH  10  13
ENDBRANCH   7   9
ENDBRANCH   6   7
ENDBRANCH   5   6
ENDBRANCH   4   5
ENDBRANCH   3   4
ENDBRANCH   2   3
ENDBRANCH   1   2
BRANCH   1  28
ATOM     28  O   UNL A   1      38.357  20.869  25.393  1.00  0.00    -0.377 OA
BRANCH  28  29
ATOM     29  C   UNL A   1      39.460  21.518  26.007  1.00  0.00     0.188 C 
BRANCH  29  30
ATOM     30  C   UNL A   1      40.491  20.634  26.732  1.00  0.00     0.188 C 
BRANCH  30  31
ATOM     31  O   UNL A   1      40.659  19.335  26.176  1.00  0.00    -0.376 OA
BRANCH  31  32
ATOM     32  C   UNL A   1      41.971  18.855  25.913  1.00  0.00     0.202 C 
BRANCH  32  33
ATOM     33  C   UNL A   1      43.026  19.837  25.370  1.00  0.00     0.261 C 
BRANCH  33  34
ATOM     34  O   UNL A   1      43.945  19.325  24.400  1.00  0.00    -0.460 OA
BRANCH  34  35
ATOM     35  C   UNL A   1      45.182  19.866  24.358  1.00  0.00     0.338 C 
ATOM     36  O   UNL A   1      46.167  19.408  23.830  1.00  0.00    -0.246 OA
BRANCH  35  37
ATOM     37  C   UNL A   1      45.054  21.238  24.887  1.00  0.00     0.060 A 
ATOM     38  C   UNL A   1      44.739  22.269  23.996  1.00  0.00     0.016 A 
ATOM     39  C   UNL A   1      45.224  21.493  26.250  1.00  0.00     0.016 A 
ATOM     40  C   UNL A   1      44.635  23.576  24.460  1.00  0.00     0.010 A 
ATOM     41  C   UNL A   1      45.147  22.807  26.711  1.00  0.00     0.010 A 
ATOM     42  C   UNL A   1      44.893  23.853  25.807  1.00  0.00    -0.014 A 
BRANCH  42  43
ATOM     43  C   UNL A   1      45.130  25.254  26.215  1.00  0.00     0.031 A 
ATOM     44  C   UNL A   1      46.528  25.793  26.087  1.00  0.00     0.074 A 
ATOM     45  C   UNL A   1      44.123  26.031  26.647  1.00  0.00     0.049 A 
ATOM     46  N   UNL A   1      46.997  26.968  26.410  1.00  0.00    -0.248 NA
ATOM     47  C   UNL A   1      47.535  24.878  25.519  1.00  0.00     0.031 C 
ATOM     48  C   UNL A   1      42.725  25.616  26.764  1.00  0.00     0.029 A 
ATOM     49  N   UNL A   1      44.126  27.332  27.077  1.00  0.00    -0.354 N 
ATOM     50  C   UNL A   1      48.350  26.930  26.096  1.00  0.00     0.074 A 
ATOM     51  C   UNL A   1      48.636  25.609  25.584  1.00  0.00     0.031 C 
ATOM     52  C   UNL A   1      42.007  26.642  27.250  1.00  0.00     0.029 A 
ATOM     53  C   UNL A   1      42.898  27.771  27.511  1.00  0.00     0.049 A 
ATOM     54  H   UNL A   1      44.931  27.899  27.074  1.00  0.00     0.167 HD
ATOM     55  C   UNL A   1      49.269  27.916  26.218  1.00  0.00     0.037 A 
ATOM     56  C   UNL A   1      42.549  28.941  28.080  1.00  0.00     0.037 A 
ATOM     57  C   UNL A   1      48.965  29.226  26.730  1.00  0.00     0.049 A 
ATOM     58  C   UNL A   1      43.605  30.002  28.268  1.00  0.00     0.074 A 
ATOM     59  C   UNL A   1      49.814  30.307  26.883  1.00  0.00     0.029 A 
ATOM     60  N   UNL A   1      47.716  29.628  27.183  1.00  0.00    -0.354 N 
ATOM     61  N   UNL A   1      44.877  29.967  27.947  1.00  0.00    -0.248 NA
ATOM     62  C   UNL A   1      43.179  31.262  28.891  1.00  0.00     0.031 C 
ATOM     63  C   UNL A   1      49.092  31.342  27.486  1.00  0.00     0.029 A 
ATOM     64  C   UNL A   1      47.778  30.931  27.644  1.00  0.00     0.049 A 
ATOM     65  H   UNL A   1      46.907  29.067  27.178  1.00  0.00     0.167 HD
ATOM     66  C   UNL A   1      45.396  31.209  28.299  1.00  0.00     0.074 A 
ATOM     67  C   UNL A   1      44.296  31.976  28.847  1.00  0.00     0.031 C 
ATOM     68  C   UNL A   1      46.664  31.676  28.179  1.00  0.00     0.037 A 
BRANCH  55  69
ATOM     69  C   UNL A   1      50.688  27.605  25.829  1.00  0.00     0.058 A 
ATOM     70  C   UNL A   1      51.636  27.156  26.762  1.00  0.00     0.135 A 
ATOM     71  C   UNL A   1      51.097  27.729  24.491  1.00  0.00     0.135 A 
ATOM     72  F   UNL A   1      51.308  27.043  28.060  1.00  0.00    -0.206 F 
ATOM     73  C   UNL A   1      52.943  26.860  26.387  1.00  0.00     0.059 A 
ATOM     74  C   UNL A   1      52.390  27.410  24.088  1.00  0.00     0.059 A 
ATOM     75  F   UNL A   1      50.236  28.165  23.558  1.00  0.00    -0.206 F 
ATOM     76  C   UNL A   1      53.309  26.986  25.046  1.00  0.00     0.060 A 
BRANCH  76  77
ATOM     77  S   UNL A   1      55.004  26.581  24.574  1.00  0.00     0.124 S 
ATOM     78  O   UNL A   1      54.959  26.779  23.129  1.00  0.00    -0.237 OA
ATOM     79  O   UNL A   1      55.778  27.562  25.326  1.00  0.00    -0.237 OA
ATOM     80  O   UNL A   1      55.157  25.197  25.012  1.00  0.00    -0.744 OA
ENDBRANCH  76  77
ENDBRANCH  55  69
BRANCH  56  81
ATOM     81  C   UNL A   1      41.148  29.165  28.530  1.00  0.00     0.058 A 
ATOM     82  C   UNL A   1      40.808  29.154  29.890  1.00  0.00     0.135 A 
ATOM     83  C   UNL A   1      40.119  29.394  27.603  1.00  0.00     0.135 A 
ATOM     84  F   UNL A   1      41.753  28.930  30.816  1.00  0.00    -0.206 F 
ATOM     85  C   UNL A   1      39.497  29.345  30.316  1.00  0.00     0.059 A 
ATOM     86  C   UNL A   1      38.805  29.617  28.005  1.00  0.00     0.059 A 
ATOM     87  F   UNL A   1      40.390  29.425  26.289  1.00  0.00    -0.206 F 
ATOM     88  C   UNL A   1      38.503  29.580  29.365  1.00  0.00     0.060 A 
BRANCH  88  89
ATOM     89  S   UNL A   1      36.812  29.870  29.932  1.00  0.00     0.124 S 
ATOM     90  O   UNL A   1      36.818  31.314  30.141  1.00  0.00    -0.237 OA
ATOM     91  O   UNL A   1      36.026  29.391  28.800  1.00  0.00    -0.237 OA
ATOM     92  O   UNL A   1      36.719  29.057  31.140  1.00  0.00    -0.744 OA
ENDBRANCH  88  89
ENDBRANCH  56  81
BRANCH  68  93
ATOM     93  C   UNL A   1      46.926  33.095  28.606  1.00  0.00     0.058 A 
ATOM     94  C   UNL A   1      47.382  33.411  29.896  1.00  0.00     0.135 A 
ATOM     95  C   UNL A   1      46.777  34.149  27.688  1.00  0.00     0.135 A 
ATOM     96  F   UNL A   1      47.538  32.443  30.813  1.00  0.00    -0.206 F 
ATOM     97  C   UNL A   1      47.655  34.723  30.268  1.00  0.00     0.059 A 
ATOM     98  C   UNL A   1      47.076  35.463  28.028  1.00  0.00     0.059 A 
ATOM     99  F   UNL A   1      46.356  33.901  26.437  1.00  0.00    -0.206 F 
ATOM    100  C   UNL A   1      47.503  35.742  29.325  1.00  0.00     0.060 A 
BRANCH 100 101
ATOM    101  S   UNL A   1      47.894  37.435  29.813  1.00  0.00     0.124 S 
ATOM    102  O   UNL A   1      48.750  37.216  30.974  1.00  0.00    -0.237 OA
ATOM    103  O   UNL A   1      48.559  37.956  28.623  1.00  0.00    -0.237 OA
ATOM    104  O   UNL A   1      46.586  38.017  30.100  1.00  0.00    -0.744 OA
ENDBRANCH 100 101
ENDBRANCH  68  93
ENDBRANCH  42  43
ENDBRANCH  35  37
ENDBRANCH  34  35
ENDBRANCH  33  34
ENDBRANCH  32  33
ENDBRANCH  31  32
ENDBRANCH  30  31
ENDBRANCH  29  30
ENDBRANCH  28  29
ENDBRANCH   1  28
TORSDOF 28
ENDMDL
MODEL 3
REMARK VINA RESULT:      -8.6      3.721      9.474
REMARK SMILES COC(=O)Cc1nc(NC(=O)[C@H]2CC[C@@H]2C(=O)OCCOCCOCCOCCOC(=O)c2ccc(-c3c4nc(c(-c5c(F)cc(S(=O)(=O)[O-])cc5F)c5ccc([nH]5)c(-c5c(F)cc(S(=O)(=O)[O-])cc5F)c5nc(c(-c6c(F)cc(S(=O)(=O)[O-])cc6F)c6ccc3[nH]6)C=C5)C=C4)cc2)sc1C
REMARK SMILES IDX 23 1 22 2 21 3 20 4 19 5 18 6 16 7 17 8 15 9 12 10 13 11
REMARK SMILES IDX 14 12 10 13 9 14 11 16 8 17 6 18 7 19 100 20 99 21 101 22
REMARK SMILES IDX 5 23 3 24 4 25 2 26 1 27 24 28 25 29 26 30 27 31 28 32 29 33
REMARK SMILES IDX 30 34 31 35 32 36 33 37 34 38 98 39 35 40 97 41 36 42 37 43
REMARK SMILES IDX 38 44 91 45 39 46 96 47 90 48 92 49 40 50 95 51 89 52 88 53
REMARK SMILES IDX 41 55 75 56 54 57 74 58 55 59 58 60 73 61 93 62 56 63 57 64
REMARK SMILES IDX 72 66 94 67 59 68 42 69 43 70 52 71 44 72 45 73 51 74 53 75
REMARK SMILES IDX 46 76 47 77 48 78 49 79 50 80 76 81 77 82 86 83 78 84 79 85
REMARK SMILES IDX 85 86 87 87 80 88 81 89 82 90 83 91 84 92 60 93 61 94 70 95
REMARK SMILES IDX 62 96 63 97 69 98 71 99 64 100 65 101 66 102 67 103 68 104
REMARK H PARENT 9 15 92 54 58 65
REMARK Flexibility Score: inf
ROOT
ATOM      1  C   UNL A   1      40.864  25.677  26.673  1.00  0.00     0.188 C 
ENDROOT
BRANCH   1   2
ATOM      2  C   UNL A   1      39.482  25.030  26.779  1.00  0.00     0.188 C 
BRANCH   2   3
ATOM      3  O   UNL A   1      39.372  23.661  27.115  1.00  0.00    -0.376 OA
BRANCH   3   4
ATOM      4  C   UNL A   1      38.574  22.817  26.295  1.00  0.00     0.202 C 
BRANCH   4   5
ATOM      5  C   UNL A   1      37.244  23.303  25.673  1.00  0.00     0.261 C 
BRANCH   5   6
ATOM      6  O   UNL A   1      36.046  22.513  25.904  1.00  0.00    -0.463 OA
BRANCH   6   7
ATOM      7  C   UNL A   1      35.058  22.606  24.962  1.00  0.00     0.309 C 
ATOM      8  O   UNL A   1      35.320  22.727  23.762  1.00  0.00    -0.252 OA
BRANCH   7   9
ATOM      9  C   UNL A   1      33.573  22.517  25.507  1.00  0.00     0.111 C 
ATOM     10  C   UNL A   1      33.024  23.400  26.705  1.00  0.00     0.093 C 
ATOM     11  C   UNL A   1      33.602  22.288  27.634  1.00  0.00     0.015 C 
ATOM     12  C   UNL A   1      33.414  21.303  26.477  1.00  0.00     0.017 C 
BRANCH  10  13
ATOM     13  C   UNL A   1      31.525  23.697  26.909  1.00  0.00     0.230 C 
ATOM     14  N   UNL A   1      30.912  24.817  26.361  1.00  0.00    -0.302 N 
ATOM     15  H   UNL A   1      29.930  24.779  26.424  1.00  0.00     0.172 HD
ATOM     16  O   UNL A   1      30.787  22.918  27.532  1.00  0.00    -0.274 OA
BRANCH  14  17
ATOM     17  C   UNL A   1      31.359  25.968  25.750  1.00  0.00     0.189 A 
ATOM     18  C   UNL A   1      31.896  27.333  24.057  1.00  0.00     0.068 A 
ATOM     19  N   UNL A   1      31.490  26.053  24.441  1.00  0.00    -0.224 NA
ATOM     20  C   UNL A   1      32.010  28.226  25.110  1.00  0.00     0.027 A 
ATOM     21  S   UNL A   1      31.679  27.416  26.574  1.00  0.00    -0.102 S 
ATOM     22  C   UNL A   1      32.359  29.674  25.092  1.00  0.00     0.058 C 
BRANCH  18  23
ATOM     23  C   UNL A   1      32.110  27.699  22.621  1.00  0.00     0.180 C 
BRANCH  23  24
ATOM     24  C   UNL A   1      33.478  27.419  22.070  1.00  0.00     0.311 C 
ATOM     25  O   UNL A   1      34.396  28.232  22.090  1.00  0.00    -0.252 OA
BRANCH  24  26
ATOM     26  O   UNL A   1      33.593  26.120  21.673  1.00  0.00    -0.469 OA
ATOM     27  C   UNL A   1      32.498  25.665  20.877  1.00  0.00     0.282 C 
ENDBRANCH  24  26
ENDBRANCH  23  24
ENDBRANCH  18  23
ENDBRANCH  14  17
ENDBRANCH  10  13
ENDBRANCH   7   9
ENDBRANCH   6   7
ENDBRANCH   5   6
ENDBRANCH   4   5
ENDBRANCH   3   4
ENDBRANCH   2   3
ENDBRANCH   1   2
BRANCH   1  28
ATOM     28  O   UNL A   1      41.308  26.027  25.382  1.00  0.00    -0.377 OA
BRANCH  28  29
ATOM     29  C   UNL A   1      42.710  26.031  25.158  1.00  0.00     0.188 C 
BRANCH  29  30
ATOM     30  C   UNL A   1      43.428  24.670  25.121  1.00  0.00     0.188 C 
BRANCH  30  31
ATOM     31  O   UNL A   1      44.596  24.589  25.929  1.00  0.00    -0.376 OA
BRANCH  31  32
ATOM     32  C   UNL A   1      45.518  23.529  25.716  1.00  0.00     0.202 C 
BRANCH  32  33
ATOM     33  C   UNL A   1      46.671  23.737  24.716  1.00  0.00     0.261 C 
BRANCH  33  34
ATOM     34  O   UNL A   1      46.961  25.085  24.338  1.00  0.00    -0.460 OA
BRANCH  34  35
ATOM     35  C   UNL A   1      47.953  25.725  24.995  1.00  0.00     0.338 C 
ATOM     36  O   UNL A   1      49.143  25.564  24.869  1.00  0.00    -0.246 OA
BRANCH  35  37
ATOM     37  C   UNL A   1      47.313  26.826  25.743  1.00  0.00     0.060 A 
ATOM     38  C   UNL A   1      46.348  27.601  25.090  1.00  0.00     0.016 A 
ATOM     39  C   UNL A   1      47.650  27.070  27.076  1.00  0.00     0.016 A 
ATOM     40  C   UNL A   1      45.745  28.660  25.760  1.00  0.00     0.010 A 
ATOM     41  C   UNL A   1      47.065  28.149  27.738  1.00  0.00     0.010 A 
ATOM     42  C   UNL A   1      46.143  28.968  27.066  1.00  0.00    -0.014 A 
BRANCH  42  43
ATOM     43  C   UNL A   1      45.770  30.281  27.635  1.00  0.00     0.031 A 
ATOM     44  C   UNL A   1      46.739  31.418  27.464  1.00  0.00     0.074 A 
ATOM     45  C   UNL A   1      44.588  30.463  28.246  1.00  0.00     0.049 A 
ATOM     46  N   UNL A   1      46.663  32.646  27.900  1.00  0.00    -0.248 NA
ATOM     47  C   UNL A   1      47.966  31.125  26.699  1.00  0.00     0.031 C 
ATOM     48  C   UNL A   1      43.561  29.436  28.421  1.00  0.00     0.029 A 
ATOM     49  N   UNL A   1      44.058  31.577  28.843  1.00  0.00    -0.354 N 
ATOM     50  C   UNL A   1      47.830  33.268  27.474  1.00  0.00     0.074 A 
ATOM     51  C   UNL A   1      48.613  32.278  26.770  1.00  0.00     0.031 C 
ATOM     52  C   UNL A   1      42.527  29.967  29.097  1.00  0.00     0.029 A 
ATOM     53  C   UNL A   1      42.835  31.357  29.430  1.00  0.00     0.049 A 
ATOM     54  H   UNL A   1      44.510  32.451  28.849  1.00  0.00     0.167 HD
ATOM     55  C   UNL A   1      48.209  34.556  27.649  1.00  0.00     0.037 A 
ATOM     56  C   UNL A   1      42.073  32.180  30.176  1.00  0.00     0.037 A 
ATOM     57  C   UNL A   1      47.415  35.528  28.353  1.00  0.00     0.049 A 
ATOM     58  C   UNL A   1      42.547  33.592  30.414  1.00  0.00     0.074 A 
ATOM     59  C   UNL A   1      47.693  36.864  28.577  1.00  0.00     0.029 A 
ATOM     60  N   UNL A   1      46.193  35.264  28.956  1.00  0.00    -0.354 N 
ATOM     61  N   UNL A   1      43.641  34.179  29.988  1.00  0.00    -0.248 NA
ATOM     62  C   UNL A   1      41.683  34.455  31.231  1.00  0.00     0.031 C 
ATOM     63  C   UNL A   1      46.668  37.392  29.368  1.00  0.00     0.029 A 
ATOM     64  C   UNL A   1      45.717  36.405  29.578  1.00  0.00     0.049 A 
ATOM     65  H   UNL A   1      45.734  34.393  28.943  1.00  0.00     0.167 HD
ATOM     66  C   UNL A   1      43.581  35.488  30.458  1.00  0.00     0.074 A 
ATOM     67  C   UNL A   1      42.337  35.608  31.191  1.00  0.00     0.031 C 
ATOM     68  C   UNL A   1      44.470  36.500  30.296  1.00  0.00     0.037 A 
BRANCH  55  69
ATOM     69  C   UNL A   1      49.548  34.973  27.106  1.00  0.00     0.058 A 
ATOM     70  C   UNL A   1      49.734  35.302  25.754  1.00  0.00     0.135 A 
ATOM     71  C   UNL A   1      50.657  35.074  27.962  1.00  0.00     0.135 A 
ATOM     72  F   UNL A   1      48.716  35.198  24.885  1.00  0.00    -0.206 F 
ATOM     73  C   UNL A   1      50.977  35.697  25.266  1.00  0.00     0.059 A 
ATOM     74  C   UNL A   1      51.900  35.497  27.502  1.00  0.00     0.059 A 
ATOM     75  F   UNL A   1      50.539  34.761  29.262  1.00  0.00    -0.206 F 
ATOM     76  C   UNL A   1      52.052  35.795  26.150  1.00  0.00     0.060 A 
BRANCH  76  77
ATOM     77  S   UNL A   1      53.652  36.327  25.503  1.00  0.00     0.124 S 
ATOM     78  O   UNL A   1      54.560  35.403  26.175  1.00  0.00    -0.237 OA
ATOM     79  O   UNL A   1      53.488  36.125  24.067  1.00  0.00    -0.237 OA
ATOM     80  O   UNL A   1      53.746  37.720  25.931  1.00  0.00    -0.744 OA
ENDBRANCH  76  77
ENDBRANCH  55  69
BRANCH  56  81
ATOM     81  C   UNL A   1      40.797  31.689  30.765  1.00  0.00     0.058 A 
ATOM     82  C   UNL A   1      40.789  30.805  31.853  1.00  0.00     0.135 A 
ATOM     83  C   UNL A   1      39.557  32.096  30.248  1.00  0.00     0.135 A 
ATOM     84  F   UNL A   1      41.948  30.377  32.378  1.00  0.00    -0.206 F 
ATOM     85  C   UNL A   1      39.600  30.327  32.397  1.00  0.00     0.059 A 
ATOM     86  C   UNL A   1      38.354  31.657  30.793  1.00  0.00     0.059 A 
ATOM     87  F   UNL A   1      39.507  32.950  29.213  1.00  0.00    -0.206 F 
ATOM     88  C   UNL A   1      38.387  30.763  31.861  1.00  0.00     0.060 A 
BRANCH  88  89
ATOM     89  S   UNL A   1      36.850  30.172  32.604  1.00  0.00     0.124 S 
ATOM     90  O   UNL A   1      37.337  29.111  33.478  1.00  0.00    -0.237 OA
ATOM     91  O   UNL A   1      36.355  31.372  33.271  1.00  0.00    -0.237 OA
ATOM     92  O   UNL A   1      36.067  29.735  31.453  1.00  0.00    -0.744 OA
ENDBRANCH  88  89
ENDBRANCH  56  81
BRANCH  68  93
ATOM     93  C   UNL A   1      44.114  37.839  30.884  1.00  0.00     0.058 A 
ATOM     94  C   UNL A   1      43.593  38.880  30.100  1.00  0.00     0.135 A 
ATOM     95  C   UNL A   1      44.238  38.060  32.266  1.00  0.00     0.135 A 
ATOM     96  F   UNL A   1      43.456  38.725  28.774  1.00  0.00    -0.206 F 
ATOM     97  C   UNL A   1      43.233  40.101  30.662  1.00  0.00     0.059 A 
ATOM     98  C   UNL A   1      43.853  39.259  32.854  1.00  0.00     0.059 A 
ATOM     99  F   UNL A   1      44.719  37.092  33.065  1.00  0.00    -0.206 F 
ATOM    100  C   UNL A   1      43.363  40.279  32.041  1.00  0.00     0.060 A 
BRANCH 100 101
ATOM    101  S   UNL A   1      42.860  41.856  32.759  1.00  0.00     0.124 S 
ATOM    102  O   UNL A   1      42.386  42.577  31.582  1.00  0.00    -0.237 OA
ATOM    103  O   UNL A   1      41.831  41.451  33.712  1.00  0.00    -0.237 OA
ATOM    104  O   UNL A   1      44.091  42.368  33.353  1.00  0.00    -0.744 OA
ENDBRANCH 100 101
ENDBRANCH  68  93
ENDBRANCH  42  43
ENDBRANCH  35  37
ENDBRANCH  34  35
ENDBRANCH  33  34
ENDBRANCH  32  33
ENDBRANCH  31  32
ENDBRANCH  30  31
ENDBRANCH  29  30
ENDBRANCH  28  29
ENDBRANCH   1  28
TORSDOF 28
ENDMDL
