MODEL 1
REMARK VINA RESULT:     -10.6      0.000      0.000
REMARK SMILES Cc1ccccc1C(=O)Nc1ccc(N2CCCCC2)cc1C(=O)OCCOCCOCCOCCOC(=O)c1ccc(-c2c3nc(c(-c4c(F)cc(S(=O)(=O)[O-])cc4F)c4ccc([nH]4)c(-c4c(F)cc(S(=O)(=O)[O-])cc4F)c4nc(c(-c5c(F)cc(S(=O)(=O)[O-])cc5F)c5ccc2[nH]5)C=C4)C=C3)cc1
REMARK SMILES IDX 32 1 31 2 30 3 29 4 28 5 27 6 26 7 25 8 23 9 24 10 22 11
REMARK SMILES IDX 11 12 12 13 13 14 21 15 14 16 10 17 8 18 9 19 7 21 1 22 2 23
REMARK SMILES IDX 3 24 4 25 6 26 5 27 15 28 16 29 20 30 17 31 19 32 18 33
REMARK SMILES IDX 33 34 34 35 35 36 36 37 37 38 38 39 39 40 40 41 41 42 105 43
REMARK SMILES IDX 42 44 104 45 43 46 44 47 45 48 98 49 46 50 103 51 97 52
REMARK SMILES IDX 99 53 47 54 102 55 96 56 95 57 48 59 82 60 61 61 81 62 62 63
REMARK SMILES IDX 65 64 80 65 100 66 63 67 64 68 79 70 101 71 66 72 49 73
REMARK SMILES IDX 50 74 59 75 51 76 52 77 58 78 60 79 53 80 54 81 55 82 56 83
REMARK SMILES IDX 57 84 83 85 84 86 93 87 85 88 86 89 92 90 94 91 87 92 88 93
REMARK SMILES IDX 89 94 90 95 91 96 67 97 68 98 77 99 69 100 70 101 76 102
REMARK SMILES IDX 78 103 71 104 72 105 73 106 74 107 75 108
REMARK H PARENT 10 20 99 58 65 69
REMARK Flexibility Score: inf
ROOT
ATOM      1  C   UNL A   1      36.714  22.026  25.276  1.00  0.00     0.188 C 
ENDROOT
BRANCH   1   2
ATOM      2  O   UNL A   1      35.368  21.814  25.732  1.00  0.00    -0.377 OA
BRANCH   2   3
ATOM      3  C   UNL A   1      34.555  20.969  24.902  1.00  0.00     0.188 C 
BRANCH   3   4
ATOM      4  C   UNL A   1      33.770  21.788  23.886  1.00  0.00     0.188 C 
BRANCH   4   5
ATOM      5  O   UNL A   1      34.417  22.662  22.988  1.00  0.00    -0.376 OA
BRANCH   5   6
ATOM      6  C   UNL A   1      34.523  23.981  23.448  1.00  0.00     0.202 C 
BRANCH   6   7
ATOM      7  C   UNL A   1      33.715  25.097  22.766  1.00  0.00     0.261 C 
BRANCH   7   8
ATOM      8  O   UNL A   1      33.489  26.309  23.467  1.00  0.00    -0.460 OA
BRANCH   8   9
ATOM      9  C   UNL A   1      32.674  27.141  22.793  1.00  0.00     0.340 C 
ATOM     10  O   UNL A   1      32.064  26.943  21.748  1.00  0.00    -0.246 OA
BRANCH   9  11
ATOM     11  C   UNL A   1      32.394  28.291  23.636  1.00  0.00     0.085 A 
ATOM     12  C   UNL A   1      31.055  28.665  23.781  1.00  0.00     0.056 A 
ATOM     13  C   UNL A   1      30.744  29.803  24.489  1.00  0.00     0.029 A 
ATOM     14  C   UNL A   1      31.726  30.374  25.284  1.00  0.00     0.028 A 
ATOM     15  C   UNL A   1      33.360  28.792  24.519  1.00  0.00     0.043 A 
ATOM     16  C   UNL A   1      32.969  29.738  25.473  1.00  0.00     0.038 A 
BRANCH  12  17
ATOM     17  N   UNL A   1      30.032  27.819  23.355  1.00  0.00    -0.321 N 
ATOM     18  C   UNL A   1      29.433  26.770  24.028  1.00  0.00     0.255 C 
ATOM     19  O   UNL A   1      28.253  26.547  23.729  1.00  0.00    -0.269 OA
ATOM     20  H   UNL A   1      29.688  27.992  22.449  1.00  0.00     0.170 HD
BRANCH  18  21
ATOM     21  C   UNL A   1      30.158  25.732  24.926  1.00  0.00     0.043 A 
ATOM     22  C   UNL A   1      31.245  27.035  26.923  1.00  0.00     0.045 C 
ATOM     23  C   UNL A   1      30.810  25.816  26.179  1.00  0.00    -0.038 A 
ATOM     24  C   UNL A   1      31.345  24.657  26.801  1.00  0.00     0.004 A 
ATOM     25  C   UNL A   1      31.514  23.480  26.101  1.00  0.00     0.000 A 
ATOM     26  C   UNL A   1      30.407  24.519  24.231  1.00  0.00     0.014 A 
ATOM     27  C   UNL A   1      31.108  23.438  24.783  1.00  0.00     0.001 A 
ENDBRANCH  18  21
ENDBRANCH  12  17
BRANCH  16  28
ATOM     28  N   UNL A   1      33.634  29.909  26.670  1.00  0.00    -0.372 N 
ATOM     29  C   UNL A   1      33.357  31.082  27.514  1.00  0.00     0.116 C 
ATOM     30  C   UNL A   1      34.440  28.894  27.331  1.00  0.00     0.116 C 
ATOM     31  C   UNL A   1      34.669  31.806  27.756  1.00  0.00     0.021 C 
ATOM     32  C   UNL A   1      35.815  29.530  27.534  1.00  0.00     0.021 C 
ATOM     33  C   UNL A   1      35.727  30.851  28.315  1.00  0.00     0.004 C 
ENDBRANCH  16  28
ENDBRANCH   9  11
ENDBRANCH   8   9
ENDBRANCH   7   8
ENDBRANCH   6   7
ENDBRANCH   5   6
ENDBRANCH   4   5
ENDBRANCH   3   4
ENDBRANCH   2   3
ENDBRANCH   1   2
BRANCH   1  34
ATOM     34  C   UNL A   1      37.525  20.760  25.043  1.00  0.00     0.188 C 
BRANCH  34  35
ATOM     35  O   UNL A   1      38.900  21.084  25.215  1.00  0.00    -0.376 OA
BRANCH  35  36
ATOM     36  C   UNL A   1      39.256  21.751  26.405  1.00  0.00     0.202 C 
BRANCH  36  37
ATOM     37  C   UNL A   1      40.447  21.078  27.060  1.00  0.00     0.261 C 
BRANCH  37  38
ATOM     38  O   UNL A   1      41.385  22.087  27.528  1.00  0.00    -0.460 OA
BRANCH  38  39
ATOM     39  C   UNL A   1      41.933  22.983  26.653  1.00  0.00     0.338 C 
ATOM     40  O   UNL A   1      42.263  22.661  25.519  1.00  0.00    -0.246 OA
BRANCH  39  41
ATOM     41  C   UNL A   1      41.832  24.423  27.050  1.00  0.00     0.060 A 
ATOM     42  C   UNL A   1      41.658  25.427  26.085  1.00  0.00     0.016 A 
ATOM     43  C   UNL A   1      41.917  24.807  28.380  1.00  0.00     0.016 A 
ATOM     44  C   UNL A   1      41.735  26.799  26.423  1.00  0.00     0.010 A 
ATOM     45  C   UNL A   1      42.047  26.159  28.703  1.00  0.00     0.010 A 
ATOM     46  C   UNL A   1      41.997  27.187  27.739  1.00  0.00    -0.014 A 
BRANCH  46  47
ATOM     47  C   UNL A   1      42.425  28.558  28.182  1.00  0.00     0.031 A 
ATOM     48  C   UNL A   1      41.357  29.576  28.623  1.00  0.00     0.074 A 
ATOM     49  C   UNL A   1      43.715  28.655  28.607  1.00  0.00     0.049 A 
ATOM     50  N   UNL A   1      41.531  30.742  29.180  1.00  0.00    -0.248 NA
ATOM     51  C   UNL A   1      39.926  29.324  28.401  1.00  0.00     0.031 C 
ATOM     52  C   UNL A   1      44.199  29.047  29.916  1.00  0.00     0.029 A 
ATOM     53  N   UNL A   1      44.908  28.288  27.999  1.00  0.00    -0.354 N 
ATOM     54  C   UNL A   1      40.286  31.223  29.653  1.00  0.00     0.074 A 
ATOM     55  C   UNL A   1      39.329  30.325  29.058  1.00  0.00     0.031 C 
ATOM     56  C   UNL A   1      45.513  29.253  29.953  1.00  0.00     0.029 A 
ATOM     57  C   UNL A   1      45.980  28.954  28.647  1.00  0.00     0.049 A 
ATOM     58  H   UNL A   1      44.995  27.666  27.240  1.00  0.00     0.167 HD
ATOM     59  C   UNL A   1      40.190  32.225  30.608  1.00  0.00     0.037 A 
ATOM     60  C   UNL A   1      46.859  29.737  27.986  1.00  0.00     0.037 A 
ATOM     61  C   UNL A   1      41.487  32.925  30.836  1.00  0.00     0.049 A 
ATOM     62  C   UNL A   1      46.472  31.222  28.063  1.00  0.00     0.074 A 
ATOM     63  C   UNL A   1      42.148  33.529  31.903  1.00  0.00     0.029 A 
ATOM     64  N   UNL A   1      42.416  32.972  29.804  1.00  0.00    -0.354 N 
ATOM     65  N   UNL A   1      45.623  31.773  28.916  1.00  0.00    -0.248 NA
ATOM     66  C   UNL A   1      47.005  32.208  27.124  1.00  0.00     0.031 C 
ATOM     67  C   UNL A   1      43.476  33.873  31.506  1.00  0.00     0.029 A 
ATOM     68  C   UNL A   1      43.606  33.549  30.172  1.00  0.00     0.049 A 
ATOM     69  H   UNL A   1      42.240  32.624  28.900  1.00  0.00     0.167 HD
ATOM     70  C   UNL A   1      45.407  33.101  28.565  1.00  0.00     0.074 A 
ATOM     71  C   UNL A   1      46.317  33.315  27.452  1.00  0.00     0.031 C 
ATOM     72  C   UNL A   1      44.488  33.968  29.109  1.00  0.00     0.037 A 
BRANCH  59  73
ATOM     73  C   UNL A   1      38.954  32.512  31.552  1.00  0.00     0.058 A 
ATOM     74  C   UNL A   1      38.002  33.516  31.219  1.00  0.00     0.135 A 
ATOM     75  C   UNL A   1      38.705  31.956  32.834  1.00  0.00     0.135 A 
ATOM     76  F   UNL A   1      37.952  34.050  29.993  1.00  0.00    -0.206 F 
ATOM     77  C   UNL A   1      37.005  34.000  32.086  1.00  0.00     0.059 A 
ATOM     78  C   UNL A   1      37.642  32.354  33.684  1.00  0.00     0.059 A 
ATOM     79  F   UNL A   1      39.480  30.999  33.353  1.00  0.00    -0.206 F 
ATOM     80  C   UNL A   1      36.814  33.404  33.317  1.00  0.00     0.060 A 
BRANCH  80  81
ATOM     81  S   UNL A   1      35.412  33.930  34.336  1.00  0.00     0.124 S 
ATOM     82  O   UNL A   1      35.875  33.633  35.688  1.00  0.00    -0.237 OA
ATOM     83  O   UNL A   1      35.300  35.349  34.008  1.00  0.00    -0.237 OA
ATOM     84  O   UNL A   1      34.311  33.101  33.856  1.00  0.00    -0.744 OA
ENDBRANCH  80  81
ENDBRANCH  59  73
BRANCH  60  85
ATOM     85  C   UNL A   1      47.575  28.828  27.009  1.00  0.00     0.058 A 
ATOM     86  C   UNL A   1      48.160  27.703  27.663  1.00  0.00     0.135 A 
ATOM     87  C   UNL A   1      46.953  28.558  25.775  1.00  0.00     0.135 A 
ATOM     88  F   UNL A   1      48.822  27.880  28.820  1.00  0.00    -0.206 F 
ATOM     89  C   UNL A   1      47.826  26.387  27.319  1.00  0.00     0.059 A 
ATOM     90  C   UNL A   1      46.606  27.241  25.413  1.00  0.00     0.059 A 
ATOM     91  F   UNL A   1      46.411  29.565  25.074  1.00  0.00    -0.206 F 
ATOM     92  C   UNL A   1      46.973  26.173  26.242  1.00  0.00     0.060 A 
BRANCH  92  93
ATOM     93  S   UNL A   1      46.095  24.579  26.130  1.00  0.00     0.124 S 
ATOM     94  O   UNL A   1      45.005  24.760  27.079  1.00  0.00    -0.237 OA
ATOM     95  O   UNL A   1      45.713  24.513  24.720  1.00  0.00    -0.237 OA
ATOM     96  O   UNL A   1      47.126  23.624  26.510  1.00  0.00    -0.744 OA
ENDBRANCH  92  93
ENDBRANCH  60  85
BRANCH  72  97
ATOM     97  C   UNL A   1      44.204  35.378  28.618  1.00  0.00     0.058 A 
ATOM     98  C   UNL A   1      44.630  36.527  29.290  1.00  0.00     0.135 A 
ATOM     99  C   UNL A   1      43.351  35.603  27.499  1.00  0.00     0.135 A 
ATOM    100  F   UNL A   1      45.339  36.430  30.425  1.00  0.00    -0.206 F 
ATOM    101  C   UNL A   1      44.329  37.808  28.819  1.00  0.00     0.059 A 
ATOM    102  C   UNL A   1      42.977  36.864  27.061  1.00  0.00     0.059 A 
ATOM    103  F   UNL A   1      42.866  34.601  26.755  1.00  0.00    -0.206 F 
ATOM    104  C   UNL A   1      43.518  37.965  27.693  1.00  0.00     0.060 A 
BRANCH 104 105
ATOM    105  S   UNL A   1      43.206  39.606  27.028  1.00  0.00     0.124 S 
ATOM    106  O   UNL A   1      41.947  39.424  26.314  1.00  0.00    -0.237 OA
ATOM    107  O   UNL A   1      43.131  40.399  28.252  1.00  0.00    -0.237 OA
ATOM    108  O   UNL A   1      44.369  39.866  26.183  1.00  0.00    -0.744 OA
ENDBRANCH 104 105
ENDBRANCH  72  97
ENDBRANCH  46  47
ENDBRANCH  39  41
ENDBRANCH  38  39
ENDBRANCH  37  38
ENDBRANCH  36  37
ENDBRANCH  35  36
ENDBRANCH  34  35
ENDBRANCH   1  34
TORSDOF 26
ENDMDL
MODEL 2
REMARK VINA RESULT:      -9.8      3.820      8.720
REMARK SMILES Cc1ccccc1C(=O)Nc1ccc(N2CCCCC2)cc1C(=O)OCCOCCOCCOCCOC(=O)c1ccc(-c2c3nc(c(-c4c(F)cc(S(=O)(=O)[O-])cc4F)c4ccc([nH]4)c(-c4c(F)cc(S(=O)(=O)[O-])cc4F)c4nc(c(-c5c(F)cc(S(=O)(=O)[O-])cc5F)c5ccc2[nH]5)C=C4)C=C3)cc1
REMARK SMILES IDX 32 1 31 2 30 3 29 4 28 5 27 6 26 7 25 8 23 9 24 10 22 11
REMARK SMILES IDX 11 12 12 13 13 14 21 15 14 16 10 17 8 18 9 19 7 21 1 22 2 23
REMARK SMILES IDX 3 24 4 25 6 26 5 27 15 28 16 29 20 30 17 31 19 32 18 33
REMARK SMILES IDX 33 34 34 35 35 36 36 37 37 38 38 39 39 40 40 41 41 42 105 43
REMARK SMILES IDX 42 44 104 45 43 46 44 47 45 48 98 49 46 50 103 51 97 52
REMARK SMILES IDX 99 53 47 54 102 55 96 56 95 57 48 59 82 60 61 61 81 62 62 63
REMARK SMILES IDX 65 64 80 65 100 66 63 67 64 68 79 70 101 71 66 72 49 73
REMARK SMILES IDX 50 74 59 75 51 76 52 77 58 78 60 79 53 80 54 81 55 82 56 83
REMARK SMILES IDX 57 84 83 85 84 86 93 87 85 88 86 89 92 90 94 91 87 92 88 93
REMARK SMILES IDX 89 94 90 95 91 96 67 97 68 98 77 99 69 100 70 101 76 102
REMARK SMILES IDX 78 103 71 104 72 105 73 106 74 107 75 108
REMARK H PARENT 10 20 99 58 65 69
REMARK Flexibility Score: inf
ROOT
ATOM      1  C   UNL A   1      36.226  21.557  25.482  1.00  0.00     0.188 C 
ENDROOT
BRANCH   1   2
ATOM      2  O   UNL A   1      35.571  22.095  26.641  1.00  0.00    -0.377 OA
BRANCH   2   3
ATOM      3  C   UNL A   1      34.408  21.379  27.088  1.00  0.00     0.188 C 
BRANCH   3   4
ATOM      4  C   UNL A   1      33.179  21.769  26.278  1.00  0.00     0.188 C 
BRANCH   4   5
ATOM      5  O   UNL A   1      32.643  20.913  25.294  1.00  0.00    -0.376 OA
BRANCH   5   6
ATOM      6  C   UNL A   1      31.546  21.447  24.605  1.00  0.00     0.202 C 
BRANCH   6   7
ATOM      7  C   UNL A   1      30.626  22.462  25.303  1.00  0.00     0.261 C 
BRANCH   7   8
ATOM      8  O   UNL A   1      30.765  23.840  24.996  1.00  0.00    -0.460 OA
BRANCH   8   9
ATOM      9  C   UNL A   1      30.897  24.596  26.102  1.00  0.00     0.340 C 
ATOM     10  O   UNL A   1      31.067  24.239  27.263  1.00  0.00    -0.246 OA
BRANCH   9  11
ATOM     11  C   UNL A   1      31.068  25.979  25.694  1.00  0.00     0.085 A 
ATOM     12  C   UNL A   1      32.376  26.468  25.630  1.00  0.00     0.056 A 
ATOM     13  C   UNL A   1      32.588  27.798  25.343  1.00  0.00     0.029 A 
ATOM     14  C   UNL A   1      31.531  28.538  24.836  1.00  0.00     0.028 A 
ATOM     15  C   UNL A   1      30.026  26.686  25.079  1.00  0.00     0.043 A 
ATOM     16  C   UNL A   1      30.311  27.924  24.492  1.00  0.00     0.038 A 
BRANCH  12  17
ATOM     17  N   UNL A   1      33.463  25.597  25.696  1.00  0.00    -0.321 N 
ATOM     18  C   UNL A   1      34.318  25.195  24.686  1.00  0.00     0.255 C 
ATOM     19  O   UNL A   1      35.467  24.908  25.042  1.00  0.00    -0.269 OA
ATOM     20  H   UNL A   1      33.648  25.216  26.585  1.00  0.00     0.170 HD
BRANCH  18  21
ATOM     21  C   UNL A   1      33.909  24.857  23.228  1.00  0.00     0.043 A 
ATOM     22  C   UNL A   1      33.041  27.066  22.116  1.00  0.00     0.045 C 
ATOM     23  C   UNL A   1      33.489  25.642  22.128  1.00  0.00    -0.038 A 
ATOM     24  C   UNL A   1      33.230  25.046  20.865  1.00  0.00     0.004 A 
ATOM     25  C   UNL A   1      33.092  23.680  20.730  1.00  0.00     0.000 A 
ATOM     26  C   UNL A   1      33.698  23.464  23.051  1.00  0.00     0.014 A 
ATOM     27  C   UNL A   1      33.255  22.892  21.850  1.00  0.00     0.001 A 
ENDBRANCH  18  21
ENDBRANCH  12  17
BRANCH  16  28
ATOM     28  N   UNL A   1      29.565  28.448  23.456  1.00  0.00    -0.372 N 
ATOM     29  C   UNL A   1      30.204  29.278  22.424  1.00  0.00     0.116 C 
ATOM     30  C   UNL A   1      28.202  28.057  23.127  1.00  0.00     0.116 C 
ATOM     31  C   UNL A   1      29.480  30.611  22.379  1.00  0.00     0.021 C 
ATOM     32  C   UNL A   1      27.389  29.353  23.145  1.00  0.00     0.021 C 
ATOM     33  C   UNL A   1      27.974  30.409  22.195  1.00  0.00     0.004 C 
ENDBRANCH  16  28
ENDBRANCH   9  11
ENDBRANCH   8   9
ENDBRANCH   7   8
ENDBRANCH   6   7
ENDBRANCH   5   6
ENDBRANCH   4   5
ENDBRANCH   3   4
ENDBRANCH   2   3
ENDBRANCH   1   2
BRANCH   1  34
ATOM     34  C   UNL A   1      35.726  20.192  25.031  1.00  0.00     0.188 C 
BRANCH  34  35
ATOM     35  O   UNL A   1      36.847  19.318  24.959  1.00  0.00    -0.376 OA
BRANCH  35  36
ATOM     36  C   UNL A   1      38.115  19.914  24.806  1.00  0.00     0.202 C 
BRANCH  36  37
ATOM     37  C   UNL A   1      39.122  19.281  25.747  1.00  0.00     0.261 C 
BRANCH  37  38
ATOM     38  O   UNL A   1      40.051  20.294  26.226  1.00  0.00    -0.460 OA
BRANCH  38  39
ATOM     39  C   UNL A   1      41.399  20.122  26.081  1.00  0.00     0.338 C 
ATOM     40  O   UNL A   1      41.867  19.199  25.426  1.00  0.00    -0.246 OA
BRANCH  39  41
ATOM     41  C   UNL A   1      42.251  21.276  26.510  1.00  0.00     0.060 A 
ATOM     42  C   UNL A   1      42.225  21.736  27.836  1.00  0.00     0.016 A 
ATOM     43  C   UNL A   1      43.081  21.928  25.611  1.00  0.00     0.016 A 
ATOM     44  C   UNL A   1      42.887  22.928  28.217  1.00  0.00     0.010 A 
ATOM     45  C   UNL A   1      43.687  23.131  25.975  1.00  0.00     0.010 A 
ATOM     46  C   UNL A   1      43.581  23.683  27.269  1.00  0.00    -0.014 A 
BRANCH  46  47
ATOM     47  C   UNL A   1      44.044  25.102  27.444  1.00  0.00     0.031 A 
ATOM     48  C   UNL A   1      45.549  25.392  27.597  1.00  0.00     0.074 A 
ATOM     49  C   UNL A   1      43.180  26.055  26.995  1.00  0.00     0.049 A 
ATOM     50  N   UNL A   1      46.154  26.547  27.601  1.00  0.00    -0.248 NA
ATOM     51  C   UNL A   1      46.516  24.306  27.809  1.00  0.00     0.031 C 
ATOM     52  C   UNL A   1      43.399  27.045  25.958  1.00  0.00     0.029 A 
ATOM     53  N   UNL A   1      41.837  26.274  27.270  1.00  0.00    -0.354 N 
ATOM     54  C   UNL A   1      47.552  26.340  27.502  1.00  0.00     0.074 A 
ATOM     55  C   UNL A   1      47.700  24.923  27.718  1.00  0.00     0.031 C 
ATOM     56  C   UNL A   1      42.445  27.970  25.902  1.00  0.00     0.029 A 
ATOM     57  C   UNL A   1      41.500  27.599  26.893  1.00  0.00     0.049 A 
ATOM     58  H   UNL A   1      41.219  25.616  27.664  1.00  0.00     0.167 HD
ATOM     59  C   UNL A   1      48.425  27.342  27.103  1.00  0.00     0.037 A 
ATOM     60  C   UNL A   1      40.954  28.486  27.753  1.00  0.00     0.037 A 
ATOM     61  C   UNL A   1      47.786  28.690  27.096  1.00  0.00     0.049 A 
ATOM     62  C   UNL A   1      42.016  29.405  28.377  1.00  0.00     0.074 A 
ATOM     63  C   UNL A   1      47.887  29.864  26.354  1.00  0.00     0.029 A 
ATOM     64  N   UNL A   1      46.722  28.933  27.956  1.00  0.00    -0.354 N 
ATOM     65  N   UNL A   1      43.249  29.601  27.935  1.00  0.00    -0.248 NA
ATOM     66  C   UNL A   1      41.761  30.157  29.605  1.00  0.00     0.031 C 
ATOM     67  C   UNL A   1      46.849  30.763  26.744  1.00  0.00     0.029 A 
ATOM     68  C   UNL A   1      46.156  30.171  27.779  1.00  0.00     0.049 A 
ATOM     69  H   UNL A   1      46.405  28.283  28.624  1.00  0.00     0.167 HD
ATOM     70  C   UNL A   1      43.958  30.363  28.856  1.00  0.00     0.074 A 
ATOM     71  C   UNL A   1      42.964  30.697  29.864  1.00  0.00     0.031 C 
ATOM     72  C   UNL A   1      45.301  30.658  28.836  1.00  0.00     0.037 A 
BRANCH  59  73
ATOM     73  C   UNL A   1      49.872  27.144  26.496  1.00  0.00     0.058 A 
ATOM     74  C   UNL A   1      50.976  27.892  26.993  1.00  0.00     0.135 A 
ATOM     75  C   UNL A   1      50.231  26.361  25.368  1.00  0.00     0.135 A 
ATOM     76  F   UNL A   1      50.901  28.566  28.146  1.00  0.00    -0.206 F 
ATOM     77  C   UNL A   1      52.243  27.957  26.383  1.00  0.00     0.059 A 
ATOM     78  C   UNL A   1      51.529  26.330  24.799  1.00  0.00     0.059 A 
ATOM     79  F   UNL A   1      49.346  25.583  24.737  1.00  0.00    -0.206 F 
ATOM     80  C   UNL A   1      52.525  27.159  25.292  1.00  0.00     0.060 A 
BRANCH  80  81
ATOM     81  S   UNL A   1      54.214  27.133  24.639  1.00  0.00     0.124 S 
ATOM     82  O   UNL A   1      54.427  28.525  24.257  1.00  0.00    -0.237 OA
ATOM     83  O   UNL A   1      54.989  26.671  25.788  1.00  0.00    -0.237 OA
ATOM     84  O   UNL A   1      54.138  26.186  23.531  1.00  0.00    -0.744 OA
ENDBRANCH  80  81
ENDBRANCH  59  73
BRANCH  60  85
ATOM     85  C   UNL A   1      39.616  27.906  28.159  1.00  0.00     0.058 A 
ATOM     86  C   UNL A   1      39.704  27.174  29.381  1.00  0.00     0.135 A 
ATOM     87  C   UNL A   1      38.471  28.714  28.015  1.00  0.00     0.135 A 
ATOM     88  F   UNL A   1      40.737  26.336  29.578  1.00  0.00    -0.206 F 
ATOM     89  C   UNL A   1      38.935  27.507  30.503  1.00  0.00     0.059 A 
ATOM     90  C   UNL A   1      37.687  29.062  29.133  1.00  0.00     0.059 A 
ATOM     91  F   UNL A   1      38.290  29.405  26.880  1.00  0.00    -0.206 F 
ATOM     92  C   UNL A   1      37.987  28.518  30.389  1.00  0.00     0.060 A 
BRANCH  92  93
ATOM     93  S   UNL A   1      37.399  29.336  31.908  1.00  0.00     0.124 S 
ATOM     94  O   UNL A   1      37.413  28.245  32.872  1.00  0.00    -0.237 OA
ATOM     95  O   UNL A   1      38.389  30.390  32.118  1.00  0.00    -0.237 OA
ATOM     96  O   UNL A   1      36.086  29.827  31.513  1.00  0.00    -0.744 OA
ENDBRANCH  92  93
ENDBRANCH  60  85
BRANCH  72  97
ATOM     97  C   UNL A   1      46.060  31.400  29.924  1.00  0.00     0.058 A 
ATOM     98  C   UNL A   1      46.407  32.750  29.835  1.00  0.00     0.135 A 
ATOM     99  C   UNL A   1      46.588  30.703  31.049  1.00  0.00     0.135 A 
ATOM    100  F   UNL A   1      46.065  33.474  28.759  1.00  0.00    -0.206 F 
ATOM    101  C   UNL A   1      47.127  33.392  30.848  1.00  0.00     0.059 A 
ATOM    102  C   UNL A   1      47.368  31.302  32.025  1.00  0.00     0.059 A 
ATOM    103  F   UNL A   1      46.339  29.406  31.271  1.00  0.00    -0.206 F 
ATOM    104  C   UNL A   1      47.586  32.663  31.947  1.00  0.00     0.060 A 
BRANCH 104 105
ATOM    105  S   UNL A   1      48.428  33.501  33.297  1.00  0.00     0.124 S 
ATOM    106  O   UNL A   1      48.976  32.389  34.066  1.00  0.00    -0.237 OA
ATOM    107  O   UNL A   1      49.404  34.306  32.566  1.00  0.00    -0.237 OA
ATOM    108  O   UNL A   1      47.366  34.253  33.958  1.00  0.00    -0.744 OA
ENDBRANCH 104 105
ENDBRANCH  72  97
ENDBRANCH  46  47
ENDBRANCH  39  41
ENDBRANCH  38  39
ENDBRANCH  37  38
ENDBRANCH  36  37
ENDBRANCH  35  36
ENDBRANCH  34  35
ENDBRANCH   1  34
TORSDOF 26
ENDMDL
MODEL 3
REMARK VINA RESULT:      -9.7      2.117      3.523
REMARK SMILES Cc1ccccc1C(=O)Nc1ccc(N2CCCCC2)cc1C(=O)OCCOCCOCCOCCOC(=O)c1ccc(-c2c3nc(c(-c4c(F)cc(S(=O)(=O)[O-])cc4F)c4ccc([nH]4)c(-c4c(F)cc(S(=O)(=O)[O-])cc4F)c4nc(c(-c5c(F)cc(S(=O)(=O)[O-])cc5F)c5ccc2[nH]5)C=C4)C=C3)cc1
REMARK SMILES IDX 32 1 31 2 30 3 29 4 28 5 27 6 26 7 25 8 23 9 24 10 22 11
REMARK SMILES IDX 11 12 12 13 13 14 21 15 14 16 10 17 8 18 9 19 7 21 1 22 2 23
REMARK SMILES IDX 3 24 4 25 6 26 5 27 15 28 16 29 20 30 17 31 19 32 18 33
REMARK SMILES IDX 33 34 34 35 35 36 36 37 37 38 38 39 39 40 40 41 41 42 105 43
REMARK SMILES IDX 42 44 104 45 43 46 44 47 45 48 98 49 46 50 103 51 97 52
REMARK SMILES IDX 99 53 47 54 102 55 96 56 95 57 48 59 82 60 61 61 81 62 62 63
REMARK SMILES IDX 65 64 80 65 100 66 63 67 64 68 79 70 101 71 66 72 49 73
REMARK SMILES IDX 50 74 59 75 51 76 52 77 58 78 60 79 53 80 54 81 55 82 56 83
REMARK SMILES IDX 57 84 83 85 84 86 93 87 85 88 86 89 92 90 94 91 87 92 88 93
REMARK SMILES IDX 89 94 90 95 91 96 67 97 68 98 77 99 69 100 70 101 76 102
REMARK SMILES IDX 78 103 71 104 72 105 73 106 74 107 75 108
REMARK H PARENT 10 20 99 58 65 69
REMARK Flexibility Score: inf
ROOT
ATOM      1  C   UNL A   1      35.960  21.296  25.415  1.00  0.00     0.188 C 
ENDROOT
BRANCH   1   2
ATOM      2  O   UNL A   1      35.260  21.682  26.608  1.00  0.00    -0.377 OA
BRANCH   2   3
ATOM      3  C   UNL A   1      33.963  21.090  26.788  1.00  0.00     0.188 C 
BRANCH   3   4
ATOM      4  C   UNL A   1      32.886  21.904  26.082  1.00  0.00     0.188 C 
BRANCH   4   5
ATOM      5  O   UNL A   1      32.196  21.397  24.962  1.00  0.00    -0.376 OA
BRANCH   5   6
ATOM      6  C   UNL A   1      31.435  22.354  24.277  1.00  0.00     0.202 C 
BRANCH   6   7
ATOM      7  C   UNL A   1      30.565  23.346  25.066  1.00  0.00     0.261 C 
BRANCH   7   8
ATOM      8  O   UNL A   1      30.844  24.733  24.968  1.00  0.00    -0.460 OA
BRANCH   8   9
ATOM      9  C   UNL A   1      31.067  25.293  26.171  1.00  0.00     0.340 C 
ATOM     10  O   UNL A   1      31.121  24.757  27.272  1.00  0.00    -0.246 OA
BRANCH   9  11
ATOM     11  C   UNL A   1      31.507  26.662  25.965  1.00  0.00     0.085 A 
ATOM     12  C   UNL A   1      32.881  26.908  26.030  1.00  0.00     0.056 A 
ATOM     13  C   UNL A   1      33.342  28.202  25.939  1.00  0.00     0.029 A 
ATOM     14  C   UNL A   1      32.470  29.181  25.488  1.00  0.00     0.028 A 
ATOM     15  C   UNL A   1      30.651  27.619  25.404  1.00  0.00     0.043 A 
ATOM     16  C   UNL A   1      31.188  28.848  25.006  1.00  0.00     0.038 A 
BRANCH  12  17
ATOM     17  N   UNL A   1      33.791  25.852  26.027  1.00  0.00    -0.321 N 
ATOM     18  C   UNL A   1      34.479  25.299  24.964  1.00  0.00     0.255 C 
ATOM     19  O   UNL A   1      35.580  24.805  25.237  1.00  0.00    -0.269 OA
ATOM     20  H   UNL A   1      33.969  25.443  26.906  1.00  0.00     0.170 HD
BRANCH  18  21
ATOM     21  C   UNL A   1      33.907  25.042  23.544  1.00  0.00     0.043 A 
ATOM     22  C   UNL A   1      34.756  22.689  22.762  1.00  0.00     0.045 C 
ATOM     23  C   UNL A   1      33.922  23.925  22.676  1.00  0.00    -0.038 A 
ATOM     24  C   UNL A   1      33.247  23.963  21.427  1.00  0.00     0.004 A 
ATOM     25  C   UNL A   1      32.809  25.153  20.884  1.00  0.00     0.000 A 
ATOM     26  C   UNL A   1      33.494  26.248  22.918  1.00  0.00     0.014 A 
ATOM     27  C   UNL A   1      33.004  26.313  21.606  1.00  0.00     0.001 A 
ENDBRANCH  18  21
ENDBRANCH  12  17
BRANCH  16  28
ATOM     28  N   UNL A   1      30.621  29.626  24.017  1.00  0.00    -0.372 N 
ATOM     29  C   UNL A   1      30.201  31.006  24.306  1.00  0.00     0.116 C 
ATOM     30  C   UNL A   1      30.610  29.299  22.600  1.00  0.00     0.116 C 
ATOM     31  C   UNL A   1      28.732  31.133  23.949  1.00  0.00     0.021 C 
ATOM     32  C   UNL A   1      29.138  29.327  22.185  1.00  0.00     0.021 C 
ATOM     33  C   UNL A   1      28.476  30.674  22.511  1.00  0.00     0.004 C 
ENDBRANCH  16  28
ENDBRANCH   9  11
ENDBRANCH   8   9
ENDBRANCH   7   8
ENDBRANCH   6   7
ENDBRANCH   5   6
ENDBRANCH   4   5
ENDBRANCH   3   4
ENDBRANCH   2   3
ENDBRANCH   1   2
BRANCH   1  34
ATOM     34  C   UNL A   1      35.823  19.830  25.029  1.00  0.00     0.188 C 
BRANCH  34  35
ATOM     35  O   UNL A   1      37.129  19.269  24.973  1.00  0.00    -0.376 OA
BRANCH  35  36
ATOM     36  C   UNL A   1      38.198  20.157  24.733  1.00  0.00     0.202 C 
BRANCH  36  37
ATOM     37  C   UNL A   1      39.364  19.854  25.655  1.00  0.00     0.261 C 
BRANCH  37  38
ATOM     38  O   UNL A   1      39.708  21.044  26.418  1.00  0.00    -0.460 OA
BRANCH  38  39
ATOM     39  C   UNL A   1      40.946  21.611  26.295  1.00  0.00     0.338 C 
ATOM     40  O   UNL A   1      41.859  21.050  25.703  1.00  0.00    -0.246 OA
BRANCH  39  41
ATOM     41  C   UNL A   1      41.034  23.061  26.658  1.00  0.00     0.060 A 
ATOM     42  C   UNL A   1      41.419  24.020  25.709  1.00  0.00     0.016 A 
ATOM     43  C   UNL A   1      40.748  23.496  27.944  1.00  0.00     0.016 A 
ATOM     44  C   UNL A   1      41.675  25.362  26.077  1.00  0.00     0.010 A 
ATOM     45  C   UNL A   1      41.054  24.806  28.315  1.00  0.00     0.010 A 
ATOM     46  C   UNL A   1      41.557  25.763  27.409  1.00  0.00    -0.014 A 
BRANCH  46  47
ATOM     47  C   UNL A   1      42.099  27.036  27.996  1.00  0.00     0.031 A 
ATOM     48  C   UNL A   1      41.143  28.216  28.253  1.00  0.00     0.074 A 
ATOM     49  C   UNL A   1      43.268  26.909  28.683  1.00  0.00     0.049 A 
ATOM     50  N   UNL A   1      41.382  29.329  28.888  1.00  0.00    -0.248 NA
ATOM     51  C   UNL A   1      39.770  28.213  27.727  1.00  0.00     0.031 C 
ATOM     52  C   UNL A   1      43.521  27.198  30.081  1.00  0.00     0.029 A 
ATOM     53  N   UNL A   1      44.486  26.352  28.318  1.00  0.00    -0.354 N 
ATOM     54  C   UNL A   1      40.161  30.009  29.115  1.00  0.00     0.074 A 
ATOM     55  C   UNL A   1      39.219  29.292  28.293  1.00  0.00     0.031 C 
ATOM     56  C   UNL A   1      44.813  27.178  30.398  1.00  0.00     0.029 A 
ATOM     57  C   UNL A   1      45.490  26.819  29.205  1.00  0.00     0.049 A 
ATOM     58  H   UNL A   1      44.630  25.733  27.565  1.00  0.00     0.167 HD
ATOM     59  C   UNL A   1      40.030  31.001  30.075  1.00  0.00     0.037 A 
ATOM     60  C   UNL A   1      46.606  27.449  28.777  1.00  0.00     0.037 A 
ATOM     61  C   UNL A   1      41.345  31.469  30.599  1.00  0.00     0.049 A 
ATOM     62  C   UNL A   1      46.459  28.978  28.843  1.00  0.00     0.074 A 
ATOM     63  C   UNL A   1      41.854  31.940  31.808  1.00  0.00     0.029 A 
ATOM     64  N   UNL A   1      42.467  31.369  29.785  1.00  0.00    -0.354 N 
ATOM     65  N   UNL A   1      45.550  29.655  29.526  1.00  0.00    -0.248 NA
ATOM     66  C   UNL A   1      47.333  29.870  28.081  1.00  0.00     0.031 C 
ATOM     67  C   UNL A   1      43.274  32.059  31.711  1.00  0.00     0.029 A 
ATOM     68  C   UNL A   1      43.630  31.733  30.418  1.00  0.00     0.049 A 
ATOM     69  H   UNL A   1      42.432  31.067  28.849  1.00  0.00     0.167 HD
ATOM     70  C   UNL A   1      45.633  31.004  29.200  1.00  0.00     0.074 A 
ATOM     71  C   UNL A   1      46.781  31.074  28.311  1.00  0.00     0.031 C 
ATOM     72  C   UNL A   1      44.774  32.008  29.582  1.00  0.00     0.037 A 
BRANCH  59  73
ATOM     73  C   UNL A   1      38.685  31.483  30.755  1.00  0.00     0.058 A 
ATOM     74  C   UNL A   1      38.070  32.705  30.364  1.00  0.00     0.135 A 
ATOM     75  C   UNL A   1      38.022  30.890  31.860  1.00  0.00     0.135 A 
ATOM     76  F   UNL A   1      38.432  33.342  29.244  1.00  0.00    -0.206 F 
ATOM     77  C   UNL A   1      37.011  33.329  31.049  1.00  0.00     0.059 A 
ATOM     78  C   UNL A   1      36.887  31.447  32.502  1.00  0.00     0.059 A 
ATOM     79  F   UNL A   1      38.433  29.737  32.398  1.00  0.00    -0.206 F 
ATOM     80  C   UNL A   1      36.406  32.688  32.113  1.00  0.00     0.060 A 
BRANCH  80  81
ATOM     81  S   UNL A   1      34.936  33.433  32.862  1.00  0.00     0.124 S 
ATOM     82  O   UNL A   1      33.849  32.699  32.222  1.00  0.00    -0.237 OA
ATOM     83  O   UNL A   1      35.130  33.155  34.283  1.00  0.00    -0.237 OA
ATOM     84  O   UNL A   1      35.041  34.841  32.493  1.00  0.00    -0.744 OA
ENDBRANCH  80  81
ENDBRANCH  59  73
BRANCH  60  85
ATOM     85  C   UNL A   1      47.355  26.444  27.929  1.00  0.00     0.058 A 
ATOM     86  C   UNL A   1      47.292  26.770  26.541  1.00  0.00     0.135 A 
ATOM     87  C   UNL A   1      48.605  25.987  28.389  1.00  0.00     0.135 A 
ATOM     88  F   UNL A   1      46.122  27.163  26.005  1.00  0.00    -0.206 F 
ATOM     89  C   UNL A   1      48.444  26.990  25.776  1.00  0.00     0.059 A 
ATOM     90  C   UNL A   1      49.775  26.202  27.635  1.00  0.00     0.059 A 
ATOM     91  F   UNL A   1      48.741  25.621  29.672  1.00  0.00    -0.206 F 
ATOM     92  C   UNL A   1      49.687  26.786  26.365  1.00  0.00     0.060 A 
BRANCH  92  93
ATOM     93  S   UNL A   1      51.147  27.582  25.617  1.00  0.00     0.124 S 
ATOM     94  O   UNL A   1      51.380  26.756  24.441  1.00  0.00    -0.237 OA
ATOM     95  O   UNL A   1      50.684  28.945  25.362  1.00  0.00    -0.237 OA
ATOM     96  O   UNL A   1      52.138  27.482  26.679  1.00  0.00    -0.744 OA
ENDBRANCH  92  93
ENDBRANCH  60  85
BRANCH  72  97
ATOM     97  C   UNL A   1      44.834  33.452  29.110  1.00  0.00     0.058 A 
ATOM     98  C   UNL A   1      45.218  34.514  29.932  1.00  0.00     0.135 A 
ATOM     99  C   UNL A   1      44.357  33.817  27.817  1.00  0.00     0.135 A 
ATOM    100  F   UNL A   1      45.571  34.296  31.207  1.00  0.00    -0.206 F 
ATOM    101  C   UNL A   1      45.239  35.833  29.467  1.00  0.00     0.059 A 
ATOM    102  C   UNL A   1      44.297  35.125  27.364  1.00  0.00     0.059 A 
ATOM    103  F   UNL A   1      43.958  32.908  26.918  1.00  0.00    -0.206 F 
ATOM    104  C   UNL A   1      44.795  36.124  28.176  1.00  0.00     0.060 A 
BRANCH 104 105
ATOM    105  S   UNL A   1      44.909  37.802  27.540  1.00  0.00     0.124 S 
ATOM    106  O   UNL A   1      45.592  38.504  28.622  1.00  0.00    -0.237 OA
ATOM    107  O   UNL A   1      45.694  37.593  26.327  1.00  0.00    -0.237 OA
ATOM    108  O   UNL A   1      43.518  38.190  27.327  1.00  0.00    -0.744 OA
ENDBRANCH 104 105
ENDBRANCH  72  97
ENDBRANCH  46  47
ENDBRANCH  39  41
ENDBRANCH  38  39
ENDBRANCH  37  38
ENDBRANCH  36  37
ENDBRANCH  35  36
ENDBRANCH  34  35
ENDBRANCH   1  34
TORSDOF 26
ENDMDL
