MODEL 1
REMARK VINA RESULT:      -6.8      0.000      0.000
REMARK SMILES COCCCC(=O)N[C@H]1CC[C@@H](C(=O)OCCOCCOCCOCCOC(=O)c2ccc(-c3c4nc(c(-c5c(F)cc(S(=O)(=O)[O-])cc5F)c5ccc([nH]5)c(-c5c(F)cc(S(=O)(=O)[O-])cc5F)c5nc(c(-c6c(F)cc(S(=O)(=O)[O-])cc6F)c6ccc3[nH]6)C=C5)C=C4)cc2)CC1
REMARK SMILES IDX 20 1 19 2 18 3 17 4 16 5 15 6 13 7 14 8 12 9 9 10 10 11
REMARK SMILES IDX 97 12 11 13 96 14 8 15 6 16 7 17 5 19 4 20 3 21 2 22 1 23
REMARK SMILES IDX 21 24 22 25 23 26 24 27 25 28 26 29 27 30 28 31 29 32 30 33
REMARK SMILES IDX 31 34 95 35 32 36 94 37 33 38 34 39 35 40 88 41 36 42 93 43
REMARK SMILES IDX 87 44 89 45 37 46 92 47 86 48 85 49 38 51 72 52 51 53 71 54
REMARK SMILES IDX 52 55 55 56 70 57 90 58 53 59 54 60 69 62 91 63 56 64 39 65
REMARK SMILES IDX 40 66 49 67 41 68 42 69 48 70 50 71 43 72 44 73 45 74 46 75
REMARK SMILES IDX 47 76 73 77 74 78 83 79 75 80 76 81 82 82 84 83 77 84 78 85
REMARK SMILES IDX 79 86 80 87 81 88 57 89 58 90 67 91 59 92 60 93 66 94 68 95
REMARK SMILES IDX 61 96 62 97 63 98 64 99 65 100
REMARK H PARENT 8 18 89 50 55 61
REMARK Flexibility Score: inf
ROOT
ATOM      1  C   UNL A   1      38.279  30.248  28.617  1.00  0.00     0.188 C 
ENDROOT
BRANCH   1   2
ATOM      2  C   UNL A   1      39.669  29.682  28.332  1.00  0.00     0.188 C 
BRANCH   2   3
ATOM      3  O   UNL A   1      39.633  28.416  27.684  1.00  0.00    -0.376 OA
BRANCH   3   4
ATOM      4  C   UNL A   1      40.891  27.854  27.340  1.00  0.00     0.202 C 
BRANCH   4   5
ATOM      5  C   UNL A   1      41.789  27.583  28.550  1.00  0.00     0.261 C 
BRANCH   5   6
ATOM      6  O   UNL A   1      42.082  26.201  28.825  1.00  0.00    -0.463 OA
BRANCH   6   7
ATOM      7  C   UNL A   1      43.206  25.695  28.262  1.00  0.00     0.309 C 
ATOM      8  O   UNL A   1      44.226  26.342  28.063  1.00  0.00    -0.252 OA
BRANCH   7   9
ATOM      9  C   UNL A   1      43.006  24.268  27.740  1.00  0.00     0.099 C 
ATOM     10  C   UNL A   1      40.290  23.400  26.647  1.00  0.00     0.082 C 
ATOM     11  C   UNL A   1      41.068  24.620  26.160  1.00  0.00     0.026 C 
ATOM     12  C   UNL A   1      40.868  22.726  27.883  1.00  0.00     0.026 C 
ATOM     13  C   UNL A   1      42.573  24.361  26.280  1.00  0.00     0.017 C 
ATOM     14  C   UNL A   1      42.092  23.356  28.572  1.00  0.00     0.017 C 
BRANCH  10  15
ATOM     15  N   UNL A   1      38.824  23.508  26.476  1.00  0.00    -0.353 N 
ATOM     16  C   UNL A   1      37.707  23.051  25.887  1.00  0.00     0.220 C 
ATOM     17  O   UNL A   1      36.706  23.713  26.214  1.00  0.00    -0.275 OA
ATOM     18  H   UNL A   1      38.539  24.250  27.057  1.00  0.00     0.163 HD
BRANCH  16  19
ATOM     19  C   UNL A   1      37.460  21.845  24.997  1.00  0.00     0.102 C 
BRANCH  19  20
ATOM     20  C   UNL A   1      36.084  21.467  24.440  1.00  0.00     0.038 C 
BRANCH  20  21
ATOM     21  C   UNL A   1      35.146  20.448  25.089  1.00  0.00     0.160 C 
BRANCH  21  22
ATOM     22  O   UNL A   1      33.933  20.053  24.471  1.00  0.00    -0.385 OA
ATOM     23  C   UNL A   1      33.631  18.680  24.437  1.00  0.00     0.194 C 
ENDBRANCH  21  22
ENDBRANCH  20  21
ENDBRANCH  19  20
ENDBRANCH  16  19
ENDBRANCH  10  15
ENDBRANCH   7   9
ENDBRANCH   6   7
ENDBRANCH   5   6
ENDBRANCH   4   5
ENDBRANCH   3   4
ENDBRANCH   2   3
ENDBRANCH   1   2
BRANCH   1  24
ATOM     24  O   UNL A   1      38.154  31.589  29.060  1.00  0.00    -0.377 OA
BRANCH  24  25
ATOM     25  C   UNL A   1      37.230  32.469  28.427  1.00  0.00     0.188 C 
BRANCH  25  26
ATOM     26  C   UNL A   1      35.829  31.857  28.338  1.00  0.00     0.188 C 
BRANCH  26  27
ATOM     27  O   UNL A   1      34.941  32.016  29.447  1.00  0.00    -0.376 OA
BRANCH  27  28
ATOM     28  C   UNL A   1      34.462  33.322  29.742  1.00  0.00     0.202 C 
BRANCH  28  29
ATOM     29  C   UNL A   1      34.568  33.711  31.233  1.00  0.00     0.261 C 
BRANCH  29  30
ATOM     30  O   UNL A   1      34.551  32.614  32.163  1.00  0.00    -0.460 OA
BRANCH  30  31
ATOM     31  C   UNL A   1      35.175  32.852  33.337  1.00  0.00     0.338 C 
ATOM     32  O   UNL A   1      34.689  33.358  34.344  1.00  0.00    -0.246 OA
BRANCH  31  33
ATOM     33  C   UNL A   1      36.565  32.359  33.287  1.00  0.00     0.060 A 
ATOM     34  C   UNL A   1      37.531  33.014  34.061  1.00  0.00     0.016 A 
ATOM     35  C   UNL A   1      36.943  31.372  32.371  1.00  0.00     0.016 A 
ATOM     36  C   UNL A   1      38.885  32.759  33.844  1.00  0.00     0.010 A 
ATOM     37  C   UNL A   1      38.304  31.125  32.147  1.00  0.00     0.010 A 
ATOM     38  C   UNL A   1      39.279  31.870  32.834  1.00  0.00    -0.014 A 
BRANCH  38  39
ATOM     39  C   UNL A   1      40.676  31.948  32.327  1.00  0.00     0.031 A 
ATOM     40  C   UNL A   1      41.600  30.788  32.612  1.00  0.00     0.074 A 
ATOM     41  C   UNL A   1      41.095  32.969  31.559  1.00  0.00     0.049 A 
ATOM     42  N   UNL A   1      42.837  30.595  32.232  1.00  0.00    -0.248 NA
ATOM     43  C   UNL A   1      41.050  29.696  33.434  1.00  0.00     0.031 C 
ATOM     44  C   UNL A   1      40.289  34.127  31.179  1.00  0.00     0.029 A 
ATOM     45  N   UNL A   1      42.307  33.188  30.954  1.00  0.00    -0.354 N 
ATOM     46  C   UNL A   1      43.210  29.365  32.766  1.00  0.00     0.074 A 
ATOM     47  C   UNL A   1      42.082  28.874  33.526  1.00  0.00     0.031 C 
ATOM     48  C   UNL A   1      41.031  34.938  30.402  1.00  0.00     0.029 A 
ATOM     49  C   UNL A   1      42.367  34.364  30.244  1.00  0.00     0.049 A 
ATOM     50  H   UNL A   1      43.063  32.562  31.020  1.00  0.00     0.167 HD
ATOM     51  C   UNL A   1      44.378  28.693  32.625  1.00  0.00     0.037 A 
ATOM     52  C   UNL A   1      43.386  34.913  29.551  1.00  0.00     0.037 A 
ATOM     53  C   UNL A   1      45.500  29.180  31.866  1.00  0.00     0.049 A 
ATOM     54  C   UNL A   1      44.694  34.170  29.443  1.00  0.00     0.074 A 
ATOM     55  C   UNL A   1      46.731  28.579  31.664  1.00  0.00     0.029 A 
ATOM     56  N   UNL A   1      45.528  30.388  31.184  1.00  0.00    -0.354 N 
ATOM     57  N   UNL A   1      45.027  33.004  29.945  1.00  0.00    -0.248 NA
ATOM     58  C   UNL A   1      45.760  34.812  28.663  1.00  0.00     0.031 C 
ATOM     59  C   UNL A   1      47.518  29.443  30.894  1.00  0.00     0.029 A 
ATOM     60  C   UNL A   1      46.759  30.557  30.571  1.00  0.00     0.049 A 
ATOM     61  H   UNL A   1      44.784  31.030  31.142  1.00  0.00     0.167 HD
ATOM     62  C   UNL A   1      46.327  32.758  29.510  1.00  0.00     0.074 A 
ATOM     63  C   UNL A   1      46.715  33.893  28.698  1.00  0.00     0.031 C 
ATOM     64  C   UNL A   1      47.126  31.689  29.757  1.00  0.00     0.037 A 
BRANCH  51  65
ATOM     65  C   UNL A   1      44.507  27.371  33.331  1.00  0.00     0.058 A 
ATOM     66  C   UNL A   1      44.209  26.157  32.691  1.00  0.00     0.135 A 
ATOM     67  C   UNL A   1      44.946  27.317  34.664  1.00  0.00     0.135 A 
ATOM     68  F   UNL A   1      43.765  26.151  31.424  1.00  0.00    -0.206 F 
ATOM     69  C   UNL A   1      44.315  24.939  33.356  1.00  0.00     0.059 A 
ATOM     70  C   UNL A   1      45.085  26.108  35.339  1.00  0.00     0.059 A 
ATOM     71  F   UNL A   1      45.240  28.446  35.324  1.00  0.00    -0.206 F 
ATOM     72  C   UNL A   1      44.752  24.924  34.681  1.00  0.00     0.060 A 
BRANCH  72  73
ATOM     73  S   UNL A   1      44.885  23.338  35.532  1.00  0.00     0.124 S 
ATOM     74  O   UNL A   1      43.824  22.571  34.888  1.00  0.00    -0.237 OA
ATOM     75  O   UNL A   1      46.249  22.925  35.214  1.00  0.00    -0.237 OA
ATOM     76  O   UNL A   1      44.649  23.681  36.932  1.00  0.00    -0.744 OA
ENDBRANCH  72  73
ENDBRANCH  51  65
BRANCH  52  77
ATOM     77  C   UNL A   1      43.213  36.240  28.897  1.00  0.00     0.058 A 
ATOM     78  C   UNL A   1      42.780  36.348  27.567  1.00  0.00     0.135 A 
ATOM     79  C   UNL A   1      43.491  37.428  29.589  1.00  0.00     0.135 A 
ATOM     80  F   UNL A   1      42.512  35.241  26.857  1.00  0.00    -0.206 F 
ATOM     81  C   UNL A   1      42.645  37.583  26.940  1.00  0.00     0.059 A 
ATOM     82  C   UNL A   1      43.338  38.678  28.994  1.00  0.00     0.059 A 
ATOM     83  F   UNL A   1      43.903  37.381  30.867  1.00  0.00    -0.206 F 
ATOM     84  C   UNL A   1      42.924  38.744  27.665  1.00  0.00     0.060 A 
BRANCH  84  85
ATOM     85  S   UNL A   1      42.698  40.345  26.859  1.00  0.00     0.124 S 
ATOM     86  O   UNL A   1      43.368  40.129  25.582  1.00  0.00    -0.237 OA
ATOM     87  O   UNL A   1      41.243  40.459  26.806  1.00  0.00    -0.237 OA
ATOM     88  O   UNL A   1      43.357  41.275  27.770  1.00  0.00    -0.744 OA
ENDBRANCH  84  85
ENDBRANCH  52  77
BRANCH  64  89
ATOM     89  C   UNL A   1      48.479  31.670  29.098  1.00  0.00     0.058 A 
ATOM     90  C   UNL A   1      49.603  32.268  29.688  1.00  0.00     0.135 A 
ATOM     91  C   UNL A   1      48.655  31.023  27.863  1.00  0.00     0.135 A 
ATOM     92  F   UNL A   1      49.492  32.899  30.868  1.00  0.00    -0.206 F 
ATOM     93  C   UNL A   1      50.844  32.264  29.058  1.00  0.00     0.059 A 
ATOM     94  C   UNL A   1      49.893  30.981  27.229  1.00  0.00     0.059 A 
ATOM     95  F   UNL A   1      47.617  30.419  27.262  1.00  0.00    -0.206 F 
ATOM     96  C   UNL A   1      50.977  31.624  27.824  1.00  0.00     0.060 A 
BRANCH  96  97
ATOM     97  S   UNL A   1      52.589  31.630  27.009  1.00  0.00     0.124 S 
ATOM     98  O   UNL A   1      52.236  32.091  25.670  1.00  0.00    -0.237 OA
ATOM     99  O   UNL A   1      53.349  32.573  27.823  1.00  0.00    -0.237 OA
ATOM    100  O   UNL A   1      53.022  30.239  27.102  1.00  0.00    -0.744 OA
ENDBRANCH  96  97
ENDBRANCH  64  89
ENDBRANCH  38  39
ENDBRANCH  31  33
ENDBRANCH  30  31
ENDBRANCH  29  30
ENDBRANCH  28  29
ENDBRANCH  27  28
ENDBRANCH  26  27
ENDBRANCH  25  26
ENDBRANCH  24  25
ENDBRANCH   1  24
TORSDOF 28
ENDMDL
MODEL 2
REMARK VINA RESULT:      -6.6      5.496      9.339
REMARK SMILES COCCCC(=O)N[C@H]1CC[C@@H](C(=O)OCCOCCOCCOCCOC(=O)c2ccc(-c3c4nc(c(-c5c(F)cc(S(=O)(=O)[O-])cc5F)c5ccc([nH]5)c(-c5c(F)cc(S(=O)(=O)[O-])cc5F)c5nc(c(-c6c(F)cc(S(=O)(=O)[O-])cc6F)c6ccc3[nH]6)C=C5)C=C4)cc2)CC1
REMARK SMILES IDX 20 1 19 2 18 3 17 4 16 5 15 6 13 7 14 8 12 9 9 10 10 11
REMARK SMILES IDX 97 12 11 13 96 14 8 15 6 16 7 17 5 19 4 20 3 21 2 22 1 23
REMARK SMILES IDX 21 24 22 25 23 26 24 27 25 28 26 29 27 30 28 31 29 32 30 33
REMARK SMILES IDX 31 34 95 35 32 36 94 37 33 38 34 39 35 40 88 41 36 42 93 43
REMARK SMILES IDX 87 44 89 45 37 46 92 47 86 48 85 49 38 51 72 52 51 53 71 54
REMARK SMILES IDX 52 55 55 56 70 57 90 58 53 59 54 60 69 62 91 63 56 64 39 65
REMARK SMILES IDX 40 66 49 67 41 68 42 69 48 70 50 71 43 72 44 73 45 74 46 75
REMARK SMILES IDX 47 76 73 77 74 78 83 79 75 80 76 81 82 82 84 83 77 84 78 85
REMARK SMILES IDX 79 86 80 87 81 88 57 89 58 90 67 91 59 92 60 93 66 94 68 95
REMARK SMILES IDX 61 96 62 97 63 98 64 99 65 100
REMARK H PARENT 8 18 89 50 55 61
REMARK Flexibility Score: inf
ROOT
ATOM      1  C   UNL A   1      39.499  28.433  30.855  1.00  0.00     0.188 C 
ENDROOT
BRANCH   1   2
ATOM      2  C   UNL A   1      38.314  28.268  29.907  1.00  0.00     0.188 C 
BRANCH   2   3
ATOM      3  O   UNL A   1      38.698  27.839  28.605  1.00  0.00    -0.376 OA
BRANCH   3   4
ATOM      4  C   UNL A   1      39.611  26.753  28.550  1.00  0.00     0.202 C 
BRANCH   4   5
ATOM      5  C   UNL A   1      40.847  27.038  27.692  1.00  0.00     0.261 C 
BRANCH   5   6
ATOM      6  O   UNL A   1      42.121  26.870  28.339  1.00  0.00    -0.463 OA
BRANCH   6   7
ATOM      7  C   UNL A   1      43.165  26.524  27.548  1.00  0.00     0.309 C 
ATOM      8  O   UNL A   1      43.340  26.955  26.415  1.00  0.00    -0.252 OA
BRANCH   7   9
ATOM      9  C   UNL A   1      44.010  25.400  28.155  1.00  0.00     0.099 C 
ATOM     10  C   UNL A   1      43.030  22.510  28.042  1.00  0.00     0.082 C 
ATOM     11  C   UNL A   1      43.174  23.422  26.826  1.00  0.00     0.026 C 
ATOM     12  C   UNL A   1      43.223  23.201  29.385  1.00  0.00     0.026 C 
ATOM     13  C   UNL A   1      44.330  24.404  27.044  1.00  0.00     0.017 C 
ATOM     14  C   UNL A   1      43.449  24.723  29.414  1.00  0.00     0.017 C 
BRANCH  10  15
ATOM     15  N   UNL A   1      42.005  21.454  27.891  1.00  0.00    -0.353 N 
ATOM     16  C   UNL A   1      41.721  20.169  27.620  1.00  0.00     0.220 C 
ATOM     17  O   UNL A   1      40.496  19.951  27.634  1.00  0.00    -0.275 OA
ATOM     18  H   UNL A   1      41.140  21.890  28.067  1.00  0.00     0.163 HD
BRANCH  16  19
ATOM     19  C   UNL A   1      42.620  18.964  27.405  1.00  0.00     0.102 C 
BRANCH  19  20
ATOM     20  C   UNL A   1      42.975  18.405  26.023  1.00  0.00     0.038 C 
BRANCH  20  21
ATOM     21  C   UNL A   1      43.719  19.194  24.945  1.00  0.00     0.160 C 
BRANCH  21  22
ATOM     22  O   UNL A   1      45.043  18.862  24.558  1.00  0.00    -0.385 OA
ATOM     23  C   UNL A   1      45.911  18.370  25.548  1.00  0.00     0.194 C 
ENDBRANCH  21  22
ENDBRANCH  20  21
ENDBRANCH  19  20
ENDBRANCH  16  19
ENDBRANCH  10  15
ENDBRANCH   7   9
ENDBRANCH   6   7
ENDBRANCH   5   6
ENDBRANCH   4   5
ENDBRANCH   3   4
ENDBRANCH   2   3
ENDBRANCH   1   2
BRANCH   1  24
ATOM     24  O   UNL A   1      39.257  28.663  32.234  1.00  0.00    -0.377 OA
BRANCH  24  25
ATOM     25  C   UNL A   1      39.144  29.994  32.728  1.00  0.00     0.188 C 
BRANCH  25  26
ATOM     26  C   UNL A   1      37.743  30.282  33.275  1.00  0.00     0.188 C 
BRANCH  26  27
ATOM     27  O   UNL A   1      36.676  30.491  32.346  1.00  0.00    -0.376 OA
BRANCH  27  28
ATOM     28  C   UNL A   1      35.987  31.734  32.384  1.00  0.00     0.202 C 
BRANCH  28  29
ATOM     29  C   UNL A   1      35.279  32.103  31.063  1.00  0.00     0.261 C 
BRANCH  29  30
ATOM     30  O   UNL A   1      35.767  31.432  29.888  1.00  0.00    -0.460 OA
BRANCH  30  31
ATOM     31  C   UNL A   1      36.198  32.248  28.902  1.00  0.00     0.338 C 
ATOM     32  O   UNL A   1      35.595  32.553  27.877  1.00  0.00    -0.246 OA
BRANCH  31  33
ATOM     33  C   UNL A   1      37.522  32.804  29.240  1.00  0.00     0.060 A 
ATOM     34  C   UNL A   1      38.539  31.917  29.615  1.00  0.00     0.016 A 
ATOM     35  C   UNL A   1      37.715  34.185  29.344  1.00  0.00     0.016 A 
ATOM     36  C   UNL A   1      39.711  32.407  30.193  1.00  0.00     0.010 A 
ATOM     37  C   UNL A   1      38.887  34.675  29.935  1.00  0.00     0.010 A 
ATOM     38  C   UNL A   1      39.856  33.783  30.425  1.00  0.00    -0.014 A 
BRANCH  38  39
ATOM     39  C   UNL A   1      40.871  34.230  31.417  1.00  0.00     0.031 A 
ATOM     40  C   UNL A   1      42.190  34.750  30.897  1.00  0.00     0.074 A 
ATOM     41  C   UNL A   1      40.607  34.263  32.735  1.00  0.00     0.049 A 
ATOM     42  N   UNL A   1      43.208  35.248  31.553  1.00  0.00    -0.248 NA
ATOM     43  C   UNL A   1      42.384  34.708  29.437  1.00  0.00     0.031 C 
ATOM     44  C   UNL A   1      39.360  33.828  33.359  1.00  0.00     0.029 A 
ATOM     45  N   UNL A   1      41.378  34.694  33.786  1.00  0.00    -0.354 N 
ATOM     46  C   UNL A   1      44.157  35.576  30.589  1.00  0.00     0.074 A 
ATOM     47  C   UNL A   1      43.610  35.188  29.308  1.00  0.00     0.031 C 
ATOM     48  C   UNL A   1      39.450  34.014  34.688  1.00  0.00     0.029 A 
ATOM     49  C   UNL A   1      40.766  34.566  35.010  1.00  0.00     0.049 A 
ATOM     50  H   UNL A   1      42.285  35.061  33.675  1.00  0.00     0.167 HD
ATOM     51  C   UNL A   1      45.367  36.162  30.750  1.00  0.00     0.037 A 
ATOM     52  C   UNL A   1      41.219  34.858  36.247  1.00  0.00     0.037 A 
ATOM     53  C   UNL A   1      45.911  36.550  32.025  1.00  0.00     0.049 A 
ATOM     54  C   UNL A   1      42.588  35.469  36.408  1.00  0.00     0.074 A 
ATOM     55  C   UNL A   1      47.130  37.146  32.297  1.00  0.00     0.029 A 
ATOM     56  N   UNL A   1      45.269  36.379  33.242  1.00  0.00    -0.354 N 
ATOM     57  N   UNL A   1      43.469  35.782  35.487  1.00  0.00    -0.248 NA
ATOM     58  C   UNL A   1      43.020  35.779  37.778  1.00  0.00     0.031 C 
ATOM     59  C   UNL A   1      47.242  37.299  33.684  1.00  0.00     0.029 A 
ATOM     60  C   UNL A   1      46.071  36.846  34.271  1.00  0.00     0.049 A 
ATOM     61  H   UNL A   1      44.375  35.984  33.359  1.00  0.00     0.167 HD
ATOM     62  C   UNL A   1      44.542  36.359  36.163  1.00  0.00     0.074 A 
ATOM     63  C   UNL A   1      44.195  36.358  37.569  1.00  0.00     0.031 C 
ATOM     64  C   UNL A   1      45.706  36.847  35.666  1.00  0.00     0.037 A 
BRANCH  51  65
ATOM     65  C   UNL A   1      46.195  36.392  29.515  1.00  0.00     0.058 A 
ATOM     66  C   UNL A   1      46.121  37.589  28.785  1.00  0.00     0.135 A 
ATOM     67  C   UNL A   1      47.086  35.404  29.062  1.00  0.00     0.135 A 
ATOM     68  F   UNL A   1      45.272  38.559  29.161  1.00  0.00    -0.206 F 
ATOM     69  C   UNL A   1      46.878  37.788  27.634  1.00  0.00     0.059 A 
ATOM     70  C   UNL A   1      47.872  35.593  27.930  1.00  0.00     0.059 A 
ATOM     71  F   UNL A   1      47.193  34.239  29.719  1.00  0.00    -0.206 F 
ATOM     72  C   UNL A   1      47.750  36.782  27.213  1.00  0.00     0.060 A 
BRANCH  72  73
ATOM     73  S   UNL A   1      48.727  37.053  25.719  1.00  0.00     0.124 S 
ATOM     74  O   UNL A   1      50.020  37.432  26.281  1.00  0.00    -0.237 OA
ATOM     75  O   UNL A   1      48.676  35.746  25.071  1.00  0.00    -0.237 OA
ATOM     76  O   UNL A   1      48.007  38.119  25.029  1.00  0.00    -0.744 OA
ENDBRANCH  72  73
ENDBRANCH  51  65
BRANCH  52  77
ATOM     77  C   UNL A   1      40.369  34.581  37.437  1.00  0.00     0.058 A 
ATOM     78  C   UNL A   1      40.213  33.280  37.937  1.00  0.00     0.135 A 
ATOM     79  C   UNL A   1      39.683  35.616  38.092  1.00  0.00     0.135 A 
ATOM     80  F   UNL A   1      40.837  32.252  37.341  1.00  0.00    -0.206 F 
ATOM     81  C   UNL A   1      39.396  33.010  39.031  1.00  0.00     0.059 A 
ATOM     82  C   UNL A   1      38.881  35.377  39.204  1.00  0.00     0.059 A 
ATOM     83  F   UNL A   1      39.803  36.881  37.657  1.00  0.00    -0.206 F 
ATOM     84  C   UNL A   1      38.736  34.068  39.660  1.00  0.00     0.060 A 
BRANCH  84  85
ATOM     85  S   UNL A   1      37.716  33.715  41.110  1.00  0.00     0.124 S 
ATOM     86  O   UNL A   1      37.374  35.059  41.563  1.00  0.00    -0.237 OA
ATOM     87  O   UNL A   1      36.623  32.938  40.534  1.00  0.00    -0.237 OA
ATOM     88  O   UNL A   1      38.617  32.965  41.979  1.00  0.00    -0.744 OA
ENDBRANCH  84  85
ENDBRANCH  52  77
BRANCH  64  89
ATOM     89  C   UNL A   1      46.667  37.471  36.642  1.00  0.00     0.058 A 
ATOM     90  C   UNL A   1      47.685  36.730  37.262  1.00  0.00     0.135 A 
ATOM     91  C   UNL A   1      46.578  38.841  36.945  1.00  0.00     0.135 A 
ATOM     92  F   UNL A   1      47.816  35.418  37.008  1.00  0.00    -0.206 F 
ATOM     93  C   UNL A   1      48.552  37.314  38.180  1.00  0.00     0.059 A 
ATOM     94  C   UNL A   1      47.454  39.451  37.837  1.00  0.00     0.059 A 
ATOM     95  F   UNL A   1      45.634  39.601  36.367  1.00  0.00    -0.206 F 
ATOM     96  C   UNL A   1      48.424  38.674  38.467  1.00  0.00     0.060 A 
BRANCH  96  97
ATOM     97  S   UNL A   1      49.549  39.421  39.666  1.00  0.00     0.124 S 
ATOM     98  O   UNL A   1      49.685  38.348  40.646  1.00  0.00    -0.237 OA
ATOM     99  O   UNL A   1      50.733  39.696  38.859  1.00  0.00    -0.237 OA
ATOM    100  O   UNL A   1      48.822  40.601  40.124  1.00  0.00    -0.744 OA
ENDBRANCH  96  97
ENDBRANCH  64  89
ENDBRANCH  38  39
ENDBRANCH  31  33
ENDBRANCH  30  31
ENDBRANCH  29  30
ENDBRANCH  28  29
ENDBRANCH  27  28
ENDBRANCH  26  27
ENDBRANCH  25  26
ENDBRANCH  24  25
ENDBRANCH   1  24
TORSDOF 28
ENDMDL
MODEL 3
REMARK VINA RESULT:      -6.5      5.890     10.726
REMARK SMILES COCCCC(=O)N[C@H]1CC[C@@H](C(=O)OCCOCCOCCOCCOC(=O)c2ccc(-c3c4nc(c(-c5c(F)cc(S(=O)(=O)[O-])cc5F)c5ccc([nH]5)c(-c5c(F)cc(S(=O)(=O)[O-])cc5F)c5nc(c(-c6c(F)cc(S(=O)(=O)[O-])cc6F)c6ccc3[nH]6)C=C5)C=C4)cc2)CC1
REMARK SMILES IDX 20 1 19 2 18 3 17 4 16 5 15 6 13 7 14 8 12 9 9 10 10 11
REMARK SMILES IDX 97 12 11 13 96 14 8 15 6 16 7 17 5 19 4 20 3 21 2 22 1 23
REMARK SMILES IDX 21 24 22 25 23 26 24 27 25 28 26 29 27 30 28 31 29 32 30 33
REMARK SMILES IDX 31 34 95 35 32 36 94 37 33 38 34 39 35 40 88 41 36 42 93 43
REMARK SMILES IDX 87 44 89 45 37 46 92 47 86 48 85 49 38 51 72 52 51 53 71 54
REMARK SMILES IDX 52 55 55 56 70 57 90 58 53 59 54 60 69 62 91 63 56 64 39 65
REMARK SMILES IDX 40 66 49 67 41 68 42 69 48 70 50 71 43 72 44 73 45 74 46 75
REMARK SMILES IDX 47 76 73 77 74 78 83 79 75 80 76 81 82 82 84 83 77 84 78 85
REMARK SMILES IDX 79 86 80 87 81 88 57 89 58 90 67 91 59 92 60 93 66 94 68 95
REMARK SMILES IDX 61 96 62 97 63 98 64 99 65 100
REMARK H PARENT 8 18 89 50 55 61
REMARK Flexibility Score: inf
ROOT
ATOM      1  C   UNL A   1      38.091  33.736  37.639  1.00  0.00     0.188 C 
ENDROOT
BRANCH   1   2
ATOM      2  C   UNL A   1      38.994  34.070  38.824  1.00  0.00     0.188 C 
BRANCH   2   3
ATOM      3  O   UNL A   1      38.748  33.250  39.961  1.00  0.00    -0.376 OA
BRANCH   3   4
ATOM      4  C   UNL A   1      37.387  33.088  40.331  1.00  0.00     0.202 C 
BRANCH   4   5
ATOM      5  C   UNL A   1      36.968  31.624  40.493  1.00  0.00     0.261 C 
BRANCH   5   6
ATOM      6  O   UNL A   1      36.727  31.179  41.840  1.00  0.00    -0.463 OA
BRANCH   6   7
ATOM      7  C   UNL A   1      37.743  30.532  42.458  1.00  0.00     0.309 C 
ATOM      8  O   UNL A   1      38.357  29.592  41.970  1.00  0.00    -0.252 OA
BRANCH   7   9
ATOM      9  C   UNL A   1      37.930  30.988  43.909  1.00  0.00     0.099 C 
ATOM     10  C   UNL A   1      35.514  31.820  45.581  1.00  0.00     0.082 C 
ATOM     11  C   UNL A   1      35.642  30.484  44.852  1.00  0.00     0.026 C 
ATOM     12  C   UNL A   1      36.606  32.830  45.260  1.00  0.00     0.026 C 
ATOM     13  C   UNL A   1      37.113  30.057  44.800  1.00  0.00     0.017 C 
ATOM     14  C   UNL A   1      37.664  32.472  44.200  1.00  0.00     0.017 C 
BRANCH  10  15
ATOM     15  N   UNL A   1      34.118  32.272  45.775  1.00  0.00    -0.353 N 
ATOM     16  C   UNL A   1      33.022  32.849  45.256  1.00  0.00     0.220 C 
ATOM     17  O   UNL A   1      32.112  32.957  46.096  1.00  0.00    -0.275 OA
ATOM     18  H   UNL A   1      33.890  32.049  46.707  1.00  0.00     0.163 HD
BRANCH  16  19
ATOM     19  C   UNL A   1      32.691  33.285  43.839  1.00  0.00     0.102 C 
BRANCH  19  20
ATOM     20  C   UNL A   1      32.290  34.714  43.462  1.00  0.00     0.038 C 
BRANCH  20  21
ATOM     21  C   UNL A   1      30.870  35.133  43.076  1.00  0.00     0.160 C 
BRANCH  21  22
ATOM     22  O   UNL A   1      29.733  34.619  43.748  1.00  0.00    -0.385 OA
ATOM     23  C   UNL A   1      28.834  33.831  43.008  1.00  0.00     0.194 C 
ENDBRANCH  21  22
ENDBRANCH  20  21
ENDBRANCH  19  20
ENDBRANCH  16  19
ENDBRANCH  10  15
ENDBRANCH   7   9
ENDBRANCH   6   7
ENDBRANCH   5   6
ENDBRANCH   4   5
ENDBRANCH   3   4
ENDBRANCH   2   3
ENDBRANCH   1   2
BRANCH   1  24
ATOM     24  O   UNL A   1      38.676  33.464  36.376  1.00  0.00    -0.377 OA
BRANCH  24  25
ATOM     25  C   UNL A   1      37.894  33.560  35.189  1.00  0.00     0.188 C 
BRANCH  25  26
ATOM     26  C   UNL A   1      38.466  34.589  34.211  1.00  0.00     0.188 C 
BRANCH  26  27
ATOM     27  O   UNL A   1      38.134  34.474  32.825  1.00  0.00    -0.376 OA
BRANCH  27  28
ATOM     28  C   UNL A   1      37.964  33.171  32.281  1.00  0.00     0.202 C 
BRANCH  28  29
ATOM     29  C   UNL A   1      37.840  33.141  30.743  1.00  0.00     0.261 C 
BRANCH  29  30
ATOM     30  O   UNL A   1      36.791  32.307  30.221  1.00  0.00    -0.460 OA
BRANCH  30  31
ATOM     31  C   UNL A   1      36.741  31.062  30.739  1.00  0.00     0.338 C 
ATOM     32  O   UNL A   1      35.910  30.622  31.529  1.00  0.00    -0.246 OA
BRANCH  31  33
ATOM     33  C   UNL A   1      37.822  30.229  30.178  1.00  0.00     0.060 A 
ATOM     34  C   UNL A   1      38.681  29.569  31.065  1.00  0.00     0.016 A 
ATOM     35  C   UNL A   1      38.086  30.227  28.804  1.00  0.00     0.016 A 
ATOM     36  C   UNL A   1      39.862  28.996  30.592  1.00  0.00     0.010 A 
ATOM     37  C   UNL A   1      39.278  29.661  28.333  1.00  0.00     0.010 A 
ATOM     38  C   UNL A   1      40.202  29.107  29.236  1.00  0.00    -0.014 A 
BRANCH  38  39
ATOM     39  C   UNL A   1      41.621  28.900  28.842  1.00  0.00     0.031 A 
ATOM     40  C   UNL A   1      42.035  27.526  28.372  1.00  0.00     0.074 A 
ATOM     41  C   UNL A   1      42.503  29.914  28.813  1.00  0.00     0.049 A 
ATOM     42  N   UNL A   1      43.192  27.110  27.926  1.00  0.00    -0.248 NA
ATOM     43  C   UNL A   1      40.997  26.480  28.407  1.00  0.00     0.031 C 
ATOM     44  C   UNL A   1      42.219  31.293  29.202  1.00  0.00     0.029 A 
ATOM     45  N   UNL A   1      43.821  29.937  28.426  1.00  0.00    -0.354 N 
ATOM     46  C   UNL A   1      43.022  25.761  27.627  1.00  0.00     0.074 A 
ATOM     47  C   UNL A   1      41.661  25.419  27.977  1.00  0.00     0.031 C 
ATOM     48  C   UNL A   1      43.332  32.032  29.034  1.00  0.00     0.029 A 
ATOM     49  C   UNL A   1      44.410  31.174  28.542  1.00  0.00     0.049 A 
ATOM     50  H   UNL A   1      44.299  29.143  28.096  1.00  0.00     0.167 HD
ATOM     51  C   UNL A   1      43.909  24.888  27.094  1.00  0.00     0.037 A 
ATOM     52  C   UNL A   1      45.674  31.565  28.283  1.00  0.00     0.037 A 
ATOM     53  C   UNL A   1      45.263  25.228  26.743  1.00  0.00     0.049 A 
ATOM     54  C   UNL A   1      46.660  30.566  27.732  1.00  0.00     0.074 A 
ATOM     55  C   UNL A   1      46.244  24.415  26.201  1.00  0.00     0.029 A 
ATOM     56  N   UNL A   1      45.827  26.485  26.900  1.00  0.00    -0.354 N 
ATOM     57  N   UNL A   1      46.481  29.297  27.445  1.00  0.00    -0.248 NA
ATOM     58  C   UNL A   1      48.018  31.055  27.455  1.00  0.00     0.031 C 
ATOM     59  C   UNL A   1      47.414  25.172  26.069  1.00  0.00     0.029 A 
ATOM     60  C   UNL A   1      47.146  26.469  26.478  1.00  0.00     0.049 A 
ATOM     61  H   UNL A   1      45.359  27.273  27.259  1.00  0.00     0.167 HD
ATOM     62  C   UNL A   1      47.691  28.848  26.922  1.00  0.00     0.074 A 
ATOM     63  C   UNL A   1      48.591  29.983  26.924  1.00  0.00     0.031 C 
ATOM     64  C   UNL A   1      48.027  27.611  26.477  1.00  0.00     0.037 A 
BRANCH  51  65
ATOM     65  C   UNL A   1      43.447  23.471  26.886  1.00  0.00     0.058 A 
ATOM     66  C   UNL A   1      43.289  22.577  27.957  1.00  0.00     0.135 A 
ATOM     67  C   UNL A   1      43.145  23.004  25.596  1.00  0.00     0.135 A 
ATOM     68  F   UNL A   1      43.583  22.964  29.209  1.00  0.00    -0.206 F 
ATOM     69  C   UNL A   1      42.877  21.263  27.755  1.00  0.00     0.059 A 
ATOM     70  C   UNL A   1      42.706  21.703  25.373  1.00  0.00     0.059 A 
ATOM     71  F   UNL A   1      43.282  23.814  24.535  1.00  0.00    -0.206 F 
ATOM     72  C   UNL A   1      42.590  20.834  26.458  1.00  0.00     0.060 A 
BRANCH  72  73
ATOM     73  S   UNL A   1      42.055  19.128  26.209  1.00  0.00     0.124 S 
ATOM     74  O   UNL A   1      42.963  18.690  25.153  1.00  0.00    -0.237 OA
ATOM     75  O   UNL A   1      42.278  18.534  27.523  1.00  0.00    -0.237 OA
ATOM     76  O   UNL A   1      40.656  19.264  25.815  1.00  0.00    -0.744 OA
ENDBRANCH  72  73
ENDBRANCH  51  65
BRANCH  52  77
ATOM     77  C   UNL A   1      46.086  32.973  28.537  1.00  0.00     0.058 A 
ATOM     78  C   UNL A   1      46.480  33.400  29.814  1.00  0.00     0.135 A 
ATOM     79  C   UNL A   1      46.081  33.925  27.505  1.00  0.00     0.135 A 
ATOM     80  F   UNL A   1      46.491  32.534  30.838  1.00  0.00    -0.206 F 
ATOM     81  C   UNL A   1      46.838  34.723  30.064  1.00  0.00     0.059 A 
ATOM     82  C   UNL A   1      46.460  35.246  27.723  1.00  0.00     0.059 A 
ATOM     83  F   UNL A   1      45.718  33.566  26.263  1.00  0.00    -0.206 F 
ATOM     84  C   UNL A   1      46.826  35.638  29.010  1.00  0.00     0.060 A 
BRANCH  84  85
ATOM     85  S   UNL A   1      47.340  37.340  29.333  1.00  0.00     0.124 S 
ATOM     86  O   UNL A   1      46.359  37.759  30.328  1.00  0.00    -0.237 OA
ATOM     87  O   UNL A   1      48.705  37.161  29.818  1.00  0.00    -0.237 OA
ATOM     88  O   UNL A   1      47.227  37.979  28.026  1.00  0.00    -0.744 OA
ENDBRANCH  84  85
ENDBRANCH  52  77
BRANCH  64  89
ATOM     89  C   UNL A   1      49.407  27.433  25.905  1.00  0.00     0.058 A 
ATOM     90  C   UNL A   1      49.645  27.431  24.522  1.00  0.00     0.135 A 
ATOM     91  C   UNL A   1      50.513  27.284  26.759  1.00  0.00     0.135 A 
ATOM     92  F   UNL A   1      48.624  27.570  23.660  1.00  0.00    -0.206 F 
ATOM     93  C   UNL A   1      50.922  27.242  24.004  1.00  0.00     0.059 A 
ATOM     94  C   UNL A   1      51.804  27.125  26.263  1.00  0.00     0.059 A 
ATOM     95  F   UNL A   1      50.346  27.297  28.090  1.00  0.00    -0.206 F 
ATOM     96  C   UNL A   1      51.995  27.083  24.883  1.00  0.00     0.060 A 
BRANCH  96  97
ATOM     97  S   UNL A   1      53.649  26.831  24.202  1.00  0.00     0.124 S 
ATOM     98  O   UNL A   1      54.490  27.261  25.315  1.00  0.00    -0.237 OA
ATOM     99  O   UNL A   1      53.657  25.400  23.918  1.00  0.00    -0.237 OA
ATOM    100  O   UNL A   1      53.668  27.698  23.028  1.00  0.00    -0.744 OA
ENDBRANCH  96  97
ENDBRANCH  64  89
ENDBRANCH  38  39
ENDBRANCH  31  33
ENDBRANCH  30  31
ENDBRANCH  29  30
ENDBRANCH  28  29
ENDBRANCH  27  28
ENDBRANCH  26  27
ENDBRANCH  25  26
ENDBRANCH  24  25
ENDBRANCH   1  24
TORSDOF 28
ENDMDL
