MODEL 1
REMARK VINA RESULT:      -8.4      0.000      0.000
REMARK SMILES Cc1ccccc1[C@@H](CC(=O)OCCOCCOCCOCCOC(=O)c1ccc(-c2c3nc(c(-c4c(F)cc(S(=O)(=O)[O-])cc4F)c4ccc([nH]4)c(-c4c(F)cc(S(=O)(=O)[O-])cc4F)c4nc(c(-c5c(F)cc(S(=O)(=O)[O-])cc5F)c5ccc2[nH]5)C=C4)C=C3)cc1)NC(=O)C(F)(F)F
REMARK SMILES IDX 18 1 17 2 16 3 15 4 14 5 13 6 12 7 10 8 11 9 9 10 8 11 7 12
REMARK SMILES IDX 1 13 2 14 3 15 4 16 6 17 5 18 93 19 94 20 95 22 96 23 97 24
REMARK SMILES IDX 98 25 99 26 19 27 20 28 21 29 22 30 23 31 24 32 25 33 26 34
REMARK SMILES IDX 27 35 28 36 92 37 29 38 91 39 30 40 31 41 32 42 85 43 33 44
REMARK SMILES IDX 90 45 84 46 86 47 34 48 89 49 83 50 82 51 35 53 69 54 48 55
REMARK SMILES IDX 68 56 49 57 52 58 67 59 87 60 50 61 51 62 66 64 88 65 53 66
REMARK SMILES IDX 36 67 37 68 46 69 38 70 39 71 45 72 47 73 40 74 41 75 42 76
REMARK SMILES IDX 43 77 44 78 70 79 71 80 80 81 72 82 73 83 79 84 81 85 74 86
REMARK SMILES IDX 75 87 76 88 77 89 78 90 54 91 55 92 64 93 56 94 57 95 63 96
REMARK SMILES IDX 65 97 58 98 59 99 60 100 61 101 62 102
REMARK H PARENT 93 21 86 52 52 63
REMARK Flexibility Score: inf
ROOT
ATOM      1  O   UNL A   1      37.476  34.982  33.700  1.00  0.00    -0.377 OA
ENDROOT
BRANCH   1   2
ATOM      2  C   UNL A   1      38.268  34.301  34.656  1.00  0.00     0.188 C 
BRANCH   2   3
ATOM      3  C   UNL A   1      38.126  32.783  34.679  1.00  0.00     0.188 C 
BRANCH   3   4
ATOM      4  O   UNL A   1      37.381  32.232  35.736  1.00  0.00    -0.376 OA
BRANCH   4   5
ATOM      5  C   UNL A   1      38.063  32.316  36.970  1.00  0.00     0.202 C 
BRANCH   5   6
ATOM      6  C   UNL A   1      37.539  33.253  38.041  1.00  0.00     0.261 C 
BRANCH   6   7
ATOM      7  O   UNL A   1      38.621  34.074  38.596  1.00  0.00    -0.463 OA
BRANCH   7   8
ATOM      8  C   UNL A   1      39.938  33.883  38.410  1.00  0.00     0.308 C 
ATOM      9  O   UNL A   1      40.502  34.169  37.356  1.00  0.00    -0.252 OA
BRANCH   8  10
ATOM     10  C   UNL A   1      40.661  33.118  39.577  1.00  0.00     0.152 C 
BRANCH  10  11
ATOM     11  C   UNL A   1      40.372  32.976  41.186  1.00  0.00     0.124 C 
BRANCH  11  12
ATOM     12  C   UNL A   1      39.051  32.213  41.841  1.00  0.00    -0.022 A 
ATOM     13  C   UNL A   1      40.962  30.568  43.163  1.00  0.00     0.045 C 
ATOM     14  C   UNL A   1      39.493  30.718  42.700  1.00  0.00    -0.046 A 
ATOM     15  C   UNL A   1      38.381  29.837  43.778  1.00  0.00     0.004 A 
ATOM     16  C   UNL A   1      36.760  30.345  44.183  1.00  0.00     0.000 A 
ATOM     17  C   UNL A   1      37.315  32.802  42.083  1.00  0.00     0.006 A 
ATOM     18  C   UNL A   1      36.120  31.815  43.419  1.00  0.00     0.000 A 
ENDBRANCH  11  12
BRANCH  11  19
ATOM     19  N   UNL A   1      41.055  33.887  42.129  1.00  0.00    -0.341 N 
ATOM     20  C   UNL A   1      40.877  35.185  42.531  1.00  0.00     0.326 C 
ATOM     21  H   UNL A   1      41.821  33.459  42.575  1.00  0.00     0.164 HD
ATOM     22  O   UNL A   1      41.493  35.515  43.557  1.00  0.00    -0.265 OA
BRANCH  20  23
ATOM     23  C   UNL A   1      39.985  36.189  41.786  1.00  0.00     0.471 C 
ATOM     24  F   UNL A   1      40.031  37.430  42.346  1.00  0.00    -0.162 F 
ATOM     25  F   UNL A   1      40.309  36.343  40.477  1.00  0.00    -0.162 F 
ATOM     26  F   UNL A   1      38.669  35.819  41.799  1.00  0.00    -0.162 F 
ENDBRANCH  20  23
ENDBRANCH  11  19
ENDBRANCH  10  11
ENDBRANCH   8  10
ENDBRANCH   7   8
ENDBRANCH   6   7
ENDBRANCH   5   6
ENDBRANCH   4   5
ENDBRANCH   3   4
ENDBRANCH   2   3
ENDBRANCH   1   2
BRANCH   1  27
ATOM     27  C   UNL A   1      36.560  34.253  32.919  1.00  0.00     0.188 C 
BRANCH  27  28
ATOM     28  C   UNL A   1      35.253  34.749  32.475  1.00  0.00     0.188 C 
BRANCH  28  29
ATOM     29  O   UNL A   1      34.788  33.924  31.437  1.00  0.00    -0.376 OA
BRANCH  29  30
ATOM     30  C   UNL A   1      34.950  32.562  31.733  1.00  0.00     0.202 C 
BRANCH  30  31
ATOM     31  C   UNL A   1      35.271  31.758  30.491  1.00  0.00     0.261 C 
BRANCH  31  32
ATOM     32  O   UNL A   1      36.651  31.224  30.425  1.00  0.00    -0.460 OA
BRANCH  32  33
ATOM     33  C   UNL A   1      37.402  30.126  30.092  1.00  0.00     0.338 C 
ATOM     34  O   UNL A   1      36.907  29.025  30.340  1.00  0.00    -0.246 OA
BRANCH  33  35
ATOM     35  C   UNL A   1      38.735  30.100  29.363  1.00  0.00     0.060 A 
ATOM     36  C   UNL A   1      38.953  29.376  28.168  1.00  0.00     0.016 A 
ATOM     37  C   UNL A   1      39.830  30.794  29.825  1.00  0.00     0.016 A 
ATOM     38  C   UNL A   1      40.275  29.049  27.679  1.00  0.00     0.010 A 
ATOM     39  C   UNL A   1      41.121  30.427  29.376  1.00  0.00     0.010 A 
ATOM     40  C   UNL A   1      41.411  29.457  28.373  1.00  0.00    -0.014 A 
BRANCH  40  41
ATOM     41  C   UNL A   1      42.905  29.044  28.201  1.00  0.00     0.031 A 
ATOM     42  C   UNL A   1      43.132  27.546  28.406  1.00  0.00     0.074 A 
ATOM     43  C   UNL A   1      43.890  29.746  27.495  1.00  0.00     0.049 A 
ATOM     44  N   UNL A   1      44.178  26.905  28.024  1.00  0.00    -0.248 NA
ATOM     45  C   UNL A   1      42.101  26.601  28.847  1.00  0.00     0.031 C 
ATOM     46  C   UNL A   1      45.064  29.253  26.740  1.00  0.00     0.029 A 
ATOM     47  N   UNL A   1      44.011  31.074  27.088  1.00  0.00    -0.354 N 
ATOM     48  C   UNL A   1      43.868  25.572  27.783  1.00  0.00     0.074 A 
ATOM     49  C   UNL A   1      42.551  25.434  28.355  1.00  0.00     0.031 C 
ATOM     50  C   UNL A   1      45.865  30.202  26.207  1.00  0.00     0.029 A 
ATOM     51  C   UNL A   1      45.341  31.432  26.679  1.00  0.00     0.049 A 
ATOM     52  H   UNL A   1      43.256  31.707  27.083  1.00  0.00     0.167 HD
ATOM     53  C   UNL A   1      44.744  24.831  27.014  1.00  0.00     0.037 A 
ATOM     54  C   UNL A   1      46.090  32.476  27.142  1.00  0.00     0.037 A 
ATOM     55  C   UNL A   1      45.980  25.643  26.747  1.00  0.00     0.049 A 
ATOM     56  C   UNL A   1      46.874  31.551  28.336  1.00  0.00     0.074 A 
ATOM     57  C   UNL A   1      46.710  26.072  25.648  1.00  0.00     0.029 A 
ATOM     58  N   UNL A   1      46.508  26.379  27.803  1.00  0.00    -0.354 N 
ATOM     59  N   UNL A   1      46.630  30.246  28.455  1.00  0.00    -0.248 NA
ATOM     60  C   UNL A   1      48.047  31.820  29.188  1.00  0.00     0.031 C 
ATOM     61  C   UNL A   1      47.549  27.175  26.072  1.00  0.00     0.029 A 
ATOM     62  C   UNL A   1      47.368  27.399  27.439  1.00  0.00     0.049 A 
ATOM     63  H   UNL A   1      46.285  26.188  28.742  1.00  0.00     0.167 HD
ATOM     64  C   UNL A   1      47.700  29.519  28.871  1.00  0.00     0.074 A 
ATOM     65  C   UNL A   1      48.421  30.569  29.590  1.00  0.00     0.031 C 
ATOM     66  C   UNL A   1      48.001  28.200  28.521  1.00  0.00     0.037 A 
BRANCH  53  67
ATOM     67  C   UNL A   1      44.531  23.421  26.390  1.00  0.00     0.058 A 
ATOM     68  C   UNL A   1      45.657  22.616  26.078  1.00  0.00     0.135 A 
ATOM     69  C   UNL A   1      43.303  22.789  26.060  1.00  0.00     0.135 A 
ATOM     70  F   UNL A   1      46.904  23.039  26.312  1.00  0.00    -0.206 F 
ATOM     71  C   UNL A   1      45.586  21.326  25.528  1.00  0.00     0.059 A 
ATOM     72  C   UNL A   1      43.204  21.475  25.530  1.00  0.00     0.059 A 
ATOM     73  F   UNL A   1      42.129  23.408  26.227  1.00  0.00    -0.206 F 
ATOM     74  C   UNL A   1      44.357  20.743  25.279  1.00  0.00     0.060 A 
BRANCH  74  75
ATOM     75  S   UNL A   1      44.330  19.028  24.699  1.00  0.00     0.124 S 
ATOM     76  O   UNL A   1      43.114  18.509  25.318  1.00  0.00    -0.237 OA
ATOM     77  O   UNL A   1      44.274  19.197  23.249  1.00  0.00    -0.237 OA
ATOM     78  O   UNL A   1      45.577  18.468  25.210  1.00  0.00    -0.744 OA
ENDBRANCH  74  75
ENDBRANCH  53  67
BRANCH  54  79
ATOM     79  C   UNL A   1      45.028  33.802  27.123  1.00  0.00     0.058 A 
ATOM     80  C   UNL A   1      43.546  34.721  28.234  1.00  0.00     0.135 A 
ATOM     81  C   UNL A   1      46.202  34.947  26.339  1.00  0.00     0.135 A 
ATOM     82  F   UNL A   1      42.477  34.294  28.951  1.00  0.00    -0.206 F 
ATOM     83  C   UNL A   1      43.625  36.519  28.442  1.00  0.00     0.059 A 
ATOM     84  C   UNL A   1      46.149  36.649  26.657  1.00  0.00     0.059 A 
ATOM     85  F   UNL A   1      47.127  34.491  25.478  1.00  0.00    -0.206 F 
ATOM     86  C   UNL A   1      44.926  37.389  27.671  1.00  0.00     0.060 A 
BRANCH  86  87
ATOM     87  S   UNL A   1      45.136  39.128  28.067  1.00  0.00     0.124 S 
ATOM     88  O   UNL A   1      43.857  39.677  27.641  1.00  0.00    -0.237 OA
ATOM     89  O   UNL A   1      45.388  39.074  29.505  1.00  0.00    -0.237 OA
ATOM     90  O   UNL A   1      46.285  39.500  27.256  1.00  0.00    -0.744 OA
ENDBRANCH  86  87
ENDBRANCH  54  79
BRANCH  66  91
ATOM     91  C   UNL A   1      49.043  27.420  29.268  1.00  0.00     0.058 A 
ATOM     92  C   UNL A   1      50.370  27.416  28.864  1.00  0.00     0.135 A 
ATOM     93  C   UNL A   1      48.732  26.641  30.419  1.00  0.00     0.135 A 
ATOM     94  F   UNL A   1      50.729  27.909  27.669  1.00  0.00    -0.206 F 
ATOM     95  C   UNL A   1      51.362  26.922  29.693  1.00  0.00     0.059 A 
ATOM     96  C   UNL A   1      49.693  26.031  31.192  1.00  0.00     0.059 A 
ATOM     97  F   UNL A   1      47.494  26.472  30.899  1.00  0.00    -0.206 F 
ATOM     98  C   UNL A   1      51.011  26.262  30.868  1.00  0.00     0.060 A 
BRANCH  98  99
ATOM     99  S   UNL A   1      52.295  25.728  31.988  1.00  0.00     0.124 S 
ATOM    100  O   UNL A   1      51.748  24.474  32.496  1.00  0.00    -0.237 OA
ATOM    101  O   UNL A   1      53.430  25.607  31.078  1.00  0.00    -0.237 OA
ATOM    102  O   UNL A   1      52.379  26.814  32.959  1.00  0.00    -0.744 OA
ENDBRANCH  98  99
ENDBRANCH  66  91
ENDBRANCH  40  41
ENDBRANCH  33  35
ENDBRANCH  32  33
ENDBRANCH  31  32
ENDBRANCH  30  31
ENDBRANCH  29  30
ENDBRANCH  28  29
ENDBRANCH  27  28
ENDBRANCH   1  27
TORSDOF 27
ENDMDL
MODEL 2
REMARK VINA RESULT:      -8.2      6.885     11.548
REMARK SMILES Cc1ccccc1[C@@H](CC(=O)OCCOCCOCCOCCOC(=O)c1ccc(-c2c3nc(c(-c4c(F)cc(S(=O)(=O)[O-])cc4F)c4ccc([nH]4)c(-c4c(F)cc(S(=O)(=O)[O-])cc4F)c4nc(c(-c5c(F)cc(S(=O)(=O)[O-])cc5F)c5ccc2[nH]5)C=C4)C=C3)cc1)NC(=O)C(F)(F)F
REMARK SMILES IDX 18 1 17 2 16 3 15 4 14 5 13 6 12 7 10 8 11 9 9 10 8 11 7 12
REMARK SMILES IDX 1 13 2 14 3 15 4 16 6 17 5 18 93 19 94 20 95 22 96 23 97 24
REMARK SMILES IDX 98 25 99 26 19 27 20 28 21 29 22 30 23 31 24 32 25 33 26 34
REMARK SMILES IDX 27 35 28 36 92 37 29 38 91 39 30 40 31 41 32 42 85 43 33 44
REMARK SMILES IDX 90 45 84 46 86 47 34 48 89 49 83 50 82 51 35 53 69 54 48 55
REMARK SMILES IDX 68 56 49 57 52 58 67 59 87 60 50 61 51 62 66 64 88 65 53 66
REMARK SMILES IDX 36 67 37 68 46 69 38 70 39 71 45 72 47 73 40 74 41 75 42 76
REMARK SMILES IDX 43 77 44 78 70 79 71 80 80 81 72 82 73 83 79 84 81 85 74 86
REMARK SMILES IDX 75 87 76 88 77 89 78 90 54 91 55 92 64 93 56 94 57 95 63 96
REMARK SMILES IDX 65 97 58 98 59 99 60 100 61 101 62 102
REMARK H PARENT 93 21 86 52 52 63
REMARK Flexibility Score: inf
ROOT
ATOM      1  O   UNL A   1      38.425  34.086  33.861  1.00  0.00    -0.377 OA
ENDROOT
BRANCH   1   2
ATOM      2  C   UNL A   1      39.204  34.964  34.654  1.00  0.00     0.188 C 
BRANCH   2   3
ATOM      3  C   UNL A   1      40.712  34.740  34.610  1.00  0.00     0.188 C 
BRANCH   3   4
ATOM      4  O   UNL A   1      41.478  35.710  33.941  1.00  0.00    -0.376 OA
BRANCH   4   5
ATOM      5  C   UNL A   1      42.457  36.289  34.778  1.00  0.00     0.202 C 
BRANCH   5   6
ATOM      6  C   UNL A   1      42.870  37.729  34.546  1.00  0.00     0.261 C 
BRANCH   6   7
ATOM      7  O   UNL A   1      43.474  37.894  33.219  1.00  0.00    -0.463 OA
BRANCH   7   8
ATOM      8  C   UNL A   1      43.703  39.059  32.590  1.00  0.00     0.308 C 
ATOM      9  O   UNL A   1      43.685  39.161  31.365  1.00  0.00    -0.252 OA
BRANCH   8  10
ATOM     10  C   UNL A   1      44.156  40.234  33.529  1.00  0.00     0.152 C 
BRANCH  10  11
ATOM     11  C   UNL A   1      45.612  40.913  33.869  1.00  0.00     0.124 C 
BRANCH  11  12
ATOM     12  C   UNL A   1      47.076  40.268  33.429  1.00  0.00    -0.022 A 
ATOM     13  C   UNL A   1      46.662  41.631  30.964  1.00  0.00     0.045 C 
ATOM     14  C   UNL A   1      47.426  40.504  31.700  1.00  0.00    -0.046 A 
ATOM     15  C   UNL A   1      49.028  40.226  30.972  1.00  0.00     0.004 A 
ATOM     16  C   UNL A   1      50.463  39.757  31.849  1.00  0.00     0.000 A 
ATOM     17  C   UNL A   1      48.482  39.652  34.461  1.00  0.00     0.006 A 
ATOM     18  C   UNL A   1      50.326  39.460  33.596  1.00  0.00     0.000 A 
ENDBRANCH  11  12
BRANCH  11  19
ATOM     19  N   UNL A   1      45.709  41.917  34.950  1.00  0.00    -0.341 N 
ATOM     20  C   UNL A   1      45.401  43.246  35.076  1.00  0.00     0.326 C 
ATOM     21  H   UNL A   1      46.086  41.540  35.778  1.00  0.00     0.164 HD
ATOM     22  O   UNL A   1      45.371  43.679  36.239  1.00  0.00    -0.265 OA
BRANCH  20  23
ATOM     23  C   UNL A   1      45.110  44.166  33.881  1.00  0.00     0.471 C 
ATOM     24  F   UNL A   1      43.904  43.895  33.308  1.00  0.00    -0.162 F 
ATOM     25  F   UNL A   1      45.099  45.486  34.196  1.00  0.00    -0.162 F 
ATOM     26  F   UNL A   1      46.038  44.031  32.887  1.00  0.00    -0.162 F 
ENDBRANCH  20  23
ENDBRANCH  11  19
ENDBRANCH  10  11
ENDBRANCH   8  10
ENDBRANCH   7   8
ENDBRANCH   6   7
ENDBRANCH   5   6
ENDBRANCH   4   5
ENDBRANCH   3   4
ENDBRANCH   2   3
ENDBRANCH   1   2
BRANCH   1  27
ATOM     27  C   UNL A   1      37.048  34.334  33.709  1.00  0.00     0.188 C 
BRANCH  27  28
ATOM     28  C   UNL A   1      36.166  33.628  32.774  1.00  0.00     0.188 C 
BRANCH  28  29
ATOM     29  O   UNL A   1      35.719  34.538  31.802  1.00  0.00    -0.376 OA
BRANCH  29  30
ATOM     30  C   UNL A   1      34.478  34.167  31.264  1.00  0.00     0.202 C 
BRANCH  30  31
ATOM     31  C   UNL A   1      34.544  32.805  30.604  1.00  0.00     0.261 C 
BRANCH  31  32
ATOM     32  O   UNL A   1      35.486  32.701  29.465  1.00  0.00    -0.460 OA
BRANCH  32  33
ATOM     33  C   UNL A   1      36.770  32.375  29.112  1.00  0.00     0.338 C 
ATOM     34  O   UNL A   1      36.900  31.497  28.257  1.00  0.00    -0.246 OA
BRANCH  33  35
ATOM     35  C   UNL A   1      38.056  33.034  29.581  1.00  0.00     0.060 A 
ATOM     36  C   UNL A   1      38.323  34.414  29.426  1.00  0.00     0.016 A 
ATOM     37  C   UNL A   1      39.057  32.319  30.197  1.00  0.00     0.016 A 
ATOM     38  C   UNL A   1      39.654  34.972  29.525  1.00  0.00     0.010 A 
ATOM     39  C   UNL A   1      40.366  32.856  30.239  1.00  0.00     0.010 A 
ATOM     40  C   UNL A   1      40.749  34.156  29.799  1.00  0.00    -0.014 A 
BRANCH  40  41
ATOM     41  C   UNL A   1      42.277  34.454  29.722  1.00  0.00     0.031 A 
ATOM     42  C   UNL A   1      42.667  35.227  28.461  1.00  0.00     0.074 A 
ATOM     43  C   UNL A   1      43.176  34.493  30.795  1.00  0.00     0.049 A 
ATOM     44  N   UNL A   1      43.774  35.860  28.304  1.00  0.00    -0.248 NA
ATOM     45  C   UNL A   1      41.747  35.550  27.366  1.00  0.00     0.031 C 
ATOM     46  C   UNL A   1      44.392  35.312  30.999  1.00  0.00     0.029 A 
ATOM     47  N   UNL A   1      43.150  33.960  32.083  1.00  0.00    -0.354 N 
ATOM     48  C   UNL A   1      43.609  36.909  27.406  1.00  0.00     0.074 A 
ATOM     49  C   UNL A   1      42.319  36.639  26.822  1.00  0.00     0.031 C 
ATOM     50  C   UNL A   1      45.082  35.073  32.136  1.00  0.00     0.029 A 
ATOM     51  C   UNL A   1      44.431  33.965  32.735  1.00  0.00     0.049 A 
ATOM     52  H   UNL A   1      42.331  33.613  32.506  1.00  0.00     0.167 HD
ATOM     53  C   UNL A   1      44.556  37.914  27.403  1.00  0.00     0.037 A 
ATOM     54  C   UNL A   1      45.065  32.899  33.308  1.00  0.00     0.037 A 
ATOM     55  C   UNL A   1      45.694  37.529  28.305  1.00  0.00     0.049 A 
ATOM     56  C   UNL A   1      45.951  32.511  31.908  1.00  0.00     0.074 A 
ATOM     57  C   UNL A   1      46.367  38.059  29.395  1.00  0.00     0.029 A 
ATOM     58  N   UNL A   1      46.146  36.214  28.245  1.00  0.00    -0.354 N 
ATOM     59  N   UNL A   1      45.852  33.259  30.809  1.00  0.00    -0.248 NA
ATOM     60  C   UNL A   1      47.094  31.608  31.676  1.00  0.00     0.031 C 
ATOM     61  C   UNL A   1      47.084  36.981  30.047  1.00  0.00     0.029 A 
ATOM     62  C   UNL A   1      46.888  35.796  29.334  1.00  0.00     0.049 A 
ATOM     63  H   UNL A   1      45.950  35.623  27.483  1.00  0.00     0.167 HD
ATOM     64  C   UNL A   1      46.997  33.328  30.081  1.00  0.00     0.074 A 
ATOM     65  C   UNL A   1      47.604  32.064  30.494  1.00  0.00     0.031 C 
ATOM     66  C   UNL A   1      47.437  34.413  29.318  1.00  0.00     0.037 A 
BRANCH  53  67
ATOM     67  C   UNL A   1      44.493  39.301  26.698  1.00  0.00     0.058 A 
ATOM     68  C   UNL A   1      45.604  39.752  25.939  1.00  0.00     0.135 A 
ATOM     69  C   UNL A   1      43.428  40.239  26.711  1.00  0.00     0.135 A 
ATOM     70  F   UNL A   1      46.709  39.009  25.810  1.00  0.00    -0.206 F 
ATOM     71  C   UNL A   1      45.655  40.974  25.250  1.00  0.00     0.059 A 
ATOM     72  C   UNL A   1      43.444  41.468  25.999  1.00  0.00     0.059 A 
ATOM     73  F   UNL A   1      42.312  40.024  27.417  1.00  0.00    -0.206 F 
ATOM     74  C   UNL A   1      44.563  41.822  25.258  1.00  0.00     0.060 A 
BRANCH  74  75
ATOM     75  S   UNL A   1      44.639  43.317  24.239  1.00  0.00     0.124 S 
ATOM     76  O   UNL A   1      44.776  44.370  25.241  1.00  0.00    -0.237 OA
ATOM     77  O   UNL A   1      45.824  43.070  23.422  1.00  0.00    -0.237 OA
ATOM     78  O   UNL A   1      43.372  43.308  23.513  1.00  0.00    -0.744 OA
ENDBRANCH  74  75
ENDBRANCH  53  67
BRANCH  54  79
ATOM     79  C   UNL A   1      43.865  32.145  34.244  1.00  0.00     0.058 A 
ATOM     80  C   UNL A   1      41.983  31.299  34.111  1.00  0.00     0.135 A 
ATOM     81  C   UNL A   1      45.027  31.233  35.304  1.00  0.00     0.135 A 
ATOM     82  F   UNL A   1      40.826  31.623  33.482  1.00  0.00    -0.206 F 
ATOM     83  C   UNL A   1      41.704  29.701  34.918  1.00  0.00     0.059 A 
ATOM     84  C   UNL A   1      44.606  29.700  35.992  1.00  0.00     0.059 A 
ATOM     85  F   UNL A   1      46.236  31.746  35.588  1.00  0.00    -0.206 F 
ATOM     86  C   UNL A   1      43.025  28.971  35.793  1.00  0.00     0.060 A 
BRANCH  86  87
ATOM     87  S   UNL A   1      42.819  27.290  36.390  1.00  0.00     0.124 S 
ATOM     88  O   UNL A   1      41.377  27.223  36.574  1.00  0.00    -0.237 OA
ATOM     89  O   UNL A   1      43.383  26.514  35.289  1.00  0.00    -0.237 OA
ATOM     90  O   UNL A   1      43.613  27.288  37.610  1.00  0.00    -0.744 OA
ENDBRANCH  86  87
ENDBRANCH  54  79
BRANCH  66  91
ATOM     91  C   UNL A   1      48.562  34.262  28.336  1.00  0.00     0.058 A 
ATOM     92  C   UNL A   1      49.862  34.612  28.668  1.00  0.00     0.135 A 
ATOM     93  C   UNL A   1      48.361  33.761  27.018  1.00  0.00     0.135 A 
ATOM     94  F   UNL A   1      50.125  35.314  29.781  1.00  0.00    -0.206 F 
ATOM     95  C   UNL A   1      50.926  34.230  27.870  1.00  0.00     0.059 A 
ATOM     96  C   UNL A   1      49.397  33.490  26.154  1.00  0.00     0.059 A 
ATOM     97  F   UNL A   1      47.163  33.448  26.509  1.00  0.00    -0.206 F 
ATOM     98  C   UNL A   1      50.679  33.640  26.632  1.00  0.00     0.060 A 
BRANCH  98  99
ATOM     99  S   UNL A   1      52.053  33.046  25.657  1.00  0.00     0.124 S 
ATOM    100  O   UNL A   1      52.740  32.178  26.607  1.00  0.00    -0.237 OA
ATOM    101  O   UNL A   1      51.355  32.373  24.567  1.00  0.00    -0.237 OA
ATOM    102  O   UNL A   1      52.768  34.265  25.292  1.00  0.00    -0.744 OA
ENDBRANCH  98  99
ENDBRANCH  66  91
ENDBRANCH  40  41
ENDBRANCH  33  35
ENDBRANCH  32  33
ENDBRANCH  31  32
ENDBRANCH  30  31
ENDBRANCH  29  30
ENDBRANCH  28  29
ENDBRANCH  27  28
ENDBRANCH   1  27
TORSDOF 27
ENDMDL
MODEL 3
REMARK VINA RESULT:      -8.0      4.815     14.907
REMARK SMILES Cc1ccccc1[C@@H](CC(=O)OCCOCCOCCOCCOC(=O)c1ccc(-c2c3nc(c(-c4c(F)cc(S(=O)(=O)[O-])cc4F)c4ccc([nH]4)c(-c4c(F)cc(S(=O)(=O)[O-])cc4F)c4nc(c(-c5c(F)cc(S(=O)(=O)[O-])cc5F)c5ccc2[nH]5)C=C4)C=C3)cc1)NC(=O)C(F)(F)F
REMARK SMILES IDX 18 1 17 2 16 3 15 4 14 5 13 6 12 7 10 8 11 9 9 10 8 11 7 12
REMARK SMILES IDX 1 13 2 14 3 15 4 16 6 17 5 18 93 19 94 20 95 22 96 23 97 24
REMARK SMILES IDX 98 25 99 26 19 27 20 28 21 29 22 30 23 31 24 32 25 33 26 34
REMARK SMILES IDX 27 35 28 36 92 37 29 38 91 39 30 40 31 41 32 42 85 43 33 44
REMARK SMILES IDX 90 45 84 46 86 47 34 48 89 49 83 50 82 51 35 53 69 54 48 55
REMARK SMILES IDX 68 56 49 57 52 58 67 59 87 60 50 61 51 62 66 64 88 65 53 66
REMARK SMILES IDX 36 67 37 68 46 69 38 70 39 71 45 72 47 73 40 74 41 75 42 76
REMARK SMILES IDX 43 77 44 78 70 79 71 80 80 81 72 82 73 83 79 84 81 85 74 86
REMARK SMILES IDX 75 87 76 88 77 89 78 90 54 91 55 92 64 93 56 94 57 95 63 96
REMARK SMILES IDX 65 97 58 98 59 99 60 100 61 101 62 102
REMARK H PARENT 93 21 86 52 52 63
REMARK Flexibility Score: inf
ROOT
ATOM      1  O   UNL A   1      52.098  23.068  36.316  1.00  0.00    -0.377 OA
ENDROOT
BRANCH   1   2
ATOM      2  C   UNL A   1      52.282  23.585  35.010  1.00  0.00     0.188 C 
BRANCH   2   3
ATOM      3  C   UNL A   1      52.781  22.592  33.965  1.00  0.00     0.188 C 
BRANCH   3   4
ATOM      4  O   UNL A   1      53.105  23.113  32.700  1.00  0.00    -0.376 OA
BRANCH   4   5
ATOM      5  C   UNL A   1      53.089  24.525  32.684  1.00  0.00     0.202 C 
BRANCH   5   6
ATOM      6  C   UNL A   1      54.080  25.265  31.807  1.00  0.00     0.261 C 
BRANCH   6   7
ATOM      7  O   UNL A   1      53.454  26.433  31.177  1.00  0.00    -0.463 OA
BRANCH   7   8
ATOM      8  C   UNL A   1      52.277  26.984  31.519  1.00  0.00     0.308 C 
ATOM      9  O   UNL A   1      52.197  27.950  32.276  1.00  0.00    -0.252 OA
BRANCH   8  10
ATOM     10  C   UNL A   1      51.014  26.201  31.011  1.00  0.00     0.152 C 
BRANCH  10  11
ATOM     11  C   UNL A   1      49.407  26.534  30.999  1.00  0.00     0.124 C 
BRANCH  11  12
ATOM     12  C   UNL A   1      48.480  26.651  29.627  1.00  0.00    -0.022 A 
ATOM     13  C   UNL A   1      49.815  29.134  29.231  1.00  0.00     0.045 C 
ATOM     14  C   UNL A   1      48.587  28.261  28.876  1.00  0.00    -0.046 A 
ATOM     15  C   UNL A   1      47.984  28.626  27.240  1.00  0.00     0.004 A 
ATOM     16  C   UNL A   1      47.279  27.463  26.145  1.00  0.00     0.000 A 
ATOM     17  C   UNL A   1      47.640  25.345  28.623  1.00  0.00     0.006 A 
ATOM     18  C   UNL A   1      47.071  25.791  26.709  1.00  0.00     0.000 A 
ENDBRANCH  11  12
BRANCH  11  19
ATOM     19  N   UNL A   1      48.788  27.163  32.185  1.00  0.00    -0.341 N 
ATOM     20  C   UNL A   1      48.448  26.743  33.445  1.00  0.00     0.326 C 
ATOM     21  H   UNL A   1      48.567  28.111  32.034  1.00  0.00     0.164 HD
ATOM     22  O   UNL A   1      48.196  27.647  34.258  1.00  0.00    -0.265 OA
BRANCH  20  23
ATOM     23  C   UNL A   1      48.372  25.266  33.854  1.00  0.00     0.471 C 
ATOM     24  F   UNL A   1      47.366  24.607  33.215  1.00  0.00    -0.162 F 
ATOM     25  F   UNL A   1      49.510  24.569  33.603  1.00  0.00    -0.162 F 
ATOM     26  F   UNL A   1      48.133  25.111  35.191  1.00  0.00    -0.162 F 
ENDBRANCH  20  23
ENDBRANCH  11  19
ENDBRANCH  10  11
ENDBRANCH   8  10
ENDBRANCH   7   8
ENDBRANCH   6   7
ENDBRANCH   5   6
ENDBRANCH   4   5
ENDBRANCH   3   4
ENDBRANCH   2   3
ENDBRANCH   1   2
BRANCH   1  27
ATOM     27  C   UNL A   1      51.035  22.179  36.562  1.00  0.00     0.188 C 
BRANCH  27  28
ATOM     28  C   UNL A   1      49.643  22.403  36.160  1.00  0.00     0.188 C 
BRANCH  28  29
ATOM     29  O   UNL A   1      48.824  21.487  36.842  1.00  0.00    -0.376 OA
BRANCH  29  30
ATOM     30  C   UNL A   1      47.728  22.114  37.453  1.00  0.00     0.202 C 
BRANCH  30  31
ATOM     31  C   UNL A   1      46.665  22.484  36.441  1.00  0.00     0.261 C 
BRANCH  31  32
ATOM     32  O   UNL A   1      45.439  23.095  37.008  1.00  0.00    -0.460 OA
BRANCH  32  33
ATOM     33  C   UNL A   1      44.667  24.227  37.019  1.00  0.00     0.338 C 
ATOM     34  O   UNL A   1      44.480  24.756  38.116  1.00  0.00    -0.246 OA
BRANCH  33  35
ATOM     35  C   UNL A   1      44.090  24.967  35.823  1.00  0.00     0.060 A 
ATOM     36  C   UNL A   1      44.878  25.714  34.918  1.00  0.00     0.016 A 
ATOM     37  C   UNL A   1      42.743  24.955  35.541  1.00  0.00     0.016 A 
ATOM     38  C   UNL A   1      44.319  26.700  34.019  1.00  0.00     0.010 A 
ATOM     39  C   UNL A   1      42.203  25.958  34.702  1.00  0.00     0.010 A 
ATOM     40  C   UNL A   1      42.948  26.948  33.998  1.00  0.00    -0.014 A 
BRANCH  40  41
ATOM     41  C   UNL A   1      42.138  28.094  33.320  1.00  0.00     0.031 A 
ATOM     42  C   UNL A   1      41.682  29.165  34.312  1.00  0.00     0.074 A 
ATOM     43  C   UNL A   1      42.171  28.454  31.967  1.00  0.00     0.049 A 
ATOM     44  N   UNL A   1      41.284  30.342  33.986  1.00  0.00    -0.248 NA
ATOM     45  C   UNL A   1      41.861  29.082  35.765  1.00  0.00     0.031 C 
ATOM     46  C   UNL A   1      42.006  29.775  31.321  1.00  0.00     0.029 A 
ATOM     47  N   UNL A   1      42.557  27.780  30.809  1.00  0.00    -0.354 N 
ATOM     48  C   UNL A   1      41.524  31.238  35.022  1.00  0.00     0.074 A 
ATOM     49  C   UNL A   1      41.855  30.376  36.130  1.00  0.00     0.031 C 
ATOM     50  C   UNL A   1      42.040  29.781  29.970  1.00  0.00     0.029 A 
ATOM     51  C   UNL A   1      42.112  28.415  29.598  1.00  0.00     0.049 A 
ATOM     52  H   UNL A   1      43.084  26.948  30.819  1.00  0.00     0.167 HD
ATOM     53  C   UNL A   1      41.524  32.587  34.726  1.00  0.00     0.037 A 
ATOM     54  C   UNL A   1      41.401  27.841  28.582  1.00  0.00     0.037 A 
ATOM     55  C   UNL A   1      41.071  32.784  33.306  1.00  0.00     0.049 A 
ATOM     56  C   UNL A   1      39.889  28.313  29.203  1.00  0.00     0.074 A 
ATOM     57  C   UNL A   1      41.541  33.396  32.153  1.00  0.00     0.029 A 
ATOM     58  N   UNL A   1      39.995  32.023  32.862  1.00  0.00    -0.354 N 
ATOM     59  N   UNL A   1      39.807  29.047  30.312  1.00  0.00    -0.248 NA
ATOM     60  C   UNL A   1      38.534  28.314  28.620  1.00  0.00     0.031 C 
ATOM     61  C   UNL A   1      40.813  32.846  31.027  1.00  0.00     0.029 A 
ATOM     62  C   UNL A   1      39.867  31.927  31.489  1.00  0.00     0.049 A 
ATOM     63  H   UNL A   1      39.368  31.583  33.481  1.00  0.00     0.167 HD
ATOM     64  C   UNL A   1      38.756  29.908  30.330  1.00  0.00     0.074 A 
ATOM     65  C   UNL A   1      37.861  29.190  29.422  1.00  0.00     0.031 C 
ATOM     66  C   UNL A   1      38.713  31.162  30.945  1.00  0.00     0.037 A 
BRANCH  53  67
ATOM     67  C   UNL A   1      41.999  33.773  35.614  1.00  0.00     0.058 A 
ATOM     68  C   UNL A   1      41.329  34.046  36.836  1.00  0.00     0.135 A 
ATOM     69  C   UNL A   1      43.061  34.682  35.363  1.00  0.00     0.135 A 
ATOM     70  F   UNL A   1      40.297  33.302  37.247  1.00  0.00    -0.206 F 
ATOM     71  C   UNL A   1      41.678  35.077  37.722  1.00  0.00     0.059 A 
ATOM     72  C   UNL A   1      43.451  35.714  36.257  1.00  0.00     0.059 A 
ATOM     73  F   UNL A   1      43.779  34.626  34.235  1.00  0.00    -0.206 F 
ATOM     74  C   UNL A   1      42.758  35.895  37.446  1.00  0.00     0.060 A 
BRANCH  74  75
ATOM     75  S   UNL A   1      43.242  37.117  38.693  1.00  0.00     0.124 S 
ATOM     76  O   UNL A   1      43.755  36.276  39.770  1.00  0.00    -0.237 OA
ATOM     77  O   UNL A   1      44.243  37.903  37.978  1.00  0.00    -0.237 OA
ATOM     78  O   UNL A   1      41.997  37.820  38.991  1.00  0.00    -0.744 OA
ENDBRANCH  74  75
ENDBRANCH  53  67
BRANCH  54  79
ATOM     79  C   UNL A   1      42.197  26.369  28.288  1.00  0.00     0.058 A 
ATOM     80  C   UNL A   1      42.989  24.720  29.252  1.00  0.00     0.135 A 
ATOM     81  C   UNL A   1      41.278  25.983  26.767  1.00  0.00     0.135 A 
ATOM     82  F   UNL A   1      43.741  24.526  30.363  1.00  0.00    -0.206 F 
ATOM     83  C   UNL A   1      42.592  23.077  28.601  1.00  0.00     0.059 A 
ATOM     84  C   UNL A   1      40.971  24.346  26.291  1.00  0.00     0.059 A 
ATOM     85  F   UNL A   1      40.833  26.969  25.971  1.00  0.00    -0.206 F 
ATOM     86  C   UNL A   1      41.590  22.967  27.177  1.00  0.00     0.060 A 
BRANCH  86  87
ATOM     87  S   UNL A   1      41.009  21.344  26.673  1.00  0.00     0.124 S 
ATOM     88  O   UNL A   1      39.774  21.683  25.979  1.00  0.00    -0.237 OA
ATOM     89  O   UNL A   1      42.122  20.872  25.854  1.00  0.00    -0.237 OA
ATOM     90  O   UNL A   1      40.849  20.656  27.946  1.00  0.00    -0.744 OA
ENDBRANCH  86  87
ENDBRANCH  54  79
BRANCH  66  91
ATOM     91  C   UNL A   1      37.412  31.885  31.140  1.00  0.00     0.058 A 
ATOM     92  C   UNL A   1      36.512  31.499  32.121  1.00  0.00     0.135 A 
ATOM     93  C   UNL A   1      37.027  32.992  30.331  1.00  0.00     0.135 A 
ATOM     94  F   UNL A   1      36.656  30.334  32.772  1.00  0.00    -0.206 F 
ATOM     95  C   UNL A   1      35.451  32.316  32.471  1.00  0.00     0.059 A 
ATOM     96  C   UNL A   1      35.905  33.748  30.582  1.00  0.00     0.059 A 
ATOM     97  F   UNL A   1      37.739  33.447  29.293  1.00  0.00    -0.206 F 
ATOM     98  C   UNL A   1      35.179  33.453  31.714  1.00  0.00     0.060 A 
BRANCH  98  99
ATOM     99  S   UNL A   1      33.882  34.563  32.237  1.00  0.00     0.124 S 
ATOM    100  O   UNL A   1      33.265  34.924  30.965  1.00  0.00    -0.237 OA
ATOM    101  O   UNL A   1      33.095  33.689  33.101  1.00  0.00    -0.237 OA
ATOM    102  O   UNL A   1      34.600  35.638  32.913  1.00  0.00    -0.744 OA
ENDBRANCH  98  99
ENDBRANCH  66  91
ENDBRANCH  40  41
ENDBRANCH  33  35
ENDBRANCH  32  33
ENDBRANCH  31  32
ENDBRANCH  30  31
ENDBRANCH  29  30
ENDBRANCH  28  29
ENDBRANCH  27  28
ENDBRANCH   1  27
TORSDOF 27
ENDMDL
