MODEL 1
REMARK VINA RESULT:      -8.9      0.000      0.000
REMARK SMILES CC1(CNS(=O)(=O)Cc2ccc(C(=O)OCCOCCOCCOCCOC(=O)c3ccc(-c4c5nc(c(-c6c(F)cc(S(=O)(=O)[O-])cc6F)c6ccc([nH]6)c(-c6c(F)cc(S(=O)(=O)[O-])cc6F)c6nc(c(-c7c(F)cc(S(=O)(=O)[O-])cc7F)c7ccc4[nH]7)C=C6)C=C5)cc3)cc2)COC1
REMARK SMILES IDX 20 1 19 2 18 3 17 4 16 5 15 6 13 7 14 8 12 9 9 10 10 11
REMARK SMILES IDX 97 12 11 13 96 14 8 15 5 16 6 17 7 18 4 19 3 21 2 22 1 23
REMARK SMILES IDX 98 24 100 25 99 26 21 27 22 28 23 29 24 30 25 31 26 32 27 33
REMARK SMILES IDX 28 34 29 35 30 36 31 37 95 38 32 39 94 40 33 41 34 42 35 43
REMARK SMILES IDX 88 44 36 45 93 46 87 47 89 48 37 49 92 50 86 51 85 52 38 54
REMARK SMILES IDX 72 55 51 56 71 57 52 58 55 59 70 60 90 61 53 62 54 63 69 65
REMARK SMILES IDX 91 66 56 67 39 68 40 69 49 70 41 71 42 72 48 73 50 74 43 75
REMARK SMILES IDX 44 76 45 77 46 78 47 79 73 80 74 81 83 82 75 83 76 84 82 85
REMARK SMILES IDX 84 86 77 87 78 88 79 89 80 90 81 91 57 92 58 93 67 94 59 95
REMARK SMILES IDX 60 96 66 97 68 98 61 99 62 100 63 101 64 102 65 103
REMARK H PARENT 4 20 89 53 55 64
REMARK Flexibility Score: inf
ROOT
ATOM      1  C   UNL A   1      37.760  23.190  25.612  1.00  0.00     0.188 C 
ENDROOT
BRANCH   1   2
ATOM      2  C   UNL A   1      36.592  22.218  25.885  1.00  0.00     0.188 C 
BRANCH   2   3
ATOM      3  O   UNL A   1      36.303  21.345  24.808  1.00  0.00    -0.376 OA
BRANCH   3   4
ATOM      4  C   UNL A   1      35.415  20.260  24.996  1.00  0.00     0.202 C 
BRANCH   4   5
ATOM      5  C   UNL A   1      33.910  20.468  24.788  1.00  0.00     0.261 C 
BRANCH   5   6
ATOM      6  O   UNL A   1      33.513  21.769  24.349  1.00  0.00    -0.460 OA
BRANCH   6   7
ATOM      7  C   UNL A   1      32.405  22.307  24.904  1.00  0.00     0.338 C 
ATOM      8  O   UNL A   1      31.382  21.725  25.218  1.00  0.00    -0.246 OA
BRANCH   7   9
ATOM      9  C   UNL A   1      32.730  23.705  25.272  1.00  0.00     0.060 A 
ATOM     10  C   UNL A   1      33.372  26.341  26.045  1.00  0.00    -0.032 A 
ATOM     11  C   UNL A   1      32.302  25.656  26.645  1.00  0.00     0.006 A 
ATOM     12  C   UNL A   1      34.148  25.646  25.111  1.00  0.00     0.006 A 
ATOM     13  C   UNL A   1      31.974  24.353  26.253  1.00  0.00     0.016 A 
ATOM     14  C   UNL A   1      33.834  24.348  24.717  1.00  0.00     0.016 A 
BRANCH  10  15
ATOM     15  C   UNL A   1      33.696  27.746  26.495  1.00  0.00     0.189 C 
BRANCH  15  16
ATOM     16  S   UNL A   1      33.048  29.037  25.412  1.00  0.00     0.215 S 
ATOM     17  O   UNL A   1      33.580  28.819  24.082  1.00  0.00    -0.212 OA
ATOM     18  O   UNL A   1      33.190  30.330  26.046  1.00  0.00    -0.212 OA
BRANCH  16  19
ATOM     19  N   UNL A   1      31.390  28.752  25.309  1.00  0.00    -0.214 NA
ATOM     20  H   UNL A   1      31.259  27.740  25.306  1.00  0.00     0.141 HD
BRANCH  19  21
ATOM     21  C   UNL A   1      30.652  29.291  24.151  1.00  0.00     0.110 C 
BRANCH  21  22
ATOM     22  C   UNL A   1      29.910  28.195  23.374  1.00  0.00     0.028 C 
ATOM     23  C   UNL A   1      28.530  28.585  22.866  1.00  0.00     0.018 C 
ATOM     24  C   UNL A   1      29.922  26.849  24.127  1.00  0.00     0.170 C 
ATOM     25  C   UNL A   1      30.796  27.439  22.365  1.00  0.00     0.170 C 
ATOM     26  O   UNL A   1      31.061  26.401  23.347  1.00  0.00    -0.380 OA
ENDBRANCH  21  22
ENDBRANCH  19  21
ENDBRANCH  16  19
ENDBRANCH  15  16
ENDBRANCH  10  15
ENDBRANCH   7   9
ENDBRANCH   6   7
ENDBRANCH   5   6
ENDBRANCH   4   5
ENDBRANCH   3   4
ENDBRANCH   2   3
ENDBRANCH   1   2
BRANCH   1  27
ATOM     27  O   UNL A   1      38.814  23.285  26.557  1.00  0.00    -0.377 OA
BRANCH  27  28
ATOM     28  C   UNL A   1      39.786  22.247  26.659  1.00  0.00     0.188 C 
BRANCH  28  29
ATOM     29  C   UNL A   1      41.192  22.490  27.262  1.00  0.00     0.188 C 
BRANCH  29  30
ATOM     30  O   UNL A   1      41.811  21.337  27.804  1.00  0.00    -0.376 OA
BRANCH  30  31
ATOM     31  C   UNL A   1      41.216  20.081  27.537  1.00  0.00     0.202 C 
BRANCH  31  32
ATOM     32  C   UNL A   1      41.965  19.165  26.560  1.00  0.00     0.261 C 
BRANCH  32  33
ATOM     33  O   UNL A   1      42.364  19.759  25.317  1.00  0.00    -0.460 OA
BRANCH  33  34
ATOM     34  C   UNL A   1      43.681  19.735  25.026  1.00  0.00     0.338 C 
ATOM     35  O   UNL A   1      44.312  18.797  24.561  1.00  0.00    -0.246 OA
BRANCH  34  36
ATOM     36  C   UNL A   1      44.206  21.106  25.182  1.00  0.00     0.060 A 
ATOM     37  C   UNL A   1      45.111  21.375  26.218  1.00  0.00     0.016 A 
ATOM     38  C   UNL A   1      43.801  22.121  24.312  1.00  0.00     0.016 A 
ATOM     39  C   UNL A   1      45.573  22.676  26.417  1.00  0.00     0.010 A 
ATOM     40  C   UNL A   1      44.251  23.426  24.524  1.00  0.00     0.010 A 
ATOM     41  C   UNL A   1      45.103  23.716  25.605  1.00  0.00    -0.014 A 
BRANCH  41  42
ATOM     42  C   UNL A   1      45.324  25.122  26.025  1.00  0.00     0.031 A 
ATOM     43  C   UNL A   1      46.717  25.684  25.915  1.00  0.00     0.074 A 
ATOM     44  C   UNL A   1      44.311  25.896  26.453  1.00  0.00     0.049 A 
ATOM     45  N   UNL A   1      47.162  26.872  26.229  1.00  0.00    -0.248 NA
ATOM     46  C   UNL A   1      47.748  24.779  25.377  1.00  0.00     0.031 C 
ATOM     47  C   UNL A   1      42.915  25.477  26.566  1.00  0.00     0.029 A 
ATOM     48  N   UNL A   1      44.306  27.202  26.876  1.00  0.00    -0.354 N 
ATOM     49  C   UNL A   1      48.520  26.855  25.936  1.00  0.00     0.074 A 
ATOM     50  C   UNL A   1      48.835  25.529  25.454  1.00  0.00     0.031 C 
ATOM     51  C   UNL A   1      42.188  26.506  27.036  1.00  0.00     0.029 A 
ATOM     52  C   UNL A   1      43.071  27.645  27.286  1.00  0.00     0.049 A 
ATOM     53  H   UNL A   1      45.111  27.768  26.884  1.00  0.00     0.167 HD
ATOM     54  C   UNL A   1      49.423  27.859  26.045  1.00  0.00     0.037 A 
ATOM     55  C   UNL A   1      42.703  28.828  27.819  1.00  0.00     0.037 A 
ATOM     56  C   UNL A   1      49.102  29.177  26.526  1.00  0.00     0.049 A 
ATOM     57  C   UNL A   1      43.739  29.911  27.994  1.00  0.00     0.074 A 
ATOM     58  C   UNL A   1      49.939  30.271  26.661  1.00  0.00     0.029 A 
ATOM     59  N   UNL A   1      47.846  29.579  26.959  1.00  0.00    -0.354 N 
ATOM     60  N   UNL A   1      45.015  29.892  27.689  1.00  0.00    -0.248 NA
ATOM     61  C   UNL A   1      43.282  31.180  28.577  1.00  0.00     0.031 C 
ATOM     62  C   UNL A   1      49.205  31.314  27.233  1.00  0.00     0.029 A 
ATOM     63  C   UNL A   1      47.893  30.895  27.389  1.00  0.00     0.049 A 
ATOM     64  H   UNL A   1      47.041  29.012  26.962  1.00  0.00     0.167 HD
ATOM     65  C   UNL A   1      45.505  31.155  28.012  1.00  0.00     0.074 A 
ATOM     66  C   UNL A   1      44.384  31.916  28.525  1.00  0.00     0.031 C 
ATOM     67  C   UNL A   1      46.766  31.643  27.891  1.00  0.00     0.037 A 
BRANCH  54  68
ATOM     68  C   UNL A   1      50.849  27.560  25.668  1.00  0.00     0.058 A 
ATOM     69  C   UNL A   1      51.322  27.726  24.355  1.00  0.00     0.135 A 
ATOM     70  C   UNL A   1      51.763  27.124  26.641  1.00  0.00     0.135 A 
ATOM     71  F   UNL A   1      50.486  28.118  23.379  1.00  0.00    -0.206 F 
ATOM     72  C   UNL A   1      52.641  27.446  24.017  1.00  0.00     0.059 A 
ATOM     73  C   UNL A   1      53.096  26.870  26.331  1.00  0.00     0.059 A 
ATOM     74  F   UNL A   1      51.365  26.944  27.910  1.00  0.00    -0.206 F 
ATOM     75  C   UNL A   1      53.522  27.019  25.013  1.00  0.00     0.060 A 
BRANCH  75  76
ATOM     76  S   UNL A   1      55.233  26.667  24.558  1.00  0.00     0.124 S 
ATOM     77  O   UNL A   1      55.199  26.879  23.114  1.00  0.00    -0.237 OA
ATOM     78  O   UNL A   1      55.970  27.665  25.327  1.00  0.00    -0.237 OA
ATOM     79  O   UNL A   1      55.422  25.285  24.985  1.00  0.00    -0.744 OA
ENDBRANCH  75  76
ENDBRANCH  54  68
BRANCH  55  80
ATOM     80  C   UNL A   1      41.291  29.052  28.234  1.00  0.00     0.058 A 
ATOM     81  C   UNL A   1      40.918  29.034  29.587  1.00  0.00     0.135 A 
ATOM     82  C   UNL A   1      40.283  29.283  27.284  1.00  0.00     0.135 A 
ATOM     83  F   UNL A   1      41.840  28.804  30.534  1.00  0.00    -0.206 F 
ATOM     84  C   UNL A   1      39.596  29.222  29.982  1.00  0.00     0.059 A 
ATOM     85  C   UNL A   1      38.961  29.503  27.655  1.00  0.00     0.059 A 
ATOM     86  F   UNL A   1      40.588  29.318  25.977  1.00  0.00    -0.206 F 
ATOM     87  C   UNL A   1      38.626  29.461  29.007  1.00  0.00     0.060 A 
BRANCH  87  88
ATOM     88  S   UNL A   1      36.924  29.757  29.534  1.00  0.00     0.124 S 
ATOM     89  O   UNL A   1      36.927  31.200  29.745  1.00  0.00    -0.237 OA
ATOM     90  O   UNL A   1      36.162  29.280  28.385  1.00  0.00    -0.237 OA
ATOM     91  O   UNL A   1      36.800  28.943  30.740  1.00  0.00    -0.744 OA
ENDBRANCH  87  88
ENDBRANCH  55  80
BRANCH  67  92
ATOM     92  C   UNL A   1      46.997  33.081  28.275  1.00  0.00     0.058 A 
ATOM     93  C   UNL A   1      47.392  33.453  29.570  1.00  0.00     0.135 A 
ATOM     94  C   UNL A   1      46.866  34.099  27.316  1.00  0.00     0.135 A 
ATOM     95  F   UNL A   1      47.530  32.523  30.528  1.00  0.00    -0.206 F 
ATOM     96  C   UNL A   1      47.614  34.784  29.909  1.00  0.00     0.059 A 
ATOM     97  C   UNL A   1      47.117  35.433  27.623  1.00  0.00     0.059 A 
ATOM     98  F   UNL A   1      46.506  33.801  26.057  1.00  0.00    -0.206 F 
ATOM     99  C   UNL A   1      47.474  35.768  28.927  1.00  0.00     0.060 A 
BRANCH  99 100
ATOM    100  S   UNL A   1      47.785  37.489  29.375  1.00  0.00     0.124 S 
ATOM    101  O   UNL A   1      48.438  37.341  30.672  1.00  0.00    -0.237 OA
ATOM    102  O   UNL A   1      48.639  37.947  28.283  1.00  0.00    -0.237 OA
ATOM    103  O   UNL A   1      46.450  38.079  29.409  1.00  0.00    -0.744 OA
ENDBRANCH  99 100
ENDBRANCH  67  92
ENDBRANCH  41  42
ENDBRANCH  34  36
ENDBRANCH  33  34
ENDBRANCH  32  33
ENDBRANCH  31  32
ENDBRANCH  30  31
ENDBRANCH  29  30
ENDBRANCH  28  29
ENDBRANCH  27  28
ENDBRANCH   1  27
TORSDOF 28
ENDMDL
MODEL 2
REMARK VINA RESULT:      -8.4      5.820      7.974
REMARK SMILES CC1(CNS(=O)(=O)Cc2ccc(C(=O)OCCOCCOCCOCCOC(=O)c3ccc(-c4c5nc(c(-c6c(F)cc(S(=O)(=O)[O-])cc6F)c6ccc([nH]6)c(-c6c(F)cc(S(=O)(=O)[O-])cc6F)c6nc(c(-c7c(F)cc(S(=O)(=O)[O-])cc7F)c7ccc4[nH]7)C=C6)C=C5)cc3)cc2)COC1
REMARK SMILES IDX 20 1 19 2 18 3 17 4 16 5 15 6 13 7 14 8 12 9 9 10 10 11
REMARK SMILES IDX 97 12 11 13 96 14 8 15 5 16 6 17 7 18 4 19 3 21 2 22 1 23
REMARK SMILES IDX 98 24 100 25 99 26 21 27 22 28 23 29 24 30 25 31 26 32 27 33
REMARK SMILES IDX 28 34 29 35 30 36 31 37 95 38 32 39 94 40 33 41 34 42 35 43
REMARK SMILES IDX 88 44 36 45 93 46 87 47 89 48 37 49 92 50 86 51 85 52 38 54
REMARK SMILES IDX 72 55 51 56 71 57 52 58 55 59 70 60 90 61 53 62 54 63 69 65
REMARK SMILES IDX 91 66 56 67 39 68 40 69 49 70 41 71 42 72 48 73 50 74 43 75
REMARK SMILES IDX 44 76 45 77 46 78 47 79 73 80 74 81 83 82 75 83 76 84 82 85
REMARK SMILES IDX 84 86 77 87 78 88 79 89 80 90 81 91 57 92 58 93 67 94 59 95
REMARK SMILES IDX 60 96 66 97 68 98 61 99 62 100 63 101 64 102 65 103
REMARK H PARENT 4 20 89 53 55 64
REMARK Flexibility Score: inf
ROOT
ATOM      1  C   UNL A   1      37.873  23.049  25.554  1.00  0.00     0.188 C 
ENDROOT
BRANCH   1   2
ATOM      2  C   UNL A   1      36.691  22.068  25.703  1.00  0.00     0.188 C 
BRANCH   2   3
ATOM      3  O   UNL A   1      36.592  21.120  24.656  1.00  0.00    -0.376 OA
BRANCH   3   4
ATOM      4  C   UNL A   1      36.415  19.749  24.959  1.00  0.00     0.202 C 
BRANCH   4   5
ATOM      5  C   UNL A   1      35.031  19.109  24.795  1.00  0.00     0.261 C 
BRANCH   5   6
ATOM      6  O   UNL A   1      33.980  19.988  24.386  1.00  0.00    -0.460 OA
BRANCH   6   7
ATOM      7  C   UNL A   1      33.270  20.609  25.353  1.00  0.00     0.338 C 
ATOM      8  O   UNL A   1      33.276  20.360  26.545  1.00  0.00    -0.246 OA
BRANCH   7   9
ATOM      9  C   UNL A   1      32.640  21.803  24.740  1.00  0.00     0.060 A 
ATOM     10  C   UNL A   1      31.420  24.029  23.511  1.00  0.00    -0.032 A 
ATOM     11  C   UNL A   1      32.565  23.437  22.952  1.00  0.00     0.006 A 
ATOM     12  C   UNL A   1      30.868  23.432  24.650  1.00  0.00     0.006 A 
ATOM     13  C   UNL A   1      33.179  22.340  23.568  1.00  0.00     0.016 A 
ATOM     14  C   UNL A   1      31.468  22.338  25.269  1.00  0.00     0.016 A 
BRANCH  10  15
ATOM     15  C   UNL A   1      30.785  25.210  22.817  1.00  0.00     0.189 C 
BRANCH  15  16
ATOM     16  S   UNL A   1      30.259  26.529  23.933  1.00  0.00     0.215 S 
ATOM     17  O   UNL A   1      29.630  25.919  25.087  1.00  0.00    -0.212 OA
ATOM     18  O   UNL A   1      29.565  27.557  23.188  1.00  0.00    -0.212 OA
BRANCH  16  19
ATOM     19  N   UNL A   1      31.680  27.242  24.491  1.00  0.00    -0.214 NA
ATOM     20  H   UNL A   1      32.006  26.684  25.280  1.00  0.00     0.141 HD
BRANCH  19  21
ATOM     21  C   UNL A   1      31.634  28.647  24.941  1.00  0.00     0.110 C 
BRANCH  21  22
ATOM     22  C   UNL A   1      32.322  28.845  26.298  1.00  0.00     0.028 C 
ATOM     23  C   UNL A   1      32.998  30.195  26.488  1.00  0.00     0.018 C 
ATOM     24  C   UNL A   1      33.233  27.654  26.660  1.00  0.00     0.170 C 
ATOM     25  C   UNL A   1      31.491  28.348  27.497  1.00  0.00     0.170 C 
ATOM     26  O   UNL A   1      32.177  27.068  27.466  1.00  0.00    -0.380 OA
ENDBRANCH  21  22
ENDBRANCH  19  21
ENDBRANCH  16  19
ENDBRANCH  15  16
ENDBRANCH  10  15
ENDBRANCH   7   9
ENDBRANCH   6   7
ENDBRANCH   5   6
ENDBRANCH   4   5
ENDBRANCH   3   4
ENDBRANCH   2   3
ENDBRANCH   1   2
BRANCH   1  27
ATOM     27  O   UNL A   1      38.946  22.986  26.482  1.00  0.00    -0.377 OA
BRANCH  27  28
ATOM     28  C   UNL A   1      39.757  21.816  26.565  1.00  0.00     0.188 C 
BRANCH  28  29
ATOM     29  C   UNL A   1      40.749  21.584  27.731  1.00  0.00     0.188 C 
BRANCH  29  30
ATOM     30  O   UNL A   1      42.066  21.245  27.330  1.00  0.00    -0.376 OA
BRANCH  30  31
ATOM     31  C   UNL A   1      42.349  21.224  25.944  1.00  0.00     0.202 C 
BRANCH  31  32
ATOM     32  C   UNL A   1      43.320  22.293  25.428  1.00  0.00     0.261 C 
BRANCH  32  33
ATOM     33  O   UNL A   1      42.756  23.587  25.171  1.00  0.00    -0.460 OA
BRANCH  33  34
ATOM     34  C   UNL A   1      43.579  24.648  25.307  1.00  0.00     0.338 C 
ATOM     35  O   UNL A   1      44.568  24.899  24.635  1.00  0.00    -0.246 OA
BRANCH  34  36
ATOM     36  C   UNL A   1      42.973  25.570  26.289  1.00  0.00     0.060 A 
ATOM     37  C   UNL A   1      43.529  26.845  26.459  1.00  0.00     0.016 A 
ATOM     38  C   UNL A   1      41.866  25.172  27.041  1.00  0.00     0.016 A 
ATOM     39  C   UNL A   1      43.007  27.708  27.422  1.00  0.00     0.010 A 
ATOM     40  C   UNL A   1      41.356  26.030  28.018  1.00  0.00     0.010 A 
ATOM     41  C   UNL A   1      41.953  27.284  28.242  1.00  0.00    -0.014 A 
BRANCH  41  42
ATOM     42  C   UNL A   1      41.632  28.055  29.469  1.00  0.00     0.031 A 
ATOM     43  C   UNL A   1      42.475  27.819  30.694  1.00  0.00     0.074 A 
ATOM     44  C   UNL A   1      40.648  28.971  29.487  1.00  0.00     0.049 A 
ATOM     45  N   UNL A   1      42.385  28.357  31.882  1.00  0.00    -0.248 NA
ATOM     46  C   UNL A   1      43.569  26.842  30.559  1.00  0.00     0.031 C 
ATOM     47  C   UNL A   1      39.791  29.313  28.354  1.00  0.00     0.029 A 
ATOM     48  N   UNL A   1      40.204  29.779  30.503  1.00  0.00    -0.354 N 
ATOM     49  C   UNL A   1      43.400  27.780  32.636  1.00  0.00     0.074 A 
ATOM     50  C   UNL A   1      44.071  26.824  31.784  1.00  0.00     0.031 C 
ATOM     51  C   UNL A   1      38.916  30.260  28.740  1.00  0.00     0.029 A 
ATOM     52  C   UNL A   1      39.131  30.566  30.154  1.00  0.00     0.049 A 
ATOM     53  H   UNL A   1      40.614  29.795  31.397  1.00  0.00     0.167 HD
ATOM     54  C   UNL A   1      43.752  28.034  33.919  1.00  0.00     0.037 A 
ATOM     55  C   UNL A   1      38.399  31.420  30.898  1.00  0.00     0.037 A 
ATOM     56  C   UNL A   1      43.079  28.988  34.761  1.00  0.00     0.049 A 
ATOM     57  C   UNL A   1      38.767  31.638  32.345  1.00  0.00     0.074 A 
ATOM     58  C   UNL A   1      43.366  29.332  36.070  1.00  0.00     0.029 A 
ATOM     59  N   UNL A   1      41.979  29.744  34.381  1.00  0.00    -0.354 N 
ATOM     60  N   UNL A   1      39.746  31.106  33.039  1.00  0.00    -0.248 NA
ATOM     61  C   UNL A   1      37.936  32.581  33.107  1.00  0.00     0.031 C 
ATOM     62  C   UNL A   1      42.403  30.249  36.501  1.00  0.00     0.029 A 
ATOM     63  C   UNL A   1      41.558  30.531  35.440  1.00  0.00     0.049 A 
ATOM     64  H   UNL A   1      41.560  29.723  33.490  1.00  0.00     0.167 HD
ATOM     65  C   UNL A   1      39.668  31.674  34.308  1.00  0.00     0.074 A 
ATOM     66  C   UNL A   1      38.554  32.599  34.280  1.00  0.00     0.031 C 
ATOM     67  C   UNL A   1      40.450  31.454  35.396  1.00  0.00     0.037 A 
BRANCH  54  68
ATOM     68  C   UNL A   1      44.896  27.246  34.498  1.00  0.00     0.058 A 
ATOM     69  C   UNL A   1      44.710  25.974  35.066  1.00  0.00     0.135 A 
ATOM     70  C   UNL A   1      46.202  27.760  34.463  1.00  0.00     0.135 A 
ATOM     71  F   UNL A   1      43.479  25.442  35.148  1.00  0.00    -0.206 F 
ATOM     72  C   UNL A   1      45.773  25.254  35.601  1.00  0.00     0.059 A 
ATOM     73  C   UNL A   1      47.285  27.043  34.961  1.00  0.00     0.059 A 
ATOM     74  F   UNL A   1      46.437  28.972  33.936  1.00  0.00    -0.206 F 
ATOM     75  C   UNL A   1      47.058  25.796  35.542  1.00  0.00     0.060 A 
BRANCH  75  76
ATOM     76  S   UNL A   1      48.428  24.845  36.233  1.00  0.00     0.124 S 
ATOM     77  O   UNL A   1      47.717  23.800  36.963  1.00  0.00    -0.237 OA
ATOM     78  O   UNL A   1      49.139  24.409  35.035  1.00  0.00    -0.237 OA
ATOM     79  O   UNL A   1      49.134  25.817  37.060  1.00  0.00    -0.744 OA
ENDBRANCH  75  76
ENDBRANCH  54  68
BRANCH  55  80
ATOM     80  C   UNL A   1      37.238  32.128  30.293  1.00  0.00     0.058 A 
ATOM     81  C   UNL A   1      35.976  31.521  30.212  1.00  0.00     0.135 A 
ATOM     82  C   UNL A   1      37.370  33.428  29.779  1.00  0.00     0.135 A 
ATOM     83  F   UNL A   1      35.800  30.275  30.677  1.00  0.00    -0.206 F 
ATOM     84  C   UNL A   1      34.890  32.170  29.629  1.00  0.00     0.059 A 
ATOM     85  C   UNL A   1      36.292  34.108  29.219  1.00  0.00     0.059 A 
ATOM     86  F   UNL A   1      38.553  34.059  29.839  1.00  0.00    -0.206 F 
ATOM     87  C   UNL A   1      35.059  33.466  29.141  1.00  0.00     0.060 A 
BRANCH  87  88
ATOM     88  S   UNL A   1      33.630  34.318  28.436  1.00  0.00     0.124 S 
ATOM     89  O   UNL A   1      34.271  35.337  27.613  1.00  0.00    -0.237 OA
ATOM     90  O   UNL A   1      32.960  33.241  27.714  1.00  0.00    -0.237 OA
ATOM     91  O   UNL A   1      32.920  34.811  29.612  1.00  0.00    -0.744 OA
ENDBRANCH  87  88
ENDBRANCH  55  80
BRANCH  67  92
ATOM     92  C   UNL A   1      40.162  32.260  36.636  1.00  0.00     0.058 A 
ATOM     93  C   UNL A   1      39.006  32.056  37.406  1.00  0.00     0.135 A 
ATOM     94  C   UNL A   1      41.083  33.220  37.086  1.00  0.00     0.135 A 
ATOM     95  F   UNL A   1      38.089  31.153  37.023  1.00  0.00    -0.206 F 
ATOM     96  C   UNL A   1      38.757  32.798  38.557  1.00  0.00     0.059 A 
ATOM     97  C   UNL A   1      40.873  33.950  38.252  1.00  0.00     0.059 A 
ATOM     98  F   UNL A   1      42.214  33.448  36.397  1.00  0.00    -0.206 F 
ATOM     99  C   UNL A   1      39.699  33.743  38.972  1.00  0.00     0.060 A 
BRANCH  99 100
ATOM    100  S   UNL A   1      39.373  34.685  40.477  1.00  0.00     0.124 S 
ATOM    101  O   UNL A   1      37.936  34.488  40.642  1.00  0.00    -0.237 OA
ATOM    102  O   UNL A   1      40.222  34.013  41.456  1.00  0.00    -0.237 OA
ATOM    103  O   UNL A   1      39.784  36.041  40.126  1.00  0.00    -0.744 OA
ENDBRANCH  99 100
ENDBRANCH  67  92
ENDBRANCH  41  42
ENDBRANCH  34  36
ENDBRANCH  33  34
ENDBRANCH  32  33
ENDBRANCH  31  32
ENDBRANCH  30  31
ENDBRANCH  29  30
ENDBRANCH  28  29
ENDBRANCH  27  28
ENDBRANCH   1  27
TORSDOF 28
ENDMDL
MODEL 3
REMARK VINA RESULT:      -8.3      3.755      9.989
REMARK SMILES CC1(CNS(=O)(=O)Cc2ccc(C(=O)OCCOCCOCCOCCOC(=O)c3ccc(-c4c5nc(c(-c6c(F)cc(S(=O)(=O)[O-])cc6F)c6ccc([nH]6)c(-c6c(F)cc(S(=O)(=O)[O-])cc6F)c6nc(c(-c7c(F)cc(S(=O)(=O)[O-])cc7F)c7ccc4[nH]7)C=C6)C=C5)cc3)cc2)COC1
REMARK SMILES IDX 20 1 19 2 18 3 17 4 16 5 15 6 13 7 14 8 12 9 9 10 10 11
REMARK SMILES IDX 97 12 11 13 96 14 8 15 5 16 6 17 7 18 4 19 3 21 2 22 1 23
REMARK SMILES IDX 98 24 100 25 99 26 21 27 22 28 23 29 24 30 25 31 26 32 27 33
REMARK SMILES IDX 28 34 29 35 30 36 31 37 95 38 32 39 94 40 33 41 34 42 35 43
REMARK SMILES IDX 88 44 36 45 93 46 87 47 89 48 37 49 92 50 86 51 85 52 38 54
REMARK SMILES IDX 72 55 51 56 71 57 52 58 55 59 70 60 90 61 53 62 54 63 69 65
REMARK SMILES IDX 91 66 56 67 39 68 40 69 49 70 41 71 42 72 48 73 50 74 43 75
REMARK SMILES IDX 44 76 45 77 46 78 47 79 73 80 74 81 83 82 75 83 76 84 82 85
REMARK SMILES IDX 84 86 77 87 78 88 79 89 80 90 81 91 57 92 58 93 67 94 59 95
REMARK SMILES IDX 60 96 66 97 68 98 61 99 62 100 63 101 64 102 65 103
REMARK H PARENT 4 20 89 53 55 64
REMARK Flexibility Score: inf
ROOT
ATOM      1  C   UNL A   1      28.982  30.238  22.010  1.00  0.00     0.188 C 
ENDROOT
BRANCH   1   2
ATOM      2  C   UNL A   1      28.468  29.127  22.951  1.00  0.00     0.188 C 
BRANCH   2   3
ATOM      3  O   UNL A   1      29.045  27.856  22.714  1.00  0.00    -0.376 OA
BRANCH   3   4
ATOM      4  C   UNL A   1      28.776  26.783  23.595  1.00  0.00     0.202 C 
BRANCH   4   5
ATOM      5  C   UNL A   1      29.830  26.369  24.631  1.00  0.00     0.261 C 
BRANCH   5   6
ATOM      6  O   UNL A   1      30.697  27.409  25.091  1.00  0.00    -0.460 OA
BRANCH   6   7
ATOM      7  C   UNL A   1      31.895  27.541  24.481  1.00  0.00     0.338 C 
ATOM      8  O   UNL A   1      32.294  28.497  23.841  1.00  0.00    -0.246 OA
BRANCH   7   9
ATOM      9  C   UNL A   1      32.736  26.398  24.911  1.00  0.00     0.060 A 
ATOM     10  C   UNL A   1      34.276  24.175  25.713  1.00  0.00    -0.032 A 
ATOM     11  C   UNL A   1      33.144  24.568  26.446  1.00  0.00     0.006 A 
ATOM     12  C   UNL A   1      34.565  24.876  24.537  1.00  0.00     0.006 A 
ATOM     13  C   UNL A   1      32.386  25.679  26.057  1.00  0.00     0.016 A 
ATOM     14  C   UNL A   1      33.817  25.981  24.138  1.00  0.00     0.016 A 
BRANCH  10  15
ATOM     15  C   UNL A   1      35.067  22.971  26.164  1.00  0.00     0.189 C 
BRANCH  15  16
ATOM     16  S   UNL A   1      34.912  21.536  25.079  1.00  0.00     0.215 S 
ATOM     17  O   UNL A   1      35.890  20.550  25.494  1.00  0.00    -0.212 OA
ATOM     18  O   UNL A   1      34.856  21.965  23.698  1.00  0.00    -0.212 OA
BRANCH  16  19
ATOM     19  N   UNL A   1      33.400  20.873  25.419  1.00  0.00    -0.214 NA
ATOM     20  H   UNL A   1      32.988  21.434  26.165  1.00  0.00     0.141 HD
BRANCH  19  21
ATOM     21  C   UNL A   1      33.328  19.462  25.843  1.00  0.00     0.110 C 
BRANCH  21  22
ATOM     22  C   UNL A   1      33.180  18.505  24.653  1.00  0.00     0.028 C 
ATOM     23  C   UNL A   1      32.509  19.102  23.425  1.00  0.00     0.018 C 
ATOM     24  C   UNL A   1      32.575  17.150  25.077  1.00  0.00     0.170 C 
ATOM     25  C   UNL A   1      34.437  17.658  24.374  1.00  0.00     0.170 C 
ATOM     26  O   UNL A   1      33.902  16.567  25.170  1.00  0.00    -0.380 OA
ENDBRANCH  21  22
ENDBRANCH  19  21
ENDBRANCH  16  19
ENDBRANCH  15  16
ENDBRANCH  10  15
ENDBRANCH   7   9
ENDBRANCH   6   7
ENDBRANCH   5   6
ENDBRANCH   4   5
ENDBRANCH   3   4
ENDBRANCH   2   3
ENDBRANCH   1   2
BRANCH   1  27
ATOM     27  O   UNL A   1      29.149  31.552  22.518  1.00  0.00    -0.377 OA
BRANCH  27  28
ATOM     28  C   UNL A   1      28.992  31.810  23.912  1.00  0.00     0.188 C 
BRANCH  28  29
ATOM     29  C   UNL A   1      30.200  32.109  24.834  1.00  0.00     0.188 C 
BRANCH  29  30
ATOM     30  O   UNL A   1      30.766  30.969  25.457  1.00  0.00    -0.376 OA
BRANCH  30  31
ATOM     31  C   UNL A   1      31.670  31.180  26.524  1.00  0.00     0.202 C 
BRANCH  31  32
ATOM     32  C   UNL A   1      33.141  30.839  26.251  1.00  0.00     0.261 C 
BRANCH  32  33
ATOM     33  O   UNL A   1      33.987  30.725  27.404  1.00  0.00    -0.460 OA
BRANCH  33  34
ATOM     34  C   UNL A   1      34.342  29.479  27.779  1.00  0.00     0.338 C 
ATOM     35  O   UNL A   1      33.666  28.465  27.685  1.00  0.00    -0.246 OA
BRANCH  34  36
ATOM     36  C   UNL A   1      35.771  29.506  28.151  1.00  0.00     0.060 A 
ATOM     37  C   UNL A   1      36.727  29.773  27.162  1.00  0.00     0.016 A 
ATOM     38  C   UNL A   1      36.161  29.262  29.470  1.00  0.00     0.016 A 
ATOM     39  C   UNL A   1      38.084  29.745  27.483  1.00  0.00     0.010 A 
ATOM     40  C   UNL A   1      37.521  29.217  29.785  1.00  0.00     0.010 A 
ATOM     41  C   UNL A   1      38.488  29.414  28.783  1.00  0.00    -0.014 A 
BRANCH  41  42
ATOM     42  C   UNL A   1      39.906  29.056  29.033  1.00  0.00     0.031 A 
ATOM     43  C   UNL A   1      40.795  30.089  29.674  1.00  0.00     0.074 A 
ATOM     44  C   UNL A   1      40.385  27.834  28.741  1.00  0.00     0.049 A 
ATOM     45  N   UNL A   1      42.064  30.020  29.980  1.00  0.00    -0.248 NA
ATOM     46  C   UNL A   1      40.165  31.376  30.015  1.00  0.00     0.031 C 
ATOM     47  C   UNL A   1      39.613  26.741  28.154  1.00  0.00     0.029 A 
ATOM     48  N   UNL A   1      41.645  27.311  28.897  1.00  0.00    -0.354 N 
ATOM     49  C   UNL A   1      42.385  31.250  30.540  1.00  0.00     0.074 A 
ATOM     50  C   UNL A   1      41.189  32.061  30.498  1.00  0.00     0.031 C 
ATOM     51  C   UNL A   1      40.419  25.676  27.992  1.00  0.00     0.029 A 
ATOM     52  C   UNL A   1      41.769  26.023  28.435  1.00  0.00     0.049 A 
ATOM     53  H   UNL A   1      42.389  27.812  29.301  1.00  0.00     0.167 HD
ATOM     54  C   UNL A   1      43.567  31.664  31.056  1.00  0.00     0.037 A 
ATOM     55  C   UNL A   1      42.854  25.224  28.361  1.00  0.00     0.037 A 
ATOM     56  C   UNL A   1      44.754  30.851  31.095  1.00  0.00     0.049 A 
ATOM     57  C   UNL A   1      44.177  25.730  28.881  1.00  0.00     0.074 A 
ATOM     58  C   UNL A   1      45.998  31.169  31.610  1.00  0.00     0.029 A 
ATOM     59  N   UNL A   1      44.848  29.562  30.591  1.00  0.00    -0.354 N 
ATOM     60  N   UNL A   1      44.462  26.887  29.432  1.00  0.00    -0.248 NA
ATOM     61  C   UNL A   1      45.325  24.817  28.778  1.00  0.00     0.031 C 
ATOM     62  C   UNL A   1      46.860  30.097  31.362  1.00  0.00     0.029 A 
ATOM     63  C   UNL A   1      46.137  29.082  30.756  1.00  0.00     0.049 A 
ATOM     64  H   UNL A   1      44.108  29.062  30.176  1.00  0.00     0.167 HD
ATOM     65  C   UNL A   1      45.811  26.828  29.771  1.00  0.00     0.074 A 
ATOM     66  C   UNL A   1      46.281  25.517  29.373  1.00  0.00     0.031 C 
ATOM     67  C   UNL A   1      46.590  27.770  30.362  1.00  0.00     0.037 A 
BRANCH  54  68
ATOM     68  C   UNL A   1      43.642  33.069  31.591  1.00  0.00     0.058 A 
ATOM     69  C   UNL A   1      43.533  33.350  32.963  1.00  0.00     0.135 A 
ATOM     70  C   UNL A   1      43.850  34.150  30.718  1.00  0.00     0.135 A 
ATOM     71  F   UNL A   1      43.311  32.358  33.842  1.00  0.00    -0.206 F 
ATOM     72  C   UNL A   1      43.602  34.652  33.448  1.00  0.00     0.059 A 
ATOM     73  C   UNL A   1      43.955  35.457  31.184  1.00  0.00     0.059 A 
ATOM     74  F   UNL A   1      43.955  33.941  29.397  1.00  0.00    -0.206 F 
ATOM     75  C   UNL A   1      43.815  35.700  32.549  1.00  0.00     0.060 A 
BRANCH  75  76
ATOM     76  S   UNL A   1      43.910  37.383  33.194  1.00  0.00     0.124 S 
ATOM     77  O   UNL A   1      42.683  37.462  33.980  1.00  0.00    -0.237 OA
ATOM     78  O   UNL A   1      45.152  37.351  33.962  1.00  0.00    -0.237 OA
ATOM     79  O   UNL A   1      43.940  38.208  31.992  1.00  0.00    -0.744 OA
ENDBRANCH  75  76
ENDBRANCH  54  68
BRANCH  55  80
ATOM     80  C   UNL A   1      42.741  23.865  27.765  1.00  0.00     0.058 A 
ATOM     81  C   UNL A   1      42.349  22.761  28.538  1.00  0.00     0.135 A 
ATOM     82  C   UNL A   1      43.027  23.642  26.409  1.00  0.00     0.135 A 
ATOM     83  F   UNL A   1      42.077  22.918  29.842  1.00  0.00    -0.206 F 
ATOM     84  C   UNL A   1      42.261  21.483  27.993  1.00  0.00     0.059 A 
ATOM     85  C   UNL A   1      42.917  22.380  25.834  1.00  0.00     0.059 A 
ATOM     86  F   UNL A   1      43.397  24.665  25.623  1.00  0.00    -0.206 F 
ATOM     87  C   UNL A   1      42.542  21.305  26.637  1.00  0.00     0.060 A 
BRANCH  87  88
ATOM     88  S   UNL A   1      42.372  19.652  25.928  1.00  0.00     0.124 S 
ATOM     89  O   UNL A   1      43.192  19.760  24.727  1.00  0.00    -0.237 OA
ATOM     90  O   UNL A   1      42.905  18.808  26.993  1.00  0.00    -0.237 OA
ATOM     91  O   UNL A   1      40.935  19.530  25.703  1.00  0.00    -0.744 OA
ENDBRANCH  87  88
ENDBRANCH  55  80
BRANCH  67  92
ATOM     92  C   UNL A   1      48.021  27.406  30.659  1.00  0.00     0.058 A 
ATOM     93  C   UNL A   1      48.381  26.665  31.796  1.00  0.00     0.135 A 
ATOM     94  C   UNL A   1      49.043  27.765  29.765  1.00  0.00     0.135 A 
ATOM     95  F   UNL A   1      47.447  26.297  32.688  1.00  0.00    -0.206 F 
ATOM     96  C   UNL A   1      49.705  26.325  32.054  1.00  0.00     0.059 A 
ATOM     97  C   UNL A   1      50.369  27.404  29.983  1.00  0.00     0.059 A 
ATOM     98  F   UNL A   1      48.755  28.460  28.653  1.00  0.00    -0.206 F 
ATOM     99  C   UNL A   1      50.693  26.699  31.139  1.00  0.00     0.060 A 
BRANCH  99 100
ATOM    100  S   UNL A   1      52.405  26.233  31.475  1.00  0.00     0.124 S 
ATOM    101  O   UNL A   1      52.933  26.064  30.124  1.00  0.00    -0.237 OA
ATOM    102  O   UNL A   1      52.905  27.389  32.211  1.00  0.00    -0.237 OA
ATOM    103  O   UNL A   1      52.277  25.006  32.256  1.00  0.00    -0.744 OA
ENDBRANCH  99 100
ENDBRANCH  67  92
ENDBRANCH  41  42
ENDBRANCH  34  36
ENDBRANCH  33  34
ENDBRANCH  32  33
ENDBRANCH  31  32
ENDBRANCH  30  31
ENDBRANCH  29  30
ENDBRANCH  28  29
ENDBRANCH  27  28
ENDBRANCH   1  27
TORSDOF 28
ENDMDL
