MODEL 1
REMARK VINA RESULT:      -9.1      0.000      0.000
REMARK SMILES C[C@@H](C(=O)OCCOCCOCCOCCOC(=O)c1ccc(-c2c3nc(c(-c4c(F)cc(S(=O)(=O)[O-])cc4F)c4ccc([nH]4)c(-c4c(F)cc(S(=O)(=O)[O-])cc4F)c4nc(c(-c5c(F)cc(S(=O)(=O)[O-])cc5F)c5ccc2[nH]5)C=C4)C=C3)cc1)[N@@H+]1CCc2n[nH]c(C(c3ccccc3)c3ccccc3)c2C1
REMARK SMILES IDX 11 1 10 2 9 3 8 4 7 5 6 6 5 7 3 8 4 9 2 10 1 11 86 12 87 13
REMARK SMILES IDX 107 14 88 16 106 17 89 18 92 19 90 20 91 21 93 23 94 24
REMARK SMILES IDX 95 25 99 26 96 27 98 28 97 29 100 30 101 31 105 32 102 33
REMARK SMILES IDX 104 34 103 35 12 36 13 37 14 38 15 39 16 40 17 41 18 42
REMARK SMILES IDX 19 43 20 44 21 45 85 46 22 47 84 48 23 49 24 50 25 51 78 52
REMARK SMILES IDX 26 53 83 54 77 55 79 56 27 57 82 58 76 59 75 60 28 62 62 63
REMARK SMILES IDX 41 64 61 65 42 66 45 67 60 68 80 69 43 70 44 71 59 73 81 74
REMARK SMILES IDX 46 75 29 76 30 77 39 78 31 79 32 80 38 81 40 82 33 83 34 84
REMARK SMILES IDX 35 85 36 86 37 87 63 88 64 89 73 90 65 91 66 92 72 93 74 94
REMARK SMILES IDX 67 95 68 96 69 97 70 98 71 99 47 100 48 101 57 102 49 103
REMARK SMILES IDX 50 104 56 105 58 106 51 107 52 108 53 109 54 110 55 111
REMARK H PARENT 86 15 91 22 79 61 45 72
REMARK Flexibility Score: inf
ROOT
ATOM      1  O   UNL A   1      35.011  33.334  30.510  1.00  0.00    -0.377 OA
ENDROOT
BRANCH   1   2
ATOM      2  C   UNL A   1      34.774  33.757  29.165  1.00  0.00     0.188 C 
BRANCH   2   3
ATOM      3  C   UNL A   1      35.722  33.169  28.103  1.00  0.00     0.188 C 
BRANCH   3   4
ATOM      4  O   UNL A   1      35.779  31.740  28.021  1.00  0.00    -0.376 OA
BRANCH   4   5
ATOM      5  C   UNL A   1      34.539  31.011  28.041  1.00  0.00     0.202 C 
BRANCH   5   6
ATOM      6  C   UNL A   1      34.578  29.764  27.057  1.00  0.00     0.261 C 
BRANCH   6   7
ATOM      7  O   UNL A   1      33.431  29.739  26.133  1.00  0.00    -0.459 OA
BRANCH   7   8
ATOM      8  C   UNL A   1      32.849  28.584  25.662  1.00  0.00     0.364 C 
ATOM      9  O   UNL A   1      32.107  27.888  26.350  1.00  0.00    -0.245 OA
BRANCH   8  10
ATOM     10  C   UNL A   1      33.043  28.350  24.048  1.00  0.00     0.292 C 
ATOM     11  C   UNL A   1      34.436  28.509  23.425  1.00  0.00     0.088 C 
BRANCH  10  12
ATOM     12  N   UNL A   1      31.934  28.996  23.262  1.00  0.00    -0.319 N 
ATOM     13  C   UNL A   1      30.739  29.575  23.954  1.00  0.00     0.269 C 
ATOM     14  C   UNL A   1      31.482  28.047  22.262  1.00  0.00     0.303 C 
ATOM     15  H   UNL A   1      32.386  29.839  22.905  1.00  0.00     0.349 HD
ATOM     16  C   UNL A   1      29.324  28.981  23.556  1.00  0.00     0.120 C 
ATOM     17  C   UNL A   1      30.687  26.958  22.939  1.00  0.00     0.052 A 
ATOM     18  C   UNL A   1      29.466  27.506  23.420  1.00  0.00     0.077 A 
ATOM     19  C   UNL A   1      30.667  25.674  23.534  1.00  0.00     0.056 A 
ATOM     20  N   UNL A   1      28.561  26.569  23.655  1.00  0.00    -0.180 NA
ATOM     21  N   UNL A   1      29.289  25.469  23.362  1.00  0.00    -0.281 N 
ATOM     22  H   UNL A   1      28.895  24.619  23.061  1.00  0.00     0.190 HD
BRANCH  19  23
ATOM     23  C   UNL A   1      31.451  24.442  24.212  1.00  0.00     0.098 C 
BRANCH  23  24
ATOM     24  C   UNL A   1      33.004  24.323  24.359  1.00  0.00    -0.035 A 
ATOM     25  C   UNL A   1      33.812  24.057  23.233  1.00  0.00     0.005 A 
ATOM     26  C   UNL A   1      33.702  24.336  25.583  1.00  0.00     0.005 A 
ATOM     27  C   UNL A   1      35.211  23.888  23.333  1.00  0.00     0.000 A 
ATOM     28  C   UNL A   1      35.095  24.189  25.696  1.00  0.00     0.000 A 
ATOM     29  C   UNL A   1      35.856  23.975  24.562  1.00  0.00     0.000 A 
ENDBRANCH  23  24
BRANCH  23  30
ATOM     30  C   UNL A   1      30.655  23.968  25.489  1.00  0.00    -0.035 A 
ATOM     31  C   UNL A   1      29.885  24.796  26.324  1.00  0.00     0.005 A 
ATOM     32  C   UNL A   1      30.628  22.594  25.805  1.00  0.00     0.005 A 
ATOM     33  C   UNL A   1      29.046  24.270  27.319  1.00  0.00     0.000 A 
ATOM     34  C   UNL A   1      29.755  22.058  26.755  1.00  0.00     0.000 A 
ATOM     35  C   UNL A   1      28.949  22.898  27.504  1.00  0.00     0.000 A 
ENDBRANCH  23  30
ENDBRANCH  19  23
ENDBRANCH  10  12
ENDBRANCH   8  10
ENDBRANCH   7   8
ENDBRANCH   6   7
ENDBRANCH   5   6
ENDBRANCH   4   5
ENDBRANCH   3   4
ENDBRANCH   2   3
ENDBRANCH   1   2
BRANCH   1  36
ATOM     36  C   UNL A   1      34.497  34.198  31.521  1.00  0.00     0.188 C 
BRANCH  36  37
ATOM     37  C   UNL A   1      34.729  33.817  33.001  1.00  0.00     0.188 C 
BRANCH  37  38
ATOM     38  O   UNL A   1      35.800  34.495  33.643  1.00  0.00    -0.376 OA
BRANCH  38  39
ATOM     39  C   UNL A   1      37.093  34.244  33.086  1.00  0.00     0.202 C 
BRANCH  39  40
ATOM     40  C   UNL A   1      37.548  32.780  33.176  1.00  0.00     0.261 C 
BRANCH  40  41
ATOM     41  O   UNL A   1      37.472  32.053  31.938  1.00  0.00    -0.460 OA
BRANCH  41  42
ATOM     42  C   UNL A   1      37.370  30.708  32.041  1.00  0.00     0.338 C 
ATOM     43  O   UNL A   1      36.494  30.065  32.567  1.00  0.00    -0.246 OA
BRANCH  42  44
ATOM     44  C   UNL A   1      38.483  30.138  31.264  1.00  0.00     0.060 A 
ATOM     45  C   UNL A   1      39.401  29.301  31.908  1.00  0.00     0.016 A 
ATOM     46  C   UNL A   1      38.635  30.479  29.919  1.00  0.00     0.016 A 
ATOM     47  C   UNL A   1      40.498  28.813  31.205  1.00  0.00     0.010 A 
ATOM     48  C   UNL A   1      39.753  30.017  29.224  1.00  0.00     0.010 A 
ATOM     49  C   UNL A   1      40.704  29.214  29.878  1.00  0.00    -0.014 A 
BRANCH  49  50
ATOM     50  C   UNL A   1      42.044  29.021  29.283  1.00  0.00     0.031 A 
ATOM     51  C   UNL A   1      42.369  27.656  28.738  1.00  0.00     0.074 A 
ATOM     52  C   UNL A   1      42.927  30.029  29.193  1.00  0.00     0.049 A 
ATOM     53  N   UNL A   1      43.454  27.235  28.148  1.00  0.00    -0.248 NA
ATOM     54  C   UNL A   1      41.318  26.630  28.869  1.00  0.00     0.031 C 
ATOM     55  C   UNL A   1      42.698  31.400  29.646  1.00  0.00     0.029 A 
ATOM     56  N   UNL A   1      44.201  30.047  28.687  1.00  0.00    -0.354 N 
ATOM     57  C   UNL A   1      43.215  25.904  27.829  1.00  0.00     0.074 A 
ATOM     58  C   UNL A   1      41.892  25.578  28.308  1.00  0.00     0.031 C 
ATOM     59  C   UNL A   1      43.806  32.126  29.408  1.00  0.00     0.029 A 
ATOM     60  C   UNL A   1      44.826  31.265  28.810  1.00  0.00     0.049 A 
ATOM     61  H   UNL A   1      44.628  29.262  28.274  1.00  0.00     0.167 HD
ATOM     62  C   UNL A   1      44.027  25.030  27.191  1.00  0.00     0.037 A 
ATOM     63  C   UNL A   1      46.084  31.628  28.489  1.00  0.00     0.037 A 
ATOM     64  C   UNL A   1      45.356  25.351  26.749  1.00  0.00     0.049 A 
ATOM     65  C   UNL A   1      47.004  30.608  27.863  1.00  0.00     0.074 A 
ATOM     66  C   UNL A   1      46.266  24.540  26.097  1.00  0.00     0.029 A 
ATOM     67  N   UNL A   1      45.972  26.581  26.934  1.00  0.00    -0.354 N 
ATOM     68  N   UNL A   1      46.754  29.363  27.533  1.00  0.00    -0.248 NA
ATOM     69  C   UNL A   1      48.376  31.044  27.565  1.00  0.00     0.031 C 
ATOM     70  C   UNL A   1      47.452  25.264  25.934  1.00  0.00     0.029 A 
ATOM     71  C   UNL A   1      47.260  26.543  26.434  1.00  0.00     0.049 A 
ATOM     72  H   UNL A   1      45.552  27.365  27.357  1.00  0.00     0.167 HD
ATOM     73  C   UNL A   1      47.928  28.876  26.962  1.00  0.00     0.074 A 
ATOM     74  C   UNL A   1      48.883  29.964  26.985  1.00  0.00     0.031 C 
ATOM     75  C   UNL A   1      48.190  27.644  26.459  1.00  0.00     0.037 A 
BRANCH  62  76
ATOM     76  C   UNL A   1      43.509  23.638  26.977  1.00  0.00     0.058 A 
ATOM     77  C   UNL A   1      43.002  23.222  25.735  1.00  0.00     0.135 A 
ATOM     78  C   UNL A   1      43.526  22.706  28.026  1.00  0.00     0.135 A 
ATOM     79  F   UNL A   1      42.938  24.084  24.708  1.00  0.00    -0.206 F 
ATOM     80  C   UNL A   1      42.512  21.934  25.547  1.00  0.00     0.059 A 
ATOM     81  C   UNL A   1      43.063  21.406  27.854  1.00  0.00     0.059 A 
ATOM     82  F   UNL A   1      43.988  23.059  29.235  1.00  0.00    -0.206 F 
ATOM     83  C   UNL A   1      42.546  21.033  26.612  1.00  0.00     0.060 A 
BRANCH  83  84
ATOM     84  S   UNL A   1      41.911  19.364  26.352  1.00  0.00     0.124 S 
ATOM     85  O   UNL A   1      42.130  18.762  27.664  1.00  0.00    -0.237 OA
ATOM     86  O   UNL A   1      40.519  19.612  25.994  1.00  0.00    -0.237 OA
ATOM     87  O   UNL A   1      42.750  18.845  25.276  1.00  0.00    -0.744 OA
ENDBRANCH  83  84
ENDBRANCH  62  76
BRANCH  63  88
ATOM     88  C   UNL A   1      46.557  33.011  28.762  1.00  0.00     0.058 A 
ATOM     89  C   UNL A   1      46.419  34.028  27.806  1.00  0.00     0.135 A 
ATOM     90  C   UNL A   1      47.174  33.340  29.980  1.00  0.00     0.135 A 
ATOM     91  F   UNL A   1      45.847  33.762  26.622  1.00  0.00    -0.206 F 
ATOM     92  C   UNL A   1      46.891  35.316  28.038  1.00  0.00     0.059 A 
ATOM     93  C   UNL A   1      47.631  34.626  30.246  1.00  0.00     0.059 A 
ATOM     94  F   UNL A   1      47.325  32.405  30.931  1.00  0.00    -0.206 F 
ATOM     95  C   UNL A   1      47.494  35.607  29.263  1.00  0.00     0.060 A 
BRANCH  95  96
ATOM     96  S   UNL A   1      48.066  37.292  29.569  1.00  0.00     0.124 S 
ATOM     97  O   UNL A   1      47.190  38.063  28.693  1.00  0.00    -0.237 OA
ATOM     98  O   UNL A   1      47.828  37.440  31.002  1.00  0.00    -0.237 OA
ATOM     99  O   UNL A   1      49.471  37.246  29.177  1.00  0.00    -0.744 OA
ENDBRANCH  95  96
ENDBRANCH  63  88
BRANCH  75 100
ATOM    100  C   UNL A   1      49.549  27.412  25.857  1.00  0.00     0.058 A 
ATOM    101  C   UNL A   1      50.631  26.963  26.629  1.00  0.00     0.135 A 
ATOM    102  C   UNL A   1      49.748  27.576  24.477  1.00  0.00     0.135 A 
ATOM    103  F   UNL A   1      50.494  26.795  27.954  1.00  0.00    -0.206 F 
ATOM    104  C   UNL A   1      51.872  26.703  26.055  1.00  0.00     0.059 A 
ATOM    105  C   UNL A   1      50.971  27.295  23.878  1.00  0.00     0.059 A 
ATOM    106  F   UNL A   1      48.740  27.990  23.693  1.00  0.00    -0.206 F 
ATOM    107  C   UNL A   1      52.031  26.870  24.678  1.00  0.00     0.060 A 
BRANCH 107 108
ATOM    108  S   UNL A   1      53.633  26.490  23.938  1.00  0.00     0.124 S 
ATOM    109  O   UNL A   1      53.236  25.791  22.721  1.00  0.00    -0.237 OA
ATOM    110  O   UNL A   1      54.212  27.817  23.748  1.00  0.00    -0.237 OA
ATOM    111  O   UNL A   1      54.288  25.667  24.950  1.00  0.00    -0.744 OA
ENDBRANCH 107 108
ENDBRANCH  75 100
ENDBRANCH  49  50
ENDBRANCH  42  44
ENDBRANCH  41  42
ENDBRANCH  40  41
ENDBRANCH  39  40
ENDBRANCH  38  39
ENDBRANCH  37  38
ENDBRANCH  36  37
ENDBRANCH   1  36
TORSDOF 27
ENDMDL
MODEL 2
REMARK VINA RESULT:      -8.0      8.352     16.364
REMARK SMILES C[C@@H](C(=O)OCCOCCOCCOCCOC(=O)c1ccc(-c2c3nc(c(-c4c(F)cc(S(=O)(=O)[O-])cc4F)c4ccc([nH]4)c(-c4c(F)cc(S(=O)(=O)[O-])cc4F)c4nc(c(-c5c(F)cc(S(=O)(=O)[O-])cc5F)c5ccc2[nH]5)C=C4)C=C3)cc1)[N@@H+]1CCc2n[nH]c(C(c3ccccc3)c3ccccc3)c2C1
REMARK SMILES IDX 11 1 10 2 9 3 8 4 7 5 6 6 5 7 3 8 4 9 2 10 1 11 86 12 87 13
REMARK SMILES IDX 107 14 88 16 106 17 89 18 92 19 90 20 91 21 93 23 94 24
REMARK SMILES IDX 95 25 99 26 96 27 98 28 97 29 100 30 101 31 105 32 102 33
REMARK SMILES IDX 104 34 103 35 12 36 13 37 14 38 15 39 16 40 17 41 18 42
REMARK SMILES IDX 19 43 20 44 21 45 85 46 22 47 84 48 23 49 24 50 25 51 78 52
REMARK SMILES IDX 26 53 83 54 77 55 79 56 27 57 82 58 76 59 75 60 28 62 62 63
REMARK SMILES IDX 41 64 61 65 42 66 45 67 60 68 80 69 43 70 44 71 59 73 81 74
REMARK SMILES IDX 46 75 29 76 30 77 39 78 31 79 32 80 38 81 40 82 33 83 34 84
REMARK SMILES IDX 35 85 36 86 37 87 63 88 64 89 73 90 65 91 66 92 72 93 74 94
REMARK SMILES IDX 67 95 68 96 69 97 70 98 71 99 47 100 48 101 57 102 49 103
REMARK SMILES IDX 50 104 56 105 58 106 51 107 52 108 53 109 54 110 55 111
REMARK H PARENT 86 15 91 22 79 61 45 72
REMARK Flexibility Score: inf
ROOT
ATOM      1  O   UNL A   1      40.401  31.731  32.051  1.00  0.00    -0.377 OA
ENDROOT
BRANCH   1   2
ATOM      2  C   UNL A   1      40.666  33.136  32.082  1.00  0.00     0.188 C 
BRANCH   2   3
ATOM      3  C   UNL A   1      40.127  33.891  33.311  1.00  0.00     0.188 C 
BRANCH   3   4
ATOM      4  O   UNL A   1      38.881  33.429  33.846  1.00  0.00    -0.376 OA
BRANCH   4   5
ATOM      5  C   UNL A   1      37.728  34.278  33.707  1.00  0.00     0.202 C 
BRANCH   5   6
ATOM      6  C   UNL A   1      36.408  33.561  34.226  1.00  0.00     0.261 C 
BRANCH   6   7
ATOM      7  O   UNL A   1      35.980  32.462  33.343  1.00  0.00    -0.459 OA
BRANCH   7   8
ATOM      8  C   UNL A   1      35.116  32.620  32.283  1.00  0.00     0.364 C 
ATOM      9  O   UNL A   1      33.906  32.771  32.432  1.00  0.00    -0.245 OA
BRANCH   8  10
ATOM     10  C   UNL A   1      35.865  32.820  30.836  1.00  0.00     0.292 C 
ATOM     11  C   UNL A   1      37.344  32.441  30.692  1.00  0.00     0.088 C 
BRANCH  10  12
ATOM     12  N   UNL A   1      35.498  34.138  30.207  1.00  0.00    -0.319 N 
ATOM     13  C   UNL A   1      34.193  34.802  30.519  1.00  0.00     0.269 C 
ATOM     14  C   UNL A   1      35.618  33.995  28.767  1.00  0.00     0.303 C 
ATOM     15  H   UNL A   1      36.159  34.779  30.647  1.00  0.00     0.349 HD
ATOM     16  C   UNL A   1      33.223  35.086  29.297  1.00  0.00     0.120 C 
ATOM     17  C   UNL A   1      34.468  33.163  28.256  1.00  0.00     0.052 A 
ATOM     18  C   UNL A   1      33.262  33.903  28.396  1.00  0.00     0.077 A 
ATOM     19  C   UNL A   1      33.969  31.886  27.902  1.00  0.00     0.056 A 
ATOM     20  N   UNL A   1      32.298  33.428  27.623  1.00  0.00    -0.180 NA
ATOM     21  N   UNL A   1      32.938  32.369  27.081  1.00  0.00    -0.281 N 
ATOM     22  H   UNL A   1      32.708  31.981  26.206  1.00  0.00     0.190 HD
BRANCH  19  23
ATOM     23  C   UNL A   1      34.076  30.281  27.975  1.00  0.00     0.098 C 
BRANCH  23  24
ATOM     24  C   UNL A   1      33.306  29.275  27.058  1.00  0.00    -0.035 A 
ATOM     25  C   UNL A   1      32.287  28.456  27.590  1.00  0.00     0.005 A 
ATOM     26  C   UNL A   1      33.624  29.005  25.712  1.00  0.00     0.005 A 
ATOM     27  C   UNL A   1      31.606  27.497  26.807  1.00  0.00     0.000 A 
ATOM     28  C   UNL A   1      32.942  28.068  24.916  1.00  0.00     0.000 A 
ATOM     29  C   UNL A   1      31.919  27.318  25.464  1.00  0.00     0.000 A 
ENDBRANCH  23  24
BRANCH  23  30
ATOM     30  C   UNL A   1      35.580  29.880  28.236  1.00  0.00    -0.035 A 
ATOM     31  C   UNL A   1      36.649  30.105  27.353  1.00  0.00     0.005 A 
ATOM     32  C   UNL A   1      35.929  29.316  29.481  1.00  0.00     0.005 A 
ATOM     33  C   UNL A   1      37.983  29.903  27.737  1.00  0.00     0.000 A 
ATOM     34  C   UNL A   1      37.255  29.165  29.891  1.00  0.00     0.000 A 
ATOM     35  C   UNL A   1      38.288  29.475  29.022  1.00  0.00     0.000 A 
ENDBRANCH  23  30
ENDBRANCH  19  23
ENDBRANCH  10  12
ENDBRANCH   8  10
ENDBRANCH   7   8
ENDBRANCH   6   7
ENDBRANCH   5   6
ENDBRANCH   4   5
ENDBRANCH   3   4
ENDBRANCH   2   3
ENDBRANCH   1   2
BRANCH   1  36
ATOM     36  C   UNL A   1      41.539  30.891  32.232  1.00  0.00     0.188 C 
BRANCH  36  37
ATOM     37  C   UNL A   1      42.668  30.945  31.178  1.00  0.00     0.188 C 
BRANCH  37  38
ATOM     38  O   UNL A   1      43.873  30.286  31.543  1.00  0.00    -0.376 OA
BRANCH  38  39
ATOM     39  C   UNL A   1      44.873  30.248  30.521  1.00  0.00     0.202 C 
BRANCH  39  40
ATOM     40  C   UNL A   1      46.109  31.111  30.813  1.00  0.00     0.261 C 
BRANCH  40  41
ATOM     41  O   UNL A   1      45.841  32.307  31.562  1.00  0.00    -0.460 OA
BRANCH  41  42
ATOM     42  C   UNL A   1      46.889  33.142  31.749  1.00  0.00     0.338 C 
ATOM     43  O   UNL A   1      47.949  33.148  31.170  1.00  0.00    -0.246 OA
BRANCH  42  44
ATOM     44  C   UNL A   1      46.454  34.158  32.722  1.00  0.00     0.060 A 
ATOM     45  C   UNL A   1      46.868  34.042  34.053  1.00  0.00     0.016 A 
ATOM     46  C   UNL A   1      45.600  35.185  32.316  1.00  0.00     0.016 A 
ATOM     47  C   UNL A   1      46.407  34.954  34.998  1.00  0.00     0.010 A 
ATOM     48  C   UNL A   1      45.112  36.077  33.269  1.00  0.00     0.010 A 
ATOM     49  C   UNL A   1      45.485  35.939  34.618  1.00  0.00    -0.014 A 
BRANCH  49  50
ATOM     50  C   UNL A   1      44.715  36.630  35.674  1.00  0.00     0.031 A 
ATOM     51  C   UNL A   1      45.181  37.998  36.089  1.00  0.00     0.074 A 
ATOM     52  C   UNL A   1      43.617  36.079  36.218  1.00  0.00     0.049 A 
ATOM     53  N   UNL A   1      44.671  38.818  36.967  1.00  0.00    -0.248 NA
ATOM     54  C   UNL A   1      46.384  38.515  35.410  1.00  0.00     0.031 C 
ATOM     55  C   UNL A   1      43.052  34.780  35.857  1.00  0.00     0.029 A 
ATOM     56  N   UNL A   1      42.783  36.551  37.199  1.00  0.00    -0.354 N 
ATOM     57  C   UNL A   1      45.479  39.948  36.940  1.00  0.00     0.074 A 
ATOM     58  C   UNL A   1      46.527  39.704  35.975  1.00  0.00     0.031 C 
ATOM     59  C   UNL A   1      41.966  34.553  36.619  1.00  0.00     0.029 A 
ATOM     60  C   UNL A   1      41.776  35.678  37.535  1.00  0.00     0.049 A 
ATOM     61  H   UNL A   1      42.894  37.433  37.621  1.00  0.00     0.167 HD
ATOM     62  C   UNL A   1      45.358  41.090  37.655  1.00  0.00     0.037 A 
ATOM     63  C   UNL A   1      40.827  35.778  38.486  1.00  0.00     0.037 A 
ATOM     64  C   UNL A   1      44.335  41.312  38.638  1.00  0.00     0.049 A 
ATOM     65  C   UNL A   1      40.769  37.023  39.336  1.00  0.00     0.074 A 
ATOM     66  C   UNL A   1      44.124  42.429  39.424  1.00  0.00     0.029 A 
ATOM     67  N   UNL A   1      43.362  40.385  38.985  1.00  0.00    -0.354 N 
ATOM     68  N   UNL A   1      41.517  38.100  39.277  1.00  0.00    -0.248 NA
ATOM     69  C   UNL A   1      39.737  37.067  40.383  1.00  0.00     0.031 C 
ATOM     70  C   UNL A   1      43.053  42.159  40.283  1.00  0.00     0.029 A 
ATOM     71  C   UNL A   1      42.564  40.894  39.993  1.00  0.00     0.049 A 
ATOM     72  H   UNL A   1      43.255  39.497  38.573  1.00  0.00     0.167 HD
ATOM     73  C   UNL A   1      41.027  38.960  40.256  1.00  0.00     0.074 A 
ATOM     74  C   UNL A   1      39.915  38.281  40.887  1.00  0.00     0.031 C 
ATOM     75  C   UNL A   1      41.454  40.202  40.599  1.00  0.00     0.037 A 
BRANCH  62  76
ATOM     76  C   UNL A   1      46.385  42.159  37.424  1.00  0.00     0.058 A 
ATOM     77  C   UNL A   1      47.574  42.214  38.171  1.00  0.00     0.135 A 
ATOM     78  C   UNL A   1      46.182  43.138  36.440  1.00  0.00     0.135 A 
ATOM     79  F   UNL A   1      47.803  41.317  39.144  1.00  0.00    -0.206 F 
ATOM     80  C   UNL A   1      48.517  43.214  37.961  1.00  0.00     0.059 A 
ATOM     81  C   UNL A   1      47.122  44.134  36.197  1.00  0.00     0.059 A 
ATOM     82  F   UNL A   1      45.057  43.137  35.709  1.00  0.00    -0.206 F 
ATOM     83  C   UNL A   1      48.282  44.170  36.972  1.00  0.00     0.060 A 
BRANCH  83  84
ATOM     84  S   UNL A   1      49.516  45.460  36.707  1.00  0.00     0.124 S 
ATOM     85  O   UNL A   1      49.574  45.512  35.249  1.00  0.00    -0.237 OA
ATOM     86  O   UNL A   1      48.906  46.615  37.358  1.00  0.00    -0.237 OA
ATOM     87  O   UNL A   1      50.708  44.931  37.363  1.00  0.00    -0.744 OA
ENDBRANCH  83  84
ENDBRANCH  62  76
BRANCH  63  88
ATOM     88  C   UNL A   1      39.860  34.668  38.699  1.00  0.00     0.058 A 
ATOM     89  C   UNL A   1      38.784  34.464  37.823  1.00  0.00     0.135 A 
ATOM     90  C   UNL A   1      39.984  33.798  39.794  1.00  0.00     0.135 A 
ATOM     91  F   UNL A   1      38.616  35.275  36.768  1.00  0.00    -0.206 F 
ATOM     92  C   UNL A   1      37.854  33.450  38.034  1.00  0.00     0.059 A 
ATOM     93  C   UNL A   1      39.082  32.762  40.012  1.00  0.00     0.059 A 
ATOM     94  F   UNL A   1      41.000  33.946  40.659  1.00  0.00    -0.206 F 
ATOM     95  C   UNL A   1      38.013  32.602  39.131  1.00  0.00     0.060 A 
BRANCH  95  96
ATOM     96  S   UNL A   1      36.823  31.265  39.372  1.00  0.00     0.124 S 
ATOM     97  O   UNL A   1      37.271  30.698  40.639  1.00  0.00    -0.237 OA
ATOM     98  O   UNL A   1      35.555  31.989  39.408  1.00  0.00    -0.237 OA
ATOM     99  O   UNL A   1      37.021  30.423  38.197  1.00  0.00    -0.744 OA
ENDBRANCH  95  96
ENDBRANCH  63  88
BRANCH  75 100
ATOM    100  C   UNL A   1      40.698  40.924  41.679  1.00  0.00     0.058 A 
ATOM    101  C   UNL A   1      39.627  41.782  41.384  1.00  0.00     0.135 A 
ATOM    102  C   UNL A   1      41.006  40.698  43.030  1.00  0.00     0.135 A 
ATOM    103  F   UNL A   1      39.295  42.034  40.108  1.00  0.00    -0.206 F 
ATOM    104  C   UNL A   1      38.901  42.407  42.392  1.00  0.00     0.059 A 
ATOM    105  C   UNL A   1      40.275  41.290  44.055  1.00  0.00     0.059 A 
ATOM    106  F   UNL A   1      42.012  39.874  43.366  1.00  0.00    -0.206 F 
ATOM    107  C   UNL A   1      39.231  42.152  43.725  1.00  0.00     0.060 A 
BRANCH 107 108
ATOM    108  S   UNL A   1      38.255  42.938  45.025  1.00  0.00     0.124 S 
ATOM    109  O   UNL A   1      38.520  42.061  46.161  1.00  0.00    -0.237 OA
ATOM    110  O   UNL A   1      38.847  44.270  45.100  1.00  0.00    -0.237 OA
ATOM    111  O   UNL A   1      36.893  42.893  44.501  1.00  0.00    -0.744 OA
ENDBRANCH 107 108
ENDBRANCH  75 100
ENDBRANCH  49  50
ENDBRANCH  42  44
ENDBRANCH  41  42
ENDBRANCH  40  41
ENDBRANCH  39  40
ENDBRANCH  38  39
ENDBRANCH  37  38
ENDBRANCH  36  37
ENDBRANCH   1  36
TORSDOF 27
ENDMDL
MODEL 3
REMARK VINA RESULT:      -7.9      5.376      9.091
REMARK SMILES C[C@@H](C(=O)OCCOCCOCCOCCOC(=O)c1ccc(-c2c3nc(c(-c4c(F)cc(S(=O)(=O)[O-])cc4F)c4ccc([nH]4)c(-c4c(F)cc(S(=O)(=O)[O-])cc4F)c4nc(c(-c5c(F)cc(S(=O)(=O)[O-])cc5F)c5ccc2[nH]5)C=C4)C=C3)cc1)[N@@H+]1CCc2n[nH]c(C(c3ccccc3)c3ccccc3)c2C1
REMARK SMILES IDX 11 1 10 2 9 3 8 4 7 5 6 6 5 7 3 8 4 9 2 10 1 11 86 12 87 13
REMARK SMILES IDX 107 14 88 16 106 17 89 18 92 19 90 20 91 21 93 23 94 24
REMARK SMILES IDX 95 25 99 26 96 27 98 28 97 29 100 30 101 31 105 32 102 33
REMARK SMILES IDX 104 34 103 35 12 36 13 37 14 38 15 39 16 40 17 41 18 42
REMARK SMILES IDX 19 43 20 44 21 45 85 46 22 47 84 48 23 49 24 50 25 51 78 52
REMARK SMILES IDX 26 53 83 54 77 55 79 56 27 57 82 58 76 59 75 60 28 62 62 63
REMARK SMILES IDX 41 64 61 65 42 66 45 67 60 68 80 69 43 70 44 71 59 73 81 74
REMARK SMILES IDX 46 75 29 76 30 77 39 78 31 79 32 80 38 81 40 82 33 83 34 84
REMARK SMILES IDX 35 85 36 86 37 87 63 88 64 89 73 90 65 91 66 92 72 93 74 94
REMARK SMILES IDX 67 95 68 96 69 97 70 98 71 99 47 100 48 101 57 102 49 103
REMARK SMILES IDX 50 104 56 105 58 106 51 107 52 108 53 109 54 110 55 111
REMARK H PARENT 86 15 91 22 79 61 45 72
REMARK Flexibility Score: inf
ROOT
ATOM      1  O   UNL A   1      35.313  32.212  31.459  1.00  0.00    -0.377 OA
ENDROOT
BRANCH   1   2
ATOM      2  C   UNL A   1      35.244  32.280  30.032  1.00  0.00     0.188 C 
BRANCH   2   3
ATOM      3  C   UNL A   1      36.418  31.630  29.275  1.00  0.00     0.188 C 
BRANCH   3   4
ATOM      4  O   UNL A   1      36.311  30.223  29.022  1.00  0.00    -0.376 OA
BRANCH   4   5
ATOM      5  C   UNL A   1      37.086  29.668  27.946  1.00  0.00     0.202 C 
BRANCH   5   6
ATOM      6  C   UNL A   1      38.068  28.528  28.459  1.00  0.00     0.261 C 
BRANCH   6   7
ATOM      7  O   UNL A   1      39.330  28.489  27.700  1.00  0.00    -0.459 OA
BRANCH   7   8
ATOM      8  C   UNL A   1      40.188  27.413  27.691  1.00  0.00     0.364 C 
ATOM      9  O   UNL A   1      39.905  26.346  27.152  1.00  0.00    -0.245 OA
BRANCH   8  10
ATOM     10  C   UNL A   1      41.693  27.754  28.252  1.00  0.00     0.292 C 
ATOM     11  C   UNL A   1      41.866  28.252  29.692  1.00  0.00     0.088 C 
BRANCH  10  12
ATOM     12  N   UNL A   1      42.500  28.511  27.232  1.00  0.00    -0.319 N 
ATOM     13  C   UNL A   1      42.332  28.245  25.768  1.00  0.00     0.269 C 
ATOM     14  C   UNL A   1      43.902  28.370  27.576  1.00  0.00     0.303 C 
ATOM     15  H   UNL A   1      42.115  29.453  27.309  1.00  0.00     0.349 HD
ATOM     16  C   UNL A   1      43.622  27.778  24.973  1.00  0.00     0.120 C 
ATOM     17  C   UNL A   1      44.354  26.970  27.240  1.00  0.00     0.052 A 
ATOM     18  C   UNL A   1      44.364  26.812  25.828  1.00  0.00     0.077 A 
ATOM     19  C   UNL A   1      44.566  25.637  27.669  1.00  0.00     0.056 A 
ATOM     20  N   UNL A   1      45.112  25.788  25.449  1.00  0.00    -0.180 NA
ATOM     21  N   UNL A   1      45.487  25.317  26.659  1.00  0.00    -0.281 N 
ATOM     22  H   UNL A   1      46.314  24.808  26.814  1.00  0.00     0.190 HD
BRANCH  19  23
ATOM     23  C   UNL A   1      44.285  24.454  28.724  1.00  0.00     0.098 C 
BRANCH  23  24
ATOM     24  C   UNL A   1      44.312  24.597  30.281  1.00  0.00    -0.035 A 
ATOM     25  C   UNL A   1      44.117  23.471  31.108  1.00  0.00     0.005 A 
ATOM     26  C   UNL A   1      44.396  25.820  30.977  1.00  0.00     0.005 A 
ATOM     27  C   UNL A   1      44.081  23.568  32.517  1.00  0.00     0.000 A 
ATOM     28  C   UNL A   1      44.381  25.930  32.378  1.00  0.00     0.000 A 
ATOM     29  C   UNL A   1      44.233  24.795  33.153  1.00  0.00     0.000 A 
ENDBRANCH  23  24
BRANCH  23  30
ATOM     30  C   UNL A   1      43.098  23.562  28.189  1.00  0.00    -0.035 A 
ATOM     31  C   UNL A   1      43.232  22.297  27.592  1.00  0.00     0.005 A 
ATOM     32  C   UNL A   1      41.772  24.006  28.378  1.00  0.00     0.005 A 
ATOM     33  C   UNL A   1      42.122  21.481  27.326  1.00  0.00     0.000 A 
ATOM     34  C   UNL A   1      40.666  23.180  28.168  1.00  0.00     0.000 A 
ATOM     35  C   UNL A   1      40.842  21.906  27.655  1.00  0.00     0.000 A 
ENDBRANCH  23  30
ENDBRANCH  19  23
ENDBRANCH  10  12
ENDBRANCH   8  10
ENDBRANCH   7   8
ENDBRANCH   6   7
ENDBRANCH   5   6
ENDBRANCH   4   5
ENDBRANCH   3   4
ENDBRANCH   2   3
ENDBRANCH   1   2
BRANCH   1  36
ATOM     36  C   UNL A   1      34.721  33.308  32.151  1.00  0.00     0.188 C 
BRANCH  36  37
ATOM     37  C   UNL A   1      34.645  33.250  33.694  1.00  0.00     0.188 C 
BRANCH  37  38
ATOM     38  O   UNL A   1      35.618  34.024  34.381  1.00  0.00    -0.376 OA
BRANCH  38  39
ATOM     39  C   UNL A   1      36.976  33.666  34.109  1.00  0.00     0.202 C 
BRANCH  39  40
ATOM     40  C   UNL A   1      37.548  32.591  35.044  1.00  0.00     0.261 C 
BRANCH  40  41
ATOM     41  O   UNL A   1      38.024  31.410  34.378  1.00  0.00    -0.460 OA
BRANCH  41  42
ATOM     42  C   UNL A   1      39.044  30.756  34.981  1.00  0.00     0.338 C 
ATOM     43  O   UNL A   1      38.990  29.980  35.904  1.00  0.00    -0.246 OA
BRANCH  42  44
ATOM     44  C   UNL A   1      40.259  31.064  34.208  1.00  0.00     0.060 A 
ATOM     45  C   UNL A   1      41.482  31.164  34.879  1.00  0.00     0.016 A 
ATOM     46  C   UNL A   1      40.166  31.299  32.835  1.00  0.00     0.016 A 
ATOM     47  C   UNL A   1      42.626  31.525  34.174  1.00  0.00     0.010 A 
ATOM     48  C   UNL A   1      41.306  31.694  32.136  1.00  0.00     0.010 A 
ATOM     49  C   UNL A   1      42.529  31.843  32.813  1.00  0.00    -0.014 A 
BRANCH  49  50
ATOM     50  C   UNL A   1      43.638  32.591  32.182  1.00  0.00     0.031 A 
ATOM     51  C   UNL A   1      44.705  31.791  31.486  1.00  0.00     0.074 A 
ATOM     52  C   UNL A   1      43.677  33.934  32.194  1.00  0.00     0.049 A 
ATOM     53  N   UNL A   1      45.761  32.203  30.839  1.00  0.00    -0.248 NA
ATOM     54  C   UNL A   1      44.551  30.325  31.516  1.00  0.00     0.031 C 
ATOM     55  C   UNL A   1      42.672  34.807  32.799  1.00  0.00     0.029 A 
ATOM     56  N   UNL A   1      44.609  34.797  31.677  1.00  0.00    -0.354 N 
ATOM     57  C   UNL A   1      46.390  31.053  30.377  1.00  0.00     0.074 A 
ATOM     58  C   UNL A   1      45.612  29.925  30.834  1.00  0.00     0.031 C 
ATOM     59  C   UNL A   1      43.051  36.087  32.629  1.00  0.00     0.029 A 
ATOM     60  C   UNL A   1      44.334  36.120  31.926  1.00  0.00     0.049 A 
ATOM     61  H   UNL A   1      45.400  34.497  31.174  1.00  0.00     0.167 HD
ATOM     62  C   UNL A   1      47.516  30.948  29.636  1.00  0.00     0.037 A 
ATOM     63  C   UNL A   1      45.050  37.223  31.631  1.00  0.00     0.037 A 
ATOM     64  C   UNL A   1      48.305  32.072  29.215  1.00  0.00     0.049 A 
ATOM     65  C   UNL A   1      46.353  37.072  30.884  1.00  0.00     0.074 A 
ATOM     66  C   UNL A   1      49.466  32.077  28.466  1.00  0.00     0.029 A 
ATOM     67  N   UNL A   1      48.020  33.394  29.527  1.00  0.00    -0.354 N 
ATOM     68  N   UNL A   1      46.919  35.982  30.422  1.00  0.00    -0.248 NA
ATOM     69  C   UNL A   1      47.114  38.302  30.619  1.00  0.00     0.031 C 
ATOM     70  C   UNL A   1      49.913  33.400  28.369  1.00  0.00     0.029 A 
ATOM     71  C   UNL A   1      48.999  34.222  29.010  1.00  0.00     0.049 A 
ATOM     72  H   UNL A   1      47.236  33.697  30.040  1.00  0.00     0.167 HD
ATOM     73  C   UNL A   1      48.085  36.398  29.785  1.00  0.00     0.074 A 
ATOM     74  C   UNL A   1      48.139  37.839  29.916  1.00  0.00     0.031 C 
ATOM     75  C   UNL A   1      49.025  35.657  29.145  1.00  0.00     0.037 A 
BRANCH  62  76
ATOM     76  C   UNL A   1      47.977  29.565  29.276  1.00  0.00     0.058 A 
ATOM     77  C   UNL A   1      47.597  28.951  28.071  1.00  0.00     0.135 A 
ATOM     78  C   UNL A   1      48.814  28.847  30.144  1.00  0.00     0.135 A 
ATOM     79  F   UNL A   1      46.774  29.584  27.220  1.00  0.00    -0.206 F 
ATOM     80  C   UNL A   1      48.017  27.665  27.749  1.00  0.00     0.059 A 
ATOM     81  C   UNL A   1      49.265  27.569  29.831  1.00  0.00     0.059 A 
ATOM     82  F   UNL A   1      49.194  29.385  31.313  1.00  0.00    -0.206 F 
ATOM     83  C   UNL A   1      48.850  26.982  28.635  1.00  0.00     0.060 A 
BRANCH  83  84
ATOM     84  S   UNL A   1      49.392  25.315  28.201  1.00  0.00     0.124 S 
ATOM     85  O   UNL A   1      50.367  25.591  27.150  1.00  0.00    -0.237 OA
ATOM     86  O   UNL A   1      49.941  24.828  29.462  1.00  0.00    -0.237 OA
ATOM     87  O   UNL A   1      48.163  24.662  27.761  1.00  0.00    -0.744 OA
ENDBRANCH  83  84
ENDBRANCH  62  76
BRANCH  63  88
ATOM     88  C   UNL A   1      44.566  38.565  32.049  1.00  0.00     0.058 A 
ATOM     89  C   UNL A   1      44.887  39.094  33.308  1.00  0.00     0.135 A 
ATOM     90  C   UNL A   1      43.756  39.340  31.203  1.00  0.00     0.135 A 
ATOM     91  F   UNL A   1      45.648  38.388  34.157  1.00  0.00    -0.206 F 
ATOM     92  C   UNL A   1      44.408  40.333  33.721  1.00  0.00     0.059 A 
ATOM     93  C   UNL A   1      43.287  40.593  31.584  1.00  0.00     0.059 A 
ATOM     94  F   UNL A   1      43.425  38.882  29.985  1.00  0.00    -0.206 F 
ATOM     95  C   UNL A   1      43.610  41.077  32.851  1.00  0.00     0.060 A 
BRANCH  95  96
ATOM     96  S   UNL A   1      43.029  42.702  33.383  1.00  0.00     0.124 S 
ATOM     97  O   UNL A   1      44.253  43.292  33.914  1.00  0.00    -0.237 OA
ATOM     98  O   UNL A   1      42.534  43.273  32.133  1.00  0.00    -0.237 OA
ATOM     99  O   UNL A   1      42.001  42.385  34.368  1.00  0.00    -0.744 OA
ENDBRANCH  95  96
ENDBRANCH  63  88
BRANCH  75 100
ATOM    100  C   UNL A   1      50.172  36.389  28.504  1.00  0.00     0.058 A 
ATOM    101  C   UNL A   1      50.080  36.914  27.206  1.00  0.00     0.135 A 
ATOM    102  C   UNL A   1      51.351  36.627  29.228  1.00  0.00     0.135 A 
ATOM    103  F   UNL A   1      48.975  36.711  26.471  1.00  0.00    -0.206 F 
ATOM    104  C   UNL A   1      51.127  37.634  26.641  1.00  0.00     0.059 A 
ATOM    105  C   UNL A   1      52.399  37.367  28.692  1.00  0.00     0.059 A 
ATOM    106  F   UNL A   1      51.483  36.157  30.479  1.00  0.00    -0.206 F 
ATOM    107  C   UNL A   1      52.282  37.857  27.393  1.00  0.00     0.060 A 
BRANCH 107 108
ATOM    108  S   UNL A   1      53.619  38.827  26.663  1.00  0.00     0.124 S 
ATOM    109  O   UNL A   1      53.457  40.108  27.342  1.00  0.00    -0.237 OA
ATOM    110  O   UNL A   1      54.803  38.057  27.033  1.00  0.00    -0.237 OA
ATOM    111  O   UNL A   1      53.299  38.827  25.238  1.00  0.00    -0.744 OA
ENDBRANCH 107 108
ENDBRANCH  75 100
ENDBRANCH  49  50
ENDBRANCH  42  44
ENDBRANCH  41  42
ENDBRANCH  40  41
ENDBRANCH  39  40
ENDBRANCH  38  39
ENDBRANCH  37  38
ENDBRANCH  36  37
ENDBRANCH   1  36
TORSDOF 27
ENDMDL
