MODEL 1
REMARK VINA RESULT:      -8.2      0.000      0.000
REMARK SMILES CC(C)(C)OC(=O)N1CCC[C@H]1C(=O)N[C@@H](Cc1ccccc1)C(=O)OCCOCCOCCOCCOC(=O)c1ccc(-c2c3nc(c(-c4c(F)cc(S(=O)(=O)[O-])cc4F)c4ccc([nH]4)c(-c4c(F)cc(S(=O)(=O)[O-])cc4F)c4nc(c(-c5c(F)cc(S(=O)(=O)[O-])cc5F)c5ccc2[nH]5)C=C4)C=C3)cc1
REMARK SMILES IDX 31 1 30 2 29 3 28 4 27 5 26 6 24 7 25 8 16 9 15 10 13 11
REMARK SMILES IDX 14 12 12 14 8 15 9 16 10 17 11 18 6 19 7 20 5 21 2 22 1 23
REMARK SMILES IDX 3 24 4 25 17 26 18 27 19 28 23 29 20 30 22 31 21 32 32 33
REMARK SMILES IDX 33 34 34 35 35 36 36 37 37 38 38 39 39 40 40 41 41 42 42 43
REMARK SMILES IDX 106 44 43 45 105 46 44 47 45 48 46 49 99 50 47 51 104 52
REMARK SMILES IDX 98 53 100 54 48 55 103 56 97 57 96 58 49 60 83 61 62 62
REMARK SMILES IDX 82 63 63 64 66 65 81 66 101 67 64 68 65 69 80 71 102 72
REMARK SMILES IDX 67 73 50 74 51 75 60 76 52 77 53 78 59 79 61 80 54 81 55 82
REMARK SMILES IDX 56 83 57 84 58 85 84 86 85 87 94 88 86 89 87 90 93 91 95 92
REMARK SMILES IDX 88 93 89 94 90 95 91 96 92 97 68 98 69 99 78 100 70 101
REMARK SMILES IDX 71 102 77 103 79 104 72 105 73 106 74 107 75 108 76 109
REMARK H PARENT 15 13 100 59 66 70
REMARK Flexibility Score: inf
ROOT
ATOM      1  C   UNL A   1      43.079  22.946  28.342  1.00  0.00     0.188 C 
ENDROOT
BRANCH   1   2
ATOM      2  C   UNL A   1      42.005  21.947  28.014  1.00  0.00     0.188 C 
BRANCH   2   3
ATOM      3  O   UNL A   1      40.710  22.416  27.681  1.00  0.00    -0.376 OA
BRANCH   3   4
ATOM      4  C   UNL A   1      40.312  22.074  26.343  1.00  0.00     0.202 C 
BRANCH   4   5
ATOM      5  C   UNL A   1      39.145  21.069  26.106  1.00  0.00     0.261 C 
BRANCH   5   6
ATOM      6  O   UNL A   1      38.158  21.507  25.135  1.00  0.00    -0.462 OA
BRANCH   6   7
ATOM      7  C   UNL A   1      37.064  22.200  25.567  1.00  0.00     0.329 C 
ATOM      8  O   UNL A   1      37.137  23.186  26.293  1.00  0.00    -0.250 OA
BRANCH   7   9
ATOM      9  C   UNL A   1      35.688  21.597  25.099  1.00  0.00     0.196 C 
BRANCH   9  10
ATOM     10  N   UNL A   1      34.789  22.267  24.121  1.00  0.00    -0.341 N 
ATOM     11  C   UNL A   1      33.592  22.922  24.227  1.00  0.00     0.243 C 
ATOM     12  O   UNL A   1      32.983  23.107  23.165  1.00  0.00    -0.273 OA
ATOM     13  H   UNL A   1      35.129  22.231  23.198  1.00  0.00     0.164 HD
BRANCH  11  14
ATOM     14  C   UNL A   1      33.040  23.530  25.547  1.00  0.00     0.178 C 
ATOM     15  N   UNL A   1      32.167  24.698  25.280  1.00  0.00    -0.296 N 
ATOM     16  C   UNL A   1      30.766  24.364  25.417  1.00  0.00     0.124 C 
ATOM     17  C   UNL A   1      30.798  23.323  26.521  1.00  0.00     0.024 C 
ATOM     18  C   UNL A   1      32.068  22.524  26.213  1.00  0.00     0.037 C 
BRANCH  15  19
ATOM     19  C   UNL A   1      32.665  25.973  25.153  1.00  0.00     0.410 C 
ATOM     20  O   UNL A   1      33.251  26.320  24.137  1.00  0.00    -0.224 OA
BRANCH  19  21
ATOM     21  O   UNL A   1      32.422  26.757  26.238  1.00  0.00    -0.444 OA
BRANCH  21  22
ATOM     22  C   UNL A   1      32.346  28.222  26.215  1.00  0.00     0.106 C 
ATOM     23  C   UNL A   1      31.721  28.650  27.550  1.00  0.00     0.056 C 
ATOM     24  C   UNL A   1      31.370  28.630  25.107  1.00  0.00     0.056 C 
ATOM     25  C   UNL A   1      33.665  28.974  26.016  1.00  0.00     0.056 C 
ENDBRANCH  21  22
ENDBRANCH  19  21
ENDBRANCH  15  19
ENDBRANCH  11  14
ENDBRANCH   9  10
BRANCH   9  26
ATOM     26  C   UNL A   1      35.930  20.134  24.658  1.00  0.00     0.072 C 
BRANCH  26  27
ATOM     27  C   UNL A   1      34.807  19.105  24.652  1.00  0.00    -0.045 A 
ATOM     28  C   UNL A   1      35.189  17.753  24.582  1.00  0.00     0.004 A 
ATOM     29  C   UNL A   1      33.432  19.383  24.675  1.00  0.00     0.004 A 
ATOM     30  C   UNL A   1      34.239  16.731  24.479  1.00  0.00     0.000 A 
ATOM     31  C   UNL A   1      32.480  18.363  24.556  1.00  0.00     0.000 A 
ATOM     32  C   UNL A   1      32.884  17.040  24.446  1.00  0.00     0.000 A 
ENDBRANCH  26  27
ENDBRANCH   9  26
ENDBRANCH   7   9
ENDBRANCH   6   7
ENDBRANCH   5   6
ENDBRANCH   4   5
ENDBRANCH   3   4
ENDBRANCH   2   3
ENDBRANCH   1   2
BRANCH   1  33
ATOM     33  O   UNL A   1      42.591  24.285  28.283  1.00  0.00    -0.377 OA
BRANCH  33  34
ATOM     34  C   UNL A   1      43.569  25.280  28.026  1.00  0.00     0.188 C 
BRANCH  34  35
ATOM     35  C   UNL A   1      43.071  26.507  27.247  1.00  0.00     0.188 C 
BRANCH  35  36
ATOM     36  O   UNL A   1      41.887  26.334  26.488  1.00  0.00    -0.376 OA
BRANCH  36  37
ATOM     37  C   UNL A   1      40.950  27.394  26.340  1.00  0.00     0.202 C 
BRANCH  37  38
ATOM     38  C   UNL A   1      40.022  27.797  27.497  1.00  0.00     0.261 C 
BRANCH  38  39
ATOM     39  O   UNL A   1      40.373  29.008  28.173  1.00  0.00    -0.460 OA
BRANCH  39  40
ATOM     40  C   UNL A   1      39.826  29.236  29.382  1.00  0.00     0.338 C 
ATOM     41  O   UNL A   1      39.155  28.483  30.065  1.00  0.00    -0.246 OA
BRANCH  40  42
ATOM     42  C   UNL A   1      40.365  30.519  29.841  1.00  0.00     0.060 A 
ATOM     43  C   UNL A   1      41.734  30.617  30.127  1.00  0.00     0.016 A 
ATOM     44  C   UNL A   1      39.516  31.620  29.955  1.00  0.00     0.016 A 
ATOM     45  C   UNL A   1      42.260  31.825  30.553  1.00  0.00     0.010 A 
ATOM     46  C   UNL A   1      40.034  32.818  30.426  1.00  0.00     0.010 A 
ATOM     47  C   UNL A   1      41.397  32.906  30.759  1.00  0.00    -0.014 A 
BRANCH  47  48
ATOM     48  C   UNL A   1      41.862  34.036  31.577  1.00  0.00     0.031 A 
ATOM     49  C   UNL A   1      42.526  35.173  30.857  1.00  0.00     0.074 A 
ATOM     50  C   UNL A   1      41.694  34.032  32.909  1.00  0.00     0.049 A 
ATOM     51  N   UNL A   1      43.108  36.232  31.346  1.00  0.00    -0.248 NA
ATOM     52  C   UNL A   1      42.546  35.099  29.383  1.00  0.00     0.031 C 
ATOM     53  C   UNL A   1      41.026  32.980  33.675  1.00  0.00     0.029 A 
ATOM     54  N   UNL A   1      42.095  34.938  33.853  1.00  0.00    -0.354 N 
ATOM     55  C   UNL A   1      43.583  36.936  30.246  1.00  0.00     0.074 A 
ATOM     56  C   UNL A   1      43.235  36.183  29.064  1.00  0.00     0.031 C 
ATOM     57  C   UNL A   1      41.095  33.285  34.982  1.00  0.00     0.029 A 
ATOM     58  C   UNL A   1      41.841  34.532  35.140  1.00  0.00     0.049 A 
ATOM     59  H   UNL A   1      42.525  35.795  33.631  1.00  0.00     0.167 HD
ATOM     60  C   UNL A   1      44.253  38.108  30.236  1.00  0.00     0.037 A 
ATOM     61  C   UNL A   1      42.211  35.096  36.305  1.00  0.00     0.037 A 
ATOM     62  C   UNL A   1      44.576  38.841  31.429  1.00  0.00     0.049 A 
ATOM     63  C   UNL A   1      42.989  36.387  36.264  1.00  0.00     0.074 A 
ATOM     64  C   UNL A   1      45.214  40.061  31.542  1.00  0.00     0.029 A 
ATOM     65  N   UNL A   1      44.291  38.411  32.718  1.00  0.00    -0.354 N 
ATOM     66  N   UNL A   1      43.399  37.072  35.219  1.00  0.00    -0.248 NA
ATOM     67  C   UNL A   1      43.351  36.988  37.553  1.00  0.00     0.031 C 
ATOM     68  C   UNL A   1      45.369  40.343  32.901  1.00  0.00     0.029 A 
ATOM     69  C   UNL A   1      44.768  39.329  33.635  1.00  0.00     0.049 A 
ATOM     70  H   UNL A   1      43.820  37.577  32.945  1.00  0.00     0.167 HD
ATOM     71  C   UNL A   1      44.038  38.197  35.727  1.00  0.00     0.074 A 
ATOM     72  C   UNL A   1      43.949  38.108  37.170  1.00  0.00     0.031 C 
ATOM     73  C   UNL A   1      44.646  39.214  35.067  1.00  0.00     0.037 A 
BRANCH  60  74
ATOM     74  C   UNL A   1      44.709  38.652  28.913  1.00  0.00     0.058 A 
ATOM     75  C   UNL A   1      43.886  39.466  28.120  1.00  0.00     0.135 A 
ATOM     76  C   UNL A   1      46.017  38.405  28.466  1.00  0.00     0.135 A 
ATOM     77  F   UNL A   1      42.617  39.707  28.485  1.00  0.00    -0.206 F 
ATOM     78  C   UNL A   1      44.347  40.022  26.931  1.00  0.00     0.059 A 
ATOM     79  C   UNL A   1      46.507  38.971  27.294  1.00  0.00     0.059 A 
ATOM     80  F   UNL A   1      46.836  37.617  29.179  1.00  0.00    -0.206 F 
ATOM     81  C   UNL A   1      45.664  39.779  26.533  1.00  0.00     0.060 A 
BRANCH  81  82
ATOM     82  S   UNL A   1      46.266  40.562  25.023  1.00  0.00     0.124 S 
ATOM     83  O   UNL A   1      45.045  41.163  24.497  1.00  0.00    -0.237 OA
ATOM     84  O   UNL A   1      47.263  41.497  25.537  1.00  0.00    -0.237 OA
ATOM     85  O   UNL A   1      46.800  39.446  24.249  1.00  0.00    -0.744 OA
ENDBRANCH  81  82
ENDBRANCH  60  74
BRANCH  61  86
ATOM     86  C   UNL A   1      41.890  34.432  37.596  1.00  0.00     0.058 A 
ATOM     87  C   UNL A   1      42.751  33.481  38.162  1.00  0.00     0.135 A 
ATOM     88  C   UNL A   1      40.697  34.719  38.280  1.00  0.00     0.135 A 
ATOM     89  F   UNL A   1      43.903  33.169  37.547  1.00  0.00    -0.206 F 
ATOM     90  C   UNL A   1      42.430  32.815  39.341  1.00  0.00     0.059 A 
ATOM     91  C   UNL A   1      40.367  34.089  39.475  1.00  0.00     0.059 A 
ATOM     92  F   UNL A   1      39.844  35.634  37.793  1.00  0.00    -0.206 F 
ATOM     93  C   UNL A   1      41.232  33.124  39.988  1.00  0.00     0.060 A 
BRANCH  93  94
ATOM     94  S   UNL A   1      40.828  32.265  41.524  1.00  0.00     0.124 S 
ATOM     95  O   UNL A   1      41.915  31.296  41.612  1.00  0.00    -0.237 OA
ATOM     96  O   UNL A   1      40.859  33.352  42.499  1.00  0.00    -0.237 OA
ATOM     97  O   UNL A   1      39.505  31.709  41.259  1.00  0.00    -0.744 OA
ENDBRANCH  93  94
ENDBRANCH  61  86
BRANCH  73  98
ATOM     98  C   UNL A   1      45.215  40.333  35.893  1.00  0.00     0.058 A 
ATOM     99  C   UNL A   1      46.479  40.241  36.494  1.00  0.00     0.135 A 
ATOM    100  C   UNL A   1      44.508  41.540  36.029  1.00  0.00     0.135 A 
ATOM    101  F   UNL A   1      47.193  39.109  36.395  1.00  0.00    -0.206 F 
ATOM    102  C   UNL A   1      47.012  41.297  37.224  1.00  0.00     0.059 A 
ATOM    103  C   UNL A   1      45.035  42.619  36.725  1.00  0.00     0.059 A 
ATOM    104  F   UNL A   1      43.299  41.683  35.459  1.00  0.00    -0.206 F 
ATOM    105  C   UNL A   1      46.283  42.484  37.331  1.00  0.00     0.060 A 
BRANCH 105 106
ATOM    106  S   UNL A   1      47.001  43.857  38.256  1.00  0.00     0.124 S 
ATOM    107  O   UNL A   1      47.745  44.555  37.214  1.00  0.00    -0.237 OA
ATOM    108  O   UNL A   1      45.817  44.545  38.760  1.00  0.00    -0.237 OA
ATOM    109  O   UNL A   1      47.814  43.195  39.272  1.00  0.00    -0.744 OA
ENDBRANCH 105 106
ENDBRANCH  73  98
ENDBRANCH  47  48
ENDBRANCH  40  42
ENDBRANCH  39  40
ENDBRANCH  38  39
ENDBRANCH  37  38
ENDBRANCH  36  37
ENDBRANCH  35  36
ENDBRANCH  34  35
ENDBRANCH  33  34
ENDBRANCH   1  33
TORSDOF 30
ENDMDL
MODEL 2
REMARK VINA RESULT:      -7.9      3.965      5.926
REMARK SMILES CC(C)(C)OC(=O)N1CCC[C@H]1C(=O)N[C@@H](Cc1ccccc1)C(=O)OCCOCCOCCOCCOC(=O)c1ccc(-c2c3nc(c(-c4c(F)cc(S(=O)(=O)[O-])cc4F)c4ccc([nH]4)c(-c4c(F)cc(S(=O)(=O)[O-])cc4F)c4nc(c(-c5c(F)cc(S(=O)(=O)[O-])cc5F)c5ccc2[nH]5)C=C4)C=C3)cc1
REMARK SMILES IDX 31 1 30 2 29 3 28 4 27 5 26 6 24 7 25 8 16 9 15 10 13 11
REMARK SMILES IDX 14 12 12 14 8 15 9 16 10 17 11 18 6 19 7 20 5 21 2 22 1 23
REMARK SMILES IDX 3 24 4 25 17 26 18 27 19 28 23 29 20 30 22 31 21 32 32 33
REMARK SMILES IDX 33 34 34 35 35 36 36 37 37 38 38 39 39 40 40 41 41 42 42 43
REMARK SMILES IDX 106 44 43 45 105 46 44 47 45 48 46 49 99 50 47 51 104 52
REMARK SMILES IDX 98 53 100 54 48 55 103 56 97 57 96 58 49 60 83 61 62 62
REMARK SMILES IDX 82 63 63 64 66 65 81 66 101 67 64 68 65 69 80 71 102 72
REMARK SMILES IDX 67 73 50 74 51 75 60 76 52 77 53 78 59 79 61 80 54 81 55 82
REMARK SMILES IDX 56 83 57 84 58 85 84 86 85 87 94 88 86 89 87 90 93 91 95 92
REMARK SMILES IDX 88 93 89 94 90 95 91 96 92 97 68 98 69 99 78 100 70 101
REMARK SMILES IDX 71 102 77 103 79 104 72 105 73 106 74 107 75 108 76 109
REMARK H PARENT 15 13 100 59 66 70
REMARK Flexibility Score: inf
ROOT
ATOM      1  C   UNL A   1      39.590  26.173  28.568  1.00  0.00     0.188 C 
ENDROOT
BRANCH   1   2
ATOM      2  C   UNL A   1      40.580  25.126  28.139  1.00  0.00     0.188 C 
BRANCH   2   3
ATOM      3  O   UNL A   1      40.123  23.807  27.896  1.00  0.00    -0.376 OA
BRANCH   3   4
ATOM      4  C   UNL A   1      39.506  23.652  26.607  1.00  0.00     0.202 C 
BRANCH   4   5
ATOM      5  C   UNL A   1      38.759  22.331  26.250  1.00  0.00     0.261 C 
BRANCH   5   6
ATOM      6  O   UNL A   1      37.344  22.493  25.968  1.00  0.00    -0.462 OA
BRANCH   6   7
ATOM      7  C   UNL A   1      36.708  21.554  25.209  1.00  0.00     0.329 C 
ATOM      8  O   UNL A   1      37.256  20.535  24.800  1.00  0.00    -0.250 OA
BRANCH   7   9
ATOM      9  C   UNL A   1      35.218  21.910  24.851  1.00  0.00     0.196 C 
BRANCH   9  10
ATOM     10  N   UNL A   1      34.770  22.294  23.486  1.00  0.00    -0.341 N 
ATOM     11  C   UNL A   1      34.159  23.402  22.964  1.00  0.00     0.243 C 
ATOM     12  O   UNL A   1      33.673  23.266  21.833  1.00  0.00    -0.273 OA
ATOM     13  H   UNL A   1      34.953  21.600  22.811  1.00  0.00     0.164 HD
BRANCH  11  14
ATOM     14  C   UNL A   1      34.154  24.801  23.642  1.00  0.00     0.178 C 
ATOM     15  N   UNL A   1      32.772  25.274  23.893  1.00  0.00    -0.296 N 
ATOM     16  C   UNL A   1      32.402  25.135  25.285  1.00  0.00     0.124 C 
ATOM     17  C   UNL A   1      33.725  25.376  25.988  1.00  0.00     0.024 C 
ATOM     18  C   UNL A   1      34.740  24.684  25.072  1.00  0.00     0.037 C 
BRANCH  15  19
ATOM     19  C   UNL A   1      32.051  25.966  22.950  1.00  0.00     0.410 C 
ATOM     20  O   UNL A   1      32.355  25.918  21.767  1.00  0.00    -0.224 OA
BRANCH  19  21
ATOM     21  O   UNL A   1      31.003  26.659  23.474  1.00  0.00    -0.444 OA
BRANCH  21  22
ATOM     22  C   UNL A   1      30.958  28.116  23.639  1.00  0.00     0.106 C 
ATOM     23  C   UNL A   1      32.087  28.692  22.775  1.00  0.00     0.056 C 
ATOM     24  C   UNL A   1      31.294  28.438  25.098  1.00  0.00     0.056 C 
ATOM     25  C   UNL A   1      29.642  28.806  23.269  1.00  0.00     0.056 C 
ENDBRANCH  21  22
ENDBRANCH  19  21
ENDBRANCH  15  19
ENDBRANCH  11  14
ENDBRANCH   9  10
BRANCH   9  26
ATOM     26  C   UNL A   1      34.311  20.779  25.392  1.00  0.00     0.072 C 
BRANCH  26  27
ATOM     27  C   UNL A   1      33.974  19.553  24.553  1.00  0.00    -0.045 A 
ATOM     28  C   UNL A   1      32.791  19.612  23.793  1.00  0.00     0.004 A 
ATOM     29  C   UNL A   1      34.714  18.363  24.496  1.00  0.00     0.004 A 
ATOM     30  C   UNL A   1      32.340  18.511  23.059  1.00  0.00     0.000 A 
ATOM     31  C   UNL A   1      34.256  17.254  23.775  1.00  0.00     0.000 A 
ATOM     32  C   UNL A   1      33.064  17.324  23.067  1.00  0.00     0.000 A 
ENDBRANCH  26  27
ENDBRANCH   9  26
ENDBRANCH   7   9
ENDBRANCH   6   7
ENDBRANCH   5   6
ENDBRANCH   4   5
ENDBRANCH   3   4
ENDBRANCH   2   3
ENDBRANCH   1   2
BRANCH   1  33
ATOM     33  O   UNL A   1      40.239  27.319  29.115  1.00  0.00    -0.377 OA
BRANCH  33  34
ATOM     34  C   UNL A   1      40.574  28.333  28.180  1.00  0.00     0.188 C 
BRANCH  34  35
ATOM     35  C   UNL A   1      39.476  29.374  27.917  1.00  0.00     0.188 C 
BRANCH  35  36
ATOM     36  O   UNL A   1      38.599  29.651  28.995  1.00  0.00    -0.376 OA
BRANCH  36  37
ATOM     37  C   UNL A   1      37.211  29.868  28.772  1.00  0.00     0.202 C 
BRANCH  37  38
ATOM     38  C   UNL A   1      36.191  29.694  29.908  1.00  0.00     0.261 C 
BRANCH  38  39
ATOM     39  O   UNL A   1      36.560  30.280  31.161  1.00  0.00    -0.460 OA
BRANCH  39  40
ATOM     40  C   UNL A   1      35.965  31.435  31.515  1.00  0.00     0.338 C 
ATOM     41  O   UNL A   1      35.019  31.994  30.989  1.00  0.00    -0.246 OA
BRANCH  40  42
ATOM     42  C   UNL A   1      36.542  31.813  32.808  1.00  0.00     0.060 A 
ATOM     43  C   UNL A   1      36.117  33.000  33.420  1.00  0.00     0.016 A 
ATOM     44  C   UNL A   1      37.477  30.974  33.415  1.00  0.00     0.016 A 
ATOM     45  C   UNL A   1      36.646  33.366  34.647  1.00  0.00     0.010 A 
ATOM     46  C   UNL A   1      38.041  31.363  34.622  1.00  0.00     0.010 A 
ATOM     47  C   UNL A   1      37.651  32.576  35.215  1.00  0.00    -0.014 A 
BRANCH  47  48
ATOM     48  C   UNL A   1      38.487  33.153  36.279  1.00  0.00     0.031 A 
ATOM     49  C   UNL A   1      39.707  33.914  35.853  1.00  0.00     0.074 A 
ATOM     50  C   UNL A   1      38.158  32.991  37.570  1.00  0.00     0.049 A 
ATOM     51  N   UNL A   1      40.654  34.432  36.584  1.00  0.00    -0.248 NA
ATOM     52  C   UNL A   1      39.890  34.109  34.402  1.00  0.00     0.031 C 
ATOM     53  C   UNL A   1      36.969  32.295  38.061  1.00  0.00     0.029 A 
ATOM     54  N   UNL A   1      38.812  33.387  38.705  1.00  0.00    -0.354 N 
ATOM     55  C   UNL A   1      41.555  34.990  35.685  1.00  0.00     0.074 A 
ATOM     56  C   UNL A   1      41.052  34.741  34.354  1.00  0.00     0.031 C 
ATOM     57  C   UNL A   1      36.997  32.282  39.405  1.00  0.00     0.029 A 
ATOM     58  C   UNL A   1      38.222  32.937  39.861  1.00  0.00     0.049 A 
ATOM     59  H   UNL A   1      39.628  33.939  38.694  1.00  0.00     0.167 HD
ATOM     60  C   UNL A   1      42.701  35.650  35.958  1.00  0.00     0.037 A 
ATOM     61  C   UNL A   1      38.655  33.018  41.133  1.00  0.00     0.037 A 
ATOM     62  C   UNL A   1      43.170  35.893  37.294  1.00  0.00     0.049 A 
ATOM     63  C   UNL A   1      39.956  33.730  41.405  1.00  0.00     0.074 A 
ATOM     64  C   UNL A   1      44.295  36.586  37.696  1.00  0.00     0.029 A 
ATOM     65  N   UNL A   1      42.541  35.438  38.445  1.00  0.00    -0.354 N 
ATOM     66  N   UNL A   1      40.783  34.295  40.553  1.00  0.00    -0.248 NA
ATOM     67  C   UNL A   1      40.383  33.824  42.806  1.00  0.00     0.031 C 
ATOM     68  C   UNL A   1      44.379  36.502  39.088  1.00  0.00     0.029 A 
ATOM     69  C   UNL A   1      43.271  35.810  39.558  1.00  0.00     0.049 A 
ATOM     70  H   UNL A   1      41.701  34.925  38.465  1.00  0.00     0.167 HD
ATOM     71  C   UNL A   1      41.809  34.836  41.320  1.00  0.00     0.074 A 
ATOM     72  C   UNL A   1      41.491  34.544  42.702  1.00  0.00     0.031 C 
ATOM     73  C   UNL A   1      42.915  35.514  40.923  1.00  0.00     0.037 A 
BRANCH  60  74
ATOM     74  C   UNL A   1      43.538  36.123  34.805  1.00  0.00     0.058 A 
ATOM     75  C   UNL A   1      44.539  35.323  34.235  1.00  0.00     0.135 A 
ATOM     76  C   UNL A   1      43.284  37.374  34.220  1.00  0.00     0.135 A 
ATOM     77  F   UNL A   1      44.844  34.132  34.774  1.00  0.00    -0.206 F 
ATOM     78  C   UNL A   1      45.258  35.745  33.121  1.00  0.00     0.059 A 
ATOM     79  C   UNL A   1      43.972  37.806  33.091  1.00  0.00     0.059 A 
ATOM     80  F   UNL A   1      42.350  38.185  34.739  1.00  0.00    -0.206 F 
ATOM     81  C   UNL A   1      44.958  36.983  32.549  1.00  0.00     0.060 A 
BRANCH  81  82
ATOM     82  S   UNL A   1      45.853  37.486  31.064  1.00  0.00     0.124 S 
ATOM     83  O   UNL A   1      47.076  38.042  31.633  1.00  0.00    -0.237 OA
ATOM     84  O   UNL A   1      46.003  36.220  30.352  1.00  0.00    -0.237 OA
ATOM     85  O   UNL A   1      44.957  38.452  30.436  1.00  0.00    -0.744 OA
ENDBRANCH  81  82
ENDBRANCH  60  74
BRANCH  61  86
ATOM     86  C   UNL A   1      37.881  32.382  42.231  1.00  0.00     0.058 A 
ATOM     87  C   UNL A   1      36.850  33.068  42.890  1.00  0.00     0.135 A 
ATOM     88  C   UNL A   1      38.173  31.078  42.661  1.00  0.00     0.135 A 
ATOM     89  F   UNL A   1      36.532  34.318  42.519  1.00  0.00    -0.206 F 
ATOM     90  C   UNL A   1      36.159  32.499  43.956  1.00  0.00     0.059 A 
ATOM     91  C   UNL A   1      37.478  30.475  43.704  1.00  0.00     0.059 A 
ATOM     92  F   UNL A   1      39.138  30.368  42.054  1.00  0.00    -0.206 F 
ATOM     93  C   UNL A   1      36.484  31.202  44.357  1.00  0.00     0.060 A 
BRANCH  93  94
ATOM     94  S   UNL A   1      35.574  30.465  45.732  1.00  0.00     0.124 S 
ATOM     95  O   UNL A   1      36.452  29.364  46.108  1.00  0.00    -0.237 OA
ATOM     96  O   UNL A   1      35.498  31.575  46.678  1.00  0.00    -0.237 OA
ATOM     97  O   UNL A   1      34.303  30.082  45.125  1.00  0.00    -0.744 OA
ENDBRANCH  93  94
ENDBRANCH  61  86
BRANCH  73  98
ATOM     98  C   UNL A   1      43.833  36.028  41.995  1.00  0.00     0.058 A 
ATOM     99  C   UNL A   1      44.933  35.283  42.448  1.00  0.00     0.135 A 
ATOM    100  C   UNL A   1      43.644  37.313  42.530  1.00  0.00     0.135 A 
ATOM    101  F   UNL A   1      45.155  34.048  41.970  1.00  0.00    -0.206 F 
ATOM    102  C   UNL A   1      45.798  35.784  43.413  1.00  0.00     0.059 A 
ATOM    103  C   UNL A   1      44.516  37.847  43.470  1.00  0.00     0.059 A 
ATOM    104  F   UNL A   1      42.615  38.072  42.118  1.00  0.00    -0.206 F 
ATOM    105  C   UNL A   1      45.583  37.069  43.916  1.00  0.00     0.060 A 
BRANCH 105 106
ATOM    106  S   UNL A   1      46.732  37.718  45.146  1.00  0.00     0.124 S 
ATOM    107  O   UNL A   1      45.854  37.914  46.294  1.00  0.00    -0.237 OA
ATOM    108  O   UNL A   1      47.703  36.636  45.267  1.00  0.00    -0.237 OA
ATOM    109  O   UNL A   1      47.238  38.940  44.527  1.00  0.00    -0.744 OA
ENDBRANCH 105 106
ENDBRANCH  73  98
ENDBRANCH  47  48
ENDBRANCH  40  42
ENDBRANCH  39  40
ENDBRANCH  38  39
ENDBRANCH  37  38
ENDBRANCH  36  37
ENDBRANCH  35  36
ENDBRANCH  34  35
ENDBRANCH  33  34
ENDBRANCH   1  33
TORSDOF 30
ENDMDL
MODEL 3
REMARK VINA RESULT:      -7.9      1.437      7.872
REMARK SMILES CC(C)(C)OC(=O)N1CCC[C@H]1C(=O)N[C@@H](Cc1ccccc1)C(=O)OCCOCCOCCOCCOC(=O)c1ccc(-c2c3nc(c(-c4c(F)cc(S(=O)(=O)[O-])cc4F)c4ccc([nH]4)c(-c4c(F)cc(S(=O)(=O)[O-])cc4F)c4nc(c(-c5c(F)cc(S(=O)(=O)[O-])cc5F)c5ccc2[nH]5)C=C4)C=C3)cc1
REMARK SMILES IDX 31 1 30 2 29 3 28 4 27 5 26 6 24 7 25 8 16 9 15 10 13 11
REMARK SMILES IDX 14 12 12 14 8 15 9 16 10 17 11 18 6 19 7 20 5 21 2 22 1 23
REMARK SMILES IDX 3 24 4 25 17 26 18 27 19 28 23 29 20 30 22 31 21 32 32 33
REMARK SMILES IDX 33 34 34 35 35 36 36 37 37 38 38 39 39 40 40 41 41 42 42 43
REMARK SMILES IDX 106 44 43 45 105 46 44 47 45 48 46 49 99 50 47 51 104 52
REMARK SMILES IDX 98 53 100 54 48 55 103 56 97 57 96 58 49 60 83 61 62 62
REMARK SMILES IDX 82 63 63 64 66 65 81 66 101 67 64 68 65 69 80 71 102 72
REMARK SMILES IDX 67 73 50 74 51 75 60 76 52 77 53 78 59 79 61 80 54 81 55 82
REMARK SMILES IDX 56 83 57 84 58 85 84 86 85 87 94 88 86 89 87 90 93 91 95 92
REMARK SMILES IDX 88 93 89 94 90 95 91 96 92 97 68 98 69 99 78 100 70 101
REMARK SMILES IDX 71 102 77 103 79 104 72 105 73 106 74 107 75 108 76 109
REMARK H PARENT 15 13 100 59 66 70
REMARK Flexibility Score: inf
ROOT
ATOM      1  C   UNL A   1      42.954  24.099  28.179  1.00  0.00     0.188 C 
ENDROOT
BRANCH   1   2
ATOM      2  C   UNL A   1      41.891  23.050  28.348  1.00  0.00     0.188 C 
BRANCH   2   3
ATOM      3  O   UNL A   1      40.571  23.334  27.918  1.00  0.00    -0.376 OA
BRANCH   3   4
ATOM      4  C   UNL A   1      40.294  22.856  26.591  1.00  0.00     0.202 C 
BRANCH   4   5
ATOM      5  C   UNL A   1      39.096  21.891  26.342  1.00  0.00     0.261 C 
BRANCH   5   6
ATOM      6  O   UNL A   1      38.204  22.298  25.271  1.00  0.00    -0.462 OA
BRANCH   6   7
ATOM      7  C   UNL A   1      36.981  22.814  25.587  1.00  0.00     0.329 C 
ATOM      8  O   UNL A   1      36.815  23.673  26.448  1.00  0.00    -0.250 OA
BRANCH   7   9
ATOM      9  C   UNL A   1      35.783  22.178  24.789  1.00  0.00     0.196 C 
BRANCH   9  10
ATOM     10  N   UNL A   1      35.311  22.686  23.474  1.00  0.00    -0.341 N 
ATOM     11  C   UNL A   1      34.157  23.288  23.047  1.00  0.00     0.243 C 
ATOM     12  O   UNL A   1      33.989  23.320  21.820  1.00  0.00    -0.273 OA
ATOM     13  H   UNL A   1      35.971  22.563  22.754  1.00  0.00     0.164 HD
BRANCH  11  14
ATOM     14  C   UNL A   1      33.149  24.013  23.982  1.00  0.00     0.178 C 
ATOM     15  N   UNL A   1      32.709  25.304  23.404  1.00  0.00    -0.296 N 
ATOM     16  C   UNL A   1      31.378  25.215  22.842  1.00  0.00     0.124 C 
ATOM     17  C   UNL A   1      30.714  24.211  23.766  1.00  0.00     0.024 C 
ATOM     18  C   UNL A   1      31.831  23.202  24.049  1.00  0.00     0.037 C 
BRANCH  15  19
ATOM     19  C   UNL A   1      33.404  26.473  23.603  1.00  0.00     0.410 C 
ATOM     20  O   UNL A   1      33.815  27.128  22.655  1.00  0.00    -0.224 OA
BRANCH  19  21
ATOM     21  O   UNL A   1      33.554  26.794  24.916  1.00  0.00    -0.444 OA
BRANCH  21  22
ATOM     22  C   UNL A   1      32.583  27.552  25.712  1.00  0.00     0.106 C 
ATOM     23  C   UNL A   1      33.393  28.453  26.653  1.00  0.00     0.056 C 
ATOM     24  C   UNL A   1      31.810  26.561  26.588  1.00  0.00     0.056 C 
ATOM     25  C   UNL A   1      31.582  28.412  24.935  1.00  0.00     0.056 C 
ENDBRANCH  21  22
ENDBRANCH  19  21
ENDBRANCH  15  19
ENDBRANCH  11  14
ENDBRANCH   9  10
BRANCH   9  26
ATOM     26  C   UNL A   1      36.024  20.653  24.696  1.00  0.00     0.072 C 
BRANCH  26  27
ATOM     27  C   UNL A   1      34.872  19.657  24.740  1.00  0.00    -0.045 A 
ATOM     28  C   UNL A   1      33.606  20.168  25.076  1.00  0.00     0.004 A 
ATOM     29  C   UNL A   1      34.967  18.276  24.509  1.00  0.00     0.004 A 
ATOM     30  C   UNL A   1      32.499  19.328  25.233  1.00  0.00     0.000 A 
ATOM     31  C   UNL A   1      33.863  17.431  24.681  1.00  0.00     0.000 A 
ATOM     32  C   UNL A   1      32.634  17.955  25.054  1.00  0.00     0.000 A 
ENDBRANCH  26  27
ENDBRANCH   9  26
ENDBRANCH   7   9
ENDBRANCH   6   7
ENDBRANCH   5   6
ENDBRANCH   4   5
ENDBRANCH   3   4
ENDBRANCH   2   3
ENDBRANCH   1   2
BRANCH   1  33
ATOM     33  O   UNL A   1      42.397  25.361  27.817  1.00  0.00    -0.377 OA
BRANCH  33  34
ATOM     34  C   UNL A   1      43.324  26.320  27.331  1.00  0.00     0.188 C 
BRANCH  34  35
ATOM     35  C   UNL A   1      42.707  27.632  26.825  1.00  0.00     0.188 C 
BRANCH  35  36
ATOM     36  O   UNL A   1      41.331  27.595  26.492  1.00  0.00    -0.376 OA
BRANCH  36  37
ATOM     37  C   UNL A   1      40.507  28.744  26.652  1.00  0.00     0.202 C 
BRANCH  37  38
ATOM     38  C   UNL A   1      39.832  29.050  27.998  1.00  0.00     0.261 C 
BRANCH  38  39
ATOM     39  O   UNL A   1      40.441  30.090  28.770  1.00  0.00    -0.460 OA
BRANCH  39  40
ATOM     40  C   UNL A   1      40.063  30.224  30.055  1.00  0.00     0.338 C 
ATOM     41  O   UNL A   1      39.440  29.440  30.749  1.00  0.00    -0.246 OA
BRANCH  40  42
ATOM     42  C   UNL A   1      40.729  31.430  30.554  1.00  0.00     0.060 A 
ATOM     43  C   UNL A   1      42.101  31.381  30.836  1.00  0.00     0.016 A 
ATOM     44  C   UNL A   1      39.995  32.606  30.710  1.00  0.00     0.016 A 
ATOM     45  C   UNL A   1      42.747  32.516  31.299  1.00  0.00     0.010 A 
ATOM     46  C   UNL A   1      40.631  33.730  31.218  1.00  0.00     0.010 A 
ATOM     47  C   UNL A   1      41.996  33.669  31.546  1.00  0.00    -0.014 A 
BRANCH  47  48
ATOM     48  C   UNL A   1      42.574  34.719  32.400  1.00  0.00     0.031 A 
ATOM     49  C   UNL A   1      42.461  34.531  33.884  1.00  0.00     0.074 A 
ATOM     50  C   UNL A   1      43.169  35.793  31.857  1.00  0.00     0.049 A 
ATOM     51  N   UNL A   1      42.794  35.344  34.847  1.00  0.00    -0.248 NA
ATOM     52  C   UNL A   1      41.882  33.255  34.346  1.00  0.00     0.031 C 
ATOM     53  C   UNL A   1      43.348  36.028  30.424  1.00  0.00     0.029 A 
ATOM     54  N   UNL A   1      43.713  36.898  32.453  1.00  0.00    -0.354 N 
ATOM     55  C   UNL A   1      42.444  34.692  36.022  1.00  0.00     0.074 A 
ATOM     56  C   UNL A   1      41.862  33.421  35.658  1.00  0.00     0.031 C 
ATOM     57  C   UNL A   1      43.932  37.226  30.251  1.00  0.00     0.029 A 
ATOM     58  C   UNL A   1      44.131  37.851  31.557  1.00  0.00     0.049 A 
ATOM     59  H   UNL A   1      43.794  37.000  33.429  1.00  0.00     0.167 HD
ATOM     60  C   UNL A   1      42.598  35.126  37.292  1.00  0.00     0.037 A 
ATOM     61  C   UNL A   1      44.584  39.099  31.782  1.00  0.00     0.037 A 
ATOM     62  C   UNL A   1      43.191  36.392  37.624  1.00  0.00     0.049 A 
ATOM     63  C   UNL A   1      44.713  39.571  33.209  1.00  0.00     0.074 A 
ATOM     64  C   UNL A   1      43.439  36.922  38.875  1.00  0.00     0.029 A 
ATOM     65  N   UNL A   1      43.620  37.329  36.694  1.00  0.00    -0.354 N 
ATOM     66  N   UNL A   1      44.421  38.931  34.320  1.00  0.00    -0.248 NA
ATOM     67  C   UNL A   1      45.236  40.925  33.417  1.00  0.00     0.031 C 
ATOM     68  C   UNL A   1      43.964  38.205  38.703  1.00  0.00     0.029 A 
ATOM     69  C   UNL A   1      44.104  38.449  37.344  1.00  0.00     0.049 A 
ATOM     70  H   UNL A   1      43.584  37.214  35.717  1.00  0.00     0.167 HD
ATOM     71  C   UNL A   1      44.755  39.796  35.356  1.00  0.00     0.074 A 
ATOM     72  C   UNL A   1      45.283  40.996  34.740  1.00  0.00     0.031 C 
ATOM     73  C   UNL A   1      44.638  39.620  36.696  1.00  0.00     0.037 A 
BRANCH  60  74
ATOM     74  C   UNL A   1      42.094  34.254  38.405  1.00  0.00     0.058 A 
ATOM     75  C   UNL A   1      42.882  33.241  38.972  1.00  0.00     0.135 A 
ATOM     76  C   UNL A   1      40.823  34.484  38.955  1.00  0.00     0.135 A 
ATOM     77  F   UNL A   1      44.092  32.959  38.463  1.00  0.00    -0.206 F 
ATOM     78  C   UNL A   1      42.429  32.489  40.051  1.00  0.00     0.059 A 
ATOM     79  C   UNL A   1      40.360  33.762  40.050  1.00  0.00     0.059 A 
ATOM     80  F   UNL A   1      40.023  35.428  38.437  1.00  0.00    -0.206 F 
ATOM     81  C   UNL A   1      41.171  32.766  40.591  1.00  0.00     0.060 A 
BRANCH  81  82
ATOM     82  S   UNL A   1      40.626  31.825  42.032  1.00  0.00     0.124 S 
ATOM     83  O   UNL A   1      40.628  32.851  43.070  1.00  0.00    -0.237 OA
ATOM     84  O   UNL A   1      39.311  31.351  41.612  1.00  0.00    -0.237 OA
ATOM     85  O   UNL A   1      41.647  30.792  42.170  1.00  0.00    -0.744 OA
ENDBRANCH  81  82
ENDBRANCH  60  74
BRANCH  61  86
ATOM     86  C   UNL A   1      44.909  39.996  30.642  1.00  0.00     0.058 A 
ATOM     87  C   UNL A   1      46.212  40.086  30.133  1.00  0.00     0.135 A 
ATOM     88  C   UNL A   1      43.922  40.802  30.052  1.00  0.00     0.135 A 
ATOM     89  F   UNL A   1      47.192  39.339  30.663  1.00  0.00    -0.206 F 
ATOM     90  C   UNL A   1      46.534  40.965  29.103  1.00  0.00     0.059 A 
ATOM     91  C   UNL A   1      44.211  41.667  29.002  1.00  0.00     0.059 A 
ATOM     92  F   UNL A   1      42.653  40.742  30.488  1.00  0.00    -0.206 F 
ATOM     93  C   UNL A   1      45.525  41.755  28.547  1.00  0.00     0.060 A 
BRANCH  93  94
ATOM     94  S   UNL A   1      45.948  42.883  27.202  1.00  0.00     0.124 S 
ATOM     95  O   UNL A   1      45.045  43.998  27.460  1.00  0.00    -0.237 OA
ATOM     96  O   UNL A   1      47.365  43.137  27.450  1.00  0.00    -0.237 OA
ATOM     97  O   UNL A   1      45.661  42.099  26.005  1.00  0.00    -0.744 OA
ENDBRANCH  93  94
ENDBRANCH  61  86
BRANCH  73  98
ATOM     98  C   UNL A   1      45.134  40.726  37.585  1.00  0.00     0.058 A 
ATOM     99  C   UNL A   1      44.330  41.826  37.918  1.00  0.00     0.135 A 
ATOM    100  C   UNL A   1      46.413  40.647  38.162  1.00  0.00     0.135 A 
ATOM    101  F   UNL A   1      43.101  41.948  37.390  1.00  0.00    -0.206 F 
ATOM    102  C   UNL A   1      44.785  42.823  38.771  1.00  0.00     0.059 A 
ATOM    103  C   UNL A   1      46.876  41.615  39.044  1.00  0.00     0.059 A 
ATOM    104  F   UNL A   1      47.216  39.606  37.887  1.00  0.00    -0.206 F 
ATOM    105  C   UNL A   1      46.059  42.707  39.332  1.00  0.00     0.060 A 
BRANCH 105 106
ATOM    106  S   UNL A   1      46.625  43.994  40.463  1.00  0.00     0.124 S 
ATOM    107  O   UNL A   1      45.603  43.942  41.503  1.00  0.00    -0.237 OA
ATOM    108  O   UNL A   1      47.948  43.512  40.847  1.00  0.00    -0.237 OA
ATOM    109  O   UNL A   1      46.619  45.199  39.637  1.00  0.00    -0.744 OA
ENDBRANCH 105 106
ENDBRANCH  73  98
ENDBRANCH  47  48
ENDBRANCH  40  42
ENDBRANCH  39  40
ENDBRANCH  38  39
ENDBRANCH  37  38
ENDBRANCH  36  37
ENDBRANCH  35  36
ENDBRANCH  34  35
ENDBRANCH  33  34
ENDBRANCH   1  33
TORSDOF 30
ENDMDL
