MODEL 1
REMARK VINA RESULT:      -7.5      0.000      0.000
REMARK SMILES O=C(CSc1ccnc(C(=O)OCCOCCOCCOCCOC(=O)c2ccc(-c3c4nc(c(-c5c(F)cc(S(=O)(=O)[O-])cc5F)c5ccc([nH]5)c(-c5c(F)cc(S(=O)(=O)[O-])cc5F)c5nc(c(-c6c(F)cc(S(=O)(=O)[O-])cc6F)c6ccc3[nH]6)C=C5)C=C4)cc2)c1)NCC(F)(F)F
REMARK SMILES IDX 17 1 16 2 15 3 14 4 13 5 12 6 10 7 11 8 9 9 5 10 6 11 93 12
REMARK SMILES IDX 7 13 8 14 4 15 3 16 2 17 1 18 94 19 95 21 96 22 97 23 98 24
REMARK SMILES IDX 99 25 18 26 19 27 20 28 21 29 22 30 23 31 24 32 25 33 26 34
REMARK SMILES IDX 27 35 28 36 92 37 29 38 91 39 30 40 31 41 32 42 85 43 33 44
REMARK SMILES IDX 90 45 84 46 86 47 34 48 89 49 83 50 82 51 35 53 69 54 48 55
REMARK SMILES IDX 68 56 49 57 52 58 67 59 87 60 50 61 51 62 66 64 88 65 53 66
REMARK SMILES IDX 36 67 37 68 46 69 38 70 39 71 45 72 47 73 40 74 41 75 42 76
REMARK SMILES IDX 43 77 44 78 70 79 71 80 80 81 72 82 73 83 79 84 81 85 74 86
REMARK SMILES IDX 75 87 76 88 77 89 78 90 54 91 55 92 64 93 56 94 57 95 63 96
REMARK SMILES IDX 65 97 58 98 59 99 60 100 61 101 62 102
REMARK H PARENT 94 20 86 52 52 63
REMARK Flexibility Score: inf
ROOT
ATOM      1  C   UNL A   1      40.626  23.016  26.736  1.00  0.00     0.188 C 
ENDROOT
BRANCH   1   2
ATOM      2  C   UNL A   1      39.530  23.877  27.401  1.00  0.00     0.188 C 
BRANCH   2   3
ATOM      3  O   UNL A   1      38.641  24.480  26.477  1.00  0.00    -0.376 OA
BRANCH   3   4
ATOM      4  C   UNL A   1      37.876  23.659  25.615  1.00  0.00     0.202 C 
BRANCH   4   5
ATOM      5  C   UNL A   1      36.537  23.096  26.114  1.00  0.00     0.261 C 
BRANCH   5   6
ATOM      6  O   UNL A   1      35.363  23.710  25.572  1.00  0.00    -0.459 OA
BRANCH   6   7
ATOM      7  C   UNL A   1      34.160  23.311  26.053  1.00  0.00     0.357 C 
ATOM      8  O   UNL A   1      33.929  22.936  27.190  1.00  0.00    -0.244 OA
BRANCH   7   9
ATOM      9  C   UNL A   1      33.146  23.607  24.992  1.00  0.00     0.149 A 
ATOM     10  C   UNL A   1      32.514  24.700  22.953  1.00  0.00     0.012 A 
ATOM     11  C   UNL A   1      31.192  24.352  23.241  1.00  0.00     0.035 A 
ATOM     12  C   UNL A   1      33.505  24.329  23.857  1.00  0.00     0.051 A 
ATOM     13  C   UNL A   1      30.922  23.631  24.393  1.00  0.00     0.113 A 
ATOM     14  N   UNL A   1      31.866  23.243  25.272  1.00  0.00    -0.249 NA
BRANCH  10  15
ATOM     15  S   UNL A   1      32.789  25.656  21.464  1.00  0.00    -0.116 SA
BRANCH  15  16
ATOM     16  C   UNL A   1      33.265  27.309  22.092  1.00  0.00     0.174 C 
BRANCH  16  17
ATOM     17  C   UNL A   1      32.234  27.876  23.054  1.00  0.00     0.230 C 
ATOM     18  O   UNL A   1      31.222  28.439  22.646  1.00  0.00    -0.274 OA
ATOM     19  N   UNL A   1      32.511  27.715  24.390  1.00  0.00    -0.346 N 
ATOM     20  H   UNL A   1      33.316  27.213  24.652  1.00  0.00     0.163 HD
BRANCH  19  21
ATOM     21  C   UNL A   1      31.646  28.267  25.435  1.00  0.00     0.231 C 
BRANCH  21  22
ATOM     22  C   UNL A   1      31.407  27.336  26.621  1.00  0.00     0.405 C 
ATOM     23  F   UNL A   1      31.234  28.060  27.755  1.00  0.00    -0.169 F 
ATOM     24  F   UNL A   1      30.284  26.608  26.435  1.00  0.00    -0.169 F 
ATOM     25  F   UNL A   1      32.437  26.492  26.825  1.00  0.00    -0.169 F 
ENDBRANCH  21  22
ENDBRANCH  19  21
ENDBRANCH  16  17
ENDBRANCH  15  16
ENDBRANCH  10  15
ENDBRANCH   7   9
ENDBRANCH   6   7
ENDBRANCH   5   6
ENDBRANCH   4   5
ENDBRANCH   3   4
ENDBRANCH   2   3
ENDBRANCH   1   2
BRANCH   1  26
ATOM     26  O   UNL A   1      41.946  23.047  27.262  1.00  0.00    -0.377 OA
BRANCH  26  27
ATOM     27  C   UNL A   1      43.050  22.677  26.434  1.00  0.00     0.188 C 
BRANCH  27  28
ATOM     28  C   UNL A   1      43.183  23.172  24.972  1.00  0.00     0.188 C 
BRANCH  28  29
ATOM     29  O   UNL A   1      43.864  22.279  24.106  1.00  0.00    -0.376 OA
BRANCH  29  30
ATOM     30  C   UNL A   1      45.194  21.929  24.439  1.00  0.00     0.202 C 
BRANCH  30  31
ATOM     31  C   UNL A   1      46.292  22.910  24.005  1.00  0.00     0.261 C 
BRANCH  31  32
ATOM     32  O   UNL A   1      46.041  24.299  24.266  1.00  0.00    -0.460 OA
BRANCH  32  33
ATOM     33  C   UNL A   1      47.075  25.037  24.728  1.00  0.00     0.338 C 
ATOM     34  O   UNL A   1      48.054  25.404  24.098  1.00  0.00    -0.246 OA
BRANCH  33  35
ATOM     35  C   UNL A   1      46.723  25.489  26.089  1.00  0.00     0.060 A 
ATOM     36  C   UNL A   1      47.010  26.806  26.473  1.00  0.00     0.016 A 
ATOM     37  C   UNL A   1      46.090  24.615  26.976  1.00  0.00     0.016 A 
ATOM     38  C   UNL A   1      46.692  27.242  27.760  1.00  0.00     0.010 A 
ATOM     39  C   UNL A   1      45.789  25.049  28.270  1.00  0.00     0.010 A 
ATOM     40  C   UNL A   1      46.118  26.354  28.679  1.00  0.00    -0.014 A 
BRANCH  40  41
ATOM     41  C   UNL A   1      46.037  26.720  30.114  1.00  0.00     0.031 A 
ATOM     42  C   UNL A   1      47.174  26.323  31.016  1.00  0.00     0.074 A 
ATOM     43  C   UNL A   1      44.986  27.397  30.608  1.00  0.00     0.049 A 
ATOM     44  N   UNL A   1      47.304  26.471  32.307  1.00  0.00    -0.248 NA
ATOM     45  C   UNL A   1      48.322  25.663  30.369  1.00  0.00     0.031 C 
ATOM     46  C   UNL A   1      43.843  27.871  29.829  1.00  0.00     0.029 A 
ATOM     47  N   UNL A   1      44.704  27.792  31.893  1.00  0.00    -0.354 N 
ATOM     48  C   UNL A   1      48.537  25.918  32.630  1.00  0.00     0.074 A 
ATOM     49  C   UNL A   1      49.105  25.402  31.404  1.00  0.00     0.031 C 
ATOM     50  C   UNL A   1      42.973  28.477  30.656  1.00  0.00     0.029 A 
ATOM     51  C   UNL A   1      43.480  28.404  32.027  1.00  0.00     0.049 A 
ATOM     52  H   UNL A   1      45.320  27.649  32.647  1.00  0.00     0.167 HD
ATOM     53  C   UNL A   1      49.147  25.855  33.838  1.00  0.00     0.037 A 
ATOM     54  C   UNL A   1      42.833  28.829  33.131  1.00  0.00     0.037 A 
ATOM     55  C   UNL A   1      48.572  26.368  35.055  1.00  0.00     0.049 A 
ATOM     56  C   UNL A   1      43.496  28.678  34.479  1.00  0.00     0.074 A 
ATOM     57  C   UNL A   1      49.117  26.370  36.326  1.00  0.00     0.029 A 
ATOM     58  N   UNL A   1      47.320  26.956  35.154  1.00  0.00    -0.354 N 
ATOM     59  N   UNL A   1      44.677  28.181  34.767  1.00  0.00    -0.248 NA
ATOM     60  C   UNL A   1      42.742  29.146  35.650  1.00  0.00     0.031 C 
ATOM     61  C   UNL A   1      48.169  26.903  37.205  1.00  0.00     0.029 A 
ATOM     62  C   UNL A   1      47.061  27.297  36.472  1.00  0.00     0.049 A 
ATOM     63  H   UNL A   1      46.707  27.110  34.400  1.00  0.00     0.167 HD
ATOM     64  C   UNL A   1      44.816  28.304  36.148  1.00  0.00     0.074 A 
ATOM     65  C   UNL A   1      43.606  28.934  36.633  1.00  0.00     0.031 C 
ATOM     66  C   UNL A   1      45.853  27.931  36.941  1.00  0.00     0.037 A 
BRANCH  53  67
ATOM     67  C   UNL A   1      50.488  25.179  33.909  1.00  0.00     0.058 A 
ATOM     68  C   UNL A   1      50.612  23.790  34.081  1.00  0.00     0.135 A 
ATOM     69  C   UNL A   1      51.669  25.926  33.772  1.00  0.00     0.135 A 
ATOM     70  F   UNL A   1      49.519  23.027  34.238  1.00  0.00    -0.206 F 
ATOM     71  C   UNL A   1      51.858  23.173  34.141  1.00  0.00     0.059 A 
ATOM     72  C   UNL A   1      52.924  25.327  33.797  1.00  0.00     0.059 A 
ATOM     73  F   UNL A   1      51.610  27.258  33.609  1.00  0.00    -0.206 F 
ATOM     74  C   UNL A   1      53.008  23.950  33.997  1.00  0.00     0.060 A 
BRANCH  74  75
ATOM     75  S   UNL A   1      54.615  23.131  34.071  1.00  0.00     0.124 S 
ATOM     76  O   UNL A   1      55.416  23.979  33.193  1.00  0.00    -0.237 OA
ATOM     77  O   UNL A   1      54.938  23.206  35.492  1.00  0.00    -0.237 OA
ATOM     78  O   UNL A   1      54.337  21.790  33.564  1.00  0.00    -0.744 OA
ENDBRANCH  74  75
ENDBRANCH  53  67
BRANCH  54  79
ATOM     79  C   UNL A   1      41.475  29.428  33.017  1.00  0.00     0.058 A 
ATOM     80  C   UNL A   1      40.322  28.634  33.103  1.00  0.00     0.135 A 
ATOM     81  C   UNL A   1      41.302  30.807  32.811  1.00  0.00     0.135 A 
ATOM     82  F   UNL A   1      40.432  27.309  33.283  1.00  0.00    -0.206 F 
ATOM     83  C   UNL A   1      39.048  29.180  32.976  1.00  0.00     0.059 A 
ATOM     84  C   UNL A   1      40.038  31.381  32.712  1.00  0.00     0.059 A 
ATOM     85  F   UNL A   1      42.372  31.612  32.724  1.00  0.00    -0.206 F 
ATOM     86  C   UNL A   1      38.917  30.557  32.786  1.00  0.00     0.060 A 
BRANCH  86  87
ATOM     87  S   UNL A   1      37.255  31.258  32.669  1.00  0.00     0.124 S 
ATOM     88  O   UNL A   1      37.120  31.914  33.965  1.00  0.00    -0.237 OA
ATOM     89  O   UNL A   1      37.380  32.144  31.516  1.00  0.00    -0.237 OA
ATOM     90  O   UNL A   1      36.408  30.087  32.464  1.00  0.00    -0.744 OA
ENDBRANCH  86  87
ENDBRANCH  54  79
BRANCH  66  91
ATOM     91  C   UNL A   1      45.748  28.225  38.415  1.00  0.00     0.058 A 
ATOM     92  C   UNL A   1      45.317  27.258  39.336  1.00  0.00     0.135 A 
ATOM     93  C   UNL A   1      46.146  29.474  38.920  1.00  0.00     0.135 A 
ATOM     94  F   UNL A   1      44.919  26.048  38.910  1.00  0.00    -0.206 F 
ATOM     95  C   UNL A   1      45.263  27.525  40.700  1.00  0.00     0.059 A 
ATOM     96  C   UNL A   1      46.132  29.753  40.283  1.00  0.00     0.059 A 
ATOM     97  F   UNL A   1      46.579  30.434  38.086  1.00  0.00    -0.206 F 
ATOM     98  C   UNL A   1      45.677  28.775  41.165  1.00  0.00     0.060 A 
BRANCH  98  99
ATOM     99  S   UNL A   1      45.639  29.093  42.942  1.00  0.00     0.124 S 
ATOM    100  O   UNL A   1      44.204  29.125  43.205  1.00  0.00    -0.237 OA
ATOM    101  O   UNL A   1      46.357  27.943  43.480  1.00  0.00    -0.237 OA
ATOM    102  O   UNL A   1      46.329  30.374  43.075  1.00  0.00    -0.744 OA
ENDBRANCH  98  99
ENDBRANCH  66  91
ENDBRANCH  40  41
ENDBRANCH  33  35
ENDBRANCH  32  33
ENDBRANCH  31  32
ENDBRANCH  30  31
ENDBRANCH  29  30
ENDBRANCH  28  29
ENDBRANCH  27  28
ENDBRANCH  26  27
ENDBRANCH   1  26
TORSDOF 28
ENDMDL
MODEL 2
REMARK VINA RESULT:      -7.5      3.459      4.411
REMARK SMILES O=C(CSc1ccnc(C(=O)OCCOCCOCCOCCOC(=O)c2ccc(-c3c4nc(c(-c5c(F)cc(S(=O)(=O)[O-])cc5F)c5ccc([nH]5)c(-c5c(F)cc(S(=O)(=O)[O-])cc5F)c5nc(c(-c6c(F)cc(S(=O)(=O)[O-])cc6F)c6ccc3[nH]6)C=C5)C=C4)cc2)c1)NCC(F)(F)F
REMARK SMILES IDX 17 1 16 2 15 3 14 4 13 5 12 6 10 7 11 8 9 9 5 10 6 11 93 12
REMARK SMILES IDX 7 13 8 14 4 15 3 16 2 17 1 18 94 19 95 21 96 22 97 23 98 24
REMARK SMILES IDX 99 25 18 26 19 27 20 28 21 29 22 30 23 31 24 32 25 33 26 34
REMARK SMILES IDX 27 35 28 36 92 37 29 38 91 39 30 40 31 41 32 42 85 43 33 44
REMARK SMILES IDX 90 45 84 46 86 47 34 48 89 49 83 50 82 51 35 53 69 54 48 55
REMARK SMILES IDX 68 56 49 57 52 58 67 59 87 60 50 61 51 62 66 64 88 65 53 66
REMARK SMILES IDX 36 67 37 68 46 69 38 70 39 71 45 72 47 73 40 74 41 75 42 76
REMARK SMILES IDX 43 77 44 78 70 79 71 80 80 81 72 82 73 83 79 84 81 85 74 86
REMARK SMILES IDX 75 87 76 88 77 89 78 90 54 91 55 92 64 93 56 94 57 95 63 96
REMARK SMILES IDX 65 97 58 98 59 99 60 100 61 101 62 102
REMARK H PARENT 94 20 86 52 52 63
REMARK Flexibility Score: inf
ROOT
ATOM      1  C   UNL A   1      40.432  22.956  26.733  1.00  0.00     0.188 C 
ENDROOT
BRANCH   1   2
ATOM      2  C   UNL A   1      39.211  23.787  27.181  1.00  0.00     0.188 C 
BRANCH   2   3
ATOM      3  O   UNL A   1      38.298  24.067  26.134  1.00  0.00    -0.376 OA
BRANCH   3   4
ATOM      4  C   UNL A   1      37.737  22.996  25.397  1.00  0.00     0.202 C 
BRANCH   4   5
ATOM      5  C   UNL A   1      36.474  22.307  25.931  1.00  0.00     0.261 C 
BRANCH   5   6
ATOM      6  O   UNL A   1      35.516  23.163  26.563  1.00  0.00    -0.459 OA
BRANCH   6   7
ATOM      7  C   UNL A   1      34.407  22.591  27.093  1.00  0.00     0.357 C 
ATOM      8  O   UNL A   1      34.384  21.728  27.953  1.00  0.00    -0.244 OA
BRANCH   7   9
ATOM      9  C   UNL A   1      33.230  23.356  26.571  1.00  0.00     0.149 A 
ATOM     10  C   UNL A   1      32.312  25.099  25.204  1.00  0.00     0.012 A 
ATOM     11  C   UNL A   1      31.097  24.904  25.868  1.00  0.00     0.035 A 
ATOM     12  C   UNL A   1      33.400  24.315  25.576  1.00  0.00     0.051 A 
ATOM     13  C   UNL A   1      31.016  23.926  26.846  1.00  0.00     0.113 A 
ATOM     14  N   UNL A   1      32.049  23.141  27.208  1.00  0.00    -0.249 NA
BRANCH  10  15
ATOM     15  S   UNL A   1      32.356  26.398  23.973  1.00  0.00    -0.116 SA
BRANCH  15  16
ATOM     16  C   UNL A   1      31.855  25.549  22.429  1.00  0.00     0.174 C 
BRANCH  16  17
ATOM     17  C   UNL A   1      32.513  24.187  22.285  1.00  0.00     0.230 C 
ATOM     18  O   UNL A   1      33.698  24.079  21.983  1.00  0.00    -0.274 OA
ATOM     19  N   UNL A   1      31.700  23.103  22.512  1.00  0.00    -0.346 N 
ATOM     20  H   UNL A   1      30.770  23.257  22.798  1.00  0.00     0.163 HD
BRANCH  19  21
ATOM     21  C   UNL A   1      32.173  21.727  22.345  1.00  0.00     0.231 C 
BRANCH  21  22
ATOM     22  C   UNL A   1      32.530  21.014  23.647  1.00  0.00     0.405 C 
ATOM     23  F   UNL A   1      33.779  21.366  24.043  1.00  0.00    -0.169 F 
ATOM     24  F   UNL A   1      31.680  21.371  24.634  1.00  0.00    -0.169 F 
ATOM     25  F   UNL A   1      32.501  19.673  23.521  1.00  0.00    -0.169 F 
ENDBRANCH  21  22
ENDBRANCH  19  21
ENDBRANCH  16  17
ENDBRANCH  15  16
ENDBRANCH  10  15
ENDBRANCH   7   9
ENDBRANCH   6   7
ENDBRANCH   5   6
ENDBRANCH   4   5
ENDBRANCH   3   4
ENDBRANCH   2   3
ENDBRANCH   1   2
BRANCH   1  26
ATOM     26  O   UNL A   1      41.710  23.249  27.283  1.00  0.00    -0.377 OA
BRANCH  26  27
ATOM     27  C   UNL A   1      42.892  22.869  26.577  1.00  0.00     0.188 C 
BRANCH  27  28
ATOM     28  C   UNL A   1      43.028  23.050  25.045  1.00  0.00     0.188 C 
BRANCH  28  29
ATOM     29  O   UNL A   1      43.793  22.048  24.397  1.00  0.00    -0.376 OA
BRANCH  29  30
ATOM     30  C   UNL A   1      45.131  21.867  24.820  1.00  0.00     0.202 C 
BRANCH  30  31
ATOM     31  C   UNL A   1      46.154  22.901  24.329  1.00  0.00     0.261 C 
BRANCH  31  32
ATOM     32  O   UNL A   1      45.731  24.272  24.353  1.00  0.00    -0.460 OA
BRANCH  32  33
ATOM     33  C   UNL A   1      46.641  25.191  24.744  1.00  0.00     0.338 C 
ATOM     34  O   UNL A   1      47.727  25.413  24.232  1.00  0.00    -0.246 OA
BRANCH  33  35
ATOM     35  C   UNL A   1      46.012  26.019  25.792  1.00  0.00     0.060 A 
ATOM     36  C   UNL A   1      46.056  27.416  25.685  1.00  0.00     0.016 A 
ATOM     37  C   UNL A   1      45.362  25.412  26.869  1.00  0.00     0.016 A 
ATOM     38  C   UNL A   1      45.473  28.210  26.674  1.00  0.00     0.010 A 
ATOM     39  C   UNL A   1      44.796  26.209  27.868  1.00  0.00     0.010 A 
ATOM     40  C   UNL A   1      44.878  27.612  27.792  1.00  0.00    -0.014 A 
BRANCH  40  41
ATOM     41  C   UNL A   1      44.512  28.436  28.969  1.00  0.00     0.031 A 
ATOM     42  C   UNL A   1      45.515  28.573  30.083  1.00  0.00     0.074 A 
ATOM     43  C   UNL A   1      43.323  29.060  29.049  1.00  0.00     0.049 A 
ATOM     44  N   UNL A   1      45.404  29.182  31.233  1.00  0.00    -0.248 NA
ATOM     45  C   UNL A   1      46.823  27.929  29.867  1.00  0.00     0.031 C 
ATOM     46  C   UNL A   1      42.285  29.036  28.020  1.00  0.00     0.029 A 
ATOM     47  N   UNL A   1      42.783  29.825  30.053  1.00  0.00    -0.354 N 
ATOM     48  C   UNL A   1      46.618  28.988  31.883  1.00  0.00     0.074 A 
ATOM     49  C   UNL A   1      47.441  28.178  31.011  1.00  0.00     0.031 C 
ATOM     50  C   UNL A   1      41.225  29.739  28.454  1.00  0.00     0.029 A 
ATOM     51  C   UNL A   1      41.495  30.234  29.804  1.00  0.00     0.049 A 
ATOM     52  H   UNL A   1      43.273  30.059  30.874  1.00  0.00     0.167 HD
ATOM     53  C   UNL A   1      47.015  29.452  33.091  1.00  0.00     0.037 A 
ATOM     54  C   UNL A   1      40.625  30.904  30.587  1.00  0.00     0.037 A 
ATOM     55  C   UNL A   1      46.188  30.255  33.954  1.00  0.00     0.049 A 
ATOM     56  C   UNL A   1      41.061  31.344  31.964  1.00  0.00     0.074 A 
ATOM     57  C   UNL A   1      46.503  30.791  35.190  1.00  0.00     0.029 A 
ATOM     58  N   UNL A   1      44.879  30.625  33.679  1.00  0.00    -0.354 N 
ATOM     59  N   UNL A   1      42.222  31.182  32.555  1.00  0.00    -0.248 NA
ATOM     60  C   UNL A   1      40.069  32.060  32.780  1.00  0.00     0.031 C 
ATOM     61  C   UNL A   1      45.365  31.432  35.689  1.00  0.00     0.029 A 
ATOM     62  C   UNL A   1      44.362  31.356  34.736  1.00  0.00     0.049 A 
ATOM     63  H   UNL A   1      44.391  30.402  32.854  1.00  0.00     0.167 HD
ATOM     64  C   UNL A   1      42.109  31.800  33.798  1.00  0.00     0.074 A 
ATOM     65  C   UNL A   1      40.771  32.350  33.868  1.00  0.00     0.031 C 
ATOM     66  C   UNL A   1      43.029  31.905  34.790  1.00  0.00     0.037 A 
BRANCH  53  67
ATOM     67  C   UNL A   1      48.391  29.075  33.566  1.00  0.00     0.058 A 
ATOM     68  C   UNL A   1      48.627  27.907  34.309  1.00  0.00     0.135 A 
ATOM     69  C   UNL A   1      49.498  29.879  33.248  1.00  0.00     0.135 A 
ATOM     70  F   UNL A   1      47.605  27.110  34.660  1.00  0.00    -0.206 F 
ATOM     71  C   UNL A   1      49.904  27.564  34.741  1.00  0.00     0.059 A 
ATOM     72  C   UNL A   1      50.788  29.540  33.642  1.00  0.00     0.059 A 
ATOM     73  F   UNL A   1      49.330  31.011  32.544  1.00  0.00    -0.206 F 
ATOM     74  C   UNL A   1      50.979  28.387  34.401  1.00  0.00     0.060 A 
BRANCH  74  75
ATOM     75  S   UNL A   1      52.630  27.923  34.964  1.00  0.00     0.124 S 
ATOM     76  O   UNL A   1      53.333  27.752  33.697  1.00  0.00    -0.237 OA
ATOM     77  O   UNL A   1      53.026  29.082  35.758  1.00  0.00    -0.237 OA
ATOM     78  O   UNL A   1      52.399  26.697  35.722  1.00  0.00    -0.744 OA
ENDBRANCH  74  75
ENDBRANCH  53  67
BRANCH  54  79
ATOM     79  C   UNL A   1      39.248  31.192  30.099  1.00  0.00     0.058 A 
ATOM     80  C   UNL A   1      38.261  30.196  30.082  1.00  0.00     0.135 A 
ATOM     81  C   UNL A   1      38.894  32.468  29.631  1.00  0.00     0.135 A 
ATOM     82  F   UNL A   1      38.552  28.955  30.503  1.00  0.00    -0.206 F 
ATOM     83  C   UNL A   1      36.977  30.448  29.607  1.00  0.00     0.059 A 
ATOM     84  C   UNL A   1      37.608  32.753  29.181  1.00  0.00     0.059 A 
ATOM     85  F   UNL A   1      39.799  33.458  29.629  1.00  0.00    -0.206 F 
ATOM     86  C   UNL A   1      36.659  31.733  29.163  1.00  0.00     0.060 A 
BRANCH  86  87
ATOM     87  S   UNL A   1      34.975  32.057  28.593  1.00  0.00     0.124 S 
ATOM     88  O   UNL A   1      35.189  33.148  27.649  1.00  0.00    -0.237 OA
ATOM     89  O   UNL A   1      34.599  30.773  28.010  1.00  0.00    -0.237 OA
ATOM     90  O   UNL A   1      34.266  32.414  29.819  1.00  0.00    -0.744 OA
ENDBRANCH  86  87
ENDBRANCH  54  79
BRANCH  66  91
ATOM     91  C   UNL A   1      42.641  32.673  36.027  1.00  0.00     0.058 A 
ATOM     92  C   UNL A   1      42.154  32.032  37.176  1.00  0.00     0.135 A 
ATOM     93  C   UNL A   1      42.822  34.065  36.084  1.00  0.00     0.135 A 
ATOM     94  F   UNL A   1      41.957  30.703  37.178  1.00  0.00    -0.206 F 
ATOM     95  C   UNL A   1      41.838  32.745  38.329  1.00  0.00     0.059 A 
ATOM     96  C   UNL A   1      42.543  34.794  37.236  1.00  0.00     0.059 A 
ATOM     97  F   UNL A   1      43.297  34.729  35.017  1.00  0.00    -0.206 F 
ATOM     98  C   UNL A   1      42.041  34.126  38.350  1.00  0.00     0.060 A 
BRANCH  98  99
ATOM     99  S   UNL A   1      41.664  35.032  39.866  1.00  0.00     0.124 S 
ATOM    100  O   UNL A   1      41.945  34.028  40.886  1.00  0.00    -0.237 OA
ATOM    101  O   UNL A   1      42.599  36.150  39.802  1.00  0.00    -0.237 OA
ATOM    102  O   UNL A   1      40.256  35.390  39.709  1.00  0.00    -0.744 OA
ENDBRANCH  98  99
ENDBRANCH  66  91
ENDBRANCH  40  41
ENDBRANCH  33  35
ENDBRANCH  32  33
ENDBRANCH  31  32
ENDBRANCH  30  31
ENDBRANCH  29  30
ENDBRANCH  28  29
ENDBRANCH  27  28
ENDBRANCH  26  27
ENDBRANCH   1  26
TORSDOF 28
ENDMDL
MODEL 3
REMARK VINA RESULT:      -7.4      1.856      2.819
REMARK SMILES O=C(CSc1ccnc(C(=O)OCCOCCOCCOCCOC(=O)c2ccc(-c3c4nc(c(-c5c(F)cc(S(=O)(=O)[O-])cc5F)c5ccc([nH]5)c(-c5c(F)cc(S(=O)(=O)[O-])cc5F)c5nc(c(-c6c(F)cc(S(=O)(=O)[O-])cc6F)c6ccc3[nH]6)C=C5)C=C4)cc2)c1)NCC(F)(F)F
REMARK SMILES IDX 17 1 16 2 15 3 14 4 13 5 12 6 10 7 11 8 9 9 5 10 6 11 93 12
REMARK SMILES IDX 7 13 8 14 4 15 3 16 2 17 1 18 94 19 95 21 96 22 97 23 98 24
REMARK SMILES IDX 99 25 18 26 19 27 20 28 21 29 22 30 23 31 24 32 25 33 26 34
REMARK SMILES IDX 27 35 28 36 92 37 29 38 91 39 30 40 31 41 32 42 85 43 33 44
REMARK SMILES IDX 90 45 84 46 86 47 34 48 89 49 83 50 82 51 35 53 69 54 48 55
REMARK SMILES IDX 68 56 49 57 52 58 67 59 87 60 50 61 51 62 66 64 88 65 53 66
REMARK SMILES IDX 36 67 37 68 46 69 38 70 39 71 45 72 47 73 40 74 41 75 42 76
REMARK SMILES IDX 43 77 44 78 70 79 71 80 80 81 72 82 73 83 79 84 81 85 74 86
REMARK SMILES IDX 75 87 76 88 77 89 78 90 54 91 55 92 64 93 56 94 57 95 63 96
REMARK SMILES IDX 65 97 58 98 59 99 60 100 61 101 62 102
REMARK H PARENT 94 20 86 52 52 63
REMARK Flexibility Score: inf
ROOT
ATOM      1  C   UNL A   1      40.522  23.368  26.779  1.00  0.00     0.188 C 
ENDROOT
BRANCH   1   2
ATOM      2  C   UNL A   1      39.167  23.926  27.265  1.00  0.00     0.188 C 
BRANCH   2   3
ATOM      3  O   UNL A   1      38.208  24.071  26.233  1.00  0.00    -0.376 OA
BRANCH   3   4
ATOM      4  C   UNL A   1      37.738  22.919  25.556  1.00  0.00     0.202 C 
BRANCH   4   5
ATOM      5  C   UNL A   1      36.379  22.325  25.951  1.00  0.00     0.261 C 
BRANCH   5   6
ATOM      6  O   UNL A   1      35.453  23.236  26.555  1.00  0.00    -0.459 OA
BRANCH   6   7
ATOM      7  C   UNL A   1      34.314  22.723  27.084  1.00  0.00     0.357 C 
ATOM      8  O   UNL A   1      34.245  21.879  27.959  1.00  0.00    -0.244 OA
BRANCH   7   9
ATOM      9  C   UNL A   1      33.178  23.530  26.535  1.00  0.00     0.149 A 
ATOM     10  C   UNL A   1      32.354  25.305  25.149  1.00  0.00     0.012 A 
ATOM     11  C   UNL A   1      31.118  25.153  25.784  1.00  0.00     0.035 A 
ATOM     12  C   UNL A   1      33.405  24.483  25.546  1.00  0.00     0.051 A 
ATOM     13  C   UNL A   1      30.979  24.178  26.758  1.00  0.00     0.113 A 
ATOM     14  N   UNL A   1      31.975  23.357  27.144  1.00  0.00    -0.249 NA
BRANCH  10  15
ATOM     15  S   UNL A   1      32.473  26.602  23.921  1.00  0.00    -0.116 SA
BRANCH  15  16
ATOM     16  C   UNL A   1      31.999  25.767  22.361  1.00  0.00     0.174 C 
BRANCH  16  17
ATOM     17  C   UNL A   1      32.653  24.402  22.220  1.00  0.00     0.230 C 
ATOM     18  O   UNL A   1      33.841  24.290  21.934  1.00  0.00    -0.274 OA
ATOM     19  N   UNL A   1      31.831  23.322  22.432  1.00  0.00    -0.346 N 
ATOM     20  H   UNL A   1      30.898  23.480  22.705  1.00  0.00     0.163 HD
BRANCH  19  21
ATOM     21  C   UNL A   1      32.300  21.944  22.266  1.00  0.00     0.231 C 
BRANCH  21  22
ATOM     22  C   UNL A   1      32.480  21.171  23.570  1.00  0.00     0.405 C 
ATOM     23  F   UNL A   1      33.728  21.374  24.062  1.00  0.00    -0.169 F 
ATOM     24  F   UNL A   1      31.605  21.603  24.504  1.00  0.00    -0.169 F 
ATOM     25  F   UNL A   1      32.313  19.845  23.405  1.00  0.00    -0.169 F 
ENDBRANCH  21  22
ENDBRANCH  19  21
ENDBRANCH  16  17
ENDBRANCH  15  16
ENDBRANCH  10  15
ENDBRANCH   7   9
ENDBRANCH   6   7
ENDBRANCH   5   6
ENDBRANCH   4   5
ENDBRANCH   3   4
ENDBRANCH   2   3
ENDBRANCH   1   2
BRANCH   1  26
ATOM     26  O   UNL A   1      41.726  23.920  27.297  1.00  0.00    -0.377 OA
BRANCH  26  27
ATOM     27  C   UNL A   1      42.960  23.705  26.610  1.00  0.00     0.188 C 
BRANCH  27  28
ATOM     28  C   UNL A   1      43.078  23.836  25.072  1.00  0.00     0.188 C 
BRANCH  28  29
ATOM     29  O   UNL A   1      43.441  22.641  24.402  1.00  0.00    -0.376 OA
BRANCH  29  30
ATOM     30  C   UNL A   1      44.748  22.141  24.615  1.00  0.00     0.202 C 
BRANCH  30  31
ATOM     31  C   UNL A   1      45.906  22.996  24.084  1.00  0.00     0.261 C 
BRANCH  31  32
ATOM     32  O   UNL A   1      45.899  24.380  24.464  1.00  0.00    -0.460 OA
BRANCH  32  33
ATOM     33  C   UNL A   1      47.098  24.989  24.602  1.00  0.00     0.338 C 
ATOM     34  O   UNL A   1      47.834  25.372  23.706  1.00  0.00    -0.246 OA
BRANCH  33  35
ATOM     35  C   UNL A   1      47.283  25.284  26.037  1.00  0.00     0.060 A 
ATOM     36  C   UNL A   1      46.875  24.343  26.991  1.00  0.00     0.016 A 
ATOM     37  C   UNL A   1      47.879  26.484  26.435  1.00  0.00     0.016 A 
ATOM     38  C   UNL A   1      47.035  24.614  28.351  1.00  0.00     0.010 A 
ATOM     39  C   UNL A   1      48.020  26.761  27.797  1.00  0.00     0.010 A 
ATOM     40  C   UNL A   1      47.570  25.842  28.762  1.00  0.00    -0.014 A 
BRANCH  40  41
ATOM     41  C   UNL A   1      47.484  26.250  30.185  1.00  0.00     0.031 A 
ATOM     42  C   UNL A   1      48.693  26.048  31.059  1.00  0.00     0.074 A 
ATOM     43  C   UNL A   1      46.365  26.796  30.694  1.00  0.00     0.049 A 
ATOM     44  N   UNL A   1      48.841  26.264  32.339  1.00  0.00    -0.248 NA
ATOM     45  C   UNL A   1      49.900  25.527  30.394  1.00  0.00     0.031 C 
ATOM     46  C   UNL A   1      45.143  27.077  29.942  1.00  0.00     0.029 A 
ATOM     47  N   UNL A   1      46.071  27.198  31.974  1.00  0.00    -0.354 N 
ATOM     48  C   UNL A   1      50.149  25.899  32.636  1.00  0.00     0.074 A 
ATOM     49  C   UNL A   1      50.743  25.417  31.408  1.00  0.00     0.031 C 
ATOM     50  C   UNL A   1      44.224  27.590  30.778  1.00  0.00     0.029 A 
ATOM     51  C   UNL A   1      44.780  27.641  32.131  1.00  0.00     0.049 A 
ATOM     52  H   UNL A   1      46.725  27.171  32.710  1.00  0.00     0.167 HD
ATOM     53  C   UNL A   1      50.799  25.968  33.822  1.00  0.00     0.037 A 
ATOM     54  C   UNL A   1      44.115  28.018  33.242  1.00  0.00     0.037 A 
ATOM     55  C   UNL A   1      50.198  26.445  35.039  1.00  0.00     0.049 A 
ATOM     56  C   UNL A   1      44.835  28.012  34.570  1.00  0.00     0.074 A 
ATOM     57  C   UNL A   1      50.776  26.573  36.290  1.00  0.00     0.029 A 
ATOM     58  N   UNL A   1      48.879  26.859  35.164  1.00  0.00    -0.354 N 
ATOM     59  N   UNL A   1      46.082  27.694  34.832  1.00  0.00    -0.248 NA
ATOM     60  C   UNL A   1      44.060  28.418  35.750  1.00  0.00     0.031 C 
ATOM     61  C   UNL A   1      49.792  27.005  37.183  1.00  0.00     0.029 A 
ATOM     62  C   UNL A   1      48.617  27.214  36.478  1.00  0.00     0.049 A 
ATOM     63  H   UNL A   1      48.227  26.897  34.428  1.00  0.00     0.167 HD
ATOM     64  C   UNL A   1      46.246  27.889  36.201  1.00  0.00     0.074 A 
ATOM     65  C   UNL A   1      44.976  28.366  36.708  1.00  0.00     0.031 C 
ATOM     66  C   UNL A   1      47.348  27.694  36.968  1.00  0.00     0.037 A 
BRANCH  53  67
ATOM     67  C   UNL A   1      52.223  25.485  33.866  1.00  0.00     0.058 A 
ATOM     68  C   UNL A   1      53.308  26.355  33.670  1.00  0.00     0.135 A 
ATOM     69  C   UNL A   1      52.508  24.138  34.139  1.00  0.00     0.135 A 
ATOM     70  F   UNL A   1      53.095  27.649  33.385  1.00  0.00    -0.206 F 
ATOM     71  C   UNL A   1      54.622  25.900  33.717  1.00  0.00     0.059 A 
ATOM     72  C   UNL A   1      53.814  23.667  34.222  1.00  0.00     0.059 A 
ATOM     73  F   UNL A   1      51.509  23.261  34.331  1.00  0.00    -0.206 F 
ATOM     74  C   UNL A   1      54.865  24.554  33.995  1.00  0.00     0.060 A 
BRANCH  74  75
ATOM     75  S   UNL A   1      56.577  23.984  34.058  1.00  0.00     0.124 S 
ATOM     76  O   UNL A   1      57.154  24.902  35.035  1.00  0.00    -0.237 OA
ATOM     77  O   UNL A   1      56.428  22.601  34.498  1.00  0.00    -0.237 OA
ATOM     78  O   UNL A   1      57.044  24.156  32.685  1.00  0.00    -0.744 OA
ENDBRANCH  74  75
ENDBRANCH  53  67
BRANCH  54  79
ATOM     79  C   UNL A   1      42.684  28.419  33.157  1.00  0.00     0.058 A 
ATOM     80  C   UNL A   1      42.308  29.656  32.614  1.00  0.00     0.135 A 
ATOM     81  C   UNL A   1      41.663  27.576  33.625  1.00  0.00     0.135 A 
ATOM     82  F   UNL A   1      43.246  30.506  32.168  1.00  0.00    -0.206 F 
ATOM     83  C   UNL A   1      40.975  30.051  32.549  1.00  0.00     0.059 A 
ATOM     84  C   UNL A   1      40.320  27.934  33.542  1.00  0.00     0.059 A 
ATOM     85  F   UNL A   1      41.967  26.380  34.151  1.00  0.00    -0.206 F 
ATOM     86  C   UNL A   1      39.987  29.179  33.012  1.00  0.00     0.060 A 
BRANCH  86  87
ATOM     87  S   UNL A   1      38.258  29.685  32.879  1.00  0.00     0.124 S 
ATOM     88  O   UNL A   1      38.167  30.702  33.920  1.00  0.00    -0.237 OA
ATOM     89  O   UNL A   1      38.188  30.172  31.504  1.00  0.00    -0.237 OA
ATOM     90  O   UNL A   1      37.523  28.450  33.138  1.00  0.00    -0.744 OA
ENDBRANCH  86  87
ENDBRANCH  54  79
BRANCH  66  91
ATOM     91  C   UNL A   1      47.250  28.029  38.434  1.00  0.00     0.058 A 
ATOM     92  C   UNL A   1      47.541  29.312  38.924  1.00  0.00     0.135 A 
ATOM     93  C   UNL A   1      46.795  27.068  39.352  1.00  0.00     0.135 A 
ATOM     94  F   UNL A   1      47.984  30.269  38.093  1.00  0.00    -0.206 F 
ATOM     95  C   UNL A   1      47.407  29.623  40.273  1.00  0.00     0.059 A 
ATOM     96  C   UNL A   1      46.622  27.366  40.701  1.00  0.00     0.059 A 
ATOM     97  F   UNL A   1      46.489  25.827  38.938  1.00  0.00    -0.206 F 
ATOM     98  C   UNL A   1      46.942  28.644  41.154  1.00  0.00     0.060 A 
BRANCH  98  99
ATOM     99  S   UNL A   1      46.736  29.075  42.896  1.00  0.00     0.124 S 
ATOM    100  O   UNL A   1      47.710  30.150  43.050  1.00  0.00    -0.237 OA
ATOM    101  O   UNL A   1      45.334  29.475  42.953  1.00  0.00    -0.237 OA
ATOM    102  O   UNL A   1      47.057  27.833  43.595  1.00  0.00    -0.744 OA
ENDBRANCH  98  99
ENDBRANCH  66  91
ENDBRANCH  40  41
ENDBRANCH  33  35
ENDBRANCH  32  33
ENDBRANCH  31  32
ENDBRANCH  30  31
ENDBRANCH  29  30
ENDBRANCH  28  29
ENDBRANCH  27  28
ENDBRANCH  26  27
ENDBRANCH   1  26
TORSDOF 28
ENDMDL
