MODEL 1
REMARK VINA RESULT:      -9.8      0.000      0.000
REMARK SMILES C[C@H](NC(=O)OCc1ccccc1)C(=O)NCC(=O)N1CCC[C@H]1C(=O)OCCOCCOCCOCCOC(=O)c1ccc(-c2c3nc(c(-c4c(F)cc(S(=O)(=O)[O-])cc4F)c4ccc([nH]4)c(-c4c(F)cc(S(=O)(=O)[O-])cc4F)c4nc(c(-c5c(F)cc(S(=O)(=O)[O-])cc5F)c5ccc2[nH]5)C=C4)C=C3)cc1
REMARK SMILES IDX 31 1 30 2 29 3 28 4 27 5 25 6 26 7 24 8 20 9 21 10 22 11
REMARK SMILES IDX 23 12 18 13 19 14 17 15 16 16 14 17 15 18 2 20 1 21 3 22
REMARK SMILES IDX 4 23 5 25 6 26 7 27 8 28 9 29 13 30 10 31 12 32 11 33 32 34
REMARK SMILES IDX 33 35 34 36 35 37 36 38 37 39 38 40 39 41 40 42 41 43 42 44
REMARK SMILES IDX 43 45 107 46 44 47 106 48 45 49 46 50 47 51 100 52 48 53
REMARK SMILES IDX 105 54 99 55 101 56 49 57 104 58 98 59 97 60 50 62 84 63
REMARK SMILES IDX 63 64 83 65 64 66 67 67 82 68 102 69 65 70 66 71 81 73
REMARK SMILES IDX 103 74 68 75 51 76 52 77 61 78 53 79 54 80 60 81 62 82 55 83
REMARK SMILES IDX 56 84 57 85 58 86 59 87 85 88 86 89 95 90 87 91 88 92 94 93
REMARK SMILES IDX 96 94 89 95 90 96 91 97 92 98 93 99 69 100 70 101 79 102
REMARK SMILES IDX 71 103 72 104 78 105 80 106 73 107 74 108 75 109 76 110
REMARK SMILES IDX 77 111
REMARK H PARENT 16 19 3 24 101 61 67 72
REMARK Flexibility Score: inf
ROOT
ATOM      1  C   UNL A   1      37.159  20.597  25.028  1.00  0.00     0.188 C 
ENDROOT
BRANCH   1   2
ATOM      2  O   UNL A   1      35.820  20.810  24.597  1.00  0.00    -0.376 OA
BRANCH   2   3
ATOM      3  C   UNL A   1      34.819  19.862  24.943  1.00  0.00     0.202 C 
BRANCH   3   4
ATOM      4  C   UNL A   1      33.520  20.326  25.633  1.00  0.00     0.261 C 
BRANCH   4   5
ATOM      5  O   UNL A   1      33.657  20.874  26.961  1.00  0.00    -0.462 OA
BRANCH   5   6
ATOM      6  C   UNL A   1      33.202  22.142  27.180  1.00  0.00     0.328 C 
ATOM      7  O   UNL A   1      32.646  22.489  28.216  1.00  0.00    -0.250 OA
BRANCH   6   8
ATOM      8  C   UNL A   1      33.535  23.126  26.008  1.00  0.00     0.195 C 
ATOM      9  N   UNL A   1      32.715  24.361  25.784  1.00  0.00    -0.327 N 
ATOM     10  C   UNL A   1      33.586  25.526  25.623  1.00  0.00     0.120 C 
ATOM     11  C   UNL A   1      34.941  24.943  25.270  1.00  0.00     0.024 C 
ATOM     12  C   UNL A   1      34.982  23.648  26.063  1.00  0.00     0.039 C 
BRANCH   9  13
ATOM     13  C   UNL A   1      31.355  24.264  25.609  1.00  0.00     0.242 C 
ATOM     14  O   UNL A   1      30.873  23.316  24.982  1.00  0.00    -0.273 OA
BRANCH  13  15
ATOM     15  C   UNL A   1      30.369  25.368  26.040  1.00  0.00     0.216 C 
BRANCH  15  16
ATOM     16  N   UNL A   1      29.175  25.711  25.297  1.00  0.00    -0.345 N 
ATOM     17  C   UNL A   1      29.031  26.471  24.172  1.00  0.00     0.242 C 
ATOM     18  O   UNL A   1      27.950  26.396  23.579  1.00  0.00    -0.273 OA
ATOM     19  H   UNL A   1      28.337  25.338  25.657  1.00  0.00     0.164 HD
BRANCH  17  20
ATOM     20  C   UNL A   1      30.197  27.288  23.575  1.00  0.00     0.171 C 
ATOM     21  C   UNL A   1      29.662  28.453  22.743  1.00  0.00     0.042 C 
BRANCH  20  22
ATOM     22  N   UNL A   1      31.152  26.492  22.815  1.00  0.00    -0.310 N 
ATOM     23  C   UNL A   1      32.376  26.914  22.393  1.00  0.00     0.408 C 
ATOM     24  H   UNL A   1      30.891  25.571  22.587  1.00  0.00     0.167 HD
ATOM     25  O   UNL A   1      33.099  26.198  21.725  1.00  0.00    -0.225 OA
BRANCH  23  26
ATOM     26  O   UNL A   1      32.642  28.181  22.786  1.00  0.00    -0.445 OA
BRANCH  26  27
ATOM     27  C   UNL A   1      33.737  28.324  23.694  1.00  0.00     0.270 C 
BRANCH  27  28
ATOM     28  C   UNL A   1      33.381  29.043  24.972  1.00  0.00    -0.011 A 
ATOM     29  C   UNL A   1      32.210  29.802  25.110  1.00  0.00     0.007 A 
ATOM     30  C   UNL A   1      34.271  28.971  26.054  1.00  0.00     0.007 A 
ATOM     31  C   UNL A   1      31.919  30.439  26.317  1.00  0.00     0.000 A 
ATOM     32  C   UNL A   1      33.983  29.615  27.256  1.00  0.00     0.000 A 
ATOM     33  C   UNL A   1      32.803  30.343  27.389  1.00  0.00     0.000 A 
ENDBRANCH  27  28
ENDBRANCH  26  27
ENDBRANCH  23  26
ENDBRANCH  20  22
ENDBRANCH  17  20
ENDBRANCH  15  16
ENDBRANCH  13  15
ENDBRANCH   9  13
ENDBRANCH   6   8
ENDBRANCH   5   6
ENDBRANCH   4   5
ENDBRANCH   3   4
ENDBRANCH   2   3
ENDBRANCH   1   2
BRANCH   1  34
ATOM     34  C   UNL A   1      38.136  21.788  25.105  1.00  0.00     0.188 C 
BRANCH  34  35
ATOM     35  O   UNL A   1      38.223  22.420  26.364  1.00  0.00    -0.377 OA
BRANCH  35  36
ATOM     36  C   UNL A   1      39.526  22.634  26.872  1.00  0.00     0.188 C 
BRANCH  36  37
ATOM     37  C   UNL A   1      40.686  21.897  26.179  1.00  0.00     0.188 C 
BRANCH  37  38
ATOM     38  O   UNL A   1      41.975  22.316  26.619  1.00  0.00    -0.376 OA
BRANCH  38  39
ATOM     39  C   UNL A   1      43.023  22.461  25.675  1.00  0.00     0.202 C 
BRANCH  39  40
ATOM     40  C   UNL A   1      43.210  23.835  25.008  1.00  0.00     0.261 C 
BRANCH  40  41
ATOM     41  O   UNL A   1      43.187  24.980  25.867  1.00  0.00    -0.460 OA
BRANCH  41  42
ATOM     42  C   UNL A   1      42.048  25.705  25.905  1.00  0.00     0.338 C 
ATOM     43  O   UNL A   1      41.132  25.666  25.105  1.00  0.00    -0.246 OA
BRANCH  42  44
ATOM     44  C   UNL A   1      42.007  26.407  27.206  1.00  0.00     0.060 A 
ATOM     45  C   UNL A   1      41.060  26.007  28.158  1.00  0.00     0.016 A 
ATOM     46  C   UNL A   1      42.907  27.437  27.490  1.00  0.00     0.016 A 
ATOM     47  C   UNL A   1      40.978  26.669  29.382  1.00  0.00     0.010 A 
ATOM     48  C   UNL A   1      42.805  28.118  28.706  1.00  0.00     0.010 A 
ATOM     49  C   UNL A   1      41.810  27.766  29.636  1.00  0.00    -0.014 A 
BRANCH  49  50
ATOM     50  C   UNL A   1      41.459  28.699  30.733  1.00  0.00     0.031 A 
ATOM     51  C   UNL A   1      42.284  28.634  31.992  1.00  0.00     0.074 A 
ATOM     52  C   UNL A   1      40.474  29.604  30.608  1.00  0.00     0.049 A 
ATOM     53  N   UNL A   1      42.162  29.310  33.103  1.00  0.00    -0.248 NA
ATOM     54  C   UNL A   1      43.398  27.670  31.993  1.00  0.00     0.031 C 
ATOM     55  C   UNL A   1      39.646  29.798  29.419  1.00  0.00     0.029 A 
ATOM     56  N   UNL A   1      40.002  30.531  31.503  1.00  0.00    -0.354 N 
ATOM     57  C   UNL A   1      43.177  28.849  33.936  1.00  0.00     0.074 A 
ATOM     58  C   UNL A   1      43.878  27.808  33.219  1.00  0.00     0.031 C 
ATOM     59  C   UNL A   1      38.760  30.780  29.662  1.00  0.00     0.029 A 
ATOM     60  C   UNL A   1      38.936  31.260  31.033  1.00  0.00     0.049 A 
ATOM     61  H   UNL A   1      40.391  30.663  32.398  1.00  0.00     0.167 HD
ATOM     62  C   UNL A   1      43.503  29.265  35.181  1.00  0.00     0.037 A 
ATOM     63  C   UNL A   1      38.181  32.192  31.649  1.00  0.00     0.037 A 
ATOM     64  C   UNL A   1      42.795  30.296  35.891  1.00  0.00     0.049 A 
ATOM     65  C   UNL A   1      38.508  32.580  33.072  1.00  0.00     0.074 A 
ATOM     66  C   UNL A   1      43.039  30.793  37.158  1.00  0.00     0.029 A 
ATOM     67  N   UNL A   1      41.696  30.984  35.395  1.00  0.00    -0.354 N 
ATOM     68  N   UNL A   1      39.474  32.144  33.847  1.00  0.00    -0.248 NA
ATOM     69  C   UNL A   1      37.647  33.590  33.701  1.00  0.00     0.031 C 
ATOM     70  C   UNL A   1      42.052  31.739  37.452  1.00  0.00     0.029 A 
ATOM     71  C   UNL A   1      41.237  31.885  36.340  1.00  0.00     0.049 A 
ATOM     72  H   UNL A   1      41.302  30.852  34.502  1.00  0.00     0.167 HD
ATOM     73  C   UNL A   1      39.361  32.859  35.037  1.00  0.00     0.074 A 
ATOM     74  C   UNL A   1      38.237  33.757  34.876  1.00  0.00     0.031 C 
ATOM     75  C   UNL A   1      40.124  32.785  36.158  1.00  0.00     0.037 A 
BRANCH  62  76
ATOM     76  C   UNL A   1      44.656  28.576  35.864  1.00  0.00     0.058 A 
ATOM     77  C   UNL A   1      44.473  27.434  36.660  1.00  0.00     0.135 A 
ATOM     78  C   UNL A   1      45.964  29.064  35.710  1.00  0.00     0.135 A 
ATOM     79  F   UNL A   1      43.241  26.938  36.862  1.00  0.00    -0.206 F 
ATOM     80  C   UNL A   1      45.541  26.818  37.305  1.00  0.00     0.059 A 
ATOM     81  C   UNL A   1      47.052  28.444  36.318  1.00  0.00     0.059 A 
ATOM     82  F   UNL A   1      46.196  30.156  34.966  1.00  0.00    -0.206 F 
ATOM     83  C   UNL A   1      46.827  27.331  37.126  1.00  0.00     0.060 A 
BRANCH  83  84
ATOM     84  S   UNL A   1      48.201  26.520  37.970  1.00  0.00     0.124 S 
ATOM     85  O   UNL A   1      49.326  26.887  37.114  1.00  0.00    -0.237 OA
ATOM     86  O   UNL A   1      48.174  27.150  39.285  1.00  0.00    -0.237 OA
ATOM     87  O   UNL A   1      47.830  25.108  37.946  1.00  0.00    -0.744 OA
ENDBRANCH  83  84
ENDBRANCH  62  76
BRANCH  63  88
ATOM     88  C   UNL A   1      37.041  32.827  30.932  1.00  0.00     0.058 A 
ATOM     89  C   UNL A   1      35.719  32.421  31.169  1.00  0.00     0.135 A 
ATOM     90  C   UNL A   1      37.250  33.844  29.986  1.00  0.00     0.135 A 
ATOM     91  F   UNL A   1      35.465  31.444  32.053  1.00  0.00    -0.206 F 
ATOM     92  C   UNL A   1      34.647  32.987  30.484  1.00  0.00     0.059 A 
ATOM     93  C   UNL A   1      36.192  34.446  29.311  1.00  0.00     0.059 A 
ATOM     94  F   UNL A   1      38.494  34.275  29.726  1.00  0.00    -0.206 F 
ATOM     95  C   UNL A   1      34.895  34.003  29.560  1.00  0.00     0.060 A 
BRANCH  95  96
ATOM     96  S   UNL A   1      33.492  34.762  28.713  1.00  0.00     0.124 S 
ATOM     97  O   UNL A   1      33.157  33.743  27.726  1.00  0.00    -0.237 OA
ATOM     98  O   UNL A   1      32.536  34.934  29.803  1.00  0.00    -0.237 OA
ATOM     99  O   UNL A   1      34.051  35.999  28.179  1.00  0.00    -0.744 OA
ENDBRANCH  95  96
ENDBRANCH  63  88
BRANCH  75 100
ATOM    100  C   UNL A   1      39.814  33.742  37.279  1.00  0.00     0.058 A 
ATOM    101  C   UNL A   1      38.975  33.395  38.349  1.00  0.00     0.135 A 
ATOM    102  C   UNL A   1      40.418  35.011  37.307  1.00  0.00     0.135 A 
ATOM    103  F   UNL A   1      38.370  32.197  38.373  1.00  0.00    -0.206 F 
ATOM    104  C   UNL A   1      38.721  34.282  39.391  1.00  0.00     0.059 A 
ATOM    105  C   UNL A   1      40.206  35.901  38.356  1.00  0.00     0.059 A 
ATOM    106  F   UNL A   1      41.241  35.391  36.317  1.00  0.00    -0.206 F 
ATOM    107  C   UNL A   1      39.343  35.532  39.386  1.00  0.00     0.060 A 
BRANCH 107 108
ATOM    108  S   UNL A   1      39.026  36.662  40.758  1.00  0.00     0.124 S 
ATOM    109  O   UNL A   1      38.644  37.880  40.053  1.00  0.00    -0.237 OA
ATOM    110  O   UNL A   1      37.954  35.982  41.479  1.00  0.00    -0.237 OA
ATOM    111  O   UNL A   1      40.307  36.717  41.457  1.00  0.00    -0.744 OA
ENDBRANCH 107 108
ENDBRANCH  75 100
ENDBRANCH  49  50
ENDBRANCH  42  44
ENDBRANCH  41  42
ENDBRANCH  40  41
ENDBRANCH  39  40
ENDBRANCH  38  39
ENDBRANCH  37  38
ENDBRANCH  36  37
ENDBRANCH  35  36
ENDBRANCH  34  35
ENDBRANCH   1  34
TORSDOF 31
ENDMDL
MODEL 2
REMARK VINA RESULT:      -9.4      1.609      3.114
REMARK SMILES C[C@H](NC(=O)OCc1ccccc1)C(=O)NCC(=O)N1CCC[C@H]1C(=O)OCCOCCOCCOCCOC(=O)c1ccc(-c2c3nc(c(-c4c(F)cc(S(=O)(=O)[O-])cc4F)c4ccc([nH]4)c(-c4c(F)cc(S(=O)(=O)[O-])cc4F)c4nc(c(-c5c(F)cc(S(=O)(=O)[O-])cc5F)c5ccc2[nH]5)C=C4)C=C3)cc1
REMARK SMILES IDX 31 1 30 2 29 3 28 4 27 5 25 6 26 7 24 8 20 9 21 10 22 11
REMARK SMILES IDX 23 12 18 13 19 14 17 15 16 16 14 17 15 18 2 20 1 21 3 22
REMARK SMILES IDX 4 23 5 25 6 26 7 27 8 28 9 29 13 30 10 31 12 32 11 33 32 34
REMARK SMILES IDX 33 35 34 36 35 37 36 38 37 39 38 40 39 41 40 42 41 43 42 44
REMARK SMILES IDX 43 45 107 46 44 47 106 48 45 49 46 50 47 51 100 52 48 53
REMARK SMILES IDX 105 54 99 55 101 56 49 57 104 58 98 59 97 60 50 62 84 63
REMARK SMILES IDX 63 64 83 65 64 66 67 67 82 68 102 69 65 70 66 71 81 73
REMARK SMILES IDX 103 74 68 75 51 76 52 77 61 78 53 79 54 80 60 81 62 82 55 83
REMARK SMILES IDX 56 84 57 85 58 86 59 87 85 88 86 89 95 90 87 91 88 92 94 93
REMARK SMILES IDX 96 94 89 95 90 96 91 97 92 98 93 99 69 100 70 101 79 102
REMARK SMILES IDX 71 103 72 104 78 105 80 106 73 107 74 108 75 109 76 110
REMARK SMILES IDX 77 111
REMARK H PARENT 16 19 3 24 101 61 67 72
REMARK Flexibility Score: inf
ROOT
ATOM      1  C   UNL A   1      34.143  22.474  27.175  1.00  0.00     0.188 C 
ENDROOT
BRANCH   1   2
ATOM      2  O   UNL A   1      33.101  23.440  27.101  1.00  0.00    -0.376 OA
BRANCH   2   3
ATOM      3  C   UNL A   1      31.753  23.002  26.996  1.00  0.00     0.202 C 
BRANCH   3   4
ATOM      4  C   UNL A   1      30.976  23.201  25.678  1.00  0.00     0.261 C 
BRANCH   4   5
ATOM      5  O   UNL A   1      31.156  24.468  25.010  1.00  0.00    -0.462 OA
BRANCH   5   6
ATOM      6  C   UNL A   1      31.222  24.468  23.647  1.00  0.00     0.328 C 
ATOM      7  O   UNL A   1      30.245  24.627  22.925  1.00  0.00    -0.250 OA
BRANCH   6   8
ATOM      8  C   UNL A   1      32.684  24.325  23.102  1.00  0.00     0.195 C 
ATOM      9  N   UNL A   1      33.837  24.962  23.817  1.00  0.00    -0.327 N 
ATOM     10  C   UNL A   1      34.921  23.996  23.996  1.00  0.00     0.120 C 
ATOM     11  C   UNL A   1      34.634  22.909  22.978  1.00  0.00     0.024 C 
ATOM     12  C   UNL A   1      33.116  22.856  22.940  1.00  0.00     0.039 C 
BRANCH   9  13
ATOM     13  C   UNL A   1      33.829  26.313  24.071  1.00  0.00     0.242 C 
ATOM     14  O   UNL A   1      33.810  27.123  23.139  1.00  0.00    -0.273 OA
BRANCH  13  15
ATOM     15  C   UNL A   1      33.986  26.906  25.486  1.00  0.00     0.216 C 
BRANCH  15  16
ATOM     16  N   UNL A   1      33.835  28.314  25.786  1.00  0.00    -0.345 N 
ATOM     17  C   UNL A   1      32.711  29.089  25.817  1.00  0.00     0.242 C 
ATOM     18  O   UNL A   1      32.807  30.194  26.358  1.00  0.00    -0.273 OA
ATOM     19  H   UNL A   1      34.672  28.787  26.001  1.00  0.00     0.164 HD
BRANCH  17  20
ATOM     20  C   UNL A   1      31.342  28.572  25.327  1.00  0.00     0.171 C 
ATOM     21  C   UNL A   1      30.846  27.438  26.223  1.00  0.00     0.042 C 
BRANCH  20  22
ATOM     22  N   UNL A   1      31.323  28.179  23.923  1.00  0.00    -0.310 N 
ATOM     23  C   UNL A   1      30.219  28.139  23.126  1.00  0.00     0.408 C 
ATOM     24  H   UNL A   1      32.181  27.921  23.515  1.00  0.00     0.167 HD
ATOM     25  O   UNL A   1      30.283  27.759  21.971  1.00  0.00    -0.225 OA
BRANCH  23  26
ATOM     26  O   UNL A   1      29.104  28.541  23.779  1.00  0.00    -0.445 OA
BRANCH  26  27
ATOM     27  C   UNL A   1      27.991  28.872  22.946  1.00  0.00     0.270 C 
BRANCH  27  28
ATOM     28  C   UNL A   1      28.036  30.276  22.395  1.00  0.00    -0.011 A 
ATOM     29  C   UNL A   1      28.024  30.548  21.020  1.00  0.00     0.007 A 
ATOM     30  C   UNL A   1      28.121  31.349  23.295  1.00  0.00     0.007 A 
ATOM     31  C   UNL A   1      28.055  31.865  20.559  1.00  0.00     0.000 A 
ATOM     32  C   UNL A   1      28.161  32.663  22.833  1.00  0.00     0.000 A 
ATOM     33  C   UNL A   1      28.119  32.921  21.465  1.00  0.00     0.000 A 
ENDBRANCH  27  28
ENDBRANCH  26  27
ENDBRANCH  23  26
ENDBRANCH  20  22
ENDBRANCH  17  20
ENDBRANCH  15  16
ENDBRANCH  13  15
ENDBRANCH   9  13
ENDBRANCH   6   8
ENDBRANCH   5   6
ENDBRANCH   4   5
ENDBRANCH   3   4
ENDBRANCH   2   3
ENDBRANCH   1   2
BRANCH   1  34
ATOM     34  C   UNL A   1      34.058  21.192  26.322  1.00  0.00     0.188 C 
BRANCH  34  35
ATOM     35  O   UNL A   1      35.265  20.791  25.709  1.00  0.00    -0.377 OA
BRANCH  35  36
ATOM     36  C   UNL A   1      36.392  21.615  25.940  1.00  0.00     0.188 C 
BRANCH  36  37
ATOM     37  C   UNL A   1      37.572  21.491  24.960  1.00  0.00     0.188 C 
BRANCH  37  38
ATOM     38  O   UNL A   1      38.814  21.198  25.594  1.00  0.00    -0.376 OA
BRANCH  38  39
ATOM     39  C   UNL A   1      39.417  22.170  26.431  1.00  0.00     0.202 C 
BRANCH  39  40
ATOM     40  C   UNL A   1      40.949  22.310  26.390  1.00  0.00     0.261 C 
BRANCH  40  41
ATOM     41  O   UNL A   1      41.472  23.578  25.980  1.00  0.00    -0.460 OA
BRANCH  41  42
ATOM     42  C   UNL A   1      42.535  24.060  26.659  1.00  0.00     0.338 C 
ATOM     43  O   UNL A   1      43.700  23.744  26.510  1.00  0.00    -0.246 OA
BRANCH  42  44
ATOM     44  C   UNL A   1      42.065  25.201  27.475  1.00  0.00     0.060 A 
ATOM     45  C   UNL A   1      42.804  26.391  27.459  1.00  0.00     0.016 A 
ATOM     46  C   UNL A   1      40.896  25.102  28.233  1.00  0.00     0.016 A 
ATOM     47  C   UNL A   1      42.402  27.473  28.241  1.00  0.00     0.010 A 
ATOM     48  C   UNL A   1      40.509  26.177  29.038  1.00  0.00     0.010 A 
ATOM     49  C   UNL A   1      41.287  27.348  29.079  1.00  0.00    -0.014 A 
BRANCH  49  50
ATOM     50  C   UNL A   1      41.102  28.322  30.182  1.00  0.00     0.031 A 
ATOM     51  C   UNL A   1      42.041  28.230  31.356  1.00  0.00     0.074 A 
ATOM     52  C   UNL A   1      40.164  29.283  30.131  1.00  0.00     0.049 A 
ATOM     53  N   UNL A   1      42.069  28.933  32.457  1.00  0.00    -0.248 NA
ATOM     54  C   UNL A   1      43.091  27.199  31.273  1.00  0.00     0.031 C 
ATOM     55  C   UNL A   1      39.236  29.505  29.023  1.00  0.00     0.029 A 
ATOM     56  N   UNL A   1      39.838  30.254  31.044  1.00  0.00    -0.354 N 
ATOM     57  C   UNL A   1      43.132  28.427  33.198  1.00  0.00     0.074 A 
ATOM     58  C   UNL A   1      43.697  27.331  32.442  1.00  0.00     0.031 C 
ATOM     59  C   UNL A   1      38.438  30.544  29.327  1.00  0.00     0.029 A 
ATOM     60  C   UNL A   1      38.776  31.038  30.661  1.00  0.00     0.049 A 
ATOM     61  H   UNL A   1      40.320  30.379  31.893  1.00  0.00     0.167 HD
ATOM     62  C   UNL A   1      43.604  28.845  34.395  1.00  0.00     0.037 A 
ATOM     63  C   UNL A   1      38.142  32.026  31.325  1.00  0.00     0.037 A 
ATOM     64  C   UNL A   1      43.031  29.931  35.144  1.00  0.00     0.049 A 
ATOM     65  C   UNL A   1      38.629  32.420  32.699  1.00  0.00     0.074 A 
ATOM     66  C   UNL A   1      43.427  30.437  36.369  1.00  0.00     0.029 A 
ATOM     67  N   UNL A   1      41.931  30.676  34.740  1.00  0.00    -0.354 N 
ATOM     68  N   UNL A   1      39.640  31.940  33.387  1.00  0.00    -0.248 NA
ATOM     69  C   UNL A   1      37.896  33.493  33.383  1.00  0.00     0.031 C 
ATOM     70  C   UNL A   1      42.532  31.447  36.734  1.00  0.00     0.029 A 
ATOM     71  C   UNL A   1      41.621  31.622  35.703  1.00  0.00     0.049 A 
ATOM     72  H   UNL A   1      41.444  30.551  33.894  1.00  0.00     0.167 HD
ATOM     73  C   UNL A   1      39.687  32.683  34.565  1.00  0.00     0.074 A 
ATOM     74  C   UNL A   1      38.608  33.645  34.491  1.00  0.00     0.031 C 
ATOM     75  C   UNL A   1      40.551  32.584  35.607  1.00  0.00     0.037 A 
BRANCH  62  76
ATOM     76  C   UNL A   1      44.774  28.101  34.979  1.00  0.00     0.058 A 
ATOM     77  C   UNL A   1      46.101  28.429  34.655  1.00  0.00     0.135 A 
ATOM     78  C   UNL A   1      44.565  27.048  35.885  1.00  0.00     0.135 A 
ATOM     79  F   UNL A   1      46.360  29.411  33.775  1.00  0.00    -0.206 F 
ATOM     80  C   UNL A   1      47.176  27.721  35.182  1.00  0.00     0.059 A 
ATOM     81  C   UNL A   1      45.626  26.348  36.452  1.00  0.00     0.059 A 
ATOM     82  F   UNL A   1      43.318  26.686  36.226  1.00  0.00    -0.206 F 
ATOM     83  C   UNL A   1      46.927  26.682  36.081  1.00  0.00     0.060 A 
BRANCH  83  84
ATOM     84  S   UNL A   1      48.334  25.773  36.756  1.00  0.00     0.124 S 
ATOM     85  O   UNL A   1      48.460  26.375  38.081  1.00  0.00    -0.237 OA
ATOM     86  O   UNL A   1      47.855  24.396  36.729  1.00  0.00    -0.237 OA
ATOM     87  O   UNL A   1      49.415  26.078  35.824  1.00  0.00    -0.744 OA
ENDBRANCH  83  84
ENDBRANCH  62  76
BRANCH  63  88
ATOM     88  C   UNL A   1      36.976  32.716  30.707  1.00  0.00     0.058 A 
ATOM     89  C   UNL A   1      35.661  32.340  31.019  1.00  0.00     0.135 A 
ATOM     90  C   UNL A   1      37.153  33.757  29.780  1.00  0.00     0.135 A 
ATOM     91  F   UNL A   1      35.438  31.341  31.888  1.00  0.00    -0.206 F 
ATOM     92  C   UNL A   1      34.564  32.957  30.426  1.00  0.00     0.059 A 
ATOM     93  C   UNL A   1      36.071  34.410  29.197  1.00  0.00     0.059 A 
ATOM     94  F   UNL A   1      38.388  34.162  29.450  1.00  0.00    -0.206 F 
ATOM     95  C   UNL A   1      34.780  33.996  29.519  1.00  0.00     0.060 A 
BRANCH  95  96
ATOM     96  S   UNL A   1      33.347  34.821  28.793  1.00  0.00     0.124 S 
ATOM     97  O   UNL A   1      33.966  35.971  28.145  1.00  0.00    -0.237 OA
ATOM     98  O   UNL A   1      32.824  33.791  27.902  1.00  0.00    -0.237 OA
ATOM     99  O   UNL A   1      32.511  35.122  29.950  1.00  0.00    -0.744 OA
ENDBRANCH  95  96
ENDBRANCH  63  88
BRANCH  75 100
ATOM    100  C   UNL A   1      40.411  33.580  36.729  1.00  0.00     0.058 A 
ATOM    101  C   UNL A   1      39.515  33.388  37.792  1.00  0.00     0.135 A 
ATOM    102  C   UNL A   1      41.232  34.719  36.765  1.00  0.00     0.135 A 
ATOM    103  F   UNL A   1      38.704  32.318  37.809  1.00  0.00    -0.206 F 
ATOM    104  C   UNL A   1      39.417  34.304  38.835  1.00  0.00     0.059 A 
ATOM    105  C   UNL A   1      41.175  35.631  37.814  1.00  0.00     0.059 A 
ATOM    106  F   UNL A   1      42.117  34.946  35.781  1.00  0.00    -0.206 F 
ATOM    107  C   UNL A   1      40.253  35.422  38.838  1.00  0.00     0.060 A 
BRANCH 107 108
ATOM    108  S   UNL A   1      40.135  36.588  40.211  1.00  0.00     0.124 S 
ATOM    109  O   UNL A   1      41.022  37.657  39.766  1.00  0.00    -0.237 OA
ATOM    110  O   UNL A   1      38.711  36.909  40.225  1.00  0.00    -0.237 OA
ATOM    111  O   UNL A   1      40.609  35.815  41.355  1.00  0.00    -0.744 OA
ENDBRANCH 107 108
ENDBRANCH  75 100
ENDBRANCH  49  50
ENDBRANCH  42  44
ENDBRANCH  41  42
ENDBRANCH  40  41
ENDBRANCH  39  40
ENDBRANCH  38  39
ENDBRANCH  37  38
ENDBRANCH  36  37
ENDBRANCH  35  36
ENDBRANCH  34  35
ENDBRANCH   1  34
TORSDOF 31
ENDMDL
MODEL 3
REMARK VINA RESULT:      -8.9      1.552      8.267
REMARK SMILES C[C@H](NC(=O)OCc1ccccc1)C(=O)NCC(=O)N1CCC[C@H]1C(=O)OCCOCCOCCOCCOC(=O)c1ccc(-c2c3nc(c(-c4c(F)cc(S(=O)(=O)[O-])cc4F)c4ccc([nH]4)c(-c4c(F)cc(S(=O)(=O)[O-])cc4F)c4nc(c(-c5c(F)cc(S(=O)(=O)[O-])cc5F)c5ccc2[nH]5)C=C4)C=C3)cc1
REMARK SMILES IDX 31 1 30 2 29 3 28 4 27 5 25 6 26 7 24 8 20 9 21 10 22 11
REMARK SMILES IDX 23 12 18 13 19 14 17 15 16 16 14 17 15 18 2 20 1 21 3 22
REMARK SMILES IDX 4 23 5 25 6 26 7 27 8 28 9 29 13 30 10 31 12 32 11 33 32 34
REMARK SMILES IDX 33 35 34 36 35 37 36 38 37 39 38 40 39 41 40 42 41 43 42 44
REMARK SMILES IDX 43 45 107 46 44 47 106 48 45 49 46 50 47 51 100 52 48 53
REMARK SMILES IDX 105 54 99 55 101 56 49 57 104 58 98 59 97 60 50 62 84 63
REMARK SMILES IDX 63 64 83 65 64 66 67 67 82 68 102 69 65 70 66 71 81 73
REMARK SMILES IDX 103 74 68 75 51 76 52 77 61 78 53 79 54 80 60 81 62 82 55 83
REMARK SMILES IDX 56 84 57 85 58 86 59 87 85 88 86 89 95 90 87 91 88 92 94 93
REMARK SMILES IDX 96 94 89 95 90 96 91 97 92 98 93 99 69 100 70 101 79 102
REMARK SMILES IDX 71 103 72 104 78 105 80 106 73 107 74 108 75 109 76 110
REMARK SMILES IDX 77 111
REMARK H PARENT 16 19 3 24 101 61 67 72
REMARK Flexibility Score: inf
ROOT
ATOM      1  C   UNL A   1      33.699  22.443  27.724  1.00  0.00     0.188 C 
ENDROOT
BRANCH   1   2
ATOM      2  O   UNL A   1      32.628  23.370  27.595  1.00  0.00    -0.376 OA
BRANCH   2   3
ATOM      3  C   UNL A   1      31.325  22.889  27.293  1.00  0.00     0.202 C 
BRANCH   3   4
ATOM      4  C   UNL A   1      30.687  23.195  25.922  1.00  0.00     0.261 C 
BRANCH   4   5
ATOM      5  O   UNL A   1      30.805  24.551  25.444  1.00  0.00    -0.462 OA
BRANCH   5   6
ATOM      6  C   UNL A   1      30.514  24.795  24.133  1.00  0.00     0.328 C 
ATOM      7  O   UNL A   1      29.495  25.368  23.765  1.00  0.00    -0.250 OA
BRANCH   6   8
ATOM      8  C   UNL A   1      31.651  24.342  23.156  1.00  0.00     0.195 C 
ATOM      9  N   UNL A   1      33.094  24.522  23.518  1.00  0.00    -0.327 N 
ATOM     10  C   UNL A   1      33.834  23.280  23.291  1.00  0.00     0.120 C 
ATOM     11  C   UNL A   1      32.957  22.481  22.346  1.00  0.00     0.024 C 
ATOM     12  C   UNL A   1      31.548  22.853  22.775  1.00  0.00     0.039 C 
BRANCH   9  13
ATOM     13  C   UNL A   1      33.572  25.768  23.846  1.00  0.00     0.242 C 
ATOM     14  O   UNL A   1      33.895  26.566  22.961  1.00  0.00    -0.273 OA
BRANCH  13  15
ATOM     15  C   UNL A   1      33.872  26.201  25.296  1.00  0.00     0.216 C 
BRANCH  15  16
ATOM     16  N   UNL A   1      34.158  27.567  25.681  1.00  0.00    -0.345 N 
ATOM     17  C   UNL A   1      33.324  28.643  25.781  1.00  0.00     0.242 C 
ATOM     18  O   UNL A   1      33.753  29.631  26.384  1.00  0.00    -0.273 OA
ATOM     19  H   UNL A   1      35.099  27.749  25.906  1.00  0.00     0.164 HD
BRANCH  17  20
ATOM     20  C   UNL A   1      31.860  28.599  25.290  1.00  0.00     0.171 C 
ATOM     21  C   UNL A   1      31.015  27.719  26.209  1.00  0.00     0.042 C 
BRANCH  20  22
ATOM     22  N   UNL A   1      31.714  28.198  23.896  1.00  0.00    -0.310 N 
ATOM     23  C   UNL A   1      30.615  28.415  23.122  1.00  0.00     0.408 C 
ATOM     24  H   UNL A   1      32.474  27.732  23.479  1.00  0.00     0.167 HD
ATOM     25  O   UNL A   1      30.557  28.011  21.975  1.00  0.00    -0.225 OA
BRANCH  23  26
ATOM     26  O   UNL A   1      29.647  29.087  23.786  1.00  0.00    -0.445 OA
BRANCH  26  27
ATOM     27  C   UNL A   1      28.395  29.194  23.105  1.00  0.00     0.270 C 
BRANCH  27  28
ATOM     28  C   UNL A   1      28.216  30.489  22.353  1.00  0.00    -0.011 A 
ATOM     29  C   UNL A   1      28.034  30.538  20.964  1.00  0.00     0.007 A 
ATOM     30  C   UNL A   1      28.261  31.694  23.071  1.00  0.00     0.007 A 
ATOM     31  C   UNL A   1      27.861  31.761  20.316  1.00  0.00     0.000 A 
ATOM     32  C   UNL A   1      28.097  32.916  22.421  1.00  0.00     0.000 A 
ATOM     33  C   UNL A   1      27.889  32.948  21.044  1.00  0.00     0.000 A 
ENDBRANCH  27  28
ENDBRANCH  26  27
ENDBRANCH  23  26
ENDBRANCH  20  22
ENDBRANCH  17  20
ENDBRANCH  15  16
ENDBRANCH  13  15
ENDBRANCH   9  13
ENDBRANCH   6   8
ENDBRANCH   5   6
ENDBRANCH   4   5
ENDBRANCH   3   4
ENDBRANCH   2   3
ENDBRANCH   1   2
BRANCH   1  34
ATOM     34  C   UNL A   1      33.815  21.267  26.734  1.00  0.00     0.188 C 
BRANCH  34  35
ATOM     35  O   UNL A   1      35.034  21.185  26.029  1.00  0.00    -0.377 OA
BRANCH  35  36
ATOM     36  C   UNL A   1      35.934  22.264  26.201  1.00  0.00     0.188 C 
BRANCH  36  37
ATOM     37  C   UNL A   1      37.057  22.422  25.160  1.00  0.00     0.188 C 
BRANCH  37  38
ATOM     38  O   UNL A   1      38.362  22.213  25.691  1.00  0.00    -0.376 OA
BRANCH  38  39
ATOM     39  C   UNL A   1      38.950  23.206  26.515  1.00  0.00     0.202 C 
BRANCH  39  40
ATOM     40  C   UNL A   1      40.478  23.189  26.691  1.00  0.00     0.261 C 
BRANCH  40  41
ATOM     41  O   UNL A   1      41.194  24.343  26.239  1.00  0.00    -0.460 OA
BRANCH  41  42
ATOM     42  C   UNL A   1      42.278  24.720  26.952  1.00  0.00     0.338 C 
ATOM     43  O   UNL A   1      43.431  24.385  26.757  1.00  0.00    -0.246 OA
BRANCH  42  44
ATOM     44  C   UNL A   1      41.851  25.784  27.887  1.00  0.00     0.060 A 
ATOM     45  C   UNL A   1      42.590  26.974  27.937  1.00  0.00     0.016 A 
ATOM     46  C   UNL A   1      40.722  25.616  28.692  1.00  0.00     0.016 A 
ATOM     47  C   UNL A   1      42.230  27.982  28.830  1.00  0.00     0.010 A 
ATOM     48  C   UNL A   1      40.378  26.616  29.606  1.00  0.00     0.010 A 
ATOM     49  C   UNL A   1      41.159  27.781  29.709  1.00  0.00    -0.014 A 
BRANCH  49  50
ATOM     50  C   UNL A   1      41.031  28.655  30.901  1.00  0.00     0.031 A 
ATOM     51  C   UNL A   1      39.964  29.717  30.872  1.00  0.00     0.074 A 
ATOM     52  C   UNL A   1      41.800  28.488  31.989  1.00  0.00     0.049 A 
ATOM     53  N   UNL A   1      39.670  30.627  31.763  1.00  0.00    -0.248 NA
ATOM     54  C   UNL A   1      39.114  29.758  29.669  1.00  0.00     0.031 C 
ATOM     55  C   UNL A   1      42.826  27.459  32.154  1.00  0.00     0.029 A 
ATOM     56  N   UNL A   1      41.837  29.192  33.167  1.00  0.00    -0.354 N 
ATOM     57  C   UNL A   1      38.610  31.349  31.227  1.00  0.00     0.074 A 
ATOM     58  C   UNL A   1      38.338  30.801  29.917  1.00  0.00     0.031 C 
ATOM     59  C   UNL A   1      43.398  27.605  33.363  1.00  0.00     0.029 A 
ATOM     60  C   UNL A   1      42.802  28.756  34.042  1.00  0.00     0.049 A 
ATOM     61  H   UNL A   1      41.227  29.939  33.367  1.00  0.00     0.167 HD
ATOM     62  C   UNL A   1      37.915  32.370  31.781  1.00  0.00     0.037 A 
ATOM     63  C   UNL A   1      43.171  29.246  35.243  1.00  0.00     0.037 A 
ATOM     64  C   UNL A   1      38.197  32.914  33.082  1.00  0.00     0.049 A 
ATOM     65  C   UNL A   1      42.441  30.441  35.805  1.00  0.00     0.074 A 
ATOM     66  C   UNL A   1      37.558  33.950  33.739  1.00  0.00     0.029 A 
ATOM     67  N   UNL A   1      39.209  32.470  33.923  1.00  0.00    -0.354 N 
ATOM     68  N   UNL A   1      41.435  31.112  35.294  1.00  0.00    -0.248 NA
ATOM     69  C   UNL A   1      42.891  30.942  37.111  1.00  0.00     0.031 C 
ATOM     70  C   UNL A   1      38.221  34.172  34.950  1.00  0.00     0.029 A 
ATOM     71  C   UNL A   1      39.226  33.226  35.082  1.00  0.00     0.049 A 
ATOM     72  H   UNL A   1      39.823  31.727  33.723  1.00  0.00     0.167 HD
ATOM     73  C   UNL A   1      41.105  32.085  36.235  1.00  0.00     0.074 A 
ATOM     74  C   UNL A   1      42.017  31.911  37.347  1.00  0.00     0.031 C 
ATOM     75  C   UNL A   1      40.132  33.030  36.188  1.00  0.00     0.037 A 
BRANCH  62  76
ATOM     76  C   UNL A   1      36.808  32.981  30.964  1.00  0.00     0.058 A 
ATOM     77  C   UNL A   1      37.061  33.941  29.970  1.00  0.00     0.135 A 
ATOM     78  C   UNL A   1      35.475  32.593  31.173  1.00  0.00     0.135 A 
ATOM     79  F   UNL A   1      38.314  34.368  29.744  1.00  0.00    -0.206 F 
ATOM     80  C   UNL A   1      36.030  34.518  29.236  1.00  0.00     0.059 A 
ATOM     81  C   UNL A   1      34.431  33.131  30.427  1.00  0.00     0.059 A 
ATOM     82  F   UNL A   1      35.174  31.685  32.114  1.00  0.00    -0.206 F 
ATOM     83  C   UNL A   1      34.717  34.104  29.471  1.00  0.00     0.060 A 
BRANCH  83  84
ATOM     84  S   UNL A   1      33.391  34.862  28.509  1.00  0.00     0.124 S 
ATOM     85  O   UNL A   1      34.142  35.756  27.633  1.00  0.00    -0.237 OA
ATOM     86  O   UNL A   1      32.779  33.707  27.862  1.00  0.00    -0.237 OA
ATOM     87  O   UNL A   1      32.569  35.520  29.521  1.00  0.00    -0.744 OA
ENDBRANCH  83  84
ENDBRANCH  62  76
BRANCH  63  88
ATOM     88  C   UNL A   1      44.287  28.612  35.999  1.00  0.00     0.058 A 
ATOM     89  C   UNL A   1      45.613  29.038  35.830  1.00  0.00     0.135 A 
ATOM     90  C   UNL A   1      44.052  27.559  36.899  1.00  0.00     0.135 A 
ATOM     91  F   UNL A   1      45.893  30.031  34.972  1.00  0.00    -0.206 F 
ATOM     92  C   UNL A   1      46.667  28.435  36.509  1.00  0.00     0.059 A 
ATOM     93  C   UNL A   1      45.085  26.961  37.613  1.00  0.00     0.059 A 
ATOM     94  F   UNL A   1      42.802  27.117  37.105  1.00  0.00    -0.206 F 
ATOM     95  C   UNL A   1      46.391  27.399  37.404  1.00  0.00     0.060 A 
BRANCH  95  96
ATOM     96  S   UNL A   1      47.762  26.657  38.315  1.00  0.00     0.124 S 
ATOM     97  O   UNL A   1      48.397  27.831  38.901  1.00  0.00    -0.237 OA
ATOM     98  O   UNL A   1      47.065  25.775  39.247  1.00  0.00    -0.237 OA
ATOM     99  O   UNL A   1      48.528  25.978  37.275  1.00  0.00    -0.744 OA
ENDBRANCH  95  96
ENDBRANCH  63  88
BRANCH  75 100
ATOM    100  C   UNL A   1      39.953  33.912  37.396  1.00  0.00     0.058 A 
ATOM    101  C   UNL A   1      40.561  35.173  37.498  1.00  0.00     0.135 A 
ATOM    102  C   UNL A   1      39.110  33.506  38.444  1.00  0.00     0.135 A 
ATOM    103  F   UNL A   1      41.378  35.610  36.527  1.00  0.00    -0.206 F 
ATOM    104  C   UNL A   1      40.365  35.987  38.609  1.00  0.00     0.059 A 
ATOM    105  C   UNL A   1      38.872  34.318  39.549  1.00  0.00     0.059 A 
ATOM    106  F   UNL A   1      38.492  32.316  38.393  1.00  0.00    -0.206 F 
ATOM    107  C   UNL A   1      39.516  35.551  39.629  1.00  0.00     0.060 A 
BRANCH 107 108
ATOM    108  S   UNL A   1      39.248  36.630  41.052  1.00  0.00     0.124 S 
ATOM    109  O   UNL A   1      38.596  37.778  40.431  1.00  0.00    -0.237 OA
ATOM    110  O   UNL A   1      38.403  35.806  41.911  1.00  0.00    -0.237 OA
ATOM    111  O   UNL A   1      40.598  36.871  41.554  1.00  0.00    -0.744 OA
ENDBRANCH 107 108
ENDBRANCH  75 100
ENDBRANCH  49  50
ENDBRANCH  42  44
ENDBRANCH  41  42
ENDBRANCH  40  41
ENDBRANCH  39  40
ENDBRANCH  38  39
ENDBRANCH  37  38
ENDBRANCH  36  37
ENDBRANCH  35  36
ENDBRANCH  34  35
ENDBRANCH   1  34
TORSDOF 31
ENDMDL
