MODEL 1
REMARK VINA RESULT:      -9.2      0.000      0.000
REMARK SMILES O=C(C[C@H](c1ccsc1)n1cccc1)OCCOCCOCCOCCOC(=O)c1ccc(-c2c3nc(c(-c4c(F)cc(S(=O)(=O)[O-])cc4F)c4ccc([nH]4)c(-c4c(F)cc(S(=O)(=O)[O-])cc4F)c4nc(c(-c5c(F)cc(S(=O)(=O)[O-])cc5F)c5ccc2[nH]5)C=C4)C=C3)cc1
REMARK SMILES IDX 22 1 21 2 20 3 19 4 18 5 17 6 16 7 15 8 2 9 1 10 3 11 4 12
REMARK SMILES IDX 10 13 11 14 14 15 12 16 13 17 5 18 6 19 9 20 7 21 8 22 23 23
REMARK SMILES IDX 24 24 25 25 26 26 27 27 28 28 29 29 30 30 31 31 95 32 32 33
REMARK SMILES IDX 94 34 33 35 34 36 35 37 88 38 36 39 93 40 87 41 89 42 37 43
REMARK SMILES IDX 92 44 86 45 85 46 38 48 72 49 51 50 71 51 52 52 55 53 70 54
REMARK SMILES IDX 90 55 53 56 54 57 69 59 91 60 56 61 39 62 40 63 49 64 41 65
REMARK SMILES IDX 42 66 48 67 50 68 43 69 44 70 45 71 46 72 47 73 73 74 74 75
REMARK SMILES IDX 83 76 75 77 76 78 82 79 84 80 77 81 78 82 79 83 80 84 81 85
REMARK SMILES IDX 57 86 58 87 67 88 59 89 60 90 66 91 68 92 61 93 62 94 63 95
REMARK SMILES IDX 64 96 65 97
REMARK H PARENT 89 47 55 58
REMARK Flexibility Score: inf
ROOT
ATOM      1  C   UNL A   1      35.163  22.219  26.175  1.00  0.00     0.188 C 
ENDROOT
BRANCH   1   2
ATOM      2  O   UNL A   1      34.380  21.143  26.648  1.00  0.00    -0.377 OA
BRANCH   2   3
ATOM      3  C   UNL A   1      33.314  20.666  25.838  1.00  0.00     0.188 C 
BRANCH   3   4
ATOM      4  C   UNL A   1      33.325  21.002  24.345  1.00  0.00     0.188 C 
BRANCH   4   5
ATOM      5  O   UNL A   1      32.220  21.801  23.926  1.00  0.00    -0.376 OA
BRANCH   5   6
ATOM      6  C   UNL A   1      32.340  22.623  22.764  1.00  0.00     0.202 C 
BRANCH   6   7
ATOM      7  C   UNL A   1      33.729  23.130  22.391  1.00  0.00     0.261 C 
BRANCH   7   8
ATOM      8  O   UNL A   1      34.164  24.407  22.915  1.00  0.00    -0.463 OA
BRANCH   8   9
ATOM      9  C   UNL A   1      33.633  25.630  22.708  1.00  0.00     0.308 C 
ATOM     10  O   UNL A   1      32.942  25.833  21.713  1.00  0.00    -0.252 OA
BRANCH   9  11
ATOM     11  C   UNL A   1      33.830  26.700  23.739  1.00  0.00     0.153 C 
BRANCH  11  12
ATOM     12  C   UNL A   1      32.530  26.936  24.499  1.00  0.00     0.128 C 
BRANCH  12  13
ATOM     13  N   UNL A   1      32.044  25.707  25.144  1.00  0.00    -0.346 N 
ATOM     14  C   UNL A   1      32.714  25.054  26.155  1.00  0.00     0.086 A 
ATOM     15  C   UNL A   1      30.793  25.155  25.017  1.00  0.00     0.086 A 
ATOM     16  C   UNL A   1      31.883  24.086  26.671  1.00  0.00     0.019 A 
ATOM     17  C   UNL A   1      30.670  24.146  25.947  1.00  0.00     0.019 A 
ENDBRANCH  12  13
BRANCH  12  18
ATOM     18  C   UNL A   1      32.662  28.105  25.448  1.00  0.00    -0.014 A 
ATOM     19  C   UNL A   1      31.623  28.612  26.301  1.00  0.00     0.017 A 
ATOM     20  C   UNL A   1      33.866  28.729  25.734  1.00  0.00     0.070 A 
ATOM     21  C   UNL A   1      32.083  29.537  27.209  1.00  0.00     0.065 A 
ATOM     22  S   UNL A   1      33.747  29.860  27.009  1.00  0.00    -0.152 S 
ENDBRANCH  12  18
ENDBRANCH  11  12
ENDBRANCH   9  11
ENDBRANCH   8   9
ENDBRANCH   7   8
ENDBRANCH   6   7
ENDBRANCH   5   6
ENDBRANCH   4   5
ENDBRANCH   3   4
ENDBRANCH   2   3
ENDBRANCH   1   2
BRANCH   1  23
ATOM     23  C   UNL A   1      36.538  21.964  25.519  1.00  0.00     0.188 C 
BRANCH  23  24
ATOM     24  O   UNL A   1      37.146  20.701  25.326  1.00  0.00    -0.376 OA
BRANCH  24  25
ATOM     25  C   UNL A   1      38.540  20.445  25.349  1.00  0.00     0.202 C 
BRANCH  25  26
ATOM     26  C   UNL A   1      39.560  21.221  26.195  1.00  0.00     0.261 C 
BRANCH  26  27
ATOM     27  O   UNL A   1      40.003  22.438  25.627  1.00  0.00    -0.460 OA
BRANCH  27  28
ATOM     28  C   UNL A   1      40.861  23.078  26.446  1.00  0.00     0.338 C 
ATOM     29  O   UNL A   1      41.953  22.685  26.819  1.00  0.00    -0.246 OA
BRANCH  28  30
ATOM     30  C   UNL A   1      40.341  24.391  26.821  1.00  0.00     0.060 A 
ATOM     31  C   UNL A   1      41.074  25.485  26.348  1.00  0.00     0.016 A 
ATOM     32  C   UNL A   1      39.415  24.491  27.861  1.00  0.00     0.016 A 
ATOM     33  C   UNL A   1      41.065  26.645  27.083  1.00  0.00     0.010 A 
ATOM     34  C   UNL A   1      39.429  25.643  28.618  1.00  0.00     0.010 A 
ATOM     35  C   UNL A   1      40.329  26.662  28.269  1.00  0.00    -0.014 A 
BRANCH  35  36
ATOM     36  C   UNL A   1      40.604  27.752  29.210  1.00  0.00     0.031 A 
ATOM     37  C   UNL A   1      41.868  27.516  30.005  1.00  0.00     0.074 A 
ATOM     38  C   UNL A   1      39.660  28.740  29.228  1.00  0.00     0.049 A 
ATOM     39  N   UNL A   1      42.214  27.980  31.164  1.00  0.00    -0.248 NA
ATOM     40  C   UNL A   1      42.864  26.543  29.478  1.00  0.00     0.031 C 
ATOM     41  C   UNL A   1      38.447  28.746  28.380  1.00  0.00     0.029 A 
ATOM     42  N   UNL A   1      39.505  29.914  29.933  1.00  0.00    -0.354 N 
ATOM     43  C   UNL A   1      43.540  27.569  31.373  1.00  0.00     0.074 A 
ATOM     44  C   UNL A   1      43.826  26.562  30.398  1.00  0.00     0.031 C 
ATOM     45  C   UNL A   1      37.672  29.812  28.655  1.00  0.00     0.029 A 
ATOM     46  C   UNL A   1      38.297  30.617  29.682  1.00  0.00     0.049 A 
ATOM     47  H   UNL A   1      40.183  30.242  30.566  1.00  0.00     0.167 HD
ATOM     48  C   UNL A   1      44.393  28.205  32.219  1.00  0.00     0.037 A 
ATOM     49  C   UNL A   1      37.819  31.753  30.276  1.00  0.00     0.037 A 
ATOM     50  C   UNL A   1      43.745  29.281  32.894  1.00  0.00     0.049 A 
ATOM     51  C   UNL A   1      38.921  32.241  31.130  1.00  0.00     0.074 A 
ATOM     52  C   UNL A   1      42.835  29.332  33.917  1.00  0.00     0.029 A 
ATOM     53  N   UNL A   1      43.800  30.517  32.294  1.00  0.00    -0.354 N 
ATOM     54  N   UNL A   1      40.042  32.733  30.690  1.00  0.00    -0.248 NA
ATOM     55  C   UNL A   1      38.817  32.081  32.584  1.00  0.00     0.031 C 
ATOM     56  C   UNL A   1      42.094  30.513  33.683  1.00  0.00     0.029 A 
ATOM     57  C   UNL A   1      42.621  31.174  32.568  1.00  0.00     0.049 A 
ATOM     58  H   UNL A   1      44.549  30.870  31.762  1.00  0.00     0.167 HD
ATOM     59  C   UNL A   1      40.882  32.619  31.774  1.00  0.00     0.074 A 
ATOM     60  C   UNL A   1      40.032  32.493  32.937  1.00  0.00     0.031 C 
ATOM     61  C   UNL A   1      42.144  32.149  31.604  1.00  0.00     0.037 A 
BRANCH  48  62
ATOM     62  C   UNL A   1      45.884  28.101  32.316  1.00  0.00     0.058 A 
ATOM     63  C   UNL A   1      46.644  28.415  31.169  1.00  0.00     0.135 A 
ATOM     64  C   UNL A   1      46.548  27.408  33.342  1.00  0.00     0.135 A 
ATOM     65  F   UNL A   1      46.104  29.120  30.162  1.00  0.00    -0.206 F 
ATOM     66  C   UNL A   1      47.943  27.953  30.993  1.00  0.00     0.059 A 
ATOM     67  C   UNL A   1      47.865  26.974  33.204  1.00  0.00     0.059 A 
ATOM     68  F   UNL A   1      45.912  27.055  34.468  1.00  0.00    -0.206 F 
ATOM     69  C   UNL A   1      48.529  27.196  32.001  1.00  0.00     0.060 A 
BRANCH  69  70
ATOM     70  S   UNL A   1      50.141  26.450  31.695  1.00  0.00     0.124 S 
ATOM     71  O   UNL A   1      50.891  26.883  32.869  1.00  0.00    -0.237 OA
ATOM     72  O   UNL A   1      49.823  25.025  31.638  1.00  0.00    -0.237 OA
ATOM     73  O   UNL A   1      50.548  27.043  30.425  1.00  0.00    -0.744 OA
ENDBRANCH  69  70
ENDBRANCH  48  62
BRANCH  49  74
ATOM     74  C   UNL A   1      36.502  32.503  30.346  1.00  0.00     0.058 A 
ATOM     75  C   UNL A   1      35.572  32.457  31.396  1.00  0.00     0.135 A 
ATOM     76  C   UNL A   1      36.204  33.485  29.358  1.00  0.00     0.135 A 
ATOM     77  F   UNL A   1      35.634  31.525  32.352  1.00  0.00    -0.206 F 
ATOM     78  C   UNL A   1      34.534  33.393  31.538  1.00  0.00     0.059 A 
ATOM     79  C   UNL A   1      35.212  34.455  29.499  1.00  0.00     0.059 A 
ATOM     80  F   UNL A   1      36.911  33.573  28.223  1.00  0.00    -0.206 F 
ATOM     81  C   UNL A   1      34.397  34.423  30.615  1.00  0.00     0.060 A 
BRANCH  81  82
ATOM     82  S   UNL A   1      33.268  35.797  30.921  1.00  0.00     0.124 S 
ATOM     83  O   UNL A   1      32.994  36.274  29.570  1.00  0.00    -0.237 OA
ATOM     84  O   UNL A   1      32.150  35.153  31.605  1.00  0.00    -0.237 OA
ATOM     85  O   UNL A   1      34.065  36.690  31.758  1.00  0.00    -0.744 OA
ENDBRANCH  81  82
ENDBRANCH  49  74
BRANCH  61  86
ATOM     86  C   UNL A   1      42.697  32.361  30.204  1.00  0.00     0.058 A 
ATOM     87  C   UNL A   1      42.932  31.268  29.355  1.00  0.00     0.135 A 
ATOM     88  C   UNL A   1      43.104  33.614  29.716  1.00  0.00     0.135 A 
ATOM     89  F   UNL A   1      42.574  30.033  29.740  1.00  0.00    -0.206 F 
ATOM     90  C   UNL A   1      43.537  31.415  28.101  1.00  0.00     0.059 A 
ATOM     91  C   UNL A   1      43.699  33.795  28.467  1.00  0.00     0.059 A 
ATOM     92  F   UNL A   1      42.934  34.709  30.455  1.00  0.00    -0.206 F 
ATOM     93  C   UNL A   1      43.920  32.684  27.665  1.00  0.00     0.060 A 
BRANCH  93  94
ATOM     94  S   UNL A   1      44.705  32.867  26.047  1.00  0.00     0.124 S 
ATOM     95  O   UNL A   1      43.606  33.354  25.220  1.00  0.00    -0.237 OA
ATOM     96  O   UNL A   1      45.761  33.834  26.327  1.00  0.00    -0.237 OA
ATOM     97  O   UNL A   1      45.165  31.516  25.731  1.00  0.00    -0.744 OA
ENDBRANCH  93  94
ENDBRANCH  61  86
ENDBRANCH  35  36
ENDBRANCH  28  30
ENDBRANCH  27  28
ENDBRANCH  26  27
ENDBRANCH  25  26
ENDBRANCH  24  25
ENDBRANCH  23  24
ENDBRANCH   1  23
TORSDOF 26
ENDMDL
MODEL 2
REMARK VINA RESULT:      -9.0      1.623      2.329
REMARK SMILES O=C(C[C@H](c1ccsc1)n1cccc1)OCCOCCOCCOCCOC(=O)c1ccc(-c2c3nc(c(-c4c(F)cc(S(=O)(=O)[O-])cc4F)c4ccc([nH]4)c(-c4c(F)cc(S(=O)(=O)[O-])cc4F)c4nc(c(-c5c(F)cc(S(=O)(=O)[O-])cc5F)c5ccc2[nH]5)C=C4)C=C3)cc1
REMARK SMILES IDX 22 1 21 2 20 3 19 4 18 5 17 6 16 7 15 8 2 9 1 10 3 11 4 12
REMARK SMILES IDX 10 13 11 14 14 15 12 16 13 17 5 18 6 19 9 20 7 21 8 22 23 23
REMARK SMILES IDX 24 24 25 25 26 26 27 27 28 28 29 29 30 30 31 31 95 32 32 33
REMARK SMILES IDX 94 34 33 35 34 36 35 37 88 38 36 39 93 40 87 41 89 42 37 43
REMARK SMILES IDX 92 44 86 45 85 46 38 48 72 49 51 50 71 51 52 52 55 53 70 54
REMARK SMILES IDX 90 55 53 56 54 57 69 59 91 60 56 61 39 62 40 63 49 64 41 65
REMARK SMILES IDX 42 66 48 67 50 68 43 69 44 70 45 71 46 72 47 73 73 74 74 75
REMARK SMILES IDX 83 76 75 77 76 78 82 79 84 80 77 81 78 82 79 83 80 84 81 85
REMARK SMILES IDX 57 86 58 87 67 88 59 89 60 90 66 91 68 92 61 93 62 94 63 95
REMARK SMILES IDX 64 96 65 97
REMARK H PARENT 89 47 55 58
REMARK Flexibility Score: inf
ROOT
ATOM      1  C   UNL A   1      35.384  21.209  25.282  1.00  0.00     0.188 C 
ENDROOT
BRANCH   1   2
ATOM      2  O   UNL A   1      35.226  21.963  26.465  1.00  0.00    -0.377 OA
BRANCH   2   3
ATOM      3  C   UNL A   1      34.262  23.007  26.486  1.00  0.00     0.188 C 
BRANCH   3   4
ATOM      4  C   UNL A   1      33.268  23.105  25.327  1.00  0.00     0.188 C 
BRANCH   4   5
ATOM      5  O   UNL A   1      32.032  22.436  25.570  1.00  0.00    -0.376 OA
BRANCH   5   6
ATOM      6  C   UNL A   1      31.168  22.896  26.610  1.00  0.00     0.202 C 
BRANCH   6   7
ATOM      7  C   UNL A   1      30.020  23.823  26.224  1.00  0.00     0.261 C 
BRANCH   7   8
ATOM      8  O   UNL A   1      30.007  25.169  26.756  1.00  0.00    -0.463 OA
BRANCH   8   9
ATOM      9  C   UNL A   1      30.613  26.273  26.272  1.00  0.00     0.308 C 
ATOM     10  O   UNL A   1      30.943  27.173  27.041  1.00  0.00    -0.252 OA
BRANCH   9  11
ATOM     11  C   UNL A   1      30.944  26.349  24.812  1.00  0.00     0.153 C 
BRANCH  11  12
ATOM     12  C   UNL A   1      31.204  27.797  24.413  1.00  0.00     0.128 C 
BRANCH  12  13
ATOM     13  N   UNL A   1      32.447  27.937  23.640  1.00  0.00    -0.346 N 
ATOM     14  C   UNL A   1      32.718  27.229  22.489  1.00  0.00     0.086 A 
ATOM     15  C   UNL A   1      33.403  28.911  23.794  1.00  0.00     0.086 A 
ATOM     16  C   UNL A   1      33.850  27.760  21.912  1.00  0.00     0.019 A 
ATOM     17  C   UNL A   1      34.286  28.819  22.740  1.00  0.00     0.019 A 
ENDBRANCH  12  13
BRANCH  12  18
ATOM     18  C   UNL A   1      29.996  28.395  23.728  1.00  0.00    -0.014 A 
ATOM     19  C   UNL A   1      28.807  27.680  23.354  1.00  0.00     0.017 A 
ATOM     20  C   UNL A   1      29.823  29.756  23.527  1.00  0.00     0.070 A 
ATOM     21  C   UNL A   1      27.791  28.514  22.947  1.00  0.00     0.065 A 
ATOM     22  S   UNL A   1      28.268  30.152  22.942  1.00  0.00    -0.152 S 
ENDBRANCH  12  18
ENDBRANCH  11  12
ENDBRANCH   9  11
ENDBRANCH   8   9
ENDBRANCH   7   8
ENDBRANCH   6   7
ENDBRANCH   5   6
ENDBRANCH   4   5
ENDBRANCH   3   4
ENDBRANCH   2   3
ENDBRANCH   1   2
BRANCH   1  23
ATOM     23  C   UNL A   1      36.677  20.402  25.028  1.00  0.00     0.188 C 
BRANCH  23  24
ATOM     24  O   UNL A   1      37.986  20.934  24.950  1.00  0.00    -0.376 OA
BRANCH  24  25
ATOM     25  C   UNL A   1      38.626  21.699  25.958  1.00  0.00     0.202 C 
BRANCH  25  26
ATOM     26  C   UNL A   1      40.124  21.639  26.286  1.00  0.00     0.261 C 
BRANCH  26  27
ATOM     27  O   UNL A   1      40.906  22.660  25.698  1.00  0.00    -0.460 OA
BRANCH  27  28
ATOM     28  C   UNL A   1      41.611  23.336  26.626  1.00  0.00     0.338 C 
ATOM     29  O   UNL A   1      42.677  23.009  27.120  1.00  0.00    -0.246 OA
BRANCH  28  30
ATOM     30  C   UNL A   1      40.957  24.598  26.961  1.00  0.00     0.060 A 
ATOM     31  C   UNL A   1      41.563  25.746  26.439  1.00  0.00     0.016 A 
ATOM     32  C   UNL A   1      40.036  24.636  28.010  1.00  0.00     0.016 A 
ATOM     33  C   UNL A   1      41.436  26.925  27.130  1.00  0.00     0.010 A 
ATOM     34  C   UNL A   1      39.933  25.812  28.724  1.00  0.00     0.010 A 
ATOM     35  C   UNL A   1      40.715  26.907  28.326  1.00  0.00    -0.014 A 
BRANCH  35  36
ATOM     36  C   UNL A   1      40.880  28.055  29.223  1.00  0.00     0.031 A 
ATOM     37  C   UNL A   1      42.110  27.928  30.092  1.00  0.00     0.074 A 
ATOM     38  C   UNL A   1      39.885  28.988  29.142  1.00  0.00     0.049 A 
ATOM     39  N   UNL A   1      42.368  28.467  31.243  1.00  0.00    -0.248 NA
ATOM     40  C   UNL A   1      43.184  26.988  29.668  1.00  0.00     0.031 C 
ATOM     41  C   UNL A   1      38.721  28.886  28.233  1.00  0.00     0.029 A 
ATOM     42  N   UNL A   1      39.630  30.184  29.777  1.00  0.00    -0.354 N 
ATOM     43  C   UNL A   1      43.700  28.140  31.541  1.00  0.00     0.074 A 
ATOM     44  C   UNL A   1      44.092  27.105  30.634  1.00  0.00     0.031 C 
ATOM     45  C   UNL A   1      37.877  29.919  28.413  1.00  0.00     0.029 A 
ATOM     46  C   UNL A   1      38.402  30.806  29.429  1.00  0.00     0.049 A 
ATOM     47  H   UNL A   1      40.255  30.580  30.426  1.00  0.00     0.167 HD
ATOM     48  C   UNL A   1      44.472  28.863  32.395  1.00  0.00     0.037 A 
ATOM     49  C   UNL A   1      37.833  31.942  29.939  1.00  0.00     0.037 A 
ATOM     50  C   UNL A   1      43.731  29.932  32.980  1.00  0.00     0.049 A 
ATOM     51  C   UNL A   1      38.860  32.531  30.822  1.00  0.00     0.074 A 
ATOM     52  C   UNL A   1      42.766  29.982  33.951  1.00  0.00     0.029 A 
ATOM     53  N   UNL A   1      43.753  31.139  32.321  1.00  0.00    -0.354 N 
ATOM     54  N   UNL A   1      39.975  33.062  30.415  1.00  0.00    -0.248 NA
ATOM     55  C   UNL A   1      38.686  32.435  32.275  1.00  0.00     0.031 C 
ATOM     56  C   UNL A   1      41.978  31.107  33.619  1.00  0.00     0.029 A 
ATOM     57  C   UNL A   1      42.528  31.742  32.501  1.00  0.00     0.049 A 
ATOM     58  H   UNL A   1      44.511  31.507  31.811  1.00  0.00     0.167 HD
ATOM     59  C   UNL A   1      40.760  33.048  31.546  1.00  0.00     0.074 A 
ATOM     60  C   UNL A   1      39.856  32.931  32.668  1.00  0.00     0.031 C 
ATOM     61  C   UNL A   1      42.053  32.641  31.465  1.00  0.00     0.037 A 
BRANCH  48  62
ATOM     62  C   UNL A   1      45.959  28.847  32.574  1.00  0.00     0.058 A 
ATOM     63  C   UNL A   1      46.757  29.310  31.506  1.00  0.00     0.135 A 
ATOM     64  C   UNL A   1      46.611  28.110  33.576  1.00  0.00     0.135 A 
ATOM     65  F   UNL A   1      46.225  30.066  30.532  1.00  0.00    -0.206 F 
ATOM     66  C   UNL A   1      48.092  28.950  31.371  1.00  0.00     0.059 A 
ATOM     67  C   UNL A   1      47.960  27.776  33.483  1.00  0.00     0.059 A 
ATOM     68  F   UNL A   1      45.940  27.618  34.627  1.00  0.00    -0.206 F 
ATOM     69  C   UNL A   1      48.673  28.146  32.346  1.00  0.00     0.060 A 
BRANCH  69  70
ATOM     70  S   UNL A   1      50.348  27.535  32.076  1.00  0.00     0.124 S 
ATOM     71  O   UNL A   1      50.804  28.403  30.996  1.00  0.00    -0.237 OA
ATOM     72  O   UNL A   1      50.977  27.759  33.376  1.00  0.00    -0.237 OA
ATOM     73  O   UNL A   1      50.140  26.135  31.725  1.00  0.00    -0.744 OA
ENDBRANCH  69  70
ENDBRANCH  48  62
BRANCH  49  74
ATOM     74  C   UNL A   1      36.476  32.619  29.902  1.00  0.00     0.058 A 
ATOM     75  C   UNL A   1      35.473  32.528  30.880  1.00  0.00     0.135 A 
ATOM     76  C   UNL A   1      36.201  33.577  28.885  1.00  0.00     0.135 A 
ATOM     77  F   UNL A   1      35.514  31.607  31.848  1.00  0.00    -0.206 F 
ATOM     78  C   UNL A   1      34.379  33.408  30.935  1.00  0.00     0.059 A 
ATOM     79  C   UNL A   1      35.151  34.493  28.942  1.00  0.00     0.059 A 
ATOM     80  F   UNL A   1      36.986  33.698  27.805  1.00  0.00    -0.206 F 
ATOM     81  C   UNL A   1      34.257  34.424  29.994  1.00  0.00     0.060 A 
BRANCH  81  82
ATOM     82  S   UNL A   1      33.036  35.737  30.201  1.00  0.00     0.124 S 
ATOM     83  O   UNL A   1      32.226  35.228  31.302  1.00  0.00    -0.237 OA
ATOM     84  O   UNL A   1      33.861  36.903  30.505  1.00  0.00    -0.237 OA
ATOM     85  O   UNL A   1      32.380  35.776  28.897  1.00  0.00    -0.744 OA
ENDBRANCH  81  82
ENDBRANCH  49  74
BRANCH  61  86
ATOM     86  C   UNL A   1      42.669  32.816  30.086  1.00  0.00     0.058 A 
ATOM     87  C   UNL A   1      42.988  31.698  29.299  1.00  0.00     0.135 A 
ATOM     88  C   UNL A   1      43.052  34.063  29.565  1.00  0.00     0.135 A 
ATOM     89  F   UNL A   1      42.657  30.468  29.720  1.00  0.00    -0.206 F 
ATOM     90  C   UNL A   1      43.651  31.817  28.072  1.00  0.00     0.059 A 
ATOM     91  C   UNL A   1      43.704  34.214  28.340  1.00  0.00     0.059 A 
ATOM     92  F   UNL A   1      42.803  35.180  30.245  1.00  0.00    -0.206 F 
ATOM     93  C   UNL A   1      44.008  33.081  27.600  1.00  0.00     0.060 A 
BRANCH  93  94
ATOM     94  S   UNL A   1      44.867  33.226  26.016  1.00  0.00     0.124 S 
ATOM     95  O   UNL A   1      45.096  34.664  25.916  1.00  0.00    -0.237 OA
ATOM     96  O   UNL A   1      46.057  32.412  26.239  1.00  0.00    -0.237 OA
ATOM     97  O   UNL A   1      43.912  32.684  25.052  1.00  0.00    -0.744 OA
ENDBRANCH  93  94
ENDBRANCH  61  86
ENDBRANCH  35  36
ENDBRANCH  28  30
ENDBRANCH  27  28
ENDBRANCH  26  27
ENDBRANCH  25  26
ENDBRANCH  24  25
ENDBRANCH  23  24
ENDBRANCH   1  23
TORSDOF 26
ENDMDL
MODEL 3
REMARK VINA RESULT:      -8.8      1.417      2.326
REMARK SMILES O=C(C[C@H](c1ccsc1)n1cccc1)OCCOCCOCCOCCOC(=O)c1ccc(-c2c3nc(c(-c4c(F)cc(S(=O)(=O)[O-])cc4F)c4ccc([nH]4)c(-c4c(F)cc(S(=O)(=O)[O-])cc4F)c4nc(c(-c5c(F)cc(S(=O)(=O)[O-])cc5F)c5ccc2[nH]5)C=C4)C=C3)cc1
REMARK SMILES IDX 22 1 21 2 20 3 19 4 18 5 17 6 16 7 15 8 2 9 1 10 3 11 4 12
REMARK SMILES IDX 10 13 11 14 14 15 12 16 13 17 5 18 6 19 9 20 7 21 8 22 23 23
REMARK SMILES IDX 24 24 25 25 26 26 27 27 28 28 29 29 30 30 31 31 95 32 32 33
REMARK SMILES IDX 94 34 33 35 34 36 35 37 88 38 36 39 93 40 87 41 89 42 37 43
REMARK SMILES IDX 92 44 86 45 85 46 38 48 72 49 51 50 71 51 52 52 55 53 70 54
REMARK SMILES IDX 90 55 53 56 54 57 69 59 91 60 56 61 39 62 40 63 49 64 41 65
REMARK SMILES IDX 42 66 48 67 50 68 43 69 44 70 45 71 46 72 47 73 73 74 74 75
REMARK SMILES IDX 83 76 75 77 76 78 82 79 84 80 77 81 78 82 79 83 80 84 81 85
REMARK SMILES IDX 57 86 58 87 67 88 59 89 60 90 66 91 68 92 61 93 62 94 63 95
REMARK SMILES IDX 64 96 65 97
REMARK H PARENT 89 47 55 58
REMARK Flexibility Score: inf
ROOT
ATOM      1  C   UNL A   1      35.424  21.222  25.441  1.00  0.00     0.188 C 
ENDROOT
BRANCH   1   2
ATOM      2  O   UNL A   1      35.535  22.151  26.498  1.00  0.00    -0.377 OA
BRANCH   2   3
ATOM      3  C   UNL A   1      34.352  22.745  27.013  1.00  0.00     0.188 C 
BRANCH   3   4
ATOM      4  C   UNL A   1      33.561  23.694  26.110  1.00  0.00     0.188 C 
BRANCH   4   5
ATOM      5  O   UNL A   1      32.331  23.147  25.636  1.00  0.00    -0.376 OA
BRANCH   5   6
ATOM      6  C   UNL A   1      31.329  22.740  26.568  1.00  0.00     0.202 C 
BRANCH   6   7
ATOM      7  C   UNL A   1      30.066  23.588  26.670  1.00  0.00     0.261 C 
BRANCH   7   8
ATOM      8  O   UNL A   1      30.204  25.023  26.799  1.00  0.00    -0.463 OA
BRANCH   8   9
ATOM      9  C   UNL A   1      30.642  25.914  25.884  1.00  0.00     0.308 C 
ATOM     10  O   UNL A   1      30.592  25.634  24.689  1.00  0.00    -0.252 OA
BRANCH   9  11
ATOM     11  C   UNL A   1      31.111  27.263  26.340  1.00  0.00     0.153 C 
BRANCH  11  12
ATOM     12  C   UNL A   1      32.562  27.476  25.926  1.00  0.00     0.128 C 
BRANCH  12  13
ATOM     13  N   UNL A   1      32.710  27.543  24.465  1.00  0.00    -0.346 N 
ATOM     14  C   UNL A   1      32.134  28.516  23.678  1.00  0.00     0.086 A 
ATOM     15  C   UNL A   1      33.589  26.818  23.696  1.00  0.00     0.086 A 
ATOM     16  C   UNL A   1      32.653  28.408  22.407  1.00  0.00     0.019 A 
ATOM     17  C   UNL A   1      33.568  27.331  22.417  1.00  0.00     0.019 A 
ENDBRANCH  12  13
BRANCH  12  18
ATOM     18  C   UNL A   1      33.163  28.660  26.648  1.00  0.00    -0.014 A 
ATOM     19  C   UNL A   1      34.554  28.828  26.968  1.00  0.00     0.017 A 
ATOM     20  C   UNL A   1      32.459  29.817  26.944  1.00  0.00     0.070 A 
ATOM     21  C   UNL A   1      34.846  30.090  27.431  1.00  0.00     0.065 A 
ATOM     22  S   UNL A   1      33.452  31.066  27.552  1.00  0.00    -0.152 S 
ENDBRANCH  12  18
ENDBRANCH  11  12
ENDBRANCH   9  11
ENDBRANCH   8   9
ENDBRANCH   7   8
ENDBRANCH   6   7
ENDBRANCH   5   6
ENDBRANCH   4   5
ENDBRANCH   3   4
ENDBRANCH   2   3
ENDBRANCH   1   2
BRANCH   1  23
ATOM     23  C   UNL A   1      36.624  20.333  25.043  1.00  0.00     0.188 C 
BRANCH  23  24
ATOM     24  O   UNL A   1      37.970  20.755  24.936  1.00  0.00    -0.376 OA
BRANCH  24  25
ATOM     25  C   UNL A   1      38.712  21.412  25.950  1.00  0.00     0.202 C 
BRANCH  25  26
ATOM     26  C   UNL A   1      40.192  21.153  26.262  1.00  0.00     0.261 C 
BRANCH  26  27
ATOM     27  O   UNL A   1      41.097  22.048  25.647  1.00  0.00    -0.460 OA
BRANCH  27  28
ATOM     28  C   UNL A   1      41.825  22.718  26.564  1.00  0.00     0.338 C 
ATOM     29  O   UNL A   1      42.865  22.354  27.085  1.00  0.00    -0.246 OA
BRANCH  28  30
ATOM     30  C   UNL A   1      41.233  24.023  26.847  1.00  0.00     0.060 A 
ATOM     31  C   UNL A   1      41.939  25.124  26.348  1.00  0.00     0.016 A 
ATOM     32  C   UNL A   1      40.257  24.134  27.839  1.00  0.00     0.016 A 
ATOM     33  C   UNL A   1      41.846  26.318  27.019  1.00  0.00     0.010 A 
ATOM     34  C   UNL A   1      40.188  25.323  28.534  1.00  0.00     0.010 A 
ATOM     35  C   UNL A   1      41.058  26.362  28.171  1.00  0.00    -0.014 A 
BRANCH  35  36
ATOM     36  C   UNL A   1      41.243  27.509  29.064  1.00  0.00     0.031 A 
ATOM     37  C   UNL A   1      42.477  27.371  29.925  1.00  0.00     0.074 A 
ATOM     38  C   UNL A   1      40.258  28.454  28.988  1.00  0.00     0.049 A 
ATOM     39  N   UNL A   1      42.750  27.909  31.072  1.00  0.00    -0.248 NA
ATOM     40  C   UNL A   1      43.537  26.417  29.494  1.00  0.00     0.031 C 
ATOM     41  C   UNL A   1      39.087  28.364  28.087  1.00  0.00     0.029 A 
ATOM     42  N   UNL A   1      40.022  29.655  29.622  1.00  0.00    -0.354 N 
ATOM     43  C   UNL A   1      44.081  27.568  31.361  1.00  0.00     0.074 A 
ATOM     44  C   UNL A   1      44.454  26.526  30.454  1.00  0.00     0.031 C 
ATOM     45  C   UNL A   1      38.256  29.406  28.271  1.00  0.00     0.029 A 
ATOM     46  C   UNL A   1      38.799  30.290  29.281  1.00  0.00     0.049 A 
ATOM     47  H   UNL A   1      40.656  30.044  30.266  1.00  0.00     0.167 HD
ATOM     48  C   UNL A   1      44.867  28.283  32.208  1.00  0.00     0.037 A 
ATOM     49  C   UNL A   1      38.247  31.433  29.792  1.00  0.00     0.037 A 
ATOM     50  C   UNL A   1      44.143  29.362  32.796  1.00  0.00     0.049 A 
ATOM     51  C   UNL A   1      39.286  32.012  30.667  1.00  0.00     0.074 A 
ATOM     52  C   UNL A   1      43.185  29.426  33.774  1.00  0.00     0.029 A 
ATOM     53  N   UNL A   1      44.174  30.568  32.134  1.00  0.00    -0.354 N 
ATOM     54  N   UNL A   1      40.405  32.530  30.251  1.00  0.00    -0.248 NA
ATOM     55  C   UNL A   1      39.122  31.922  32.122  1.00  0.00     0.031 C 
ATOM     56  C   UNL A   1      42.407  30.559  33.445  1.00  0.00     0.029 A 
ATOM     57  C   UNL A   1      42.957  31.185  32.321  1.00  0.00     0.049 A 
ATOM     58  H   UNL A   1      44.932  30.926  31.617  1.00  0.00     0.167 HD
ATOM     59  C   UNL A   1      41.197  32.509  31.375  1.00  0.00     0.074 A 
ATOM     60  C   UNL A   1      40.300  32.405  32.505  1.00  0.00     0.031 C 
ATOM     61  C   UNL A   1      42.485  32.087  31.287  1.00  0.00     0.037 A 
BRANCH  48  62
ATOM     62  C   UNL A   1      46.355  28.250  32.376  1.00  0.00     0.058 A 
ATOM     63  C   UNL A   1      46.873  27.669  33.553  1.00  0.00     0.135 A 
ATOM     64  C   UNL A   1      47.238  29.036  31.618  1.00  0.00     0.135 A 
ATOM     65  F   UNL A   1      46.113  26.862  34.310  1.00  0.00    -0.206 F 
ATOM     66  C   UNL A   1      48.149  27.960  34.021  1.00  0.00     0.059 A 
ATOM     67  C   UNL A   1      48.536  29.304  32.046  1.00  0.00     0.059 A 
ATOM     68  F   UNL A   1      46.840  29.638  30.489  1.00  0.00    -0.206 F 
ATOM     69  C   UNL A   1      48.958  28.814  33.279  1.00  0.00     0.060 A 
BRANCH  69  70
ATOM     70  S   UNL A   1      50.539  29.329  33.977  1.00  0.00     0.124 S 
ATOM     71  O   UNL A   1      50.512  30.766  33.729  1.00  0.00    -0.237 OA
ATOM     72  O   UNL A   1      50.411  28.926  35.376  1.00  0.00    -0.237 OA
ATOM     73  O   UNL A   1      51.510  28.566  33.201  1.00  0.00    -0.744 OA
ENDBRANCH  69  70
ENDBRANCH  48  62
BRANCH  49  74
ATOM     74  C   UNL A   1      36.897  32.126  29.764  1.00  0.00     0.058 A 
ATOM     75  C   UNL A   1      35.779  31.805  30.550  1.00  0.00     0.135 A 
ATOM     76  C   UNL A   1      36.742  33.323  29.007  1.00  0.00     0.135 A 
ATOM     77  F   UNL A   1      35.707  30.662  31.239  1.00  0.00    -0.206 F 
ATOM     78  C   UNL A   1      34.677  32.664  30.695  1.00  0.00     0.059 A 
ATOM     79  C   UNL A   1      35.683  34.215  29.169  1.00  0.00     0.059 A 
ATOM     80  F   UNL A   1      37.657  33.704  28.104  1.00  0.00    -0.206 F 
ATOM     81  C   UNL A   1      34.663  33.893  30.045  1.00  0.00     0.060 A 
BRANCH  81  82
ATOM     82  S   UNL A   1      33.410  35.132  30.433  1.00  0.00     0.124 S 
ATOM     83  O   UNL A   1      33.128  34.851  31.836  1.00  0.00    -0.237 OA
ATOM     84  O   UNL A   1      34.103  36.390  30.164  1.00  0.00    -0.237 OA
ATOM     85  O   UNL A   1      32.338  34.812  29.495  1.00  0.00    -0.744 OA
ENDBRANCH  81  82
ENDBRANCH  49  74
BRANCH  61  86
ATOM     86  C   UNL A   1      43.093  32.251  29.903  1.00  0.00     0.058 A 
ATOM     87  C   UNL A   1      43.313  31.135  29.081  1.00  0.00     0.135 A 
ATOM     88  C   UNL A   1      43.565  33.479  29.408  1.00  0.00     0.135 A 
ATOM     89  F   UNL A   1      42.892  29.922  29.474  1.00  0.00    -0.206 F 
ATOM     90  C   UNL A   1      43.965  31.235  27.847  1.00  0.00     0.059 A 
ATOM     91  C   UNL A   1      44.209  33.613  28.177  1.00  0.00     0.059 A 
ATOM     92  F   UNL A   1      43.414  34.593  30.122  1.00  0.00    -0.206 F 
ATOM     93  C   UNL A   1      44.413  32.480  27.402  1.00  0.00     0.060 A 
BRANCH  93  94
ATOM     94  S   UNL A   1      45.258  32.602  25.809  1.00  0.00     0.124 S 
ATOM     95  O   UNL A   1      45.947  31.318  25.723  1.00  0.00    -0.237 OA
ATOM     96  O   UNL A   1      44.144  32.783  24.885  1.00  0.00    -0.237 OA
ATOM     97  O   UNL A   1      46.131  33.763  25.968  1.00  0.00    -0.744 OA
ENDBRANCH  93  94
ENDBRANCH  61  86
ENDBRANCH  35  36
ENDBRANCH  28  30
ENDBRANCH  27  28
ENDBRANCH  26  27
ENDBRANCH  25  26
ENDBRANCH  24  25
ENDBRANCH  23  24
ENDBRANCH   1  23
TORSDOF 26
ENDMDL
