MODEL 1
REMARK VINA RESULT:      -9.3      0.000      0.000
REMARK SMILES Cc1ccc(S(=O)(=O)n2cc(C(=O)C(=O)N[C@@H](Cc3c[nH]c4ccccc34)C(=O)OCCOCCOCCOCCOC(=O)c3ccc(-c4c5nc(c(-c6c(F)cc(S(=O)(=O)[O-])cc6F)c6ccc([nH]6)c(-c6c(F)cc(S(=O)(=O)[O-])cc6F)c6nc(c(-c7c(F)cc(S(=O)(=O)[O-])cc7F)c7ccc4[nH]7)C=C6)C=C5)cc3)c3ccccc32)cc1
REMARK SMILES IDX 35 1 34 2 33 3 32 4 31 5 30 6 28 7 29 8 17 9 16 10 14 11
REMARK SMILES IDX 15 12 12 14 13 15 11 16 9 17 10 18 116 19 111 20 115 21
REMARK SMILES IDX 112 22 114 23 113 24 6 25 7 26 8 27 5 28 1 29 2 30 3 31
REMARK SMILES IDX 118 32 4 33 117 34 18 35 19 36 20 37 27 38 21 39 22 40 26 41
REMARK SMILES IDX 23 43 25 44 24 45 36 46 37 47 38 48 39 49 40 50 41 51 42 52
REMARK SMILES IDX 43 53 44 54 45 55 46 56 110 57 47 58 109 59 48 60 49 61
REMARK SMILES IDX 50 62 103 63 51 64 108 65 102 66 104 67 52 68 107 69 101 70
REMARK SMILES IDX 100 71 53 73 87 74 66 75 86 76 67 77 70 78 85 79 105 80
REMARK SMILES IDX 68 81 69 82 84 84 106 85 71 86 54 87 55 88 64 89 56 90 57 91
REMARK SMILES IDX 63 92 65 93 58 94 59 95 60 96 61 97 62 98 88 99 89 100
REMARK SMILES IDX 98 101 90 102 91 103 97 104 99 105 92 106 93 107 94 108
REMARK SMILES IDX 95 109 96 110 72 111 73 112 82 113 74 114 75 115 81 116
REMARK SMILES IDX 83 117 76 118 77 119 78 120 79 121 80 122
REMARK H PARENT 16 13 21 42 104 72 70 83
REMARK Flexibility Score: inf
ROOT
ATOM      1  C   UNL A   1      36.790  23.442  24.935  1.00  0.00     0.188 C 
ENDROOT
BRANCH   1   2
ATOM      2  C   UNL A   1      36.674  23.024  23.455  1.00  0.00     0.188 C 
BRANCH   2   3
ATOM      3  O   UNL A   1      35.287  22.952  23.133  1.00  0.00    -0.376 OA
BRANCH   3   4
ATOM      4  C   UNL A   1      34.552  24.130  23.429  1.00  0.00     0.202 C 
BRANCH   4   5
ATOM      5  C   UNL A   1      33.384  24.328  22.494  1.00  0.00     0.261 C 
BRANCH   5   6
ATOM      6  O   UNL A   1      32.714  23.115  22.250  1.00  0.00    -0.462 OA
BRANCH   6   7
ATOM      7  C   UNL A   1      31.621  22.984  23.041  1.00  0.00     0.329 C 
ATOM      8  O   UNL A   1      30.555  23.586  22.953  1.00  0.00    -0.250 OA
BRANCH   7   9
ATOM      9  C   UNL A   1      32.018  22.199  24.264  1.00  0.00     0.197 C 
BRANCH   9  10
ATOM     10  N   UNL A   1      31.060  22.265  25.398  1.00  0.00    -0.335 N 
ATOM     11  C   UNL A   1      31.142  23.070  26.536  1.00  0.00     0.293 C 
ATOM     12  O   UNL A   1      30.424  22.898  27.513  1.00  0.00    -0.265 OA
ATOM     13  H   UNL A   1      30.275  21.673  25.339  1.00  0.00     0.164 HD
BRANCH  11  14
ATOM     14  C   UNL A   1      32.095  24.250  26.499  1.00  0.00     0.252 C 
ATOM     15  O   UNL A   1      33.051  24.124  27.261  1.00  0.00    -0.283 OA
BRANCH  14  16
ATOM     16  C   UNL A   1      31.934  25.544  25.831  1.00  0.00     0.054 A 
ATOM     17  N   UNL A   1      32.058  27.337  24.496  1.00  0.00    -0.240 N 
ATOM     18  C   UNL A   1      32.773  26.595  25.438  1.00  0.00     0.117 A 
ATOM     19  C   UNL A   1      30.840  26.679  24.266  1.00  0.00     0.065 A 
ATOM     20  C   UNL A   1      30.625  25.941  25.412  1.00  0.00     0.012 A 
ATOM     21  C   UNL A   1      29.807  26.904  23.338  1.00  0.00     0.028 A 
ATOM     22  C   UNL A   1      29.300  25.613  25.772  1.00  0.00     0.011 A 
ATOM     23  C   UNL A   1      28.501  26.610  23.730  1.00  0.00     0.002 A 
ATOM     24  C   UNL A   1      28.242  26.024  24.961  1.00  0.00     0.001 A 
BRANCH  17  25
ATOM     25  S   UNL A   1      31.849  29.039  24.325  1.00  0.00     0.268 S 
ATOM     26  O   UNL A   1      32.990  29.438  23.514  1.00  0.00    -0.201 OA
ATOM     27  O   UNL A   1      31.751  29.436  25.728  1.00  0.00    -0.201 OA
BRANCH  25  28
ATOM     28  C   UNL A   1      30.522  29.969  23.674  1.00  0.00     0.088 A 
ATOM     29  C   UNL A   1      27.939  32.187  21.027  1.00  0.00     0.044 C 
ATOM     30  C   UNL A   1      28.766  31.385  21.988  1.00  0.00    -0.051 A 
ATOM     31  C   UNL A   1      29.613  30.438  21.438  1.00  0.00     0.005 A 
ATOM     32  C   UNL A   1      28.770  31.581  23.390  1.00  0.00     0.005 A 
ATOM     33  C   UNL A   1      30.453  29.736  22.274  1.00  0.00     0.022 A 
ATOM     34  C   UNL A   1      29.656  30.877  24.250  1.00  0.00     0.022 A 
ENDBRANCH  25  28
ENDBRANCH  17  25
ENDBRANCH  14  16
ENDBRANCH  11  14
ENDBRANCH   9  10
BRANCH   9  35
ATOM     35  C   UNL A   1      32.281  20.776  23.683  1.00  0.00     0.074 C 
BRANCH  35  36
ATOM     36  C   UNL A   1      32.622  19.679  24.669  1.00  0.00    -0.020 A 
ATOM     37  C   UNL A   1      32.528  19.719  26.051  1.00  0.00     0.087 A 
ATOM     38  C   UNL A   1      33.100  18.373  24.337  1.00  0.00     0.003 A 
ATOM     39  N   UNL A   1      32.943  18.510  26.553  1.00  0.00    -0.361 N 
ATOM     40  C   UNL A   1      33.291  17.666  25.525  1.00  0.00     0.046 A 
ATOM     41  C   UNL A   1      33.417  17.743  23.118  1.00  0.00     0.010 A 
ATOM     42  H   UNL A   1      32.985  18.281  27.509  1.00  0.00     0.166 HD
ATOM     43  C   UNL A   1      33.777  16.353  25.546  1.00  0.00     0.026 A 
ATOM     44  C   UNL A   1      33.964  16.462  23.124  1.00  0.00     0.001 A 
ATOM     45  C   UNL A   1      34.125  15.771  24.320  1.00  0.00     0.002 A 
ENDBRANCH  35  36
ENDBRANCH   9  35
ENDBRANCH   7   9
ENDBRANCH   6   7
ENDBRANCH   5   6
ENDBRANCH   4   5
ENDBRANCH   3   4
ENDBRANCH   2   3
ENDBRANCH   1   2
BRANCH   1  46
ATOM     46  O   UNL A   1      37.971  23.012  25.610  1.00  0.00    -0.377 OA
BRANCH  46  47
ATOM     47  C   UNL A   1      38.172  23.514  26.919  1.00  0.00     0.188 C 
BRANCH  47  48
ATOM     48  C   UNL A   1      39.462  24.313  27.060  1.00  0.00     0.188 C 
BRANCH  48  49
ATOM     49  O   UNL A   1      39.396  25.610  27.630  1.00  0.00    -0.376 OA
BRANCH  49  50
ATOM     50  C   UNL A   1      40.509  26.496  27.505  1.00  0.00     0.202 C 
BRANCH  50  51
ATOM     51  C   UNL A   1      41.472  26.373  26.295  1.00  0.00     0.261 C 
BRANCH  51  52
ATOM     52  O   UNL A   1      42.834  26.092  26.688  1.00  0.00    -0.460 OA
BRANCH  52  53
ATOM     53  C   UNL A   1      43.360  24.892  26.269  1.00  0.00     0.338 C 
ATOM     54  O   UNL A   1      42.763  23.845  26.231  1.00  0.00    -0.246 OA
BRANCH  53  55
ATOM     55  C   UNL A   1      44.608  25.122  25.484  1.00  0.00     0.060 A 
ATOM     56  C   UNL A   1      45.547  24.122  25.241  1.00  0.00     0.016 A 
ATOM     57  C   UNL A   1      44.869  26.406  25.024  1.00  0.00     0.016 A 
ATOM     58  C   UNL A   1      46.836  24.490  24.806  1.00  0.00     0.010 A 
ATOM     59  C   UNL A   1      46.178  26.782  24.740  1.00  0.00     0.010 A 
ATOM     60  C   UNL A   1      47.209  25.848  24.870  1.00  0.00    -0.014 A 
BRANCH  60  61
ATOM     61  C   UNL A   1      48.341  26.259  25.802  1.00  0.00     0.031 A 
ATOM     62  C   UNL A   1      48.200  26.465  27.304  1.00  0.00     0.074 A 
ATOM     63  C   UNL A   1      49.543  26.117  25.174  1.00  0.00     0.049 A 
ATOM     64  N   UNL A   1      48.926  27.272  28.039  1.00  0.00    -0.248 NA
ATOM     65  C   UNL A   1      47.112  25.879  28.094  1.00  0.00     0.031 C 
ATOM     66  C   UNL A   1      50.855  25.677  25.589  1.00  0.00     0.029 A 
ATOM     67  N   UNL A   1      49.855  26.781  23.987  1.00  0.00    -0.354 N 
ATOM     68  C   UNL A   1      48.544  27.138  29.381  1.00  0.00     0.074 A 
ATOM     69  C   UNL A   1      47.339  26.357  29.323  1.00  0.00     0.031 C 
ATOM     70  C   UNL A   1      51.818  26.379  24.989  1.00  0.00     0.029 A 
ATOM     71  C   UNL A   1      51.125  27.290  24.137  1.00  0.00     0.049 A 
ATOM     72  H   UNL A   1      49.278  26.869  23.195  1.00  0.00     0.167 HD
ATOM     73  C   UNL A   1      49.272  27.608  30.453  1.00  0.00     0.037 A 
ATOM     74  C   UNL A   1      51.739  28.263  23.473  1.00  0.00     0.037 A 
ATOM     75  C   UNL A   1      50.381  28.513  30.074  1.00  0.00     0.049 A 
ATOM     76  C   UNL A   1      52.030  29.365  24.474  1.00  0.00     0.074 A 
ATOM     77  C   UNL A   1      51.655  28.720  30.580  1.00  0.00     0.029 A 
ATOM     78  N   UNL A   1      50.301  29.328  28.932  1.00  0.00    -0.354 N 
ATOM     79  N   UNL A   1      51.780  29.324  25.777  1.00  0.00    -0.248 NA
ATOM     80  C   UNL A   1      52.547  30.662  24.063  1.00  0.00     0.031 C 
ATOM     81  C   UNL A   1      52.360  29.574  29.687  1.00  0.00     0.029 A 
ATOM     82  C   UNL A   1      51.511  29.936  28.650  1.00  0.00     0.049 A 
ATOM     83  H   UNL A   1      49.483  29.452  28.399  1.00  0.00     0.167 HD
ATOM     84  C   UNL A   1      51.969  30.590  26.335  1.00  0.00     0.074 A 
ATOM     85  C   UNL A   1      52.510  31.351  25.216  1.00  0.00     0.031 C 
ATOM     86  C   UNL A   1      51.658  30.977  27.630  1.00  0.00     0.037 A 
BRANCH  73  87
ATOM     87  C   UNL A   1      49.085  27.100  31.935  1.00  0.00     0.058 A 
ATOM     88  C   UNL A   1      48.604  27.938  32.979  1.00  0.00     0.135 A 
ATOM     89  C   UNL A   1      49.482  25.822  32.409  1.00  0.00     0.135 A 
ATOM     90  F   UNL A   1      48.188  29.187  32.729  1.00  0.00    -0.206 F 
ATOM     91  C   UNL A   1      48.525  27.549  34.336  1.00  0.00     0.059 A 
ATOM     92  C   UNL A   1      49.322  25.381  33.738  1.00  0.00     0.059 A 
ATOM     93  F   UNL A   1      50.113  24.943  31.619  1.00  0.00    -0.206 F 
ATOM     94  C   UNL A   1      48.865  26.257  34.707  1.00  0.00     0.060 A 
BRANCH  94  95
ATOM     95  S   UNL A   1      48.677  25.706  36.424  1.00  0.00     0.124 S 
ATOM     96  O   UNL A   1      49.822  26.331  37.076  1.00  0.00    -0.237 OA
ATOM     97  O   UNL A   1      47.368  26.236  36.795  1.00  0.00    -0.237 OA
ATOM     98  O   UNL A   1      48.739  24.250  36.314  1.00  0.00    -0.744 OA
ENDBRANCH  94  95
ENDBRANCH  73  87
BRANCH  74  99
ATOM     99  C   UNL A   1      51.916  27.861  22.041  1.00  0.00     0.058 A 
ATOM    100  C   UNL A   1      51.095  28.546  21.113  1.00  0.00     0.135 A 
ATOM    101  C   UNL A   1      53.204  27.526  21.560  1.00  0.00     0.135 A 
ATOM    102  F   UNL A   1      49.894  28.983  21.508  1.00  0.00    -0.206 F 
ATOM    103  C   UNL A   1      51.554  29.014  19.875  1.00  0.00     0.059 A 
ATOM    104  C   UNL A   1      53.696  28.004  20.331  1.00  0.00     0.059 A 
ATOM    105  F   UNL A   1      54.088  26.938  22.383  1.00  0.00    -0.206 F 
ATOM    106  C   UNL A   1      52.878  28.791  19.518  1.00  0.00     0.060 A 
BRANCH 106 107
ATOM    107  S   UNL A   1      53.606  29.763  18.163  1.00  0.00     0.124 S 
ATOM    108  O   UNL A   1      52.463  29.953  17.279  1.00  0.00    -0.237 OA
ATOM    109  O   UNL A   1      54.096  30.958  18.845  1.00  0.00    -0.237 OA
ATOM    110  O   UNL A   1      54.654  28.872  17.682  1.00  0.00    -0.744 OA
ENDBRANCH 106 107
ENDBRANCH  74  99
BRANCH  86 111
ATOM    111  C   UNL A   1      51.545  32.428  28.189  1.00  0.00     0.058 A 
ATOM    112  C   UNL A   1      52.626  33.246  28.561  1.00  0.00     0.135 A 
ATOM    113  C   UNL A   1      50.289  33.116  28.216  1.00  0.00     0.135 A 
ATOM    114  F   UNL A   1      53.893  32.831  28.460  1.00  0.00    -0.206 F 
ATOM    115  C   UNL A   1      52.471  34.578  28.981  1.00  0.00     0.059 A 
ATOM    116  C   UNL A   1      50.115  34.442  28.603  1.00  0.00     0.059 A 
ATOM    117  F   UNL A   1      49.142  32.560  27.809  1.00  0.00    -0.206 F 
ATOM    118  C   UNL A   1      51.213  35.171  28.994  1.00  0.00     0.060 A 
BRANCH 118 119
ATOM    119  S   UNL A   1      51.034  36.919  29.383  1.00  0.00     0.124 S 
ATOM    120  O   UNL A   1      51.737  37.011  30.658  1.00  0.00    -0.237 OA
ATOM    121  O   UNL A   1      51.693  37.558  28.248  1.00  0.00    -0.237 OA
ATOM    122  O   UNL A   1      49.588  37.111  29.446  1.00  0.00    -0.744 OA
ENDBRANCH 118 119
ENDBRANCH  86 111
ENDBRANCH  60  61
ENDBRANCH  53  55
ENDBRANCH  52  53
ENDBRANCH  51  52
ENDBRANCH  50  51
ENDBRANCH  49  50
ENDBRANCH  48  49
ENDBRANCH  47  48
ENDBRANCH  46  47
ENDBRANCH   1  46
TORSDOF 30
ENDMDL
MODEL 2
REMARK VINA RESULT:      -8.8      4.608      7.695
REMARK SMILES Cc1ccc(S(=O)(=O)n2cc(C(=O)C(=O)N[C@@H](Cc3c[nH]c4ccccc34)C(=O)OCCOCCOCCOCCOC(=O)c3ccc(-c4c5nc(c(-c6c(F)cc(S(=O)(=O)[O-])cc6F)c6ccc([nH]6)c(-c6c(F)cc(S(=O)(=O)[O-])cc6F)c6nc(c(-c7c(F)cc(S(=O)(=O)[O-])cc7F)c7ccc4[nH]7)C=C6)C=C5)cc3)c3ccccc32)cc1
REMARK SMILES IDX 35 1 34 2 33 3 32 4 31 5 30 6 28 7 29 8 17 9 16 10 14 11
REMARK SMILES IDX 15 12 12 14 13 15 11 16 9 17 10 18 116 19 111 20 115 21
REMARK SMILES IDX 112 22 114 23 113 24 6 25 7 26 8 27 5 28 1 29 2 30 3 31
REMARK SMILES IDX 118 32 4 33 117 34 18 35 19 36 20 37 27 38 21 39 22 40 26 41
REMARK SMILES IDX 23 43 25 44 24 45 36 46 37 47 38 48 39 49 40 50 41 51 42 52
REMARK SMILES IDX 43 53 44 54 45 55 46 56 110 57 47 58 109 59 48 60 49 61
REMARK SMILES IDX 50 62 103 63 51 64 108 65 102 66 104 67 52 68 107 69 101 70
REMARK SMILES IDX 100 71 53 73 87 74 66 75 86 76 67 77 70 78 85 79 105 80
REMARK SMILES IDX 68 81 69 82 84 84 106 85 71 86 54 87 55 88 64 89 56 90 57 91
REMARK SMILES IDX 63 92 65 93 58 94 59 95 60 96 61 97 62 98 88 99 89 100
REMARK SMILES IDX 98 101 90 102 91 103 97 104 99 105 92 106 93 107 94 108
REMARK SMILES IDX 95 109 96 110 72 111 73 112 82 113 74 114 75 115 81 116
REMARK SMILES IDX 83 117 76 118 77 119 78 120 79 121 80 122
REMARK H PARENT 16 13 21 42 104 72 70 83
REMARK Flexibility Score: inf
ROOT
ATOM      1  C   UNL A   1      37.983  23.905  25.998  1.00  0.00     0.188 C 
ENDROOT
BRANCH   1   2
ATOM      2  C   UNL A   1      36.885  22.848  25.759  1.00  0.00     0.188 C 
BRANCH   2   3
ATOM      3  O   UNL A   1      35.642  23.416  26.167  1.00  0.00    -0.376 OA
BRANCH   3   4
ATOM      4  C   UNL A   1      35.123  24.394  25.279  1.00  0.00     0.202 C 
BRANCH   4   5
ATOM      5  C   UNL A   1      33.781  23.998  24.711  1.00  0.00     0.261 C 
BRANCH   5   6
ATOM      6  O   UNL A   1      32.744  24.769  25.266  1.00  0.00    -0.462 OA
BRANCH   6   7
ATOM      7  C   UNL A   1      32.053  25.432  24.307  1.00  0.00     0.329 C 
ATOM      8  O   UNL A   1      31.619  24.985  23.249  1.00  0.00    -0.250 OA
BRANCH   7   9
ATOM      9  C   UNL A   1      32.161  26.908  24.585  1.00  0.00     0.197 C 
BRANCH   9  10
ATOM     10  N   UNL A   1      33.304  27.595  23.930  1.00  0.00    -0.335 N 
ATOM     11  C   UNL A   1      34.212  28.482  24.512  1.00  0.00     0.293 C 
ATOM     12  O   UNL A   1      34.982  29.162  23.847  1.00  0.00    -0.265 OA
ATOM     13  H   UNL A   1      33.437  27.402  22.974  1.00  0.00     0.164 HD
BRANCH  11  14
ATOM     14  C   UNL A   1      34.292  28.516  26.028  1.00  0.00     0.252 C 
ATOM     15  O   UNL A   1      33.945  27.462  26.555  1.00  0.00    -0.283 OA
BRANCH  14  16
ATOM     16  C   UNL A   1      34.551  29.656  26.911  1.00  0.00     0.054 A 
ATOM     17  N   UNL A   1      34.484  31.271  28.461  1.00  0.00    -0.240 N 
ATOM     18  C   UNL A   1      33.870  30.820  27.290  1.00  0.00     0.117 A 
ATOM     19  C   UNL A   1      35.463  30.331  28.820  1.00  0.00     0.065 A 
ATOM     20  C   UNL A   1      35.782  29.696  27.637  1.00  0.00     0.012 A 
ATOM     21  C   UNL A   1      36.281  30.210  29.959  1.00  0.00     0.028 A 
ATOM     22  C   UNL A   1      37.062  29.117  27.500  1.00  0.00     0.011 A 
ATOM     23  C   UNL A   1      37.557  29.671  29.791  1.00  0.00     0.002 A 
ATOM     24  C   UNL A   1      37.967  29.183  28.560  1.00  0.00     0.001 A 
BRANCH  17  25
ATOM     25  S   UNL A   1      34.982  32.850  28.936  1.00  0.00     0.268 S 
ATOM     26  O   UNL A   1      33.951  33.258  29.879  1.00  0.00    -0.201 OA
ATOM     27  O   UNL A   1      35.100  33.495  27.630  1.00  0.00    -0.201 OA
BRANCH  25  28
ATOM     28  C   UNL A   1      36.467  33.411  29.665  1.00  0.00     0.088 A 
ATOM     29  C   UNL A   1      40.616  33.899  30.734  1.00  0.00     0.044 C 
ATOM     30  C   UNL A   1      39.163  33.816  30.371  1.00  0.00    -0.051 A 
ATOM     31  C   UNL A   1      38.863  33.289  29.125  1.00  0.00     0.005 A 
ATOM     32  C   UNL A   1      38.104  34.183  31.236  1.00  0.00     0.005 A 
ATOM     33  C   UNL A   1      37.541  33.115  28.782  1.00  0.00     0.022 A 
ATOM     34  C   UNL A   1      36.740  33.978  30.893  1.00  0.00     0.022 A 
ENDBRANCH  25  28
ENDBRANCH  17  25
ENDBRANCH  14  16
ENDBRANCH  11  14
ENDBRANCH   9  10
BRANCH   9  35
ATOM     35  C   UNL A   1      30.744  27.432  24.196  1.00  0.00     0.074 C 
BRANCH  35  36
ATOM     36  C   UNL A   1      30.511  28.925  24.283  1.00  0.00    -0.020 A 
ATOM     37  C   UNL A   1      31.105  29.829  25.149  1.00  0.00     0.087 A 
ATOM     38  C   UNL A   1      29.623  29.684  23.458  1.00  0.00     0.003 A 
ATOM     39  N   UNL A   1      30.602  31.079  24.889  1.00  0.00    -0.361 N 
ATOM     40  C   UNL A   1      29.699  31.020  23.854  1.00  0.00     0.046 A 
ATOM     41  C   UNL A   1      28.736  29.336  22.422  1.00  0.00     0.010 A 
ATOM     42  H   UNL A   1      30.851  31.899  25.373  1.00  0.00     0.166 HD
ATOM     43  C   UNL A   1      28.932  32.025  23.252  1.00  0.00     0.026 A 
ATOM     44  C   UNL A   1      27.915  30.310  21.859  1.00  0.00     0.001 A 
ATOM     45  C   UNL A   1      28.025  31.639  22.257  1.00  0.00     0.002 A 
ENDBRANCH  35  36
ENDBRANCH   9  35
ENDBRANCH   7   9
ENDBRANCH   6   7
ENDBRANCH   5   6
ENDBRANCH   4   5
ENDBRANCH   3   4
ENDBRANCH   2   3
ENDBRANCH   1   2
BRANCH   1  46
ATOM     46  O   UNL A   1      38.388  24.083  27.354  1.00  0.00    -0.377 OA
BRANCH  46  47
ATOM     47  C   UNL A   1      39.143  25.245  27.643  1.00  0.00     0.188 C 
BRANCH  47  48
ATOM     48  C   UNL A   1      40.588  24.938  28.019  1.00  0.00     0.188 C 
BRANCH  48  49
ATOM     49  O   UNL A   1      41.466  24.471  27.008  1.00  0.00    -0.376 OA
BRANCH  49  50
ATOM     50  C   UNL A   1      42.723  25.119  26.807  1.00  0.00     0.202 C 
BRANCH  50  51
ATOM     51  C   UNL A   1      43.754  24.530  25.809  1.00  0.00     0.261 C 
BRANCH  51  52
ATOM     52  O   UNL A   1      44.791  25.470  25.453  1.00  0.00    -0.460 OA
BRANCH  52  53
ATOM     53  C   UNL A   1      45.977  24.939  25.002  1.00  0.00     0.338 C 
ATOM     54  O   UNL A   1      46.079  23.977  24.282  1.00  0.00    -0.246 OA
BRANCH  53  55
ATOM     55  C   UNL A   1      47.081  25.930  25.162  1.00  0.00     0.060 A 
ATOM     56  C   UNL A   1      48.152  25.738  26.033  1.00  0.00     0.016 A 
ATOM     57  C   UNL A   1      47.005  27.121  24.453  1.00  0.00     0.016 A 
ATOM     58  C   UNL A   1      48.950  26.845  26.385  1.00  0.00     0.010 A 
ATOM     59  C   UNL A   1      47.694  28.239  24.910  1.00  0.00     0.010 A 
ATOM     60  C   UNL A   1      48.497  28.138  26.050  1.00  0.00    -0.014 A 
BRANCH  60  61
ATOM     61  C   UNL A   1      48.160  29.114  27.168  1.00  0.00     0.031 A 
ATOM     62  C   UNL A   1      46.810  29.205  27.867  1.00  0.00     0.074 A 
ATOM     63  C   UNL A   1      49.300  29.673  27.665  1.00  0.00     0.049 A 
ATOM     64  N   UNL A   1      46.302  30.281  28.417  1.00  0.00    -0.248 NA
ATOM     65  C   UNL A   1      45.835  28.109  27.871  1.00  0.00     0.031 C 
ATOM     66  C   UNL A   1      49.751  30.047  28.986  1.00  0.00     0.029 A 
ATOM     67  N   UNL A   1      50.191  30.398  26.872  1.00  0.00    -0.354 N 
ATOM     68  C   UNL A   1      45.077  29.955  29.014  1.00  0.00     0.074 A 
ATOM     69  C   UNL A   1      44.795  28.631  28.530  1.00  0.00     0.031 C 
ATOM     70  C   UNL A   1      50.472  31.170  28.957  1.00  0.00     0.029 A 
ATOM     71  C   UNL A   1      50.520  31.533  27.578  1.00  0.00     0.049 A 
ATOM     72  H   UNL A   1      50.520  30.147  25.980  1.00  0.00     0.167 HD
ATOM     73  C   UNL A   1      44.410  30.753  29.919  1.00  0.00     0.037 A 
ATOM     74  C   UNL A   1      51.033  32.683  27.154  1.00  0.00     0.037 A 
ATOM     75  C   UNL A   1      44.956  32.125  30.026  1.00  0.00     0.049 A 
ATOM     76  C   UNL A   1      50.001  33.758  27.438  1.00  0.00     0.074 A 
ATOM     77  C   UNL A   1      45.099  33.013  31.081  1.00  0.00     0.029 A 
ATOM     78  N   UNL A   1      45.569  32.754  28.928  1.00  0.00    -0.354 N 
ATOM     79  N   UNL A   1      48.840  33.583  28.058  1.00  0.00    -0.248 NA
ATOM     80  C   UNL A   1      50.155  35.121  26.953  1.00  0.00     0.031 C 
ATOM     81  C   UNL A   1      45.882  34.115  30.637  1.00  0.00     0.029 A 
ATOM     82  C   UNL A   1      46.186  33.937  29.294  1.00  0.00     0.049 A 
ATOM     83  H   UNL A   1      45.560  32.396  28.012  1.00  0.00     0.167 HD
ATOM     84  C   UNL A   1      48.061  34.736  27.938  1.00  0.00     0.074 A 
ATOM     85  C   UNL A   1      48.977  35.669  27.294  1.00  0.00     0.031 C 
ATOM     86  C   UNL A   1      46.736  34.880  28.318  1.00  0.00     0.037 A 
BRANCH  73  87
ATOM     87  C   UNL A   1      43.290  30.227  30.899  1.00  0.00     0.058 A 
ATOM     88  C   UNL A   1      43.586  29.482  32.074  1.00  0.00     0.135 A 
ATOM     89  C   UNL A   1      41.894  30.328  30.661  1.00  0.00     0.135 A 
ATOM     90  F   UNL A   1      44.851  29.273  32.462  1.00  0.00    -0.206 F 
ATOM     91  C   UNL A   1      42.606  28.906  32.916  1.00  0.00     0.059 A 
ATOM     92  C   UNL A   1      40.901  29.845  31.536  1.00  0.00     0.059 A 
ATOM     93  F   UNL A   1      41.410  30.847  29.525  1.00  0.00    -0.206 F 
ATOM     94  C   UNL A   1      41.260  29.111  32.653  1.00  0.00     0.060 A 
BRANCH  94  95
ATOM     95  S   UNL A   1      39.989  28.467  33.774  1.00  0.00     0.124 S 
ATOM     96  O   UNL A   1      38.771  28.638  32.989  1.00  0.00    -0.237 OA
ATOM     97  O   UNL A   1      40.414  27.088  33.992  1.00  0.00    -0.237 OA
ATOM     98  O   UNL A   1      40.105  29.336  34.943  1.00  0.00    -0.744 OA
ENDBRANCH  94  95
ENDBRANCH  73  87
BRANCH  74  99
ATOM     99  C   UNL A   1      52.409  32.450  26.611  1.00  0.00     0.058 A 
ATOM    100  C   UNL A   1      52.502  32.391  25.199  1.00  0.00     0.135 A 
ATOM    101  C   UNL A   1      53.526  33.032  27.256  1.00  0.00     0.135 A 
ATOM    102  F   UNL A   1      51.456  31.940  24.499  1.00  0.00    -0.206 F 
ATOM    103  C   UNL A   1      53.526  33.005  24.467  1.00  0.00     0.059 A 
ATOM    104  C   UNL A   1      54.555  33.675  26.542  1.00  0.00     0.059 A 
ATOM    105  F   UNL A   1      53.510  33.202  28.588  1.00  0.00    -0.206 F 
ATOM    106  C   UNL A   1      54.520  33.699  25.147  1.00  0.00     0.060 A 
BRANCH 106 107
ATOM    107  S   UNL A   1      55.573  34.864  24.228  1.00  0.00     0.124 S 
ATOM    108  O   UNL A   1      55.085  34.703  22.864  1.00  0.00    -0.237 OA
ATOM    109  O   UNL A   1      55.280  36.144  24.868  1.00  0.00    -0.237 OA
ATOM    110  O   UNL A   1      56.906  34.344  24.503  1.00  0.00    -0.744 OA
ENDBRANCH 106 107
ENDBRANCH  74  99
BRANCH  86 111
ATOM    111  C   UNL A   1      45.747  36.017  27.914  1.00  0.00     0.058 A 
ATOM    112  C   UNL A   1      44.753  35.921  26.925  1.00  0.00     0.135 A 
ATOM    113  C   UNL A   1      45.675  37.236  28.664  1.00  0.00     0.135 A 
ATOM    114  F   UNL A   1      44.565  34.801  26.219  1.00  0.00    -0.206 F 
ATOM    115  C   UNL A   1      43.834  36.951  26.659  1.00  0.00     0.059 A 
ATOM    116  C   UNL A   1      44.756  38.256  28.436  1.00  0.00     0.059 A 
ATOM    117  F   UNL A   1      46.460  37.495  29.715  1.00  0.00    -0.206 F 
ATOM    118  C   UNL A   1      43.837  38.112  27.423  1.00  0.00     0.060 A 
BRANCH 118 119
ATOM    119  S   UNL A   1      42.564  39.362  27.187  1.00  0.00     0.124 S 
ATOM    120  O   UNL A   1      41.529  38.601  26.495  1.00  0.00    -0.237 OA
ATOM    121  O   UNL A   1      42.254  39.753  28.558  1.00  0.00    -0.237 OA
ATOM    122  O   UNL A   1      43.231  40.387  26.389  1.00  0.00    -0.744 OA
ENDBRANCH 118 119
ENDBRANCH  86 111
ENDBRANCH  60  61
ENDBRANCH  53  55
ENDBRANCH  52  53
ENDBRANCH  51  52
ENDBRANCH  50  51
ENDBRANCH  49  50
ENDBRANCH  48  49
ENDBRANCH  47  48
ENDBRANCH  46  47
ENDBRANCH   1  46
TORSDOF 30
ENDMDL
MODEL 3
REMARK VINA RESULT:      -8.3      4.643      7.551
REMARK SMILES Cc1ccc(S(=O)(=O)n2cc(C(=O)C(=O)N[C@@H](Cc3c[nH]c4ccccc34)C(=O)OCCOCCOCCOCCOC(=O)c3ccc(-c4c5nc(c(-c6c(F)cc(S(=O)(=O)[O-])cc6F)c6ccc([nH]6)c(-c6c(F)cc(S(=O)(=O)[O-])cc6F)c6nc(c(-c7c(F)cc(S(=O)(=O)[O-])cc7F)c7ccc4[nH]7)C=C6)C=C5)cc3)c3ccccc32)cc1
REMARK SMILES IDX 35 1 34 2 33 3 32 4 31 5 30 6 28 7 29 8 17 9 16 10 14 11
REMARK SMILES IDX 15 12 12 14 13 15 11 16 9 17 10 18 116 19 111 20 115 21
REMARK SMILES IDX 112 22 114 23 113 24 6 25 7 26 8 27 5 28 1 29 2 30 3 31
REMARK SMILES IDX 118 32 4 33 117 34 18 35 19 36 20 37 27 38 21 39 22 40 26 41
REMARK SMILES IDX 23 43 25 44 24 45 36 46 37 47 38 48 39 49 40 50 41 51 42 52
REMARK SMILES IDX 43 53 44 54 45 55 46 56 110 57 47 58 109 59 48 60 49 61
REMARK SMILES IDX 50 62 103 63 51 64 108 65 102 66 104 67 52 68 107 69 101 70
REMARK SMILES IDX 100 71 53 73 87 74 66 75 86 76 67 77 70 78 85 79 105 80
REMARK SMILES IDX 68 81 69 82 84 84 106 85 71 86 54 87 55 88 64 89 56 90 57 91
REMARK SMILES IDX 63 92 65 93 58 94 59 95 60 96 61 97 62 98 88 99 89 100
REMARK SMILES IDX 98 101 90 102 91 103 97 104 99 105 92 106 93 107 94 108
REMARK SMILES IDX 95 109 96 110 72 111 73 112 82 113 74 114 75 115 81 116
REMARK SMILES IDX 83 117 76 118 77 119 78 120 79 121 80 122
REMARK H PARENT 16 13 21 42 104 72 70 83
REMARK Flexibility Score: inf
ROOT
ATOM      1  C   UNL A   1      37.715  23.801  25.831  1.00  0.00     0.188 C 
ENDROOT
BRANCH   1   2
ATOM      2  C   UNL A   1      36.602  22.802  25.455  1.00  0.00     0.188 C 
BRANCH   2   3
ATOM      3  O   UNL A   1      35.357  23.366  25.862  1.00  0.00    -0.376 OA
BRANCH   3   4
ATOM      4  C   UNL A   1      34.868  24.389  25.008  1.00  0.00     0.202 C 
BRANCH   4   5
ATOM      5  C   UNL A   1      33.571  24.005  24.338  1.00  0.00     0.261 C 
BRANCH   5   6
ATOM      6  O   UNL A   1      32.484  24.706  24.890  1.00  0.00    -0.462 OA
BRANCH   6   7
ATOM      7  C   UNL A   1      31.841  25.442  23.951  1.00  0.00     0.329 C 
ATOM      8  O   UNL A   1      31.427  25.068  22.858  1.00  0.00    -0.250 OA
BRANCH   7   9
ATOM      9  C   UNL A   1      31.982  26.897  24.317  1.00  0.00     0.197 C 
BRANCH   9  10
ATOM     10  N   UNL A   1      33.133  27.598  23.694  1.00  0.00    -0.335 N 
ATOM     11  C   UNL A   1      34.051  28.447  24.315  1.00  0.00     0.293 C 
ATOM     12  O   UNL A   1      34.830  29.148  23.681  1.00  0.00    -0.265 OA
ATOM     13  H   UNL A   1      33.264  27.447  22.729  1.00  0.00     0.164 HD
BRANCH  11  14
ATOM     14  C   UNL A   1      34.131  28.413  25.831  1.00  0.00     0.252 C 
ATOM     15  O   UNL A   1      33.786  27.334  26.309  1.00  0.00    -0.283 OA
BRANCH  14  16
ATOM     16  C   UNL A   1      34.386  29.512  26.765  1.00  0.00     0.054 A 
ATOM     17  N   UNL A   1      34.351  31.008  28.430  1.00  0.00    -0.240 N 
ATOM     18  C   UNL A   1      33.653  30.580  27.299  1.00  0.00     0.117 A 
ATOM     19  C   UNL A   1      35.441  30.143  28.615  1.00  0.00     0.065 A 
ATOM     20  C   UNL A   1      35.681  29.618  27.362  1.00  0.00     0.012 A 
ATOM     21  C   UNL A   1      36.386  30.024  29.651  1.00  0.00     0.028 A 
ATOM     22  C   UNL A   1      36.984  29.171  27.050  1.00  0.00     0.011 A 
ATOM     23  C   UNL A   1      37.677  29.620  29.313  1.00  0.00     0.002 A 
ATOM     24  C   UNL A   1      37.990  29.252  28.012  1.00  0.00     0.001 A 
BRANCH  17  25
ATOM     25  S   UNL A   1      34.760  32.593  28.968  1.00  0.00     0.268 S 
ATOM     26  O   UNL A   1      33.479  33.281  28.993  1.00  0.00    -0.201 OA
ATOM     27  O   UNL A   1      35.784  32.950  27.988  1.00  0.00    -0.201 OA
BRANCH  25  28
ATOM     28  C   UNL A   1      35.560  33.137  30.423  1.00  0.00     0.088 A 
ATOM     29  C   UNL A   1      36.349  34.565  34.415  1.00  0.00     0.044 C 
ATOM     30  C   UNL A   1      36.148  34.020  33.031  1.00  0.00    -0.051 A 
ATOM     31  C   UNL A   1      34.977  33.316  32.805  1.00  0.00     0.005 A 
ATOM     32  C   UNL A   1      37.042  34.234  31.955  1.00  0.00     0.005 A 
ATOM     33  C   UNL A   1      34.709  32.870  31.530  1.00  0.00     0.022 A 
ATOM     34  C   UNL A   1      36.753  33.798  30.633  1.00  0.00     0.022 A 
ENDBRANCH  25  28
ENDBRANCH  17  25
ENDBRANCH  14  16
ENDBRANCH  11  14
ENDBRANCH   9  10
BRANCH   9  35
ATOM     35  C   UNL A   1      30.573  27.470  23.974  1.00  0.00     0.074 C 
BRANCH  35  36
ATOM     36  C   UNL A   1      30.374  28.962  24.142  1.00  0.00    -0.020 A 
ATOM     37  C   UNL A   1      30.959  29.796  25.081  1.00  0.00     0.087 A 
ATOM     38  C   UNL A   1      29.537  29.793  23.334  1.00  0.00     0.003 A 
ATOM     39  N   UNL A   1      30.498  31.073  24.879  1.00  0.00    -0.361 N 
ATOM     40  C   UNL A   1      29.632  31.100  23.812  1.00  0.00     0.046 A 
ATOM     41  C   UNL A   1      28.679  29.531  22.249  1.00  0.00     0.010 A 
ATOM     42  H   UNL A   1      30.750  31.856  25.420  1.00  0.00     0.166 HD
ATOM     43  C   UNL A   1      28.912  32.160  23.246  1.00  0.00     0.026 A 
ATOM     44  C   UNL A   1      27.904  30.559  21.717  1.00  0.00     0.001 A 
ATOM     45  C   UNL A   1      28.033  31.858  22.198  1.00  0.00     0.002 A 
ENDBRANCH  35  36
ENDBRANCH   9  35
ENDBRANCH   7   9
ENDBRANCH   6   7
ENDBRANCH   5   6
ENDBRANCH   4   5
ENDBRANCH   3   4
ENDBRANCH   2   3
ENDBRANCH   1   2
BRANCH   1  46
ATOM     46  O   UNL A   1      38.134  23.778  27.195  1.00  0.00    -0.377 OA
BRANCH  46  47
ATOM     47  C   UNL A   1      38.963  24.844  27.621  1.00  0.00     0.188 C 
BRANCH  47  48
ATOM     48  C   UNL A   1      40.449  24.511  27.544  1.00  0.00     0.188 C 
BRANCH  48  49
ATOM     49  O   UNL A   1      41.100  24.609  26.287  1.00  0.00    -0.376 OA
BRANCH  49  50
ATOM     50  C   UNL A   1      42.378  25.241  26.199  1.00  0.00     0.202 C 
BRANCH  50  51
ATOM     51  C   UNL A   1      43.244  25.076  24.923  1.00  0.00     0.261 C 
BRANCH  51  52
ATOM     52  O   UNL A   1      44.587  25.580  25.086  1.00  0.00    -0.460 OA
BRANCH  52  53
ATOM     53  C   UNL A   1      45.609  24.670  24.948  1.00  0.00     0.338 C 
ATOM     54  O   UNL A   1      45.569  23.678  24.264  1.00  0.00    -0.246 OA
BRANCH  53  55
ATOM     55  C   UNL A   1      46.898  25.268  25.405  1.00  0.00     0.060 A 
ATOM     56  C   UNL A   1      47.632  24.761  26.476  1.00  0.00     0.016 A 
ATOM     57  C   UNL A   1      47.354  26.414  24.769  1.00  0.00     0.016 A 
ATOM     58  C   UNL A   1      48.630  25.567  27.059  1.00  0.00     0.010 A 
ATOM     59  C   UNL A   1      48.231  27.266  25.432  1.00  0.00     0.010 A 
ATOM     60  C   UNL A   1      48.684  26.932  26.711  1.00  0.00    -0.014 A 
BRANCH  60  61
ATOM     61  C   UNL A   1      48.419  27.978  27.785  1.00  0.00     0.031 A 
ATOM     62  C   UNL A   1      47.038  28.404  28.264  1.00  0.00     0.074 A 
ATOM     63  C   UNL A   1      49.567  28.253  28.469  1.00  0.00     0.049 A 
ATOM     64  N   UNL A   1      46.724  29.578  28.753  1.00  0.00    -0.248 NA
ATOM     65  C   UNL A   1      45.840  27.576  28.090  1.00  0.00     0.031 C 
ATOM     66  C   UNL A   1      49.879  28.526  29.853  1.00  0.00     0.029 A 
ATOM     67  N   UNL A   1      50.720  28.728  27.844  1.00  0.00    -0.354 N 
ATOM     68  C   UNL A   1      45.377  29.568  29.142  1.00  0.00     0.074 A 
ATOM     69  C   UNL A   1      44.866  28.344  28.588  1.00  0.00     0.031 C 
ATOM     70  C   UNL A   1      50.845  29.441  29.964  1.00  0.00     0.029 A 
ATOM     71  C   UNL A   1      51.197  29.761  28.619  1.00  0.00     0.049 A 
ATOM     72  H   UNL A   1      51.117  28.391  27.009  1.00  0.00     0.167 HD
ATOM     73  C   UNL A   1      44.788  30.517  29.949  1.00  0.00     0.037 A 
ATOM     74  C   UNL A   1      52.033  30.745  28.309  1.00  0.00     0.037 A 
ATOM     75  C   UNL A   1      45.625  31.718  30.173  1.00  0.00     0.049 A 
ATOM     76  C   UNL A   1      51.259  32.042  28.452  1.00  0.00     0.074 A 
ATOM     77  C   UNL A   1      45.809  32.561  31.258  1.00  0.00     0.029 A 
ATOM     78  N   UNL A   1      46.537  32.163  29.201  1.00  0.00    -0.354 N 
ATOM     79  N   UNL A   1      50.007  32.163  28.877  1.00  0.00    -0.248 NA
ATOM     80  C   UNL A   1      51.812  33.320  28.029  1.00  0.00     0.031 C 
ATOM     81  C   UNL A   1      46.894  33.435  30.970  1.00  0.00     0.029 A 
ATOM     82  C   UNL A   1      47.355  33.167  29.687  1.00  0.00     0.049 A 
ATOM     83  H   UNL A   1      46.588  31.804  28.286  1.00  0.00     0.167 HD
ATOM     84  C   UNL A   1      49.559  33.468  28.663  1.00  0.00     0.074 A 
ATOM     85  C   UNL A   1      50.762  34.142  28.194  1.00  0.00     0.031 C 
ATOM     86  C   UNL A   1      48.264  33.935  28.832  1.00  0.00     0.037 A 
BRANCH  73  87
ATOM     87  C   UNL A   1      43.434  30.293  30.728  1.00  0.00     0.058 A 
ATOM     88  C   UNL A   1      43.310  29.371  31.804  1.00  0.00     0.135 A 
ATOM     89  C   UNL A   1      42.189  30.878  30.372  1.00  0.00     0.135 A 
ATOM     90  F   UNL A   1      44.376  28.714  32.279  1.00  0.00    -0.206 F 
ATOM     91  C   UNL A   1      42.090  29.069  32.452  1.00  0.00     0.059 A 
ATOM     92  C   UNL A   1      40.982  30.663  31.066  1.00  0.00     0.059 A 
ATOM     93  F   UNL A   1      42.059  31.646  29.282  1.00  0.00    -0.206 F 
ATOM     94  C   UNL A   1      40.930  29.737  32.093  1.00  0.00     0.060 A 
BRANCH  94  95
ATOM     95  S   UNL A   1      39.376  29.437  32.978  1.00  0.00     0.124 S 
ATOM     96  O   UNL A   1      39.839  29.184  34.338  1.00  0.00    -0.237 OA
ATOM     97  O   UNL A   1      38.642  30.683  32.779  1.00  0.00    -0.237 OA
ATOM     98  O   UNL A   1      38.816  28.279  32.283  1.00  0.00    -0.744 OA
ENDBRANCH  94  95
ENDBRANCH  73  87
BRANCH  74  99
ATOM     99  C   UNL A   1      53.381  30.178  27.983  1.00  0.00     0.058 A 
ATOM    100  C   UNL A   1      54.072  29.594  29.072  1.00  0.00     0.135 A 
ATOM    101  C   UNL A   1      53.592  29.544  26.736  1.00  0.00     0.135 A 
ATOM    102  F   UNL A   1      53.862  30.069  30.304  1.00  0.00    -0.206 F 
ATOM    103  C   UNL A   1      54.777  28.387  28.980  1.00  0.00     0.059 A 
ATOM    104  C   UNL A   1      54.277  28.319  26.622  1.00  0.00     0.059 A 
ATOM    105  F   UNL A   1      52.928  29.974  25.651  1.00  0.00    -0.206 F 
ATOM    106  C   UNL A   1      54.823  27.723  27.760  1.00  0.00     0.060 A 
BRANCH 106 107
ATOM    107  S   UNL A   1      55.323  25.975  27.722  1.00  0.00     0.124 S 
ATOM    108  O   UNL A   1      55.628  25.716  29.124  1.00  0.00    -0.237 OA
ATOM    109  O   UNL A   1      54.137  25.307  27.190  1.00  0.00    -0.237 OA
ATOM    110  O   UNL A   1      56.458  26.005  26.808  1.00  0.00    -0.744 OA
ENDBRANCH 106 107
ENDBRANCH  74  99
BRANCH  86 111
ATOM    111  C   UNL A   1      47.656  35.270  28.305  1.00  0.00     0.058 A 
ATOM    112  C   UNL A   1      46.863  35.407  27.152  1.00  0.00     0.135 A 
ATOM    113  C   UNL A   1      47.733  36.475  29.077  1.00  0.00     0.135 A 
ATOM    114  F   UNL A   1      46.552  34.361  26.380  1.00  0.00    -0.206 F 
ATOM    115  C   UNL A   1      46.271  36.623  26.769  1.00  0.00     0.059 A 
ATOM    116  C   UNL A   1      47.132  37.682  28.731  1.00  0.00     0.059 A 
ATOM    117  F   UNL A   1      48.352  36.546  30.260  1.00  0.00    -0.206 F 
ATOM    118  C   UNL A   1      46.405  37.754  27.566  1.00  0.00     0.060 A 
BRANCH 118 119
ATOM    119  S   UNL A   1      45.520  39.267  27.157  1.00  0.00     0.124 S 
ATOM    120  O   UNL A   1      46.172  40.235  28.033  1.00  0.00    -0.237 OA
ATOM    121  O   UNL A   1      45.799  39.414  25.732  1.00  0.00    -0.237 OA
ATOM    122  O   UNL A   1      44.133  38.954  27.486  1.00  0.00    -0.744 OA
ENDBRANCH 118 119
ENDBRANCH  86 111
ENDBRANCH  60  61
ENDBRANCH  53  55
ENDBRANCH  52  53
ENDBRANCH  51  52
ENDBRANCH  50  51
ENDBRANCH  49  50
ENDBRANCH  48  49
ENDBRANCH  47  48
ENDBRANCH  46  47
ENDBRANCH   1  46
TORSDOF 30
ENDMDL
