MODEL 1
REMARK VINA RESULT:      -9.1      0.000      0.000
REMARK SMILES Cc1coc2cc3c(cc12)[C@@H](C)[C@H](CCC(=O)N[C@@H](Cc1c[nH]c2ccccc12)C(=O)OCCOCCOCCOCCOC(=O)c1ccc(-c2c4nc(c(-c5c(F)cc(S(=O)(=O)[O-])cc5F)c5ccc([nH]5)c(-c5c(F)cc(S(=O)(=O)[O-])cc5F)c5nc(c(-c6c(F)cc(S(=O)(=O)[O-])cc6F)c6ccc2[nH]6)C=C5)C=C4)cc1)C(=O)O3
REMARK SMILES IDX 37 1 36 2 35 3 34 4 33 5 32 6 30 7 31 8 19 9 18 10 16 11
REMARK SMILES IDX 17 12 15 14 14 15 13 16 1 17 2 18 3 19 10 20 4 21 5 22 9 23
REMARK SMILES IDX 6 24 8 25 7 26 11 27 115 28 12 29 113 30 114 31 20 32 21 33
REMARK SMILES IDX 22 34 29 35 23 36 24 37 28 38 25 40 27 41 26 42 38 43 39 44
REMARK SMILES IDX 40 45 41 46 42 47 43 48 44 49 45 50 46 51 47 52 48 53 112 54
REMARK SMILES IDX 49 55 111 56 50 57 51 58 52 59 105 60 53 61 110 62 104 63
REMARK SMILES IDX 106 64 54 65 109 66 103 67 102 68 55 70 89 71 68 72 88 73
REMARK SMILES IDX 69 74 72 75 87 76 107 77 70 78 71 79 86 81 108 82 73 83
REMARK SMILES IDX 56 84 57 85 66 86 58 87 59 88 65 89 67 90 60 91 61 92 62 93
REMARK SMILES IDX 63 94 64 95 90 96 91 97 100 98 92 99 93 100 99 101 101 102
REMARK SMILES IDX 94 103 95 104 96 105 97 106 98 107 74 108 75 109 84 110
REMARK SMILES IDX 76 111 77 112 83 113 85 114 78 115 79 116 80 117 81 118
REMARK SMILES IDX 82 119
REMARK H PARENT 18 13 23 39 106 69 72 80
REMARK Flexibility Score: inf
ROOT
ATOM      1  C   UNL A   1      37.647  30.557  28.983  1.00  0.00     0.188 C 
ENDROOT
BRANCH   1   2
ATOM      2  C   UNL A   1      38.978  30.171  29.621  1.00  0.00     0.188 C 
BRANCH   2   3
ATOM      3  O   UNL A   1      39.960  29.587  28.779  1.00  0.00    -0.376 OA
BRANCH   3   4
ATOM      4  C   UNL A   1      41.316  29.996  28.950  1.00  0.00     0.202 C 
BRANCH   4   5
ATOM      5  C   UNL A   1      41.891  30.425  30.316  1.00  0.00     0.261 C 
BRANCH   5   6
ATOM      6  O   UNL A   1      43.092  29.762  30.766  1.00  0.00    -0.462 OA
BRANCH   6   7
ATOM      7  C   UNL A   1      42.918  28.787  31.694  1.00  0.00     0.329 C 
ATOM      8  O   UNL A   1      42.300  27.741  31.502  1.00  0.00    -0.250 OA
BRANCH   7   9
ATOM      9  C   UNL A   1      43.640  29.081  33.166  1.00  0.00     0.196 C 
BRANCH   9  10
ATOM     10  N   UNL A   1      43.057  30.335  34.684  1.00  0.00    -0.342 N 
ATOM     11  C   UNL A   1      42.191  30.918  35.624  1.00  0.00     0.220 C 
ATOM     12  O   UNL A   1      42.695  31.710  36.426  1.00  0.00    -0.275 OA
ATOM     13  H   UNL A   1      43.892  30.824  34.861  1.00  0.00     0.164 HD
BRANCH  11  14
ATOM     14  C   UNL A   1      40.749  30.547  35.747  1.00  0.00     0.101 C 
BRANCH  14  15
ATOM     15  C   UNL A   1      40.030  31.337  34.703  1.00  0.00     0.026 C 
BRANCH  15  16
ATOM     16  C   UNL A   1      38.547  31.103  34.969  1.00  0.00     0.107 C 
ATOM     17  C   UNL A   1      33.815  37.222  33.342  1.00  0.00     0.048 C 
ATOM     18  C   UNL A   1      34.021  36.002  32.530  1.00  0.00    -0.005 A 
ATOM     19  C   UNL A   1      33.463  35.745  31.296  1.00  0.00     0.199 A 
ATOM     20  C   UNL A   1      34.792  34.838  32.884  1.00  0.00     0.024 A 
ATOM     21  O   UNL A   1      33.754  34.495  30.883  1.00  0.00    -0.464 OA
ATOM     22  C   UNL A   1      34.506  33.900  31.857  1.00  0.00     0.137 A 
ATOM     23  C   UNL A   1      35.671  34.572  33.996  1.00  0.00     0.020 A 
ATOM     24  C   UNL A   1      34.876  32.554  31.749  1.00  0.00     0.095 A 
ATOM     25  C   UNL A   1      36.158  33.285  34.068  1.00  0.00    -0.001 A 
ATOM     26  C   UNL A   1      35.567  32.201  32.875  1.00  0.00     0.138 A 
ATOM     27  C   UNL A   1      37.651  32.855  35.195  1.00  0.00     0.034 C 
ATOM     28  O   UNL A   1      36.492  30.665  32.661  1.00  0.00    -0.426 OA
ATOM     29  C   UNL A   1      37.573  33.188  36.690  1.00  0.00     0.014 C 
ATOM     30  C   UNL A   1      37.880  29.958  33.521  1.00  0.00     0.314 C 
ATOM     31  O   UNL A   1      38.422  28.949  33.090  1.00  0.00    -0.251 OA
ENDBRANCH  15  16
ENDBRANCH  14  15
ENDBRANCH  11  14
ENDBRANCH   9  10
BRANCH   9  32
ATOM     32  C   UNL A   1      44.547  27.605  33.161  1.00  0.00     0.074 C 
BRANCH  32  33
ATOM     33  C   UNL A   1      44.184  26.205  33.610  1.00  0.00    -0.020 A 
ATOM     34  C   UNL A   1      44.637  24.937  33.314  1.00  0.00     0.087 A 
ATOM     35  C   UNL A   1      43.194  26.008  34.651  1.00  0.00     0.003 A 
ATOM     36  N   UNL A   1      43.811  24.017  33.916  1.00  0.00    -0.361 N 
ATOM     37  C   UNL A   1      42.939  24.647  34.768  1.00  0.00     0.046 A 
ATOM     38  C   UNL A   1      42.507  26.889  35.513  1.00  0.00     0.010 A 
ATOM     39  H   UNL A   1      43.843  23.046  33.760  1.00  0.00     0.166 HD
ATOM     40  C   UNL A   1      41.987  24.126  35.654  1.00  0.00     0.026 A 
ATOM     41  C   UNL A   1      41.622  26.382  36.467  1.00  0.00     0.001 A 
ATOM     42  C   UNL A   1      41.353  25.020  36.525  1.00  0.00     0.002 A 
ENDBRANCH  32  33
ENDBRANCH   9  32
ENDBRANCH   7   9
ENDBRANCH   6   7
ENDBRANCH   5   6
ENDBRANCH   4   5
ENDBRANCH   3   4
ENDBRANCH   2   3
ENDBRANCH   1   2
BRANCH   1  43
ATOM     43  O   UNL A   1      37.147  31.767  29.515  1.00  0.00    -0.377 OA
BRANCH  43  44
ATOM     44  C   UNL A   1      37.491  33.000  28.907  1.00  0.00     0.188 C 
BRANCH  44  45
ATOM     45  C   UNL A   1      38.513  33.912  29.593  1.00  0.00     0.188 C 
BRANCH  45  46
ATOM     46  O   UNL A   1      39.455  34.473  28.685  1.00  0.00    -0.376 OA
BRANCH  46  47
ATOM     47  C   UNL A   1      40.659  35.042  29.174  1.00  0.00     0.202 C 
BRANCH  47  48
ATOM     48  C   UNL A   1      41.669  35.602  28.160  1.00  0.00     0.261 C 
BRANCH  48  49
ATOM     49  O   UNL A   1      42.958  34.966  28.175  1.00  0.00    -0.460 OA
BRANCH  49  50
ATOM     50  C   UNL A   1      43.564  34.662  27.006  1.00  0.00     0.338 C 
ATOM     51  O   UNL A   1      43.528  35.305  25.975  1.00  0.00    -0.246 OA
BRANCH  50  52
ATOM     52  C   UNL A   1      44.568  33.623  27.358  1.00  0.00     0.060 A 
ATOM     53  C   UNL A   1      45.804  33.555  26.699  1.00  0.00     0.016 A 
ATOM     54  C   UNL A   1      44.104  32.534  28.111  1.00  0.00     0.016 A 
ATOM     55  C   UNL A   1      46.507  32.354  26.695  1.00  0.00     0.010 A 
ATOM     56  C   UNL A   1      44.793  31.323  28.071  1.00  0.00     0.010 A 
ATOM     57  C   UNL A   1      45.973  31.219  27.331  1.00  0.00    -0.014 A 
BRANCH  57  58
ATOM     58  C   UNL A   1      46.799  30.003  27.373  1.00  0.00     0.031 A 
ATOM     59  C   UNL A   1      47.907  30.109  28.353  1.00  0.00     0.074 A 
ATOM     60  C   UNL A   1      46.541  28.823  26.769  1.00  0.00     0.049 A 
ATOM     61  N   UNL A   1      49.182  30.049  28.151  1.00  0.00    -0.248 NA
ATOM     62  C   UNL A   1      47.521  30.448  29.734  1.00  0.00     0.031 C 
ATOM     63  C   UNL A   1      45.311  28.459  26.069  1.00  0.00     0.029 A 
ATOM     64  N   UNL A   1      47.275  27.659  26.732  1.00  0.00    -0.354 N 
ATOM     65  C   UNL A   1      49.742  30.110  29.421  1.00  0.00     0.074 A 
ATOM     66  C   UNL A   1      48.708  30.542  30.325  1.00  0.00     0.031 C 
ATOM     67  C   UNL A   1      45.315  27.135  25.807  1.00  0.00     0.029 A 
ATOM     68  C   UNL A   1      46.566  26.551  26.267  1.00  0.00     0.049 A 
ATOM     69  H   UNL A   1      48.218  27.613  27.009  1.00  0.00     0.167 HD
ATOM     70  C   UNL A   1      50.929  29.521  29.718  1.00  0.00     0.037 A 
ATOM     71  C   UNL A   1      46.923  25.241  26.313  1.00  0.00     0.037 A 
ATOM     72  C   UNL A   1      51.714  29.223  28.556  1.00  0.00     0.049 A 
ATOM     73  C   UNL A   1      48.387  25.158  26.524  1.00  0.00     0.074 A 
ATOM     74  C   UNL A   1      52.344  29.963  27.578  1.00  0.00     0.029 A 
ATOM     75  N   UNL A   1      51.648  27.933  28.100  1.00  0.00    -0.354 N 
ATOM     76  N   UNL A   1      49.278  25.487  25.634  1.00  0.00    -0.248 NA
ATOM     77  C   UNL A   1      48.903  24.946  27.870  1.00  0.00     0.031 C 
ATOM     78  C   UNL A   1      52.392  29.132  26.422  1.00  0.00     0.029 A 
ATOM     79  C   UNL A   1      51.781  27.920  26.732  1.00  0.00     0.049 A 
ATOM     80  H   UNL A   1      51.526  27.137  28.665  1.00  0.00     0.167 HD
ATOM     81  C   UNL A   1      50.361  25.924  26.370  1.00  0.00     0.074 A 
ATOM     82  C   UNL A   1      50.143  25.414  27.714  1.00  0.00     0.031 C 
ATOM     83  C   UNL A   1      51.166  26.915  25.894  1.00  0.00     0.037 A 
BRANCH  70  84
ATOM     84  C   UNL A   1      51.154  28.867  31.056  1.00  0.00     0.058 A 
ATOM     85  C   UNL A   1      52.160  29.320  31.920  1.00  0.00     0.135 A 
ATOM     86  C   UNL A   1      50.526  27.649  31.415  1.00  0.00     0.135 A 
ATOM     87  F   UNL A   1      52.859  30.428  31.627  1.00  0.00    -0.206 F 
ATOM     88  C   UNL A   1      52.504  28.621  33.080  1.00  0.00     0.059 A 
ATOM     89  C   UNL A   1      50.806  26.972  32.591  1.00  0.00     0.059 A 
ATOM     90  F   UNL A   1      49.668  27.032  30.588  1.00  0.00    -0.206 F 
ATOM     91  C   UNL A   1      51.815  27.453  33.409  1.00  0.00     0.060 A 
BRANCH  91  92
ATOM     92  S   UNL A   1      52.274  26.533  34.889  1.00  0.00     0.124 S 
ATOM     93  O   UNL A   1      53.142  25.503  34.331  1.00  0.00    -0.237 OA
ATOM     94  O   UNL A   1      52.930  27.559  35.694  1.00  0.00    -0.237 OA
ATOM     95  O   UNL A   1      50.989  26.069  35.405  1.00  0.00    -0.744 OA
ENDBRANCH  91  92
ENDBRANCH  70  84
BRANCH  71  96
ATOM     96  C   UNL A   1      46.063  24.022  26.392  1.00  0.00     0.058 A 
ATOM     97  C   UNL A   1      45.224  23.783  27.500  1.00  0.00     0.135 A 
ATOM     98  C   UNL A   1      45.834  23.208  25.265  1.00  0.00     0.135 A 
ATOM     99  F   UNL A   1      45.349  24.513  28.618  1.00  0.00    -0.206 F 
ATOM    100  C   UNL A   1      44.182  22.846  27.464  1.00  0.00     0.059 A 
ATOM    101  C   UNL A   1      44.821  22.255  25.215  1.00  0.00     0.059 A 
ATOM    102  F   UNL A   1      46.524  23.386  24.129  1.00  0.00    -0.206 F 
ATOM    103  C   UNL A   1      43.972  22.106  26.303  1.00  0.00     0.060 A 
BRANCH 103 104
ATOM    104  S   UNL A   1      42.498  21.068  26.158  1.00  0.00     0.124 S 
ATOM    105  O   UNL A   1      42.992  19.942  25.375  1.00  0.00    -0.237 OA
ATOM    106  O   UNL A   1      42.186  20.787  27.556  1.00  0.00    -0.237 OA
ATOM    107  O   UNL A   1      41.541  21.934  25.474  1.00  0.00    -0.744 OA
ENDBRANCH 103 104
ENDBRANCH  71  96
BRANCH  83 108
ATOM    108  C   UNL A   1      51.242  27.046  24.396  1.00  0.00     0.058 A 
ATOM    109  C   UNL A   1      50.228  27.579  23.580  1.00  0.00     0.135 A 
ATOM    110  C   UNL A   1      52.395  26.567  23.759  1.00  0.00     0.135 A 
ATOM    111  F   UNL A   1      49.135  28.141  24.120  1.00  0.00    -0.206 F 
ATOM    112  C   UNL A   1      50.318  27.543  22.186  1.00  0.00     0.059 A 
ATOM    113  C   UNL A   1      52.517  26.546  22.373  1.00  0.00     0.059 A 
ATOM    114  F   UNL A   1      53.424  26.101  24.487  1.00  0.00    -0.206 F 
ATOM    115  C   UNL A   1      51.457  27.001  21.590  1.00  0.00     0.060 A 
BRANCH 115 116
ATOM    116  S   UNL A   1      51.593  26.914  19.790  1.00  0.00     0.124 S 
ATOM    117  O   UNL A   1      50.473  26.048  19.441  1.00  0.00    -0.237 OA
ATOM    118  O   UNL A   1      51.466  28.307  19.363  1.00  0.00    -0.237 OA
ATOM    119  O   UNL A   1      52.920  26.335  19.583  1.00  0.00    -0.744 OA
ENDBRANCH 115 116
ENDBRANCH  83 108
ENDBRANCH  57  58
ENDBRANCH  50  52
ENDBRANCH  49  50
ENDBRANCH  48  49
ENDBRANCH  47  48
ENDBRANCH  46  47
ENDBRANCH  45  46
ENDBRANCH  44  45
ENDBRANCH  43  44
ENDBRANCH   1  43
TORSDOF 29
ENDMDL
MODEL 2
REMARK VINA RESULT:      -8.6      4.750     10.947
REMARK SMILES Cc1coc2cc3c(cc12)[C@@H](C)[C@H](CCC(=O)N[C@@H](Cc1c[nH]c2ccccc12)C(=O)OCCOCCOCCOCCOC(=O)c1ccc(-c2c4nc(c(-c5c(F)cc(S(=O)(=O)[O-])cc5F)c5ccc([nH]5)c(-c5c(F)cc(S(=O)(=O)[O-])cc5F)c5nc(c(-c6c(F)cc(S(=O)(=O)[O-])cc6F)c6ccc2[nH]6)C=C5)C=C4)cc1)C(=O)O3
REMARK SMILES IDX 37 1 36 2 35 3 34 4 33 5 32 6 30 7 31 8 19 9 18 10 16 11
REMARK SMILES IDX 17 12 15 14 14 15 13 16 1 17 2 18 3 19 10 20 4 21 5 22 9 23
REMARK SMILES IDX 6 24 8 25 7 26 11 27 115 28 12 29 113 30 114 31 20 32 21 33
REMARK SMILES IDX 22 34 29 35 23 36 24 37 28 38 25 40 27 41 26 42 38 43 39 44
REMARK SMILES IDX 40 45 41 46 42 47 43 48 44 49 45 50 46 51 47 52 48 53 112 54
REMARK SMILES IDX 49 55 111 56 50 57 51 58 52 59 105 60 53 61 110 62 104 63
REMARK SMILES IDX 106 64 54 65 109 66 103 67 102 68 55 70 89 71 68 72 88 73
REMARK SMILES IDX 69 74 72 75 87 76 107 77 70 78 71 79 86 81 108 82 73 83
REMARK SMILES IDX 56 84 57 85 66 86 58 87 59 88 65 89 67 90 60 91 61 92 62 93
REMARK SMILES IDX 63 94 64 95 90 96 91 97 100 98 92 99 93 100 99 101 101 102
REMARK SMILES IDX 94 103 95 104 96 105 97 106 98 107 74 108 75 109 84 110
REMARK SMILES IDX 76 111 77 112 83 113 85 114 78 115 79 116 80 117 81 118
REMARK SMILES IDX 82 119
REMARK H PARENT 18 13 23 39 106 69 72 80
REMARK Flexibility Score: inf
ROOT
ATOM      1  C   UNL A   1      40.383  25.149  28.111  1.00  0.00     0.188 C 
ENDROOT
BRANCH   1   2
ATOM      2  C   UNL A   1      40.575  26.557  27.557  1.00  0.00     0.188 C 
BRANCH   2   3
ATOM      3  O   UNL A   1      39.567  27.515  27.842  1.00  0.00    -0.376 OA
BRANCH   3   4
ATOM      4  C   UNL A   1      39.842  28.500  28.837  1.00  0.00     0.202 C 
BRANCH   4   5
ATOM      5  C   UNL A   1      39.419  29.976  28.687  1.00  0.00     0.261 C 
BRANCH   5   6
ATOM      6  O   UNL A   1      38.628  30.548  29.750  1.00  0.00    -0.462 OA
BRANCH   6   7
ATOM      7  C   UNL A   1      37.746  31.511  29.379  1.00  0.00     0.329 C 
ATOM      8  O   UNL A   1      38.054  32.666  29.084  1.00  0.00    -0.250 OA
BRANCH   7   9
ATOM      9  C   UNL A   1      36.155  31.021  29.316  1.00  0.00     0.196 C 
BRANCH   9  10
ATOM     10  N   UNL A   1      35.296  29.497  28.242  1.00  0.00    -0.342 N 
ATOM     11  C   UNL A   1      34.649  28.877  27.160  1.00  0.00     0.220 C 
ATOM     12  O   UNL A   1      34.525  27.650  27.217  1.00  0.00    -0.275 OA
ATOM     13  H   UNL A   1      35.404  28.740  28.862  1.00  0.00     0.164 HD
BRANCH  11  14
ATOM     14  C   UNL A   1      34.212  29.615  25.937  1.00  0.00     0.101 C 
BRANCH  14  15
ATOM     15  C   UNL A   1      32.766  29.925  26.138  1.00  0.00     0.026 C 
BRANCH  15  16
ATOM     16  C   UNL A   1      32.012  28.755  25.517  1.00  0.00     0.107 C 
ATOM     17  C   UNL A   1      36.542  22.886  22.772  1.00  0.00     0.048 C 
ATOM     18  C   UNL A   1      35.772  22.914  24.036  1.00  0.00    -0.005 A 
ATOM     19  C   UNL A   1      35.761  21.931  25.001  1.00  0.00     0.199 A 
ATOM     20  C   UNL A   1      34.855  23.934  24.477  1.00  0.00     0.024 A 
ATOM     21  O   UNL A   1      34.863  22.210  25.968  1.00  0.00    -0.464 OA
ATOM     22  C   UNL A   1      34.254  23.388  25.641  1.00  0.00     0.137 A 
ATOM     23  C   UNL A   1      34.536  25.234  23.939  1.00  0.00     0.020 A 
ATOM     24  C   UNL A   1      33.197  23.882  26.416  1.00  0.00     0.095 A 
ATOM     25  C   UNL A   1      33.512  25.900  24.576  1.00  0.00    -0.001 A 
ATOM     26  C   UNL A   1      32.737  25.034  25.840  1.00  0.00     0.138 A 
ATOM     27  C   UNL A   1      33.231  27.778  24.298  1.00  0.00     0.034 C 
ATOM     28  O   UNL A   1      31.716  26.007  26.968  1.00  0.00    -0.426 OA
ATOM     29  C   UNL A   1      33.029  28.295  22.869  1.00  0.00     0.014 C 
ATOM     30  C   UNL A   1      31.240  27.722  26.997  1.00  0.00     0.314 C 
ATOM     31  O   UNL A   1      30.642  28.178  27.962  1.00  0.00    -0.251 OA
ENDBRANCH  15  16
ENDBRANCH  14  15
ENDBRANCH  11  14
ENDBRANCH   9  10
BRANCH   9  32
ATOM     32  C   UNL A   1      35.732  31.764  30.822  1.00  0.00     0.074 C 
BRANCH  32  33
ATOM     33  C   UNL A   1      35.303  33.178  31.156  1.00  0.00    -0.020 A 
ATOM     34  C   UNL A   1      35.594  34.074  32.163  1.00  0.00     0.087 A 
ATOM     35  C   UNL A   1      34.442  33.911  30.248  1.00  0.00     0.003 A 
ATOM     36  N   UNL A   1      34.772  35.169  32.034  1.00  0.00    -0.361 N 
ATOM     37  C   UNL A   1      34.080  35.109  30.851  1.00  0.00     0.046 A 
ATOM     38  C   UNL A   1      33.958  33.648  28.949  1.00  0.00     0.010 A 
ATOM     39  H   UNL A   1      34.692  35.893  32.697  1.00  0.00     0.166 HD
ATOM     40  C   UNL A   1      33.207  36.027  30.253  1.00  0.00     0.026 A 
ATOM     41  C   UNL A   1      33.163  34.593  28.297  1.00  0.00     0.001 A 
ATOM     42  C   UNL A   1      32.777  35.759  28.948  1.00  0.00     0.002 A 
ENDBRANCH  32  33
ENDBRANCH   9  32
ENDBRANCH   7   9
ENDBRANCH   6   7
ENDBRANCH   5   6
ENDBRANCH   4   5
ENDBRANCH   3   4
ENDBRANCH   2   3
ENDBRANCH   1   2
BRANCH   1  43
ATOM     43  O   UNL A   1      40.700  24.164  27.148  1.00  0.00    -0.377 OA
BRANCH  43  44
ATOM     44  C   UNL A   1      39.991  22.936  27.136  1.00  0.00     0.188 C 
BRANCH  44  45
ATOM     45  C   UNL A   1      40.690  21.675  26.620  1.00  0.00     0.188 C 
BRANCH  45  46
ATOM     46  O   UNL A   1      42.049  21.899  26.262  1.00  0.00    -0.376 OA
BRANCH  46  47
ATOM     47  C   UNL A   1      42.937  20.802  26.125  1.00  0.00     0.202 C 
BRANCH  47  48
ATOM     48  C   UNL A   1      44.156  20.957  25.201  1.00  0.00     0.261 C 
BRANCH  48  49
ATOM     49  O   UNL A   1      45.183  21.832  25.696  1.00  0.00    -0.460 OA
BRANCH  49  50
ATOM     50  C   UNL A   1      45.266  23.095  25.224  1.00  0.00     0.338 C 
ATOM     51  O   UNL A   1      45.111  23.457  24.073  1.00  0.00    -0.246 OA
BRANCH  50  52
ATOM     52  C   UNL A   1      45.198  23.958  26.433  1.00  0.00     0.060 A 
ATOM     53  C   UNL A   1      44.178  24.907  26.589  1.00  0.00     0.016 A 
ATOM     54  C   UNL A   1      46.355  24.022  27.222  1.00  0.00     0.016 A 
ATOM     55  C   UNL A   1      44.380  25.986  27.446  1.00  0.00     0.010 A 
ATOM     56  C   UNL A   1      46.568  25.124  28.049  1.00  0.00     0.010 A 
ATOM     57  C   UNL A   1      45.600  26.127  28.132  1.00  0.00    -0.014 A 
BRANCH  57  58
ATOM     58  C   UNL A   1      45.724  27.234  29.091  1.00  0.00     0.031 A 
ATOM     59  C   UNL A   1      44.924  27.008  30.319  1.00  0.00     0.074 A 
ATOM     60  C   UNL A   1      46.583  28.275  29.027  1.00  0.00     0.049 A 
ATOM     61  N   UNL A   1      43.951  27.710  30.799  1.00  0.00    -0.248 NA
ATOM     62  C   UNL A   1      45.182  25.747  31.038  1.00  0.00     0.031 C 
ATOM     63  C   UNL A   1      47.673  28.439  28.068  1.00  0.00     0.029 A 
ATOM     64  N   UNL A   1      46.736  29.359  29.860  1.00  0.00    -0.354 N 
ATOM     65  C   UNL A   1      43.638  27.097  32.007  1.00  0.00     0.074 A 
ATOM     66  C   UNL A   1      44.280  25.808  32.013  1.00  0.00     0.031 C 
ATOM     67  C   UNL A   1      48.462  29.465  28.452  1.00  0.00     0.029 A 
ATOM     68  C   UNL A   1      47.916  30.074  29.655  1.00  0.00     0.049 A 
ATOM     69  H   UNL A   1      46.071  29.609  30.540  1.00  0.00     0.167 HD
ATOM     70  C   UNL A   1      43.125  27.788  33.057  1.00  0.00     0.037 A 
ATOM     71  C   UNL A   1      48.462  31.044  30.435  1.00  0.00     0.037 A 
ATOM     72  C   UNL A   1      42.559  29.049  32.677  1.00  0.00     0.049 A 
ATOM     73  C   UNL A   1      47.409  31.578  31.330  1.00  0.00     0.074 A 
ATOM     74  C   UNL A   1      41.491  29.457  31.907  1.00  0.00     0.029 A 
ATOM     75  N   UNL A   1      43.357  30.148  32.865  1.00  0.00    -0.354 N 
ATOM     76  N   UNL A   1      46.405  32.305  30.933  1.00  0.00    -0.248 NA
ATOM     77  C   UNL A   1      47.309  31.076  32.695  1.00  0.00     0.031 C 
ATOM     78  C   UNL A   1      41.828  30.751  31.415  1.00  0.00     0.029 A 
ATOM     79  C   UNL A   1      43.093  31.082  31.893  1.00  0.00     0.049 A 
ATOM     80  H   UNL A   1      44.017  30.252  33.587  1.00  0.00     0.167 HD
ATOM     81  C   UNL A   1      45.388  32.009  31.817  1.00  0.00     0.074 A 
ATOM     82  C   UNL A   1      46.040  31.392  32.960  1.00  0.00     0.031 C 
ATOM     83  C   UNL A   1      44.090  32.007  31.402  1.00  0.00     0.037 A 
BRANCH  70  84
ATOM     84  C   UNL A   1      43.524  27.455  34.470  1.00  0.00     0.058 A 
ATOM     85  C   UNL A   1      44.822  27.711  34.931  1.00  0.00     0.135 A 
ATOM     86  C   UNL A   1      42.701  26.680  35.323  1.00  0.00     0.135 A 
ATOM     87  F   UNL A   1      45.697  28.378  34.163  1.00  0.00    -0.206 F 
ATOM     88  C   UNL A   1      45.267  27.250  36.174  1.00  0.00     0.059 A 
ATOM     89  C   UNL A   1      43.099  26.265  36.585  1.00  0.00     0.059 A 
ATOM     90  F   UNL A   1      41.502  26.232  34.924  1.00  0.00    -0.206 F 
ATOM     91  C   UNL A   1      44.394  26.535  36.994  1.00  0.00     0.060 A 
BRANCH  91  92
ATOM     92  S   UNL A   1      44.971  25.914  38.584  1.00  0.00     0.124 S 
ATOM     93  O   UNL A   1      44.697  24.488  38.454  1.00  0.00    -0.237 OA
ATOM     94  O   UNL A   1      46.379  26.300  38.569  1.00  0.00    -0.237 OA
ATOM     95  O   UNL A   1      44.142  26.634  39.546  1.00  0.00    -0.744 OA
ENDBRANCH  91  92
ENDBRANCH  70  84
BRANCH  71  96
ATOM     96  C   UNL A   1      49.895  31.422  30.622  1.00  0.00     0.058 A 
ATOM     97  C   UNL A   1      50.809  30.556  31.257  1.00  0.00     0.135 A 
ATOM     98  C   UNL A   1      50.463  32.515  29.937  1.00  0.00     0.135 A 
ATOM     99  F   UNL A   1      50.372  29.477  31.923  1.00  0.00    -0.206 F 
ATOM    100  C   UNL A   1      52.197  30.726  31.159  1.00  0.00     0.059 A 
ATOM    101  C   UNL A   1      51.837  32.718  29.847  1.00  0.00     0.059 A 
ATOM    102  F   UNL A   1      49.701  33.369  29.240  1.00  0.00    -0.206 F 
ATOM    103  C   UNL A   1      52.701  31.798  30.425  1.00  0.00     0.060 A 
BRANCH 103 104
ATOM    104  S   UNL A   1      54.476  31.899  30.095  1.00  0.00     0.124 S 
ATOM    105  O   UNL A   1      54.900  32.945  31.018  1.00  0.00    -0.237 OA
ATOM    106  O   UNL A   1      54.922  30.546  30.412  1.00  0.00    -0.237 OA
ATOM    107  O   UNL A   1      54.537  32.254  28.679  1.00  0.00    -0.744 OA
ENDBRANCH 103 104
ENDBRANCH  71  96
BRANCH  83 108
ATOM    108  C   UNL A   1      43.763  32.907  30.240  1.00  0.00     0.058 A 
ATOM    109  C   UNL A   1      43.879  32.550  28.885  1.00  0.00     0.135 A 
ATOM    110  C   UNL A   1      43.348  34.215  30.527  1.00  0.00     0.135 A 
ATOM    111  F   UNL A   1      44.183  31.291  28.529  1.00  0.00    -0.206 F 
ATOM    112  C   UNL A   1      43.687  33.484  27.864  1.00  0.00     0.059 A 
ATOM    113  C   UNL A   1      43.124  35.154  29.525  1.00  0.00     0.059 A 
ATOM    114  F   UNL A   1      43.160  34.599  31.801  1.00  0.00    -0.206 F 
ATOM    115  C   UNL A   1      43.334  34.792  28.195  1.00  0.00     0.060 A 
BRANCH 115 116
ATOM    116  S   UNL A   1      43.104  36.032  26.899  1.00  0.00     0.124 S 
ATOM    117  O   UNL A   1      43.127  35.217  25.690  1.00  0.00    -0.237 OA
ATOM    118  O   UNL A   1      41.814  36.639  27.223  1.00  0.00    -0.237 OA
ATOM    119  O   UNL A   1      44.253  36.918  27.079  1.00  0.00    -0.744 OA
ENDBRANCH 115 116
ENDBRANCH  83 108
ENDBRANCH  57  58
ENDBRANCH  50  52
ENDBRANCH  49  50
ENDBRANCH  48  49
ENDBRANCH  47  48
ENDBRANCH  46  47
ENDBRANCH  45  46
ENDBRANCH  44  45
ENDBRANCH  43  44
ENDBRANCH   1  43
TORSDOF 29
ENDMDL
MODEL 3
REMARK VINA RESULT:      -8.3      7.720     14.666
REMARK SMILES Cc1coc2cc3c(cc12)[C@@H](C)[C@H](CCC(=O)N[C@@H](Cc1c[nH]c2ccccc12)C(=O)OCCOCCOCCOCCOC(=O)c1ccc(-c2c4nc(c(-c5c(F)cc(S(=O)(=O)[O-])cc5F)c5ccc([nH]5)c(-c5c(F)cc(S(=O)(=O)[O-])cc5F)c5nc(c(-c6c(F)cc(S(=O)(=O)[O-])cc6F)c6ccc2[nH]6)C=C5)C=C4)cc1)C(=O)O3
REMARK SMILES IDX 37 1 36 2 35 3 34 4 33 5 32 6 30 7 31 8 19 9 18 10 16 11
REMARK SMILES IDX 17 12 15 14 14 15 13 16 1 17 2 18 3 19 10 20 4 21 5 22 9 23
REMARK SMILES IDX 6 24 8 25 7 26 11 27 115 28 12 29 113 30 114 31 20 32 21 33
REMARK SMILES IDX 22 34 29 35 23 36 24 37 28 38 25 40 27 41 26 42 38 43 39 44
REMARK SMILES IDX 40 45 41 46 42 47 43 48 44 49 45 50 46 51 47 52 48 53 112 54
REMARK SMILES IDX 49 55 111 56 50 57 51 58 52 59 105 60 53 61 110 62 104 63
REMARK SMILES IDX 106 64 54 65 109 66 103 67 102 68 55 70 89 71 68 72 88 73
REMARK SMILES IDX 69 74 72 75 87 76 107 77 70 78 71 79 86 81 108 82 73 83
REMARK SMILES IDX 56 84 57 85 66 86 58 87 59 88 65 89 67 90 60 91 61 92 62 93
REMARK SMILES IDX 63 94 64 95 90 96 91 97 100 98 92 99 93 100 99 101 101 102
REMARK SMILES IDX 94 103 95 104 96 105 97 106 98 107 74 108 75 109 84 110
REMARK SMILES IDX 76 111 77 112 83 113 85 114 78 115 79 116 80 117 81 118
REMARK SMILES IDX 82 119
REMARK H PARENT 18 13 23 39 106 69 72 80
REMARK Flexibility Score: inf
ROOT
ATOM      1  C   UNL A   1      52.623  42.308  29.868  1.00  0.00     0.188 C 
ENDROOT
BRANCH   1   2
ATOM      2  C   UNL A   1      51.198  42.444  30.396  1.00  0.00     0.188 C 
BRANCH   2   3
ATOM      3  O   UNL A   1      50.180  42.757  29.458  1.00  0.00    -0.376 OA
BRANCH   3   4
ATOM      4  C   UNL A   1      50.079  41.948  28.287  1.00  0.00     0.202 C 
BRANCH   4   5
ATOM      5  C   UNL A   1      48.831  41.100  27.965  1.00  0.00     0.261 C 
BRANCH   5   6
ATOM      6  O   UNL A   1      47.699  41.226  28.853  1.00  0.00    -0.462 OA
BRANCH   6   7
ATOM      7  C   UNL A   1      46.654  40.398  28.602  1.00  0.00     0.329 C 
ATOM      8  O   UNL A   1      46.745  39.178  28.464  1.00  0.00    -0.250 OA
BRANCH   7   9
ATOM      9  C   UNL A   1      45.169  41.146  28.511  1.00  0.00     0.196 C 
BRANCH   9  10
ATOM     10  N   UNL A   1      44.034  41.609  26.863  1.00  0.00    -0.342 N 
ATOM     11  C   UNL A   1      43.767  41.957  25.528  1.00  0.00     0.220 C 
ATOM     12  O   UNL A   1      42.581  41.962  25.184  1.00  0.00    -0.275 OA
ATOM     13  H   UNL A   1      43.124  41.549  27.233  1.00  0.00     0.164 HD
BRANCH  11  14
ATOM     14  C   UNL A   1      44.839  42.214  24.521  1.00  0.00     0.101 C 
BRANCH  14  15
ATOM     15  C   UNL A   1      44.309  43.278  23.617  1.00  0.00     0.026 C 
BRANCH  15  16
ATOM     16  C   UNL A   1      44.819  42.918  22.226  1.00  0.00     0.107 C 
ATOM     17  C   UNL A   1      41.847  47.242  16.312  1.00  0.00     0.048 C 
ATOM     18  C   UNL A   1      43.182  47.370  16.940  1.00  0.00    -0.005 A 
ATOM     19  C   UNL A   1      44.131  48.323  16.639  1.00  0.00     0.199 A 
ATOM     20  C   UNL A   1      43.765  46.507  17.935  1.00  0.00     0.024 A 
ATOM     21  O   UNL A   1      45.281  48.087  17.302  1.00  0.00    -0.464 OA
ATOM     22  C   UNL A   1      45.107  46.954  18.046  1.00  0.00     0.137 A 
ATOM     23  C   UNL A   1      43.215  45.412  18.696  1.00  0.00     0.020 A 
ATOM     24  C   UNL A   1      46.174  46.406  18.768  1.00  0.00     0.095 A 
ATOM     25  C   UNL A   1      44.114  44.735  19.490  1.00  0.00    -0.001 A 
ATOM     26  C   UNL A   1      45.747  45.255  19.371  1.00  0.00     0.138 A 
ATOM     27  C   UNL A   1      43.514  43.554  20.878  1.00  0.00     0.034 C 
ATOM     28  O   UNL A   1      46.857  44.713  20.687  1.00  0.00    -0.426 OA
ATOM     29  C   UNL A   1      42.569  42.402  20.516  1.00  0.00     0.014 C 
ATOM     30  C   UNL A   1      46.643  43.632  22.084  1.00  0.00     0.314 C 
ATOM     31  O   UNL A   1      47.525  43.531  22.925  1.00  0.00    -0.251 OA
ENDBRANCH  15  16
ENDBRANCH  14  15
ENDBRANCH  11  14
ENDBRANCH   9  10
BRANCH   9  32
ATOM     32  C   UNL A   1      44.745  40.790  30.151  1.00  0.00     0.074 C 
BRANCH  32  33
ATOM     33  C   UNL A   1      43.512  41.130  30.964  1.00  0.00    -0.020 A 
ATOM     34  C   UNL A   1      42.152  41.017  30.766  1.00  0.00     0.087 A 
ATOM     35  C   UNL A   1      43.647  41.628  32.318  1.00  0.00     0.003 A 
ATOM     36  N   UNL A   1      41.499  41.646  31.800  1.00  0.00    -0.361 N 
ATOM     37  C   UNL A   1      42.390  42.000  32.781  1.00  0.00     0.046 A 
ATOM     38  C   UNL A   1      44.746  41.775  33.190  1.00  0.00     0.010 A 
ATOM     39  H   UNL A   1      40.530  41.816  31.833  1.00  0.00     0.166 HD
ATOM     40  C   UNL A   1      42.184  42.572  34.043  1.00  0.00     0.026 A 
ATOM     41  C   UNL A   1      44.549  42.256  34.487  1.00  0.00     0.001 A 
ATOM     42  C   UNL A   1      43.287  42.666  34.901  1.00  0.00     0.002 A 
ENDBRANCH  32  33
ENDBRANCH   9  32
ENDBRANCH   7   9
ENDBRANCH   6   7
ENDBRANCH   5   6
ENDBRANCH   4   5
ENDBRANCH   3   4
ENDBRANCH   2   3
ENDBRANCH   1   2
BRANCH   1  43
ATOM     43  O   UNL A   1      53.160  41.031  30.147  1.00  0.00    -0.377 OA
BRANCH  43  44
ATOM     44  C   UNL A   1      52.291  39.938  30.387  1.00  0.00     0.188 C 
BRANCH  44  45
ATOM     45  C   UNL A   1      52.100  38.881  29.295  1.00  0.00     0.188 C 
BRANCH  45  46
ATOM     46  O   UNL A   1      50.915  38.111  29.467  1.00  0.00    -0.376 OA
BRANCH  46  47
ATOM     47  C   UNL A   1      50.650  37.016  28.606  1.00  0.00     0.202 C 
BRANCH  47  48
ATOM     48  C   UNL A   1      49.427  37.092  27.679  1.00  0.00     0.261 C 
BRANCH  48  49
ATOM     49  O   UNL A   1      48.533  35.970  27.762  1.00  0.00    -0.460 OA
BRANCH  49  50
ATOM     50  C   UNL A   1      47.326  36.032  27.157  1.00  0.00     0.338 C 
ATOM     51  O   UNL A   1      47.058  36.608  26.119  1.00  0.00    -0.246 OA
BRANCH  50  52
ATOM     52  C   UNL A   1      46.523  34.958  27.798  1.00  0.00     0.060 A 
ATOM     53  C   UNL A   1      45.387  34.429  27.170  1.00  0.00     0.016 A 
ATOM     54  C   UNL A   1      46.742  34.746  29.167  1.00  0.00     0.016 A 
ATOM     55  C   UNL A   1      44.415  33.800  27.942  1.00  0.00     0.010 A 
ATOM     56  C   UNL A   1      45.748  34.149  29.941  1.00  0.00     0.010 A 
ATOM     57  C   UNL A   1      44.566  33.712  29.337  1.00  0.00    -0.014 A 
BRANCH  57  58
ATOM     58  C   UNL A   1      43.555  32.958  30.092  1.00  0.00     0.031 A 
ATOM     59  C   UNL A   1      43.710  31.492  29.932  1.00  0.00     0.074 A 
ATOM     60  C   UNL A   1      42.677  33.450  30.993  1.00  0.00     0.049 A 
ATOM     61  N   UNL A   1      42.878  30.633  29.439  1.00  0.00    -0.248 NA
ATOM     62  C   UNL A   1      45.035  30.940  30.264  1.00  0.00     0.031 C 
ATOM     63  C   UNL A   1      42.648  34.813  31.518  1.00  0.00     0.029 A 
ATOM     64  N   UNL A   1      41.685  32.820  31.709  1.00  0.00    -0.354 N 
ATOM     65  C   UNL A   1      43.496  29.401  29.622  1.00  0.00     0.074 A 
ATOM     66  C   UNL A   1      44.875  29.658  29.949  1.00  0.00     0.031 C 
ATOM     67  C   UNL A   1      41.798  34.876  32.565  1.00  0.00     0.029 A 
ATOM     68  C   UNL A   1      41.174  33.578  32.764  1.00  0.00     0.049 A 
ATOM     69  H   UNL A   1      41.363  31.915  31.496  1.00  0.00     0.167 HD
ATOM     70  C   UNL A   1      42.789  28.255  29.793  1.00  0.00     0.037 A 
ATOM     71  C   UNL A   1      40.360  33.175  33.775  1.00  0.00     0.037 A 
ATOM     72  C   UNL A   1      41.429  28.364  29.352  1.00  0.00     0.049 A 
ATOM     73  C   UNL A   1      39.704  31.908  33.377  1.00  0.00     0.074 A 
ATOM     74  C   UNL A   1      40.799  28.554  28.141  1.00  0.00     0.029 A 
ATOM     75  N   UNL A   1      40.498  28.607  30.328  1.00  0.00    -0.354 N 
ATOM     76  N   UNL A   1      38.792  31.810  32.453  1.00  0.00    -0.248 NA
ATOM     77  C   UNL A   1      40.259  30.641  33.837  1.00  0.00     0.031 C 
ATOM     78  C   UNL A   1      39.557  29.187  28.435  1.00  0.00     0.029 A 
ATOM     79  C   UNL A   1      39.478  29.370  29.813  1.00  0.00     0.049 A 
ATOM     80  H   UNL A   1      40.551  28.283  31.256  1.00  0.00     0.167 HD
ATOM     81  C   UNL A   1      38.959  30.542  31.932  1.00  0.00     0.074 A 
ATOM     82  C   UNL A   1      39.744  29.821  32.919  1.00  0.00     0.031 C 
ATOM     83  C   UNL A   1      38.712  30.299  30.614  1.00  0.00     0.037 A 
BRANCH  70  84
ATOM     84  C   UNL A   1      43.267  27.186  30.738  1.00  0.00     0.058 A 
ATOM     85  C   UNL A   1      43.326  27.419  32.119  1.00  0.00     0.135 A 
ATOM     86  C   UNL A   1      43.878  25.993  30.281  1.00  0.00     0.135 A 
ATOM     87  F   UNL A   1      42.836  28.554  32.638  1.00  0.00    -0.206 F 
ATOM     88  C   UNL A   1      43.931  26.511  32.994  1.00  0.00     0.059 A 
ATOM     89  C   UNL A   1      44.428  25.049  31.135  1.00  0.00     0.059 A 
ATOM     90  F   UNL A   1      44.030  25.739  28.972  1.00  0.00    -0.206 F 
ATOM     91  C   UNL A   1      44.471  25.328  32.491  1.00  0.00     0.060 A 
BRANCH  91  92
ATOM     92  S   UNL A   1      45.278  24.168  33.610  1.00  0.00     0.124 S 
ATOM     93  O   UNL A   1      46.660  24.630  33.558  1.00  0.00    -0.237 OA
ATOM     94  O   UNL A   1      44.567  24.409  34.862  1.00  0.00    -0.237 OA
ATOM     95  O   UNL A   1      45.018  22.871  32.991  1.00  0.00    -0.744 OA
ENDBRANCH  91  92
ENDBRANCH  70  84
BRANCH  71  96
ATOM     96  C   UNL A   1      40.247  33.695  35.170  1.00  0.00     0.058 A 
ATOM     97  C   UNL A   1      38.992  33.955  35.761  1.00  0.00     0.135 A 
ATOM     98  C   UNL A   1      41.346  33.685  36.051  1.00  0.00     0.135 A 
ATOM     99  F   UNL A   1      37.879  33.972  35.012  1.00  0.00    -0.206 F 
ATOM    100  C   UNL A   1      38.833  34.123  37.143  1.00  0.00     0.059 A 
ATOM    101  C   UNL A   1      41.216  33.874  37.425  1.00  0.00     0.059 A 
ATOM    102  F   UNL A   1      42.579  33.385  35.619  1.00  0.00    -0.206 F 
ATOM    103  C   UNL A   1      39.952  34.052  37.970  1.00  0.00     0.060 A 
BRANCH 103 104
ATOM    104  S   UNL A   1      39.737  34.034  39.765  1.00  0.00     0.124 S 
ATOM    105  O   UNL A   1      38.390  34.568  39.918  1.00  0.00    -0.237 OA
ATOM    106  O   UNL A   1      39.903  32.617  40.077  1.00  0.00    -0.237 OA
ATOM    107  O   UNL A   1      40.811  34.901  40.244  1.00  0.00    -0.744 OA
ENDBRANCH 103 104
ENDBRANCH  71  96
BRANCH  83 108
ATOM    108  C   UNL A   1      37.704  31.199  29.950  1.00  0.00     0.058 A 
ATOM    109  C   UNL A   1      37.962  32.505  29.499  1.00  0.00     0.135 A 
ATOM    110  C   UNL A   1      36.396  30.715  29.804  1.00  0.00     0.135 A 
ATOM    111  F   UNL A   1      39.207  33.007  29.520  1.00  0.00    -0.206 F 
ATOM    112  C   UNL A   1      36.940  33.327  29.016  1.00  0.00     0.059 A 
ATOM    113  C   UNL A   1      35.369  31.506  29.300  1.00  0.00     0.059 A 
ATOM    114  F   UNL A   1      36.100  29.453  30.161  1.00  0.00    -0.206 F 
ATOM    115  C   UNL A   1      35.640  32.826  28.944  1.00  0.00     0.060 A 
BRANCH 115 116
ATOM    116  S   UNL A   1      34.290  33.872  28.350  1.00  0.00     0.124 S 
ATOM    117  O   UNL A   1      33.373  32.891  27.782  1.00  0.00    -0.237 OA
ATOM    118  O   UNL A   1      33.818  34.550  29.556  1.00  0.00    -0.237 OA
ATOM    119  O   UNL A   1      34.949  34.747  27.380  1.00  0.00    -0.744 OA
ENDBRANCH 115 116
ENDBRANCH  83 108
ENDBRANCH  57  58
ENDBRANCH  50  52
ENDBRANCH  49  50
ENDBRANCH  48  49
ENDBRANCH  47  48
ENDBRANCH  46  47
ENDBRANCH  45  46
ENDBRANCH  44  45
ENDBRANCH  43  44
ENDBRANCH   1  43
TORSDOF 29
ENDMDL
