MODEL 1
REMARK VINA RESULT:      -8.9      0.000      0.000
REMARK SMILES O=C(Cc1cc(C2CC[NH+](Cc3cccs3)CC2)n[nH]1)OCCOCCOCCOCCOC(=O)c1ccc(-c2c3nc(c(-c4c(F)cc(S(=O)(=O)[O-])cc4F)c4ccc([nH]4)c(-c4c(F)cc(S(=O)(=O)[O-])cc4F)c4nc(c(-c5c(F)cc(S(=O)(=O)[O-])cc5F)c5ccc2[nH]5)C=C4)C=C3)cc1
REMARK SMILES IDX 26 1 25 2 24 3 23 4 22 5 21 6 2 7 1 8 3 9 4 10 5 11 20 12
REMARK SMILES IDX 6 13 19 14 7 16 8 17 18 18 9 19 17 20 10 21 11 23 12 24
REMARK SMILES IDX 13 25 16 26 14 27 15 28 27 29 28 30 29 31 30 32 31 33 32 34
REMARK SMILES IDX 33 35 34 36 35 37 36 38 37 39 101 40 38 41 100 42 39 43
REMARK SMILES IDX 40 44 41 45 94 46 42 47 99 48 93 49 95 50 43 51 98 52 92 53
REMARK SMILES IDX 91 54 44 56 78 57 57 58 77 59 58 60 61 61 76 62 96 63 59 64
REMARK SMILES IDX 60 65 75 67 97 68 62 69 45 70 46 71 55 72 47 73 48 74 54 75
REMARK SMILES IDX 56 76 49 77 50 78 51 79 52 80 53 81 79 82 80 83 89 84 81 85
REMARK SMILES IDX 82 86 88 87 90 88 83 89 84 90 85 91 86 92 87 93 63 94 64 95
REMARK SMILES IDX 73 96 65 97 66 98 72 99 74 100 67 101 68 102 69 103 70 104
REMARK SMILES IDX 71 105
REMARK H PARENT 20 15 10 22 95 55 61 66
REMARK Flexibility Score: inf
ROOT
ATOM      1  C   UNL A   1      35.199  23.088  25.893  1.00  0.00     0.188 C 
ENDROOT
BRANCH   1   2
ATOM      2  C   UNL A   1      35.026  22.933  24.384  1.00  0.00     0.188 C 
BRANCH   2   3
ATOM      3  O   UNL A   1      33.906  22.169  23.962  1.00  0.00    -0.376 OA
BRANCH   3   4
ATOM      4  C   UNL A   1      33.483  20.939  24.520  1.00  0.00     0.202 C 
BRANCH   4   5
ATOM      5  C   UNL A   1      32.551  20.854  25.727  1.00  0.00     0.261 C 
BRANCH   5   6
ATOM      6  O   UNL A   1      31.281  21.519  25.662  1.00  0.00    -0.463 OA
BRANCH   6   7
ATOM      7  C   UNL A   1      31.019  22.790  26.017  1.00  0.00     0.311 C 
ATOM      8  O   UNL A   1      30.934  23.096  27.204  1.00  0.00    -0.252 OA
BRANCH   7   9
ATOM      9  C   UNL A   1      30.665  23.768  24.941  1.00  0.00     0.178 C 
BRANCH   9  10
ATOM     10  C   UNL A   1      30.728  25.181  25.331  1.00  0.00     0.047 A 
ATOM     11  C   UNL A   1      30.477  26.235  24.505  1.00  0.00     0.049 A 
ATOM     12  N   UNL A   1      31.262  25.724  26.463  1.00  0.00    -0.282 N 
ATOM     13  C   UNL A   1      31.138  27.326  25.083  1.00  0.00     0.066 A 
ATOM     14  N   UNL A   1      31.569  27.027  26.317  1.00  0.00    -0.180 NA
ATOM     15  H   UNL A   1      31.407  25.220  27.295  1.00  0.00     0.190 HD
BRANCH  13  16
ATOM     16  C   UNL A   1      31.518  28.613  24.412  1.00  0.00     0.051 C 
ATOM     17  C   UNL A   1      32.978  28.653  23.949  1.00  0.00     0.071 C 
ATOM     18  C   UNL A   1      31.268  29.815  25.332  1.00  0.00     0.071 C 
ATOM     19  C   UNL A   1      34.003  28.830  25.082  1.00  0.00     0.263 C 
ATOM     20  C   UNL A   1      32.229  29.831  26.524  1.00  0.00     0.263 C 
ATOM     21  N   UNL A   1      33.636  29.782  26.128  1.00  0.00    -0.330 N 
ATOM     22  H   UNL A   1      33.759  30.674  25.648  1.00  0.00     0.348 HD
BRANCH  21  23
ATOM     23  C   UNL A   1      34.562  29.780  27.280  1.00  0.00     0.310 C 
BRANCH  23  24
ATOM     24  C   UNL A   1      35.101  31.119  27.747  1.00  0.00     0.059 A 
ATOM     25  C   UNL A   1      36.411  31.516  27.951  1.00  0.00     0.021 A 
ATOM     26  S   UNL A   1      34.025  32.442  27.988  1.00  0.00    -0.143 S 
ATOM     27  C   UNL A   1      36.525  32.888  28.330  1.00  0.00     0.012 A 
ATOM     28  C   UNL A   1      35.299  33.510  28.381  1.00  0.00     0.065 A 
ENDBRANCH  23  24
ENDBRANCH  21  23
ENDBRANCH  13  16
ENDBRANCH   9  10
ENDBRANCH   7   9
ENDBRANCH   6   7
ENDBRANCH   5   6
ENDBRANCH   4   5
ENDBRANCH   3   4
ENDBRANCH   2   3
ENDBRANCH   1   2
BRANCH   1  29
ATOM     29  O   UNL A   1      36.546  23.322  26.282  1.00  0.00    -0.377 OA
BRANCH  29  30
ATOM     30  C   UNL A   1      37.502  22.663  25.467  1.00  0.00     0.188 C 
BRANCH  30  31
ATOM     31  C   UNL A   1      38.850  22.309  26.141  1.00  0.00     0.188 C 
BRANCH  31  32
ATOM     32  O   UNL A   1      39.547  23.220  26.980  1.00  0.00    -0.376 OA
BRANCH  32  33
ATOM     33  C   UNL A   1      40.937  23.069  27.209  1.00  0.00     0.202 C 
BRANCH  33  34
ATOM     34  C   UNL A   1      41.945  23.888  26.392  1.00  0.00     0.261 C 
BRANCH  34  35
ATOM     35  O   UNL A   1      42.360  25.121  26.993  1.00  0.00    -0.460 OA
BRANCH  35  36
ATOM     36  C   UNL A   1      41.658  26.222  26.629  1.00  0.00     0.338 C 
ATOM     37  O   UNL A   1      41.194  26.472  25.529  1.00  0.00    -0.246 OA
BRANCH  36  38
ATOM     38  C   UNL A   1      41.326  26.988  27.852  1.00  0.00     0.060 A 
ATOM     39  C   UNL A   1      41.929  28.244  28.040  1.00  0.00     0.016 A 
ATOM     40  C   UNL A   1      40.377  26.516  28.761  1.00  0.00     0.016 A 
ATOM     41  C   UNL A   1      41.601  29.023  29.147  1.00  0.00     0.010 A 
ATOM     42  C   UNL A   1      40.082  27.274  29.893  1.00  0.00     0.010 A 
ATOM     43  C   UNL A   1      40.721  28.509  30.107  1.00  0.00    -0.014 A 
BRANCH  43  44
ATOM     44  C   UNL A   1      40.707  29.082  31.471  1.00  0.00     0.031 A 
ATOM     45  C   UNL A   1      39.641  30.101  31.764  1.00  0.00     0.074 A 
ATOM     46  C   UNL A   1      41.631  28.765  32.393  1.00  0.00     0.049 A 
ATOM     47  N   UNL A   1      39.500  30.885  32.798  1.00  0.00    -0.248 NA
ATOM     48  C   UNL A   1      38.604  30.266  30.731  1.00  0.00     0.031 C 
ATOM     49  C   UNL A   1      42.680  27.763  32.233  1.00  0.00     0.029 A 
ATOM     50  N   UNL A   1      41.849  29.294  33.640  1.00  0.00    -0.354 N 
ATOM     51  C   UNL A   1      38.376  31.656  32.526  1.00  0.00     0.074 A 
ATOM     52  C   UNL A   1      37.882  31.255  31.229  1.00  0.00     0.031 C 
ATOM     53  C   UNL A   1      43.461  27.778  33.328  1.00  0.00     0.029 A 
ATOM     54  C   UNL A   1      42.989  28.820  34.241  1.00  0.00     0.049 A 
ATOM     55  H   UNL A   1      41.247  29.948  34.064  1.00  0.00     0.167 HD
ATOM     56  C   UNL A   1      37.815  32.623  33.286  1.00  0.00     0.037 A 
ATOM     57  C   UNL A   1      43.603  29.218  35.374  1.00  0.00     0.037 A 
ATOM     58  C   UNL A   1      38.332  33.029  34.562  1.00  0.00     0.049 A 
ATOM     59  C   UNL A   1      42.997  30.334  36.188  1.00  0.00     0.074 A 
ATOM     60  C   UNL A   1      37.836  33.986  35.427  1.00  0.00     0.029 A 
ATOM     61  N   UNL A   1      39.481  32.513  35.146  1.00  0.00    -0.354 N 
ATOM     62  N   UNL A   1      41.920  31.043  35.940  1.00  0.00    -0.248 NA
ATOM     63  C   UNL A   1      43.685  30.704  37.433  1.00  0.00     0.031 C 
ATOM     64  C   UNL A   1      38.715  34.086  36.511  1.00  0.00     0.029 A 
ATOM     65  C   UNL A   1      39.723  33.147  36.351  1.00  0.00     0.049 A 
ATOM     66  H   UNL A   1      40.039  31.800  34.760  1.00  0.00     0.167 HD
ATOM     67  C   UNL A   1      41.785  31.924  37.010  1.00  0.00     0.074 A 
ATOM     68  C   UNL A   1      42.893  31.658  37.906  1.00  0.00     0.031 C 
ATOM     69  C   UNL A   1      40.828  32.858  37.235  1.00  0.00     0.037 A 
BRANCH  56  70
ATOM     70  C   UNL A   1      36.622  33.335  32.711  1.00  0.00     0.058 A 
ATOM     71  C   UNL A   1      36.698  34.659  32.246  1.00  0.00     0.135 A 
ATOM     72  C   UNL A   1      35.372  32.696  32.669  1.00  0.00     0.135 A 
ATOM     73  F   UNL A   1      37.863  35.325  32.289  1.00  0.00    -0.206 F 
ATOM     74  C   UNL A   1      35.568  35.340  31.808  1.00  0.00     0.059 A 
ATOM     75  C   UNL A   1      34.235  33.348  32.205  1.00  0.00     0.059 A 
ATOM     76  F   UNL A   1      35.243  31.435  33.108  1.00  0.00    -0.206 F 
ATOM     77  C   UNL A   1      34.339  34.678  31.800  1.00  0.00     0.060 A 
BRANCH  77  78
ATOM     78  S   UNL A   1      32.872  35.586  31.269  1.00  0.00     0.124 S 
ATOM     79  O   UNL A   1      33.374  36.957  31.241  1.00  0.00    -0.237 OA
ATOM     80  O   UNL A   1      32.588  34.989  29.968  1.00  0.00    -0.237 OA
ATOM     81  O   UNL A   1      31.896  35.296  32.315  1.00  0.00    -0.744 OA
ENDBRANCH  77  78
ENDBRANCH  56  70
BRANCH  57  82
ATOM     82  C   UNL A   1      44.875  28.565  35.783  1.00  0.00     0.058 A 
ATOM     83  C   UNL A   1      44.877  27.443  36.624  1.00  0.00     0.135 A 
ATOM     84  C   UNL A   1      46.111  29.016  35.291  1.00  0.00     0.135 A 
ATOM     85  F   UNL A   1      43.724  26.984  37.132  1.00  0.00    -0.206 F 
ATOM     86  C   UNL A   1      46.056  26.781  36.951  1.00  0.00     0.059 A 
ATOM     87  C   UNL A   1      47.300  28.358  35.586  1.00  0.00     0.059 A 
ATOM     88  F   UNL A   1      46.162  30.083  34.478  1.00  0.00    -0.206 F 
ATOM     89  C   UNL A   1      47.262  27.238  36.414  1.00  0.00     0.060 A 
BRANCH  89  90
ATOM     90  S   UNL A   1      48.769  26.301  36.754  1.00  0.00     0.124 S 
ATOM     91  O   UNL A   1      49.510  26.470  35.510  1.00  0.00    -0.237 OA
ATOM     92  O   UNL A   1      49.305  27.001  37.918  1.00  0.00    -0.237 OA
ATOM     93  O   UNL A   1      48.274  24.953  37.017  1.00  0.00    -0.744 OA
ENDBRANCH  89  90
ENDBRANCH  57  82
BRANCH  69  94
ATOM     94  C   UNL A   1      40.890  33.637  38.519  1.00  0.00     0.058 A 
ATOM     95  C   UNL A   1      41.746  34.736  38.681  1.00  0.00     0.135 A 
ATOM     96  C   UNL A   1      39.997  33.342  39.563  1.00  0.00     0.135 A 
ATOM     97  F   UNL A   1      42.623  35.058  37.716  1.00  0.00    -0.206 F 
ATOM     98  C   UNL A   1      41.718  35.514  39.835  1.00  0.00     0.059 A 
ATOM     99  C   UNL A   1      39.933  34.121  40.714  1.00  0.00     0.059 A 
ATOM    100  F   UNL A   1      39.147  32.307  39.453  1.00  0.00    -0.206 F 
ATOM    101  C   UNL A   1      40.802  35.204  40.842  1.00  0.00     0.060 A 
BRANCH 101 102
ATOM    102  S   UNL A   1      40.728  36.260  42.304  1.00  0.00     0.124 S 
ATOM    103  O   UNL A   1      41.439  35.451  43.288  1.00  0.00    -0.237 OA
ATOM    104  O   UNL A   1      41.419  37.465  41.854  1.00  0.00    -0.237 OA
ATOM    105  O   UNL A   1      39.296  36.417  42.538  1.00  0.00    -0.744 OA
ENDBRANCH 101 102
ENDBRANCH  69  94
ENDBRANCH  43  44
ENDBRANCH  36  38
ENDBRANCH  35  36
ENDBRANCH  34  35
ENDBRANCH  33  34
ENDBRANCH  32  33
ENDBRANCH  31  32
ENDBRANCH  30  31
ENDBRANCH  29  30
ENDBRANCH   1  29
TORSDOF 27
ENDMDL
MODEL 2
REMARK VINA RESULT:      -8.6      4.432      5.856
REMARK SMILES O=C(Cc1cc(C2CC[NH+](Cc3cccs3)CC2)n[nH]1)OCCOCCOCCOCCOC(=O)c1ccc(-c2c3nc(c(-c4c(F)cc(S(=O)(=O)[O-])cc4F)c4ccc([nH]4)c(-c4c(F)cc(S(=O)(=O)[O-])cc4F)c4nc(c(-c5c(F)cc(S(=O)(=O)[O-])cc5F)c5ccc2[nH]5)C=C4)C=C3)cc1
REMARK SMILES IDX 26 1 25 2 24 3 23 4 22 5 21 6 2 7 1 8 3 9 4 10 5 11 20 12
REMARK SMILES IDX 6 13 19 14 7 16 8 17 18 18 9 19 17 20 10 21 11 23 12 24
REMARK SMILES IDX 13 25 16 26 14 27 15 28 27 29 28 30 29 31 30 32 31 33 32 34
REMARK SMILES IDX 33 35 34 36 35 37 36 38 37 39 101 40 38 41 100 42 39 43
REMARK SMILES IDX 40 44 41 45 94 46 42 47 99 48 93 49 95 50 43 51 98 52 92 53
REMARK SMILES IDX 91 54 44 56 78 57 57 58 77 59 58 60 61 61 76 62 96 63 59 64
REMARK SMILES IDX 60 65 75 67 97 68 62 69 45 70 46 71 55 72 47 73 48 74 54 75
REMARK SMILES IDX 56 76 49 77 50 78 51 79 52 80 53 81 79 82 80 83 89 84 81 85
REMARK SMILES IDX 82 86 88 87 90 88 83 89 84 90 85 91 86 92 87 93 63 94 64 95
REMARK SMILES IDX 73 96 65 97 66 98 72 99 74 100 67 101 68 102 69 103 70 104
REMARK SMILES IDX 71 105
REMARK H PARENT 20 15 10 22 95 55 61 66
REMARK Flexibility Score: inf
ROOT
ATOM      1  C   UNL A   1      35.669  23.734  25.776  1.00  0.00     0.188 C 
ENDROOT
BRANCH   1   2
ATOM      2  C   UNL A   1      34.799  22.810  24.928  1.00  0.00     0.188 C 
BRANCH   2   3
ATOM      3  O   UNL A   1      34.059  21.828  25.638  1.00  0.00    -0.376 OA
BRANCH   3   4
ATOM      4  C   UNL A   1      33.884  21.775  27.042  1.00  0.00     0.202 C 
BRANCH   4   5
ATOM      5  C   UNL A   1      32.944  22.715  27.795  1.00  0.00     0.261 C 
BRANCH   5   6
ATOM      6  O   UNL A   1      31.658  23.000  27.228  1.00  0.00    -0.463 OA
BRANCH   6   7
ATOM      7  C   UNL A   1      31.349  24.019  26.404  1.00  0.00     0.311 C 
ATOM      8  O   UNL A   1      30.925  25.078  26.862  1.00  0.00    -0.252 OA
BRANCH   7   9
ATOM      9  C   UNL A   1      31.370  23.769  24.929  1.00  0.00     0.178 C 
BRANCH   9  10
ATOM     10  C   UNL A   1      30.884  24.876  24.098  1.00  0.00     0.047 A 
ATOM     11  C   UNL A   1      31.652  25.617  23.250  1.00  0.00     0.049 A 
ATOM     12  N   UNL A   1      29.689  25.530  24.172  1.00  0.00    -0.282 N 
ATOM     13  C   UNL A   1      30.964  26.826  23.087  1.00  0.00     0.066 A 
ATOM     14  N   UNL A   1      29.730  26.749  23.603  1.00  0.00    -0.180 NA
ATOM     15  H   UNL A   1      28.885  25.152  24.595  1.00  0.00     0.190 HD
BRANCH  13  16
ATOM     16  C   UNL A   1      31.525  28.125  22.588  1.00  0.00     0.051 C 
ATOM     17  C   UNL A   1      32.987  28.354  22.988  1.00  0.00     0.071 C 
ATOM     18  C   UNL A   1      30.694  29.316  23.085  1.00  0.00     0.071 C 
ATOM     19  C   UNL A   1      33.195  28.721  24.467  1.00  0.00     0.263 C 
ATOM     20  C   UNL A   1      30.833  29.517  24.596  1.00  0.00     0.263 C 
ATOM     21  N   UNL A   1      32.222  29.653  25.033  1.00  0.00    -0.330 N 
ATOM     22  H   UNL A   1      32.502  30.533  24.600  1.00  0.00     0.348 HD
BRANCH  21  23
ATOM     23  C   UNL A   1      32.355  29.829  26.494  1.00  0.00     0.310 C 
BRANCH  23  24
ATOM     24  C   UNL A   1      33.750  30.041  27.050  1.00  0.00     0.059 A 
ATOM     25  C   UNL A   1      34.811  29.154  27.123  1.00  0.00     0.021 A 
ATOM     26  S   UNL A   1      34.231  31.602  27.599  1.00  0.00    -0.143 S 
ATOM     27  C   UNL A   1      35.997  29.746  27.653  1.00  0.00     0.012 A 
ATOM     28  C   UNL A   1      35.819  31.078  27.947  1.00  0.00     0.065 A 
ENDBRANCH  23  24
ENDBRANCH  21  23
ENDBRANCH  13  16
ENDBRANCH   9  10
ENDBRANCH   7   9
ENDBRANCH   6   7
ENDBRANCH   5   6
ENDBRANCH   4   5
ENDBRANCH   3   4
ENDBRANCH   2   3
ENDBRANCH   1   2
BRANCH   1  29
ATOM     29  O   UNL A   1      37.056  23.442  25.682  1.00  0.00    -0.377 OA
BRANCH  29  30
ATOM     30  C   UNL A   1      37.347  22.273  24.934  1.00  0.00     0.188 C 
BRANCH  30  31
ATOM     31  C   UNL A   1      38.401  21.313  25.541  1.00  0.00     0.188 C 
BRANCH  31  32
ATOM     32  O   UNL A   1      39.595  21.779  26.154  1.00  0.00    -0.376 OA
BRANCH  32  33
ATOM     33  C   UNL A   1      40.499  20.868  26.753  1.00  0.00     0.202 C 
BRANCH  33  34
ATOM     34  C   UNL A   1      41.815  20.513  26.048  1.00  0.00     0.261 C 
BRANCH  34  35
ATOM     35  O   UNL A   1      42.949  21.296  26.442  1.00  0.00    -0.460 OA
BRANCH  35  36
ATOM     36  C   UNL A   1      43.088  22.491  25.819  1.00  0.00     0.338 C 
ATOM     37  O   UNL A   1      42.913  22.732  24.636  1.00  0.00    -0.246 OA
BRANCH  36  38
ATOM     38  C   UNL A   1      43.261  23.537  26.852  1.00  0.00     0.060 A 
ATOM     39  C   UNL A   1      44.534  24.112  27.015  1.00  0.00     0.016 A 
ATOM     40  C   UNL A   1      42.174  24.004  27.593  1.00  0.00     0.016 A 
ATOM     41  C   UNL A   1      44.728  25.141  27.936  1.00  0.00     0.010 A 
ATOM     42  C   UNL A   1      42.376  25.001  28.546  1.00  0.00     0.010 A 
ATOM     43  C   UNL A   1      43.659  25.543  28.745  1.00  0.00    -0.014 A 
BRANCH  43  44
ATOM     44  C   UNL A   1      43.926  26.275  30.003  1.00  0.00     0.031 A 
ATOM     45  C   UNL A   1      43.905  27.776  29.927  1.00  0.00     0.074 A 
ATOM     46  C   UNL A   1      44.236  25.646  31.148  1.00  0.00     0.049 A 
ATOM     47  N   UNL A   1      44.271  28.661  30.815  1.00  0.00    -0.248 NA
ATOM     48  C   UNL A   1      43.419  28.353  28.662  1.00  0.00     0.031 C 
ATOM     49  C   UNL A   1      44.245  24.200  31.347  1.00  0.00     0.029 A 
ATOM     50  N   UNL A   1      44.642  26.160  32.354  1.00  0.00    -0.354 N 
ATOM     51  C   UNL A   1      44.088  29.895  30.204  1.00  0.00     0.074 A 
ATOM     52  C   UNL A   1      43.591  29.647  28.871  1.00  0.00     0.031 C 
ATOM     53  C   UNL A   1      44.680  23.938  32.592  1.00  0.00     0.029 A 
ATOM     54  C   UNL A   1      45.018  25.197  33.258  1.00  0.00     0.049 A 
ATOM     55  H   UNL A   1      44.661  27.124  32.553  1.00  0.00     0.167 HD
ATOM     56  C   UNL A   1      44.327  31.127  30.707  1.00  0.00     0.037 A 
ATOM     57  C   UNL A   1      45.612  25.321  34.462  1.00  0.00     0.037 A 
ATOM     58  C   UNL A   1      44.846  31.358  32.025  1.00  0.00     0.049 A 
ATOM     59  C   UNL A   1      45.922  26.699  34.993  1.00  0.00     0.074 A 
ATOM     60  C   UNL A   1      45.111  32.564  32.647  1.00  0.00     0.029 A 
ATOM     61  N   UNL A   1      45.199  30.357  32.919  1.00  0.00    -0.354 N 
ATOM     62  N   UNL A   1      45.723  27.865  34.423  1.00  0.00    -0.248 NA
ATOM     63  C   UNL A   1      46.536  26.781  36.326  1.00  0.00     0.031 C 
ATOM     64  C   UNL A   1      45.675  32.290  33.898  1.00  0.00     0.029 A 
ATOM     65  C   UNL A   1      45.702  30.916  34.080  1.00  0.00     0.049 A 
ATOM     66  H   UNL A   1      45.104  29.391  32.752  1.00  0.00     0.167 HD
ATOM     67  C   UNL A   1      46.160  28.820  35.337  1.00  0.00     0.074 A 
ATOM     68  C   UNL A   1      46.636  28.093  36.498  1.00  0.00     0.031 C 
ATOM     69  C   UNL A   1      46.159  30.172  35.230  1.00  0.00     0.037 A 
BRANCH  56  70
ATOM     70  C   UNL A   1      44.084  32.295  29.793  1.00  0.00     0.058 A 
ATOM     71  C   UNL A   1      42.910  33.065  29.865  1.00  0.00     0.135 A 
ATOM     72  C   UNL A   1      45.020  32.618  28.797  1.00  0.00     0.135 A 
ATOM     73  F   UNL A   1      41.970  32.782  30.780  1.00  0.00    -0.206 F 
ATOM     74  C   UNL A   1      42.652  34.081  28.950  1.00  0.00     0.059 A 
ATOM     75  C   UNL A   1      44.796  33.651  27.893  1.00  0.00     0.059 A 
ATOM     76  F   UNL A   1      46.153  31.910  28.680  1.00  0.00    -0.206 F 
ATOM     77  C   UNL A   1      43.597  34.359  27.962  1.00  0.00     0.060 A 
BRANCH  77  78
ATOM     78  S   UNL A   1      43.232  35.651  26.756  1.00  0.00     0.124 S 
ATOM     79  O   UNL A   1      41.987  36.199  27.287  1.00  0.00    -0.237 OA
ATOM     80  O   UNL A   1      44.401  36.518  26.862  1.00  0.00    -0.237 OA
ATOM     81  O   UNL A   1      43.110  34.918  25.500  1.00  0.00    -0.744 OA
ENDBRANCH  77  78
ENDBRANCH  56  70
BRANCH  57  82
ATOM     82  C   UNL A   1      45.968  24.099  35.230  1.00  0.00     0.058 A 
ATOM     83  C   UNL A   1      45.124  23.600  36.233  1.00  0.00     0.135 A 
ATOM     84  C   UNL A   1      47.133  23.373  34.935  1.00  0.00     0.135 A 
ATOM     85  F   UNL A   1      44.008  24.266  36.562  1.00  0.00    -0.206 F 
ATOM     86  C   UNL A   1      45.413  22.415  36.904  1.00  0.00     0.059 A 
ATOM     87  C   UNL A   1      47.432  22.175  35.576  1.00  0.00     0.059 A 
ATOM     88  F   UNL A   1      47.971  23.805  33.980  1.00  0.00    -0.206 F 
ATOM     89  C   UNL A   1      46.563  21.702  36.558  1.00  0.00     0.060 A 
BRANCH  89  90
ATOM     90  S   UNL A   1      46.865  20.110  37.356  1.00  0.00     0.124 S 
ATOM     91  O   UNL A   1      46.205  20.295  38.644  1.00  0.00    -0.237 OA
ATOM     92  O   UNL A   1      46.219  19.181  36.434  1.00  0.00    -0.237 OA
ATOM     93  O   UNL A   1      48.322  20.027  37.399  1.00  0.00    -0.744 OA
ENDBRANCH  89  90
ENDBRANCH  57  82
BRANCH  69  94
ATOM     94  C   UNL A   1      46.636  30.974  36.409  1.00  0.00     0.058 A 
ATOM     95  C   UNL A   1      45.779  31.328  37.462  1.00  0.00     0.135 A 
ATOM     96  C   UNL A   1      47.997  31.295  36.535  1.00  0.00     0.135 A 
ATOM     97  F   UNL A   1      44.468  31.049  37.390  1.00  0.00    -0.206 F 
ATOM     98  C   UNL A   1      46.255  31.977  38.597  1.00  0.00     0.059 A 
ATOM     99  C   UNL A   1      48.500  31.920  37.672  1.00  0.00     0.059 A 
ATOM    100  F   UNL A   1      48.862  30.967  35.561  1.00  0.00    -0.206 F 
ATOM    101  C   UNL A   1      47.619  32.261  38.697  1.00  0.00     0.060 A 
BRANCH 101 102
ATOM    102  S   UNL A   1      48.237  33.042  40.204  1.00  0.00     0.124 S 
ATOM    103  O   UNL A   1      48.700  31.886  40.964  1.00  0.00    -0.237 OA
ATOM    104  O   UNL A   1      49.280  33.925  39.692  1.00  0.00    -0.237 OA
ATOM    105  O   UNL A   1      47.061  33.718  40.743  1.00  0.00    -0.744 OA
ENDBRANCH 101 102
ENDBRANCH  69  94
ENDBRANCH  43  44
ENDBRANCH  36  38
ENDBRANCH  35  36
ENDBRANCH  34  35
ENDBRANCH  33  34
ENDBRANCH  32  33
ENDBRANCH  31  32
ENDBRANCH  30  31
ENDBRANCH  29  30
ENDBRANCH   1  29
TORSDOF 27
ENDMDL
MODEL 3
REMARK VINA RESULT:      -8.5      2.916      8.696
REMARK SMILES O=C(Cc1cc(C2CC[NH+](Cc3cccs3)CC2)n[nH]1)OCCOCCOCCOCCOC(=O)c1ccc(-c2c3nc(c(-c4c(F)cc(S(=O)(=O)[O-])cc4F)c4ccc([nH]4)c(-c4c(F)cc(S(=O)(=O)[O-])cc4F)c4nc(c(-c5c(F)cc(S(=O)(=O)[O-])cc5F)c5ccc2[nH]5)C=C4)C=C3)cc1
REMARK SMILES IDX 26 1 25 2 24 3 23 4 22 5 21 6 2 7 1 8 3 9 4 10 5 11 20 12
REMARK SMILES IDX 6 13 19 14 7 16 8 17 18 18 9 19 17 20 10 21 11 23 12 24
REMARK SMILES IDX 13 25 16 26 14 27 15 28 27 29 28 30 29 31 30 32 31 33 32 34
REMARK SMILES IDX 33 35 34 36 35 37 36 38 37 39 101 40 38 41 100 42 39 43
REMARK SMILES IDX 40 44 41 45 94 46 42 47 99 48 93 49 95 50 43 51 98 52 92 53
REMARK SMILES IDX 91 54 44 56 78 57 57 58 77 59 58 60 61 61 76 62 96 63 59 64
REMARK SMILES IDX 60 65 75 67 97 68 62 69 45 70 46 71 55 72 47 73 48 74 54 75
REMARK SMILES IDX 56 76 49 77 50 78 51 79 52 80 53 81 79 82 80 83 89 84 81 85
REMARK SMILES IDX 82 86 88 87 90 88 83 89 84 90 85 91 86 92 87 93 63 94 64 95
REMARK SMILES IDX 73 96 65 97 66 98 72 99 74 100 67 101 68 102 69 103 70 104
REMARK SMILES IDX 71 105
REMARK H PARENT 20 15 10 22 95 55 61 66
REMARK Flexibility Score: inf
ROOT
ATOM      1  C   UNL A   1      36.447  23.758  26.008  1.00  0.00     0.188 C 
ENDROOT
BRANCH   1   2
ATOM      2  C   UNL A   1      35.241  22.887  25.661  1.00  0.00     0.188 C 
BRANCH   2   3
ATOM      3  O   UNL A   1      35.058  21.730  26.463  1.00  0.00    -0.376 OA
BRANCH   3   4
ATOM      4  C   UNL A   1      33.892  21.405  27.196  1.00  0.00     0.202 C 
BRANCH   4   5
ATOM      5  C   UNL A   1      33.090  22.442  27.979  1.00  0.00     0.261 C 
BRANCH   5   6
ATOM      6  O   UNL A   1      31.911  22.997  27.379  1.00  0.00    -0.463 OA
BRANCH   6   7
ATOM      7  C   UNL A   1      31.864  23.929  26.408  1.00  0.00     0.311 C 
ATOM      8  O   UNL A   1      32.254  25.072  26.631  1.00  0.00    -0.252 OA
BRANCH   7   9
ATOM      9  C   UNL A   1      31.172  23.584  25.127  1.00  0.00     0.178 C 
BRANCH   9  10
ATOM     10  C   UNL A   1      30.725  24.730  24.327  1.00  0.00     0.047 A 
ATOM     11  C   UNL A   1      31.531  25.508  23.552  1.00  0.00     0.049 A 
ATOM     12  N   UNL A   1      29.527  25.381  24.378  1.00  0.00    -0.282 N 
ATOM     13  C   UNL A   1      30.851  26.725  23.414  1.00  0.00     0.066 A 
ATOM     14  N   UNL A   1      29.594  26.626  23.869  1.00  0.00    -0.180 NA
ATOM     15  H   UNL A   1      28.704  24.986  24.744  1.00  0.00     0.190 HD
BRANCH  13  16
ATOM     16  C   UNL A   1      31.434  28.045  23.003  1.00  0.00     0.051 C 
ATOM     17  C   UNL A   1      32.966  28.055  22.978  1.00  0.00     0.071 C 
ATOM     18  C   UNL A   1      30.956  29.174  23.927  1.00  0.00     0.071 C 
ATOM     19  C   UNL A   1      33.628  28.086  24.366  1.00  0.00     0.263 C 
ATOM     20  C   UNL A   1      31.537  29.042  25.337  1.00  0.00     0.263 C 
ATOM     21  N   UNL A   1      32.998  28.960  25.352  1.00  0.00    -0.330 N 
ATOM     22  H   UNL A   1      33.271  29.883  25.014  1.00  0.00     0.348 HD
BRANCH  21  23
ATOM     23  C   UNL A   1      33.555  28.815  26.712  1.00  0.00     0.310 C 
BRANCH  23  24
ATOM     24  C   UNL A   1      34.419  29.946  27.239  1.00  0.00     0.059 A 
ATOM     25  C   UNL A   1      34.078  31.261  27.508  1.00  0.00     0.021 A 
ATOM     26  S   UNL A   1      36.050  29.639  27.701  1.00  0.00    -0.143 S 
ATOM     27  C   UNL A   1      35.156  32.014  28.062  1.00  0.00     0.012 A 
ATOM     28  C   UNL A   1      36.288  31.248  28.225  1.00  0.00     0.065 A 
ENDBRANCH  23  24
ENDBRANCH  21  23
ENDBRANCH  13  16
ENDBRANCH   9  10
ENDBRANCH   7   9
ENDBRANCH   6   7
ENDBRANCH   5   6
ENDBRANCH   4   5
ENDBRANCH   3   4
ENDBRANCH   2   3
ENDBRANCH   1   2
BRANCH   1  29
ATOM     29  O   UNL A   1      37.678  23.222  25.543  1.00  0.00    -0.377 OA
BRANCH  29  30
ATOM     30  C   UNL A   1      37.566  21.923  24.986  1.00  0.00     0.188 C 
BRANCH  30  31
ATOM     31  C   UNL A   1      38.662  20.906  25.390  1.00  0.00     0.188 C 
BRANCH  31  32
ATOM     32  O   UNL A   1      39.875  21.299  26.017  1.00  0.00    -0.376 OA
BRANCH  32  33
ATOM     33  C   UNL A   1      40.756  20.328  26.553  1.00  0.00     0.202 C 
BRANCH  33  34
ATOM     34  C   UNL A   1      42.226  20.299  26.117  1.00  0.00     0.261 C 
BRANCH  34  35
ATOM     35  O   UNL A   1      43.042  21.351  26.649  1.00  0.00    -0.460 OA
BRANCH  35  36
ATOM     36  C   UNL A   1      43.069  22.500  25.932  1.00  0.00     0.338 C 
ATOM     37  O   UNL A   1      42.983  22.616  24.721  1.00  0.00    -0.246 OA
BRANCH  36  38
ATOM     38  C   UNL A   1      42.981  23.639  26.873  1.00  0.00     0.060 A 
ATOM     39  C   UNL A   1      43.432  24.899  26.443  1.00  0.00     0.016 A 
ATOM     40  C   UNL A   1      42.391  23.490  28.130  1.00  0.00     0.016 A 
ATOM     41  C   UNL A   1      43.314  26.011  27.276  1.00  0.00     0.010 A 
ATOM     42  C   UNL A   1      42.315  24.591  28.981  1.00  0.00     0.010 A 
ATOM     43  C   UNL A   1      42.810  25.843  28.571  1.00  0.00    -0.014 A 
BRANCH  43  44
ATOM     44  C   UNL A   1      43.089  26.863  29.605  1.00  0.00     0.031 A 
ATOM     45  C   UNL A   1      44.370  26.709  30.376  1.00  0.00     0.074 A 
ATOM     46  C   UNL A   1      42.222  27.846  29.897  1.00  0.00     0.049 A 
ATOM     47  N   UNL A   1      44.783  27.340  31.441  1.00  0.00    -0.248 NA
ATOM     48  C   UNL A   1      45.304  25.684  29.879  1.00  0.00     0.031 C 
ATOM     49  C   UNL A   1      40.974  28.115  29.189  1.00  0.00     0.029 A 
ATOM     50  N   UNL A   1      42.253  28.780  30.902  1.00  0.00    -0.354 N 
ATOM     51  C   UNL A   1      46.008  26.768  31.758  1.00  0.00     0.074 A 
ATOM     52  C   UNL A   1      46.267  25.734  30.783  1.00  0.00     0.031 C 
ATOM     53  C   UNL A   1      40.334  29.121  29.810  1.00  0.00     0.029 A 
ATOM     54  C   UNL A   1      41.109  29.535  30.981  1.00  0.00     0.049 A 
ATOM     55  H   UNL A   1      43.021  28.898  31.507  1.00  0.00     0.167 HD
ATOM     56  C   UNL A   1      46.839  27.070  32.782  1.00  0.00     0.037 A 
ATOM     57  C   UNL A   1      40.716  30.421  31.919  1.00  0.00     0.037 A 
ATOM     58  C   UNL A   1      46.557  28.082  33.760  1.00  0.00     0.049 A 
ATOM     59  C   UNL A   1      41.627  30.712  33.085  1.00  0.00     0.074 A 
ATOM     60  C   UNL A   1      47.332  28.485  34.830  1.00  0.00     0.029 A 
ATOM     61  N   UNL A   1      45.394  28.839  33.796  1.00  0.00    -0.354 N 
ATOM     62  N   UNL A   1      42.797  30.187  33.368  1.00  0.00    -0.248 NA
ATOM     63  C   UNL A   1      41.168  31.713  34.059  1.00  0.00     0.031 C 
ATOM     64  C   UNL A   1      46.614  29.449  35.545  1.00  0.00     0.029 A 
ATOM     65  C   UNL A   1      45.419  29.692  34.885  1.00  0.00     0.049 A 
ATOM     66  H   UNL A   1      44.660  28.779  33.143  1.00  0.00     0.167 HD
ATOM     67  C   UNL A   1      43.227  30.813  34.535  1.00  0.00     0.074 A 
ATOM     68  C   UNL A   1      42.190  31.754  34.906  1.00  0.00     0.031 C 
ATOM     69  C   UNL A   1      44.379  30.631  35.229  1.00  0.00     0.037 A 
BRANCH  56  70
ATOM     70  C   UNL A   1      48.087  26.243  32.913  1.00  0.00     0.058 A 
ATOM     71  C   UNL A   1      49.245  26.518  32.165  1.00  0.00     0.135 A 
ATOM     72  C   UNL A   1      48.108  25.127  33.765  1.00  0.00     0.135 A 
ATOM     73  F   UNL A   1      49.269  27.557  31.315  1.00  0.00    -0.206 F 
ATOM     74  C   UNL A   1      50.359  25.689  32.221  1.00  0.00     0.059 A 
ATOM     75  C   UNL A   1      49.223  24.303  33.861  1.00  0.00     0.059 A 
ATOM     76  F   UNL A   1      47.026  24.815  34.496  1.00  0.00    -0.206 F 
ATOM     77  C   UNL A   1      50.335  24.577  33.065  1.00  0.00     0.060 A 
BRANCH  77  78
ATOM     78  S   UNL A   1      51.771  23.485  33.098  1.00  0.00     0.124 S 
ATOM     79  O   UNL A   1      51.382  22.468  32.124  1.00  0.00    -0.237 OA
ATOM     80  O   UNL A   1      52.851  24.375  32.686  1.00  0.00    -0.237 OA
ATOM     81  O   UNL A   1      51.825  23.037  34.485  1.00  0.00    -0.744 OA
ENDBRANCH  77  78
ENDBRANCH  56  70
BRANCH  57  82
ATOM     82  C   UNL A   1      39.386  31.073  31.795  1.00  0.00     0.058 A 
ATOM     83  C   UNL A   1      38.252  30.535  32.419  1.00  0.00     0.135 A 
ATOM     84  C   UNL A   1      39.235  32.282  31.096  1.00  0.00     0.135 A 
ATOM     85  F   UNL A   1      38.341  29.374  33.085  1.00  0.00    -0.206 F 
ATOM     86  C   UNL A   1      37.019  31.179  32.371  1.00  0.00     0.059 A 
ATOM     87  C   UNL A   1      38.019  32.955  31.052  1.00  0.00     0.059 A 
ATOM     88  F   UNL A   1      40.291  32.841  30.485  1.00  0.00    -0.206 F 
ATOM     89  C   UNL A   1      36.917  32.397  31.696  1.00  0.00     0.060 A 
BRANCH  89  90
ATOM     90  S   UNL A   1      35.340  33.277  31.738  1.00  0.00     0.124 S 
ATOM     91  O   UNL A   1      35.349  33.837  33.085  1.00  0.00    -0.237 OA
ATOM     92  O   UNL A   1      35.498  34.234  30.647  1.00  0.00    -0.237 OA
ATOM     93  O   UNL A   1      34.360  32.222  31.499  1.00  0.00    -0.744 OA
ENDBRANCH  89  90
ENDBRANCH  57  82
BRANCH  69  94
ATOM     94  C   UNL A   1      44.619  31.497  36.435  1.00  0.00     0.058 A 
ATOM     95  C   UNL A   1      44.351  31.048  37.737  1.00  0.00     0.135 A 
ATOM     96  C   UNL A   1      45.229  32.753  36.287  1.00  0.00     0.135 A 
ATOM     97  F   UNL A   1      43.763  29.857  37.934  1.00  0.00    -0.206 F 
ATOM     98  C   UNL A   1      44.676  31.817  38.850  1.00  0.00     0.059 A 
ATOM     99  C   UNL A   1      45.587  33.527  37.386  1.00  0.00     0.059 A 
ATOM    100  F   UNL A   1      45.518  33.224  35.062  1.00  0.00    -0.206 F 
ATOM    101  C   UNL A   1      45.302  33.051  38.665  1.00  0.00     0.060 A 
BRANCH 101 102
ATOM    102  S   UNL A   1      45.782  34.009  40.119  1.00  0.00     0.124 S 
ATOM    103  O   UNL A   1      45.911  35.350  39.558  1.00  0.00    -0.237 OA
ATOM    104  O   UNL A   1      44.648  33.803  41.015  1.00  0.00    -0.237 OA
ATOM    105  O   UNL A   1      47.030  33.382  40.543  1.00  0.00    -0.744 OA
ENDBRANCH 101 102
ENDBRANCH  69  94
ENDBRANCH  43  44
ENDBRANCH  36  38
ENDBRANCH  35  36
ENDBRANCH  34  35
ENDBRANCH  33  34
ENDBRANCH  32  33
ENDBRANCH  31  32
ENDBRANCH  30  31
ENDBRANCH  29  30
ENDBRANCH   1  29
TORSDOF 27
ENDMDL
