MODEL 1
REMARK VINA RESULT:      -9.4      0.000      0.000
REMARK SMILES Cc1occc1C(=O)N[C@@H](C)CC(=O)OCCOCCOCCOCCOC(=O)c1ccc(-c2c3nc(c(-c4c(F)cc(S(=O)(=O)[O-])cc4F)c4ccc([nH]4)c(-c4c(F)cc(S(=O)(=O)[O-])cc4F)c4nc(c(-c5c(F)cc(S(=O)(=O)[O-])cc5F)c5ccc2[nH]5)C=C4)C=C3)cc1
REMARK SMILES IDX 21 1 20 2 19 3 18 4 17 5 16 6 15 7 13 8 14 9 12 10 10 11
REMARK SMILES IDX 11 12 9 13 7 14 8 15 6 17 1 18 2 19 3 20 4 21 5 22 22 23
REMARK SMILES IDX 23 24 24 25 25 26 26 27 27 28 28 29 29 30 30 31 31 32 95 33
REMARK SMILES IDX 32 34 94 35 33 36 34 37 35 38 88 39 36 40 93 41 87 42 89 43
REMARK SMILES IDX 37 44 92 45 86 46 85 47 38 49 72 50 51 51 71 52 52 53 55 54
REMARK SMILES IDX 70 55 90 56 53 57 54 58 69 60 91 61 56 62 39 63 40 64 49 65
REMARK SMILES IDX 41 66 42 67 48 68 50 69 43 70 44 71 45 72 46 73 47 74 73 75
REMARK SMILES IDX 74 76 83 77 75 78 76 79 82 80 84 81 77 82 78 83 79 84 80 85
REMARK SMILES IDX 81 86 57 87 58 88 67 89 59 90 60 91 66 92 68 93 61 94 62 95
REMARK SMILES IDX 63 96 64 97 65 98
REMARK H PARENT 9 16 89 48 55 59
REMARK Flexibility Score: inf
ROOT
ATOM      1  O   UNL A   1      34.627  19.665  24.616  1.00  0.00    -0.377 OA
ENDROOT
BRANCH   1   2
ATOM      2  C   UNL A   1      33.478  19.876  25.398  1.00  0.00     0.188 C 
BRANCH   2   3
ATOM      3  C   UNL A   1      32.264  20.459  24.673  1.00  0.00     0.188 C 
BRANCH   3   4
ATOM      4  O   UNL A   1      32.142  21.849  24.395  1.00  0.00    -0.376 OA
BRANCH   4   5
ATOM      5  C   UNL A   1      32.886  22.431  23.338  1.00  0.00     0.202 C 
BRANCH   5   6
ATOM      6  C   UNL A   1      32.183  23.532  22.525  1.00  0.00     0.261 C 
BRANCH   6   7
ATOM      7  O   UNL A   1      32.077  24.843  23.124  1.00  0.00    -0.463 OA
BRANCH   7   8
ATOM      8  C   UNL A   1      32.553  25.882  22.396  1.00  0.00     0.307 C 
ATOM      9  O   UNL A   1      33.468  25.805  21.583  1.00  0.00    -0.252 OA
BRANCH   8  10
ATOM     10  C   UNL A   1      31.943  27.223  22.776  1.00  0.00     0.147 C 
BRANCH  10  11
ATOM     11  C   UNL A   1      30.445  27.317  23.129  1.00  0.00     0.090 C 
ATOM     12  C   UNL A   1      30.075  28.794  23.318  1.00  0.00     0.031 C 
BRANCH  11  13
ATOM     13  N   UNL A   1      30.103  26.603  24.346  1.00  0.00    -0.349 N 
ATOM     14  C   UNL A   1      30.653  26.469  25.591  1.00  0.00     0.255 C 
ATOM     15  O   UNL A   1      30.067  25.647  26.304  1.00  0.00    -0.269 OA
ATOM     16  H   UNL A   1      29.270  26.088  24.252  1.00  0.00     0.164 HD
BRANCH  14  17
ATOM     17  C   UNL A   1      31.815  27.178  26.140  1.00  0.00     0.080 A 
ATOM     18  C   UNL A   1      34.213  26.038  25.705  1.00  0.00     0.088 C 
ATOM     19  C   UNL A   1      33.199  27.005  26.174  1.00  0.00     0.113 A 
ATOM     20  O   UNL A   1      33.794  28.056  26.822  1.00  0.00    -0.469 OA
ATOM     21  C   UNL A   1      32.833  28.901  27.236  1.00  0.00     0.196 A 
ATOM     22  C   UNL A   1      31.612  28.424  26.853  1.00  0.00     0.056 A 
ENDBRANCH  14  17
ENDBRANCH  11  13
ENDBRANCH  10  11
ENDBRANCH   8  10
ENDBRANCH   7   8
ENDBRANCH   6   7
ENDBRANCH   5   6
ENDBRANCH   4   5
ENDBRANCH   3   4
ENDBRANCH   2   3
ENDBRANCH   1   2
BRANCH   1  23
ATOM     23  C   UNL A   1      35.782  20.354  25.044  1.00  0.00     0.188 C 
BRANCH  23  24
ATOM     24  C   UNL A   1      35.495  21.632  25.844  1.00  0.00     0.188 C 
BRANCH  24  25
ATOM     25  O   UNL A   1      36.052  22.861  25.396  1.00  0.00    -0.376 OA
BRANCH  25  26
ATOM     26  C   UNL A   1      36.986  23.601  26.170  1.00  0.00     0.202 C 
BRANCH  26  27
ATOM     27  C   UNL A   1      38.333  24.089  25.622  1.00  0.00     0.261 C 
BRANCH  27  28
ATOM     28  O   UNL A   1      39.378  24.210  26.594  1.00  0.00    -0.460 OA
BRANCH  28  29
ATOM     29  C   UNL A   1      40.215  25.255  26.419  1.00  0.00     0.338 C 
ATOM     30  O   UNL A   1      40.648  25.674  25.351  1.00  0.00    -0.246 OA
BRANCH  29  31
ATOM     31  C   UNL A   1      40.404  25.981  27.687  1.00  0.00     0.060 A 
ATOM     32  C   UNL A   1      39.411  25.846  28.666  1.00  0.00     0.016 A 
ATOM     33  C   UNL A   1      41.482  26.845  27.889  1.00  0.00     0.016 A 
ATOM     34  C   UNL A   1      39.463  26.612  29.826  1.00  0.00     0.010 A 
ATOM     35  C   UNL A   1      41.525  27.627  29.051  1.00  0.00     0.010 A 
ATOM     36  C   UNL A   1      40.489  27.549  30.001  1.00  0.00    -0.014 A 
BRANCH  36  37
ATOM     37  C   UNL A   1      40.337  28.584  31.056  1.00  0.00     0.031 A 
ATOM     38  C   UNL A   1      41.261  28.534  32.247  1.00  0.00     0.074 A 
ATOM     39  C   UNL A   1      39.460  29.596  30.928  1.00  0.00     0.049 A 
ATOM     40  N   UNL A   1      41.339  29.337  33.275  1.00  0.00    -0.248 NA
ATOM     41  C   UNL A   1      42.231  27.425  32.277  1.00  0.00     0.031 C 
ATOM     42  C   UNL A   1      38.548  29.787  29.803  1.00  0.00     0.029 A 
ATOM     43  N   UNL A   1      39.201  30.660  31.757  1.00  0.00    -0.354 N 
ATOM     44  C   UNL A   1      42.361  28.835  34.073  1.00  0.00     0.074 A 
ATOM     45  C   UNL A   1      42.844  27.631  33.433  1.00  0.00     0.031 C 
ATOM     46  C   UNL A   1      37.828  30.904  30.011  1.00  0.00     0.029 A 
ATOM     47  C   UNL A   1      38.207  31.491  31.297  1.00  0.00     0.049 A 
ATOM     48  H   UNL A   1      39.682  30.814  32.603  1.00  0.00     0.167 HD
ATOM     49  C   UNL A   1      42.865  29.336  35.226  1.00  0.00     0.037 A 
ATOM     50  C   UNL A   1      37.658  32.589  31.856  1.00  0.00     0.037 A 
ATOM     51  C   UNL A   1      42.380  30.532  35.864  1.00  0.00     0.049 A 
ATOM     52  C   UNL A   1      38.174  33.080  33.187  1.00  0.00     0.074 A 
ATOM     53  C   UNL A   1      42.827  31.125  37.032  1.00  0.00     0.029 A 
ATOM     54  N   UNL A   1      41.335  31.315  35.394  1.00  0.00    -0.354 N 
ATOM     55  N   UNL A   1      39.153  32.605  33.921  1.00  0.00    -0.248 NA
ATOM     56  C   UNL A   1      37.512  34.259  33.763  1.00  0.00     0.031 C 
ATOM     57  C   UNL A   1      42.015  32.232  37.298  1.00  0.00     0.029 A 
ATOM     58  C   UNL A   1      41.104  32.369  36.263  1.00  0.00     0.049 A 
ATOM     59  H   UNL A   1      40.832  31.146  34.564  1.00  0.00     0.167 HD
ATOM     60  C   UNL A   1      39.245  33.447  35.026  1.00  0.00     0.074 A 
ATOM     61  C   UNL A   1      38.230  34.465  34.859  1.00  0.00     0.031 C 
ATOM     62  C   UNL A   1      40.096  33.384  36.082  1.00  0.00     0.037 A 
BRANCH  49  63
ATOM     63  C   UNL A   1      43.980  28.571  35.887  1.00  0.00     0.058 A 
ATOM     64  C   UNL A   1      45.330  28.864  35.636  1.00  0.00     0.135 A 
ATOM     65  C   UNL A   1      43.694  27.541  36.798  1.00  0.00     0.135 A 
ATOM     66  F   UNL A   1      45.662  29.826  34.759  1.00  0.00    -0.206 F 
ATOM     67  C   UNL A   1      46.356  28.141  36.236  1.00  0.00     0.059 A 
ATOM     68  C   UNL A   1      44.704  26.827  37.436  1.00  0.00     0.059 A 
ATOM     69  F   UNL A   1      42.422  27.218  37.076  1.00  0.00    -0.206 F 
ATOM     70  C   UNL A   1      46.033  27.123  37.135  1.00  0.00     0.060 A 
BRANCH  70  71
ATOM     71  S   UNL A   1      47.374  26.190  37.900  1.00  0.00     0.124 S 
ATOM     72  O   UNL A   1      46.661  25.456  38.941  1.00  0.00    -0.237 OA
ATOM     73  O   UNL A   1      47.869  25.387  36.787  1.00  0.00    -0.237 OA
ATOM     74  O   UNL A   1      48.284  27.226  38.377  1.00  0.00    -0.744 OA
ENDBRANCH  70  71
ENDBRANCH  49  63
BRANCH  50  75
ATOM     75  C   UNL A   1      36.550  33.303  31.164  1.00  0.00     0.058 A 
ATOM     76  C   UNL A   1      36.767  33.986  29.958  1.00  0.00     0.135 A 
ATOM     77  C   UNL A   1      35.254  33.330  31.702  1.00  0.00     0.135 A 
ATOM     78  F   UNL A   1      37.992  34.007  29.410  1.00  0.00    -0.206 F 
ATOM     79  C   UNL A   1      35.745  34.680  29.317  1.00  0.00     0.059 A 
ATOM     80  C   UNL A   1      34.208  33.991  31.065  1.00  0.00     0.059 A 
ATOM     81  F   UNL A   1      34.990  32.691  32.853  1.00  0.00    -0.206 F 
ATOM     82  C   UNL A   1      34.466  34.671  29.876  1.00  0.00     0.060 A 
BRANCH  82  83
ATOM     83  S   UNL A   1      33.136  35.532  29.009  1.00  0.00     0.124 S 
ATOM     84  O   UNL A   1      33.865  36.604  28.340  1.00  0.00    -0.237 OA
ATOM     85  O   UNL A   1      32.608  34.482  28.142  1.00  0.00    -0.237 OA
ATOM     86  O   UNL A   1      32.246  35.951  30.088  1.00  0.00    -0.744 OA
ENDBRANCH  82  83
ENDBRANCH  50  75
BRANCH  62  87
ATOM     87  C   UNL A   1      40.000  34.467  37.126  1.00  0.00     0.058 A 
ATOM     88  C   UNL A   1      40.810  35.612  37.086  1.00  0.00     0.135 A 
ATOM     89  C   UNL A   1      39.039  34.382  38.148  1.00  0.00     0.135 A 
ATOM     90  F   UNL A   1      41.748  35.744  36.134  1.00  0.00    -0.206 F 
ATOM     91  C   UNL A   1      40.689  36.623  38.035  1.00  0.00     0.059 A 
ATOM     92  C   UNL A   1      38.879  35.396  39.089  1.00  0.00     0.059 A 
ATOM     93  F   UNL A   1      38.228  33.316  38.228  1.00  0.00    -0.206 F 
ATOM     94  C   UNL A   1      39.718  36.507  39.032  1.00  0.00     0.060 A 
BRANCH  94  95
ATOM     95  S   UNL A   1      39.548  37.843  40.235  1.00  0.00     0.124 S 
ATOM     96  O   UNL A   1      39.759  37.134  41.493  1.00  0.00    -0.237 OA
ATOM     97  O   UNL A   1      40.614  38.758  39.837  1.00  0.00    -0.237 OA
ATOM     98  O   UNL A   1      38.193  38.334  40.011  1.00  0.00    -0.744 OA
ENDBRANCH  94  95
ENDBRANCH  62  87
ENDBRANCH  36  37
ENDBRANCH  29  31
ENDBRANCH  28  29
ENDBRANCH  27  28
ENDBRANCH  26  27
ENDBRANCH  25  26
ENDBRANCH  24  25
ENDBRANCH  23  24
ENDBRANCH   1  23
TORSDOF 26
ENDMDL
MODEL 2
REMARK VINA RESULT:      -9.1      4.986      6.208
REMARK SMILES Cc1occc1C(=O)N[C@@H](C)CC(=O)OCCOCCOCCOCCOC(=O)c1ccc(-c2c3nc(c(-c4c(F)cc(S(=O)(=O)[O-])cc4F)c4ccc([nH]4)c(-c4c(F)cc(S(=O)(=O)[O-])cc4F)c4nc(c(-c5c(F)cc(S(=O)(=O)[O-])cc5F)c5ccc2[nH]5)C=C4)C=C3)cc1
REMARK SMILES IDX 21 1 20 2 19 3 18 4 17 5 16 6 15 7 13 8 14 9 12 10 10 11
REMARK SMILES IDX 11 12 9 13 7 14 8 15 6 17 1 18 2 19 3 20 4 21 5 22 22 23
REMARK SMILES IDX 23 24 24 25 25 26 26 27 27 28 28 29 29 30 30 31 31 32 95 33
REMARK SMILES IDX 32 34 94 35 33 36 34 37 35 38 88 39 36 40 93 41 87 42 89 43
REMARK SMILES IDX 37 44 92 45 86 46 85 47 38 49 72 50 51 51 71 52 52 53 55 54
REMARK SMILES IDX 70 55 90 56 53 57 54 58 69 60 91 61 56 62 39 63 40 64 49 65
REMARK SMILES IDX 41 66 42 67 48 68 50 69 43 70 44 71 45 72 46 73 47 74 73 75
REMARK SMILES IDX 74 76 83 77 75 78 76 79 82 80 84 81 77 82 78 83 79 84 80 85
REMARK SMILES IDX 81 86 57 87 58 88 67 89 59 90 60 91 66 92 68 93 61 94 62 95
REMARK SMILES IDX 63 96 64 97 65 98
REMARK H PARENT 9 16 89 48 55 59
REMARK Flexibility Score: inf
ROOT
ATOM      1  O   UNL A   1      32.307  21.557  25.408  1.00  0.00    -0.377 OA
ENDROOT
BRANCH   1   2
ATOM      2  C   UNL A   1      32.738  22.353  26.484  1.00  0.00     0.188 C 
BRANCH   2   3
ATOM      3  C   UNL A   1      32.062  23.718  26.629  1.00  0.00     0.188 C 
BRANCH   3   4
ATOM      4  O   UNL A   1      32.595  24.895  26.032  1.00  0.00    -0.376 OA
BRANCH   4   5
ATOM      5  C   UNL A   1      33.176  24.837  24.741  1.00  0.00     0.202 C 
BRANCH   5   6
ATOM      6  C   UNL A   1      32.204  24.828  23.548  1.00  0.00     0.261 C 
BRANCH   6   7
ATOM      7  O   UNL A   1      31.245  25.905  23.456  1.00  0.00    -0.463 OA
BRANCH   7   8
ATOM      8  C   UNL A   1      31.258  26.632  22.312  1.00  0.00     0.307 C 
ATOM      9  O   UNL A   1      31.400  26.163  21.187  1.00  0.00    -0.252 OA
BRANCH   8  10
ATOM     10  C   UNL A   1      31.224  28.135  22.544  1.00  0.00     0.147 C 
BRANCH  10  11
ATOM     11  C   UNL A   1      32.015  28.754  23.713  1.00  0.00     0.090 C 
ATOM     12  C   UNL A   1      33.508  28.474  23.501  1.00  0.00     0.031 C 
BRANCH  11  13
ATOM     13  N   UNL A   1      31.631  28.217  25.006  1.00  0.00    -0.349 N 
ATOM     14  C   UNL A   1      31.915  28.506  26.312  1.00  0.00     0.255 C 
ATOM     15  O   UNL A   1      31.441  27.694  27.113  1.00  0.00    -0.269 OA
ATOM     16  H   UNL A   1      31.011  27.456  24.922  1.00  0.00     0.164 HD
BRANCH  14  17
ATOM     17  C   UNL A   1      32.692  29.639  26.831  1.00  0.00     0.080 A 
ATOM     18  C   UNL A   1      31.440  32.020  26.859  1.00  0.00     0.088 C 
ATOM     19  C   UNL A   1      32.495  31.003  27.044  1.00  0.00     0.113 A 
ATOM     20  O   UNL A   1      33.611  31.561  27.614  1.00  0.00    -0.469 OA
ATOM     21  C   UNL A   1      34.543  30.601  27.753  1.00  0.00     0.196 A 
ATOM     22  C   UNL A   1      34.046  29.414  27.297  1.00  0.00     0.056 A 
ENDBRANCH  14  17
ENDBRANCH  11  13
ENDBRANCH  10  11
ENDBRANCH   8  10
ENDBRANCH   7   8
ENDBRANCH   6   7
ENDBRANCH   5   6
ENDBRANCH   4   5
ENDBRANCH   3   4
ENDBRANCH   2   3
ENDBRANCH   1   2
BRANCH   1  23
ATOM     23  C   UNL A   1      33.318  21.178  24.498  1.00  0.00     0.188 C 
BRANCH  23  24
ATOM     24  C   UNL A   1      34.367  20.222  25.081  1.00  0.00     0.188 C 
BRANCH  24  25
ATOM     25  O   UNL A   1      35.585  20.760  25.578  1.00  0.00    -0.376 OA
BRANCH  25  26
ATOM     26  C   UNL A   1      36.848  20.437  25.012  1.00  0.00     0.202 C 
BRANCH  26  27
ATOM     27  C   UNL A   1      38.026  21.419  24.967  1.00  0.00     0.261 C 
BRANCH  27  28
ATOM     28  O   UNL A   1      38.175  22.244  26.128  1.00  0.00    -0.460 OA
BRANCH  28  29
ATOM     29  C   UNL A   1      39.448  22.509  26.492  1.00  0.00     0.338 C 
ATOM     30  O   UNL A   1      40.421  21.779  26.333  1.00  0.00    -0.246 OA
BRANCH  29  31
ATOM     31  C   UNL A   1      39.574  23.907  26.942  1.00  0.00     0.060 A 
ATOM     32  C   UNL A   1      40.064  24.843  26.022  1.00  0.00     0.016 A 
ATOM     33  C   UNL A   1      39.303  24.284  28.259  1.00  0.00     0.016 A 
ATOM     34  C   UNL A   1      40.335  26.146  26.428  1.00  0.00     0.010 A 
ATOM     35  C   UNL A   1      39.591  25.593  28.669  1.00  0.00     0.010 A 
ATOM     36  C   UNL A   1      40.155  26.514  27.767  1.00  0.00    -0.014 A 
BRANCH  36  37
ATOM     37  C   UNL A   1      40.769  27.779  28.247  1.00  0.00     0.031 A 
ATOM     38  C   UNL A   1      42.261  27.950  28.105  1.00  0.00     0.074 A 
ATOM     39  C   UNL A   1      40.020  28.790  28.721  1.00  0.00     0.049 A 
ATOM     40  N   UNL A   1      43.017  28.968  28.423  1.00  0.00    -0.248 NA
ATOM     41  C   UNL A   1      42.997  26.816  27.521  1.00  0.00     0.031 C 
ATOM     42  C   UNL A   1      38.565  28.770  28.862  1.00  0.00     0.029 A 
ATOM     43  N   UNL A   1      40.384  30.037  29.168  1.00  0.00    -0.354 N 
ATOM     44  C   UNL A   1      44.313  28.600  28.081  1.00  0.00     0.074 A 
ATOM     45  C   UNL A   1      44.248  27.248  27.572  1.00  0.00     0.031 C 
ATOM     46  C   UNL A   1      38.160  29.953  29.359  1.00  0.00     0.029 A 
ATOM     47  C   UNL A   1      39.328  30.801  29.601  1.00  0.00     0.049 A 
ATOM     48  H   UNL A   1      41.317  30.354  29.178  1.00  0.00     0.167 HD
ATOM     49  C   UNL A   1      45.454  29.325  28.165  1.00  0.00     0.037 A 
ATOM     50  C   UNL A   1      39.307  32.036  30.143  1.00  0.00     0.037 A 
ATOM     51  C   UNL A   1      45.517  30.670  28.675  1.00  0.00     0.049 A 
ATOM     52  C   UNL A   1      40.601  32.793  30.311  1.00  0.00     0.074 A 
ATOM     53  C   UNL A   1      46.624  31.492  28.798  1.00  0.00     0.029 A 
ATOM     54  N   UNL A   1      44.432  31.389  29.155  1.00  0.00    -0.354 N 
ATOM     55  N   UNL A   1      41.818  32.440  29.966  1.00  0.00    -0.248 NA
ATOM     56  C   UNL A   1      40.520  34.119  30.941  1.00  0.00     0.031 C 
ATOM     57  C   UNL A   1      46.218  32.684  29.405  1.00  0.00     0.029 A 
ATOM     58  C   UNL A   1      44.847  32.633  29.600  1.00  0.00     0.049 A 
ATOM     59  H   UNL A   1      43.503  31.063  29.175  1.00  0.00     0.167 HD
ATOM     60  C   UNL A   1      42.638  33.513  30.306  1.00  0.00     0.074 A 
ATOM     61  C   UNL A   1      41.779  34.530  30.873  1.00  0.00     0.031 C 
ATOM     62  C   UNL A   1      43.981  33.644  30.157  1.00  0.00     0.037 A 
BRANCH  49  63
ATOM     63  C   UNL A   1      46.732  28.664  27.723  1.00  0.00     0.058 A 
ATOM     64  C   UNL A   1      47.549  27.956  28.620  1.00  0.00     0.135 A 
ATOM     65  C   UNL A   1      47.137  28.724  26.380  1.00  0.00     0.135 A 
ATOM     66  F   UNL A   1      47.221  27.882  29.920  1.00  0.00    -0.206 F 
ATOM     67  C   UNL A   1      48.738  27.363  28.208  1.00  0.00     0.059 A 
ATOM     68  C   UNL A   1      48.304  28.110  25.939  1.00  0.00     0.059 A 
ATOM     69  F   UNL A   1      46.395  29.388  25.480  1.00  0.00    -0.206 F 
ATOM     70  C   UNL A   1      49.108  27.446  26.865  1.00  0.00     0.060 A 
BRANCH  70  71
ATOM     71  S   UNL A   1      50.657  26.677  26.348  1.00  0.00     0.124 S 
ATOM     72  O   UNL A   1      50.940  25.802  27.481  1.00  0.00    -0.237 OA
ATOM     73  O   UNL A   1      50.272  26.005  25.110  1.00  0.00    -0.237 OA
ATOM     74  O   UNL A   1      51.564  27.809  26.189  1.00  0.00    -0.744 OA
ENDBRANCH  70  71
ENDBRANCH  49  63
BRANCH  50  75
ATOM     75  C   UNL A   1      38.016  32.641  30.572  1.00  0.00     0.058 A 
ATOM     76  C   UNL A   1      37.479  32.382  31.843  1.00  0.00     0.135 A 
ATOM     77  C   UNL A   1      37.285  33.479  29.716  1.00  0.00     0.135 A 
ATOM     78  F   UNL A   1      38.129  31.573  32.692  1.00  0.00    -0.206 F 
ATOM     79  C   UNL A   1      36.259  32.920  32.244  1.00  0.00     0.059 A 
ATOM     80  C   UNL A   1      36.079  34.054  30.105  1.00  0.00     0.059 A 
ATOM     81  F   UNL A   1      37.753  33.763  28.491  1.00  0.00    -0.206 F 
ATOM     82  C   UNL A   1      35.569  33.761  31.369  1.00  0.00     0.060 A 
BRANCH  82  83
ATOM     83  S   UNL A   1      34.014  34.494  31.920  1.00  0.00     0.124 S 
ATOM     84  O   UNL A   1      33.280  34.610  30.665  1.00  0.00    -0.237 OA
ATOM     85  O   UNL A   1      33.520  33.491  32.858  1.00  0.00    -0.237 OA
ATOM     86  O   UNL A   1      34.432  35.756  32.525  1.00  0.00    -0.744 OA
ENDBRANCH  82  83
ENDBRANCH  50  75
BRANCH  62  87
ATOM     87  C   UNL A   1      44.609  34.949  30.575  1.00  0.00     0.058 A 
ATOM     88  C   UNL A   1      44.706  36.042  29.700  1.00  0.00     0.135 A 
ATOM     89  C   UNL A   1      45.066  35.124  31.892  1.00  0.00     0.135 A 
ATOM     90  F   UNL A   1      44.288  35.930  28.429  1.00  0.00    -0.206 F 
ATOM     91  C   UNL A   1      45.255  37.254  30.107  1.00  0.00     0.059 A 
ATOM     92  C   UNL A   1      45.591  36.337  32.330  1.00  0.00     0.059 A 
ATOM     93  F   UNL A   1      44.987  34.117  32.776  1.00  0.00    -0.206 F 
ATOM     94  C   UNL A   1      45.693  37.394  31.427  1.00  0.00     0.060 A 
BRANCH  94  95
ATOM     95  S   UNL A   1      46.371  38.982  31.951  1.00  0.00     0.124 S 
ATOM     96  O   UNL A   1      45.258  39.543  32.708  1.00  0.00    -0.237 OA
ATOM     97  O   UNL A   1      47.534  38.580  32.737  1.00  0.00    -0.237 OA
ATOM     98  O   UNL A   1      46.677  39.655  30.692  1.00  0.00    -0.744 OA
ENDBRANCH  94  95
ENDBRANCH  62  87
ENDBRANCH  36  37
ENDBRANCH  29  31
ENDBRANCH  28  29
ENDBRANCH  27  28
ENDBRANCH  26  27
ENDBRANCH  25  26
ENDBRANCH  24  25
ENDBRANCH  23  24
ENDBRANCH   1  23
TORSDOF 26
ENDMDL
MODEL 3
REMARK VINA RESULT:      -8.9      5.632      9.680
REMARK SMILES Cc1occc1C(=O)N[C@@H](C)CC(=O)OCCOCCOCCOCCOC(=O)c1ccc(-c2c3nc(c(-c4c(F)cc(S(=O)(=O)[O-])cc4F)c4ccc([nH]4)c(-c4c(F)cc(S(=O)(=O)[O-])cc4F)c4nc(c(-c5c(F)cc(S(=O)(=O)[O-])cc5F)c5ccc2[nH]5)C=C4)C=C3)cc1
REMARK SMILES IDX 21 1 20 2 19 3 18 4 17 5 16 6 15 7 13 8 14 9 12 10 10 11
REMARK SMILES IDX 11 12 9 13 7 14 8 15 6 17 1 18 2 19 3 20 4 21 5 22 22 23
REMARK SMILES IDX 23 24 24 25 25 26 26 27 27 28 28 29 29 30 30 31 31 32 95 33
REMARK SMILES IDX 32 34 94 35 33 36 34 37 35 38 88 39 36 40 93 41 87 42 89 43
REMARK SMILES IDX 37 44 92 45 86 46 85 47 38 49 72 50 51 51 71 52 52 53 55 54
REMARK SMILES IDX 70 55 90 56 53 57 54 58 69 60 91 61 56 62 39 63 40 64 49 65
REMARK SMILES IDX 41 66 42 67 48 68 50 69 43 70 44 71 45 72 46 73 47 74 73 75
REMARK SMILES IDX 74 76 83 77 75 78 76 79 82 80 84 81 77 82 78 83 79 84 80 85
REMARK SMILES IDX 81 86 57 87 58 88 67 89 59 90 60 91 66 92 68 93 61 94 62 95
REMARK SMILES IDX 63 96 64 97 65 98
REMARK H PARENT 9 16 89 48 55 59
REMARK Flexibility Score: inf
ROOT
ATOM      1  O   UNL A   1      32.081  23.071  24.613  1.00  0.00    -0.377 OA
ENDROOT
BRANCH   1   2
ATOM      2  C   UNL A   1      32.597  23.361  25.888  1.00  0.00     0.188 C 
BRANCH   2   3
ATOM      3  C   UNL A   1      33.156  24.771  26.087  1.00  0.00     0.188 C 
BRANCH   3   4
ATOM      4  O   UNL A   1      34.113  25.339  25.200  1.00  0.00    -0.376 OA
BRANCH   4   5
ATOM      5  C   UNL A   1      33.900  26.630  24.655  1.00  0.00     0.202 C 
BRANCH   5   6
ATOM      6  C   UNL A   1      33.607  26.700  23.146  1.00  0.00     0.261 C 
BRANCH   6   7
ATOM      7  O   UNL A   1      32.650  25.763  22.604  1.00  0.00    -0.463 OA
BRANCH   7   8
ATOM      8  C   UNL A   1      31.560  26.292  21.997  1.00  0.00     0.307 C 
ATOM      9  O   UNL A   1      31.444  26.455  20.787  1.00  0.00    -0.252 OA
BRANCH   8  10
ATOM     10  C   UNL A   1      30.515  26.816  22.970  1.00  0.00     0.147 C 
BRANCH  10  11
ATOM     11  C   UNL A   1      30.133  28.309  22.963  1.00  0.00     0.090 C 
ATOM     12  C   UNL A   1      30.809  28.997  24.155  1.00  0.00     0.031 C 
BRANCH  11  13
ATOM     13  N   UNL A   1      28.701  28.529  23.063  1.00  0.00    -0.349 N 
ATOM     14  C   UNL A   1      27.869  29.611  22.995  1.00  0.00     0.255 C 
ATOM     15  O   UNL A   1      26.690  29.346  23.255  1.00  0.00    -0.269 OA
ATOM     16  H   UNL A   1      28.207  27.691  23.217  1.00  0.00     0.164 HD
BRANCH  14  17
ATOM     17  C   UNL A   1      28.223  30.995  22.655  1.00  0.00     0.080 A 
ATOM     18  C   UNL A   1      27.841  31.720  20.093  1.00  0.00     0.088 C 
ATOM     19  C   UNL A   1      28.203  31.809  21.522  1.00  0.00     0.113 A 
ATOM     20  O   UNL A   1      28.632  33.073  21.837  1.00  0.00    -0.469 OA
ATOM     21  C   UNL A   1      28.957  33.100  23.142  1.00  0.00     0.196 A 
ATOM     22  C   UNL A   1      28.731  31.871  23.693  1.00  0.00     0.056 A 
ENDBRANCH  14  17
ENDBRANCH  11  13
ENDBRANCH  10  11
ENDBRANCH   8  10
ENDBRANCH   7   8
ENDBRANCH   6   7
ENDBRANCH   5   6
ENDBRANCH   4   5
ENDBRANCH   3   4
ENDBRANCH   2   3
ENDBRANCH   1   2
BRANCH   1  23
ATOM     23  C   UNL A   1      32.923  22.299  23.784  1.00  0.00     0.188 C 
BRANCH  23  24
ATOM     24  C   UNL A   1      34.048  21.570  24.531  1.00  0.00     0.188 C 
BRANCH  24  25
ATOM     25  O   UNL A   1      35.374  22.075  24.435  1.00  0.00    -0.376 OA
BRANCH  25  26
ATOM     26  C   UNL A   1      36.323  21.926  25.482  1.00  0.00     0.202 C 
BRANCH  26  27
ATOM     27  C   UNL A   1      37.751  21.412  25.257  1.00  0.00     0.261 C 
BRANCH  27  28
ATOM     28  O   UNL A   1      38.788  22.370  25.502  1.00  0.00    -0.460 OA
BRANCH  28  29
ATOM     29  C   UNL A   1      39.522  22.157  26.615  1.00  0.00     0.338 C 
ATOM     30  O   UNL A   1      39.932  21.077  27.026  1.00  0.00    -0.246 OA
BRANCH  29  31
ATOM     31  C   UNL A   1      39.955  23.440  27.198  1.00  0.00     0.060 A 
ATOM     32  C   UNL A   1      39.512  24.616  26.579  1.00  0.00     0.016 A 
ATOM     33  C   UNL A   1      40.843  23.498  28.274  1.00  0.00     0.016 A 
ATOM     34  C   UNL A   1      39.996  25.852  26.998  1.00  0.00     0.010 A 
ATOM     35  C   UNL A   1      41.342  24.742  28.684  1.00  0.00     0.010 A 
ATOM     36  C   UNL A   1      40.957  25.919  28.015  1.00  0.00    -0.014 A 
BRANCH  36  37
ATOM     37  C   UNL A   1      41.708  27.188  28.203  1.00  0.00     0.031 A 
ATOM     38  C   UNL A   1      40.985  28.363  28.810  1.00  0.00     0.074 A 
ATOM     39  C   UNL A   1      43.020  27.278  27.922  1.00  0.00     0.049 A 
ATOM     40  N   UNL A   1      41.431  29.558  29.097  1.00  0.00    -0.248 NA
ATOM     41  C   UNL A   1      39.564  28.159  29.141  1.00  0.00     0.031 C 
ATOM     42  C   UNL A   1      43.844  26.200  27.380  1.00  0.00     0.029 A 
ATOM     43  N   UNL A   1      43.891  28.330  28.064  1.00  0.00    -0.354 N 
ATOM     44  C   UNL A   1      40.352  30.247  29.639  1.00  0.00     0.074 A 
ATOM     45  C   UNL A   1      39.217  29.352  29.601  1.00  0.00     0.031 C 
ATOM     46  C   UNL A   1      45.105  26.647  27.236  1.00  0.00     0.029 A 
ATOM     47  C   UNL A   1      45.170  28.050  27.647  1.00  0.00     0.049 A 
ATOM     48  H   UNL A   1      43.624  29.205  28.429  1.00  0.00     0.167 HD
ATOM     49  C   UNL A   1      40.310  31.505  30.140  1.00  0.00     0.037 A 
ATOM     50  C   UNL A   1      46.263  28.838  27.591  1.00  0.00     0.037 A 
ATOM     51  C   UNL A   1      41.440  32.396  30.174  1.00  0.00     0.049 A 
ATOM     52  C   UNL A   1      46.172  30.266  28.071  1.00  0.00     0.074 A 
ATOM     53  C   UNL A   1      41.502  33.688  30.664  1.00  0.00     0.029 A 
ATOM     54  N   UNL A   1      42.705  32.093  29.692  1.00  0.00    -0.354 N 
ATOM     55  N   UNL A   1      45.150  30.898  28.598  1.00  0.00    -0.248 NA
ATOM     56  C   UNL A   1      47.386  31.087  27.951  1.00  0.00     0.031 C 
ATOM     57  C   UNL A   1      42.787  34.186  30.427  1.00  0.00     0.029 A 
ATOM     58  C   UNL A   1      43.546  33.182  29.847  1.00  0.00     0.049 A 
ATOM     59  H   UNL A   1      42.967  31.229  29.297  1.00  0.00     0.167 HD
ATOM     60  C   UNL A   1      45.608  32.178  28.903  1.00  0.00     0.074 A 
ATOM     61  C   UNL A   1      47.000  32.226  28.511  1.00  0.00     0.031 C 
ATOM     62  C   UNL A   1      44.936  33.217  29.461  1.00  0.00     0.037 A 
BRANCH  49  63
ATOM     63  C   UNL A   1      38.989  32.001  30.663  1.00  0.00     0.058 A 
ATOM     64  C   UNL A   1      38.100  32.733  29.858  1.00  0.00     0.135 A 
ATOM     65  C   UNL A   1      38.597  31.725  31.983  1.00  0.00     0.135 A 
ATOM     66  F   UNL A   1      38.431  33.042  28.593  1.00  0.00    -0.206 F 
ATOM     67  C   UNL A   1      36.889  33.204  30.354  1.00  0.00     0.059 A 
ATOM     68  C   UNL A   1      37.376  32.157  32.490  1.00  0.00     0.059 A 
ATOM     69  F   UNL A   1      39.407  31.030  32.797  1.00  0.00    -0.206 F 
ATOM     70  C   UNL A   1      36.535  32.911  31.672  1.00  0.00     0.060 A 
BRANCH  70  71
ATOM     71  S   UNL A   1      34.963  33.535  32.303  1.00  0.00     0.124 S 
ATOM     72  O   UNL A   1      34.700  34.640  31.386  1.00  0.00    -0.237 OA
ATOM     73  O   UNL A   1      34.090  32.374  32.162  1.00  0.00    -0.237 OA
ATOM     74  O   UNL A   1      35.275  33.921  33.675  1.00  0.00    -0.744 OA
ENDBRANCH  70  71
ENDBRANCH  49  63
BRANCH  50  75
ATOM     75  C   UNL A   1      47.544  28.300  27.055  1.00  0.00     0.058 A 
ATOM     76  C   UNL A   1      48.569  27.872  27.914  1.00  0.00     0.135 A 
ATOM     77  C   UNL A   1      47.776  28.217  25.674  1.00  0.00     0.135 A 
ATOM     78  F   UNL A   1      48.404  27.947  29.243  1.00  0.00    -0.206 F 
ATOM     79  C   UNL A   1      49.780  27.393  27.423  1.00  0.00     0.059 A 
ATOM     80  C   UNL A   1      48.967  27.713  25.158  1.00  0.00     0.059 A 
ATOM     81  F   UNL A   1      46.830  28.610  24.807  1.00  0.00    -0.206 F 
ATOM     82  C   UNL A   1      49.967  27.312  26.043  1.00  0.00     0.060 A 
BRANCH  82  83
ATOM     83  S   UNL A   1      51.524  26.641  25.419  1.00  0.00     0.124 S 
ATOM     84  O   UNL A   1      51.564  25.335  26.068  1.00  0.00    -0.237 OA
ATOM     85  O   UNL A   1      51.295  26.630  23.977  1.00  0.00    -0.237 OA
ATOM     86  O   UNL A   1      52.516  27.607  25.882  1.00  0.00    -0.744 OA
ENDBRANCH  82  83
ENDBRANCH  50  75
BRANCH  62  87
ATOM     87  C   UNL A   1      45.702  34.488  29.723  1.00  0.00     0.058 A 
ATOM     88  C   UNL A   1      45.737  35.540  28.794  1.00  0.00     0.135 A 
ATOM     89  C   UNL A   1      46.362  34.678  30.948  1.00  0.00     0.135 A 
ATOM     90  F   UNL A   1      45.127  35.412  27.604  1.00  0.00    -0.206 F 
ATOM     91  C   UNL A   1      46.419  36.724  29.060  1.00  0.00     0.059 A 
ATOM     92  C   UNL A   1      47.023  35.866  31.249  1.00  0.00     0.059 A 
ATOM     93  F   UNL A   1      46.351  33.711  31.880  1.00  0.00    -0.206 F 
ATOM     94  C   UNL A   1      47.057  36.879  30.293  1.00  0.00     0.060 A 
BRANCH  94  95
ATOM     95  S   UNL A   1      47.908  38.434  30.638  1.00  0.00     0.124 S 
ATOM     96  O   UNL A   1      49.143  37.963  31.254  1.00  0.00    -0.237 OA
ATOM     97  O   UNL A   1      48.045  39.016  29.306  1.00  0.00    -0.237 OA
ATOM     98  O   UNL A   1      46.989  39.135  31.530  1.00  0.00    -0.744 OA
ENDBRANCH  94  95
ENDBRANCH  62  87
ENDBRANCH  36  37
ENDBRANCH  29  31
ENDBRANCH  28  29
ENDBRANCH  27  28
ENDBRANCH  26  27
ENDBRANCH  25  26
ENDBRANCH  24  25
ENDBRANCH  23  24
ENDBRANCH   1  23
TORSDOF 26
ENDMDL
