MODEL 1
REMARK VINA RESULT:     -11.2      0.000      0.000
REMARK SMILES Cc1cc(/C=C2/C(=O)NC(=S)N=C2OCCOCCOCCOCCOC(=O)c2ccc(-c3c4nc(c(-c5c(F)cc(S(=O)(=O)[O-])cc5F)c5ccc([nH]5)c(-c5c(F)cc(S(=O)(=O)[O-])cc5F)c5nc(c(-c6c(F)cc(S(=O)(=O)[O-])cc6F)c6ccc3[nH]6)C=C5)C=C4)cc2)c(C)n1-c1cccc(C(=O)[O-])c1
REMARK SMILES IDX 21 1 20 2 19 3 18 4 17 5 16 6 15 7 14 8 13 9 5 10 6 11 7 12
REMARK SMILES IDX 8 13 9 14 12 15 10 16 11 18 4 19 1 20 2 21 3 22 97 23 95 24
REMARK SMILES IDX 96 25 98 26 99 27 106 28 100 29 102 30 101 31 103 32 104 33
REMARK SMILES IDX 105 34 22 35 23 36 24 37 25 38 26 39 27 40 28 41 29 42 30 43
REMARK SMILES IDX 94 44 31 45 93 46 32 47 33 48 34 49 87 50 35 51 92 52 86 53
REMARK SMILES IDX 88 54 36 55 91 56 85 57 84 58 37 60 71 61 50 62 70 63 51 64
REMARK SMILES IDX 54 65 69 66 89 67 52 68 53 69 68 71 90 72 55 73 38 74 39 75
REMARK SMILES IDX 48 76 40 77 41 78 47 79 49 80 42 81 43 82 44 83 45 84 46 85
REMARK SMILES IDX 72 86 73 87 82 88 74 89 75 90 81 91 83 92 76 93 77 94 78 95
REMARK SMILES IDX 79 96 80 97 56 98 57 99 66 100 58 101 59 102 65 103 67 104
REMARK SMILES IDX 60 105 61 106 62 107 63 108 64 109
REMARK H PARENT 9 17 88 59 54 70
REMARK Flexibility Score: inf
ROOT
ATOM      1  C   UNL A   1      33.949  32.036  27.841  1.00  0.00     0.188 C 
ENDROOT
BRANCH   1   2
ATOM      2  O   UNL A   1      33.264  30.953  27.253  1.00  0.00    -0.377 OA
BRANCH   2   3
ATOM      3  C   UNL A   1      33.847  29.674  27.216  1.00  0.00     0.188 C 
BRANCH   3   4
ATOM      4  C   UNL A   1      33.015  28.441  26.807  1.00  0.00     0.188 C 
BRANCH   4   5
ATOM      5  O   UNL A   1      31.887  28.482  25.955  1.00  0.00    -0.376 OA
BRANCH   5   6
ATOM      6  C   UNL A   1      31.716  29.295  24.805  1.00  0.00     0.201 C 
BRANCH   6   7
ATOM      7  C   UNL A   1      32.347  29.008  23.417  1.00  0.00     0.260 C 
BRANCH   7   8
ATOM      8  O   UNL A   1      31.407  28.758  22.337  1.00  0.00    -0.475 OA
BRANCH   8   9
ATOM      9  C   UNL A   1      30.143  29.158  22.524  1.00  0.00     0.229 C 
ATOM     10  C   UNL A   1      29.298  26.841  23.494  1.00  0.00     0.029 C 
ATOM     11  C   UNL A   1      29.208  28.132  23.069  1.00  0.00     0.103 C 
ATOM     12  C   UNL A   1      27.782  28.641  23.060  1.00  0.00     0.262 C 
ATOM     13  O   UNL A   1      26.817  28.018  23.491  1.00  0.00    -0.269 OA
ATOM     14  N   UNL A   1      27.586  29.869  22.489  1.00  0.00    -0.297 N 
ATOM     15  N   UNL A   1      29.836  30.343  22.128  1.00  0.00    -0.184 NA
ATOM     16  C   UNL A   1      28.543  30.726  22.041  1.00  0.00     0.203 C 
ATOM     17  H   UNL A   1      26.650  30.164  22.393  1.00  0.00     0.172 HD
ATOM     18  S   UNL A   1      28.064  32.169  21.337  1.00  0.00    -0.038 S 
BRANCH  10  19
ATOM     19  C   UNL A   1      30.288  25.789  23.624  1.00  0.00    -0.003 A 
ATOM     20  C   UNL A   1      33.395  23.998  22.456  1.00  0.00     0.065 C 
ATOM     21  C   UNL A   1      32.191  24.587  23.100  1.00  0.00     0.020 A 
ATOM     22  C   UNL A   1      31.300  25.544  22.632  1.00  0.00     0.031 A 
ATOM     23  N   UNL A   1      31.728  24.177  24.327  1.00  0.00    -0.318 N 
ATOM     24  C   UNL A   1      30.655  24.984  24.683  1.00  0.00     0.027 A 
ATOM     25  C   UNL A   1      30.228  24.957  26.084  1.00  0.00     0.065 C 
BRANCH  23  26
ATOM     26  C   UNL A   1      32.286  23.216  25.222  1.00  0.00     0.046 A 
ATOM     27  C   UNL A   1      33.175  23.691  26.202  1.00  0.00     0.026 A 
ATOM     28  C   UNL A   1      32.260  21.855  24.883  1.00  0.00     0.036 A 
ATOM     29  C   UNL A   1      34.080  22.824  26.807  1.00  0.00     0.003 A 
ATOM     30  C   UNL A   1      33.167  20.982  25.507  1.00  0.00    -0.001 A 
ATOM     31  C   UNL A   1      34.082  21.476  26.453  1.00  0.00     0.010 A 
BRANCH  30  32
ATOM     32  C   UNL A   1      33.267  19.526  25.168  1.00  0.00     0.072 C 
ATOM     33  O   UNL A   1      34.221  18.986  24.717  1.00  0.00    -0.545 OA
ATOM     34  O   UNL A   1      32.117  18.873  25.461  1.00  0.00    -0.545 OA
ENDBRANCH  30  32
ENDBRANCH  23  26
ENDBRANCH  10  19
ENDBRANCH   8   9
ENDBRANCH   7   8
ENDBRANCH   6   7
ENDBRANCH   5   6
ENDBRANCH   4   5
ENDBRANCH   3   4
ENDBRANCH   2   3
ENDBRANCH   1   2
BRANCH   1  35
ATOM     35  C   UNL A   1      35.009  31.600  28.858  1.00  0.00     0.188 C 
BRANCH  35  36
ATOM     36  O   UNL A   1      35.077  32.282  30.093  1.00  0.00    -0.376 OA
BRANCH  36  37
ATOM     37  C   UNL A   1      35.963  33.378  30.182  1.00  0.00     0.202 C 
BRANCH  37  38
ATOM     38  C   UNL A   1      36.942  33.650  31.394  1.00  0.00     0.261 C 
BRANCH  38  39
ATOM     39  O   UNL A   1      38.114  34.579  31.586  1.00  0.00    -0.460 OA
BRANCH  39  40
ATOM     40  C   UNL A   1      39.254  34.314  32.352  1.00  0.00     0.338 C 
ATOM     41  O   UNL A   1      39.356  34.750  33.490  1.00  0.00    -0.246 OA
BRANCH  40  42
ATOM     42  C   UNL A   1      40.417  33.393  31.708  1.00  0.00     0.060 A 
ATOM     43  C   UNL A   1      40.396  32.470  30.604  1.00  0.00     0.016 A 
ATOM     44  C   UNL A   1      41.650  33.339  32.267  1.00  0.00     0.016 A 
ATOM     45  C   UNL A   1      41.607  31.562  30.037  1.00  0.00     0.010 A 
ATOM     46  C   UNL A   1      42.732  32.475  31.684  1.00  0.00     0.010 A 
ATOM     47  C   UNL A   1      42.924  31.470  30.570  1.00  0.00    -0.014 A 
BRANCH  47  48
ATOM     48  C   UNL A   1      44.546  31.132  29.648  1.00  0.00     0.031 A 
ATOM     49  C   UNL A   1      45.426  31.562  30.777  1.00  0.00     0.074 A 
ATOM     50  C   UNL A   1      45.415  30.281  28.641  1.00  0.00     0.049 A 
ATOM     51  N   UNL A   1      44.882  31.247  31.934  1.00  0.00    -0.248 NA
ATOM     52  C   UNL A   1      46.851  31.354  30.859  1.00  0.00     0.031 C 
ATOM     53  C   UNL A   1      45.032  29.182  27.683  1.00  0.00     0.029 A 
ATOM     54  N   UNL A   1      47.019  30.100  28.326  1.00  0.00    -0.354 N 
ATOM     55  C   UNL A   1      45.338  29.953  31.991  1.00  0.00     0.074 A 
ATOM     56  C   UNL A   1      46.775  30.355  31.763  1.00  0.00     0.031 C 
ATOM     57  C   UNL A   1      46.057  28.447  27.146  1.00  0.00     0.029 A 
ATOM     58  C   UNL A   1      47.453  28.866  27.500  1.00  0.00     0.049 A 
ATOM     59  H   UNL A   1      47.680  30.754  28.651  1.00  0.00     0.167 HD
ATOM     60  C   UNL A   1      44.692  28.729  31.616  1.00  0.00     0.037 A 
ATOM     61  C   UNL A   1      48.608  28.056  26.970  1.00  0.00     0.037 A 
ATOM     62  C   UNL A   1      45.474  27.625  32.104  1.00  0.00     0.049 A 
ATOM     63  C   UNL A   1      48.339  26.921  27.899  1.00  0.00     0.074 A 
ATOM     64  C   UNL A   1      46.779  27.575  32.537  1.00  0.00     0.029 A 
ATOM     65  N   UNL A   1      45.306  26.369  31.546  1.00  0.00    -0.354 N 
ATOM     66  N   UNL A   1      47.694  25.813  27.718  1.00  0.00    -0.248 NA
ATOM     67  C   UNL A   1      49.090  27.039  29.169  1.00  0.00     0.031 C 
ATOM     68  C   UNL A   1      47.207  27.305  31.239  1.00  0.00     0.029 A 
ATOM     69  C   UNL A   1      46.415  26.253  30.757  1.00  0.00     0.049 A 
ATOM     70  H   UNL A   1      44.575  25.725  31.684  1.00  0.00     0.167 HD
ATOM     71  C   UNL A   1      47.658  25.323  29.013  1.00  0.00     0.074 A 
ATOM     72  C   UNL A   1      48.818  25.846  29.699  1.00  0.00     0.031 C 
ATOM     73  C   UNL A   1      46.448  25.370  29.626  1.00  0.00     0.037 A 
BRANCH  60  74
ATOM     74  C   UNL A   1      43.193  28.243  30.900  1.00  0.00     0.058 A 
ATOM     75  C   UNL A   1      42.855  27.741  29.586  1.00  0.00     0.135 A 
ATOM     76  C   UNL A   1      42.013  28.517  31.630  1.00  0.00     0.135 A 
ATOM     77  F   UNL A   1      43.740  27.382  28.665  1.00  0.00    -0.206 F 
ATOM     78  C   UNL A   1      41.570  27.710  29.016  1.00  0.00     0.059 A 
ATOM     79  C   UNL A   1      40.704  28.441  31.099  1.00  0.00     0.059 A 
ATOM     80  F   UNL A   1      42.098  28.939  32.899  1.00  0.00    -0.206 F 
ATOM     81  C   UNL A   1      40.502  28.129  29.762  1.00  0.00     0.060 A 
BRANCH  81  82
ATOM     82  S   UNL A   1      38.905  28.393  28.962  1.00  0.00     0.124 S 
ATOM     83  O   UNL A   1      38.790  27.180  28.155  1.00  0.00    -0.237 OA
ATOM     84  O   UNL A   1      37.967  28.482  30.077  1.00  0.00    -0.237 OA
ATOM     85  O   UNL A   1      39.119  29.622  28.209  1.00  0.00    -0.744 OA
ENDBRANCH  81  82
ENDBRANCH  60  74
BRANCH  61  86
ATOM     86  C   UNL A   1      50.251  27.499  26.534  1.00  0.00     0.058 A 
ATOM     87  C   UNL A   1      51.447  28.272  26.617  1.00  0.00     0.135 A 
ATOM     88  C   UNL A   1      50.610  26.365  25.659  1.00  0.00     0.135 A 
ATOM     89  F   UNL A   1      51.388  29.529  27.083  1.00  0.00    -0.206 F 
ATOM     90  C   UNL A   1      52.782  27.848  26.112  1.00  0.00     0.059 A 
ATOM     91  C   UNL A   1      51.873  25.889  25.242  1.00  0.00     0.059 A 
ATOM     92  F   UNL A   1      49.756  25.679  24.908  1.00  0.00    -0.206 F 
ATOM     93  C   UNL A   1      52.990  26.617  25.481  1.00  0.00     0.060 A 
BRANCH  93  94
ATOM     94  S   UNL A   1      54.578  25.896  24.930  1.00  0.00     0.124 S 
ATOM     95  O   UNL A   1      54.324  24.460  24.957  1.00  0.00    -0.237 OA
ATOM     96  O   UNL A   1      54.755  26.492  23.611  1.00  0.00    -0.237 OA
ATOM     97  O   UNL A   1      55.536  26.365  25.934  1.00  0.00    -0.744 OA
ENDBRANCH  93  94
ENDBRANCH  61  86
BRANCH  73  98
ATOM     98  C   UNL A   1      45.332  24.816  28.810  1.00  0.00     0.058 A 
ATOM     99  C   UNL A   1      44.509  23.827  29.365  1.00  0.00     0.135 A 
ATOM    100  C   UNL A   1      45.108  25.144  27.470  1.00  0.00     0.135 A 
ATOM    101  F   UNL A   1      44.659  23.471  30.652  1.00  0.00    -0.206 F 
ATOM    102  C   UNL A   1      43.526  23.187  28.622  1.00  0.00     0.059 A 
ATOM    103  C   UNL A   1      44.128  24.527  26.698  1.00  0.00     0.059 A 
ATOM    104  F   UNL A   1      45.868  26.067  26.884  1.00  0.00    -0.206 F 
ATOM    105  C   UNL A   1      43.338  23.546  27.288  1.00  0.00     0.060 A 
BRANCH 105 106
ATOM    106  S   UNL A   1      42.075  22.683  26.335  1.00  0.00     0.124 S 
ATOM    107  O   UNL A   1      40.918  23.566  26.464  1.00  0.00    -0.237 OA
ATOM    108  O   UNL A   1      42.687  22.645  25.012  1.00  0.00    -0.237 OA
ATOM    109  O   UNL A   1      41.947  21.403  27.025  1.00  0.00    -0.744 OA
ENDBRANCH 105 106
ENDBRANCH  73  98
ENDBRANCH  47  48
ENDBRANCH  40  42
ENDBRANCH  39  40
ENDBRANCH  38  39
ENDBRANCH  37  38
ENDBRANCH  36  37
ENDBRANCH  35  36
ENDBRANCH   1  35
TORSDOF 25
ENDMDL
MODEL 2
REMARK VINA RESULT:     -10.9      1.905      2.589
REMARK SMILES Cc1cc(/C=C2/C(=O)NC(=S)N=C2OCCOCCOCCOCCOC(=O)c2ccc(-c3c4nc(c(-c5c(F)cc(S(=O)(=O)[O-])cc5F)c5ccc([nH]5)c(-c5c(F)cc(S(=O)(=O)[O-])cc5F)c5nc(c(-c6c(F)cc(S(=O)(=O)[O-])cc6F)c6ccc3[nH]6)C=C5)C=C4)cc2)c(C)n1-c1cccc(C(=O)[O-])c1
REMARK SMILES IDX 21 1 20 2 19 3 18 4 17 5 16 6 15 7 14 8 13 9 5 10 6 11 7 12
REMARK SMILES IDX 8 13 9 14 12 15 10 16 11 18 4 19 1 20 2 21 3 22 97 23 95 24
REMARK SMILES IDX 96 25 98 26 99 27 106 28 100 29 102 30 101 31 103 32 104 33
REMARK SMILES IDX 105 34 22 35 23 36 24 37 25 38 26 39 27 40 28 41 29 42 30 43
REMARK SMILES IDX 94 44 31 45 93 46 32 47 33 48 34 49 87 50 35 51 92 52 86 53
REMARK SMILES IDX 88 54 36 55 91 56 85 57 84 58 37 60 71 61 50 62 70 63 51 64
REMARK SMILES IDX 54 65 69 66 89 67 52 68 53 69 68 71 90 72 55 73 38 74 39 75
REMARK SMILES IDX 48 76 40 77 41 78 47 79 49 80 42 81 43 82 44 83 45 84 46 85
REMARK SMILES IDX 72 86 73 87 82 88 74 89 75 90 81 91 83 92 76 93 77 94 78 95
REMARK SMILES IDX 79 96 80 97 56 98 57 99 66 100 58 101 59 102 65 103 67 104
REMARK SMILES IDX 60 105 61 106 62 107 63 108 64 109
REMARK H PARENT 9 17 88 59 54 70
REMARK Flexibility Score: inf
ROOT
ATOM      1  C   UNL A   1      34.439  32.177  28.913  1.00  0.00     0.188 C 
ENDROOT
BRANCH   1   2
ATOM      2  O   UNL A   1      34.622  31.564  27.657  1.00  0.00    -0.377 OA
BRANCH   2   3
ATOM      3  C   UNL A   1      34.639  30.163  27.540  1.00  0.00     0.188 C 
BRANCH   3   4
ATOM      4  C   UNL A   1      33.535  29.424  26.757  1.00  0.00     0.188 C 
BRANCH   4   5
ATOM      5  O   UNL A   1      32.816  29.976  25.671  1.00  0.00    -0.376 OA
BRANCH   5   6
ATOM      6  C   UNL A   1      32.009  29.275  24.738  1.00  0.00     0.201 C 
BRANCH   6   7
ATOM      7  C   UNL A   1      32.191  29.325  23.199  1.00  0.00     0.260 C 
BRANCH   7   8
ATOM      8  O   UNL A   1      31.195  28.604  22.423  1.00  0.00    -0.475 OA
BRANCH   8   9
ATOM      9  C   UNL A   1      29.948  29.090  22.432  1.00  0.00     0.229 C 
ATOM     10  C   UNL A   1      28.946  27.154  23.939  1.00  0.00     0.029 C 
ATOM     11  C   UNL A   1      28.940  28.285  23.182  1.00  0.00     0.103 C 
ATOM     12  C   UNL A   1      27.544  28.830  22.964  1.00  0.00     0.262 C 
ATOM     13  O   UNL A   1      26.531  28.385  23.496  1.00  0.00    -0.269 OA
ATOM     14  N   UNL A   1      27.434  29.866  22.078  1.00  0.00    -0.297 N 
ATOM     15  N   UNL A   1      29.718  30.136  21.719  1.00  0.00    -0.184 NA
ATOM     16  C   UNL A   1      28.451  30.533  21.467  1.00  0.00     0.203 C 
ATOM     17  H   UNL A   1      26.520  30.161  21.858  1.00  0.00     0.172 HD
ATOM     18  S   UNL A   1      28.075  31.752  20.381  1.00  0.00    -0.038 S 
BRANCH  10  19
ATOM     19  C   UNL A   1      29.874  26.137  24.395  1.00  0.00    -0.003 A 
ATOM     20  C   UNL A   1      30.976  23.532  26.890  1.00  0.00     0.065 C 
ATOM     21  C   UNL A   1      30.694  24.474  25.774  1.00  0.00     0.020 A 
ATOM     22  C   UNL A   1      29.770  25.507  25.683  1.00  0.00     0.031 A 
ATOM     23  N   UNL A   1      31.419  24.482  24.607  1.00  0.00    -0.318 N 
ATOM     24  C   UNL A   1      30.845  25.405  23.741  1.00  0.00     0.027 A 
ATOM     25  C   UNL A   1      31.235  25.338  22.331  1.00  0.00     0.065 C 
BRANCH  23  26
ATOM     26  C   UNL A   1      32.482  23.620  24.203  1.00  0.00     0.046 A 
ATOM     27  C   UNL A   1      32.168  22.263  24.008  1.00  0.00     0.026 A 
ATOM     28  C   UNL A   1      33.811  24.025  24.386  1.00  0.00     0.036 A 
ATOM     29  C   UNL A   1      33.171  21.300  24.051  1.00  0.00     0.003 A 
ATOM     30  C   UNL A   1      34.821  23.049  24.415  1.00  0.00    -0.001 A 
ATOM     31  C   UNL A   1      34.493  21.690  24.264  1.00  0.00     0.010 A 
BRANCH  30  32
ATOM     32  C   UNL A   1      36.262  23.369  24.672  1.00  0.00     0.072 C 
ATOM     33  O   UNL A   1      36.710  23.769  25.694  1.00  0.00    -0.545 OA
ATOM     34  O   UNL A   1      37.023  23.125  23.577  1.00  0.00    -0.545 OA
ENDBRANCH  30  32
ENDBRANCH  23  26
ENDBRANCH  10  19
ENDBRANCH   8   9
ENDBRANCH   7   8
ENDBRANCH   6   7
ENDBRANCH   5   6
ENDBRANCH   4   5
ENDBRANCH   3   4
ENDBRANCH   2   3
ENDBRANCH   1   2
BRANCH   1  35
ATOM     35  C   UNL A   1      35.698  32.877  29.433  1.00  0.00     0.188 C 
BRANCH  35  36
ATOM     36  O   UNL A   1      35.546  33.961  30.326  1.00  0.00    -0.376 OA
BRANCH  36  37
ATOM     37  C   UNL A   1      34.764  33.744  31.482  1.00  0.00     0.202 C 
BRANCH  37  38
ATOM     38  C   UNL A   1      35.199  32.846  32.709  1.00  0.00     0.261 C 
BRANCH  38  39
ATOM     39  O   UNL A   1      36.209  33.026  33.814  1.00  0.00    -0.460 OA
BRANCH  39  40
ATOM     40  C   UNL A   1      37.395  33.764  33.729  1.00  0.00     0.338 C 
ATOM     41  O   UNL A   1      37.411  34.953  34.014  1.00  0.00    -0.246 OA
BRANCH  40  42
ATOM     42  C   UNL A   1      38.745  33.000  33.274  1.00  0.00     0.060 A 
ATOM     43  C   UNL A   1      39.071  32.278  32.073  1.00  0.00     0.016 A 
ATOM     44  C   UNL A   1      39.798  32.888  34.120  1.00  0.00     0.016 A 
ATOM     45  C   UNL A   1      40.448  31.515  31.706  1.00  0.00     0.010 A 
ATOM     46  C   UNL A   1      41.052  32.168  33.711  1.00  0.00     0.010 A 
ATOM     47  C   UNL A   1      41.591  31.372  32.543  1.00  0.00    -0.014 A 
BRANCH  47  48
ATOM     48  C   UNL A   1      43.412  31.243  32.035  1.00  0.00     0.031 A 
ATOM     49  C   UNL A   1      43.937  31.273  33.435  1.00  0.00     0.074 A 
ATOM     50  C   UNL A   1      44.552  30.688  31.093  1.00  0.00     0.049 A 
ATOM     51  N   UNL A   1      43.111  30.655  34.253  1.00  0.00    -0.248 NA
ATOM     52  C   UNL A   1      45.292  30.979  33.831  1.00  0.00     0.031 C 
ATOM     53  C   UNL A   1      44.482  29.945  29.783  1.00  0.00     0.029 A 
ATOM     54  N   UNL A   1      46.186  30.529  31.182  1.00  0.00    -0.354 N 
ATOM     55  C   UNL A   1      43.578  29.382  34.039  1.00  0.00     0.074 A 
ATOM     56  C   UNL A   1      45.009  29.762  34.338  1.00  0.00     0.031 C 
ATOM     57  C   UNL A   1      45.639  29.353  29.347  1.00  0.00     0.029 A 
ATOM     58  C   UNL A   1      46.870  29.576  30.173  1.00  0.00     0.049 A 
ATOM     59  H   UNL A   1      46.711  31.023  31.854  1.00  0.00     0.167 HD
ATOM     60  C   UNL A   1      43.100  28.359  33.155  1.00  0.00     0.037 A 
ATOM     61  C   UNL A   1      48.153  28.904  29.756  1.00  0.00     0.037 A 
ATOM     62  C   UNL A   1      43.758  27.122  33.481  1.00  0.00     0.049 A 
ATOM     63  C   UNL A   1      47.681  27.559  30.194  1.00  0.00     0.074 A 
ATOM     64  C   UNL A   1      44.897  26.880  34.214  1.00  0.00     0.029 A 
ATOM     65  N   UNL A   1      43.792  26.099  32.548  1.00  0.00    -0.354 N 
ATOM     66  N   UNL A   1      47.148  26.589  29.522  1.00  0.00    -0.248 NA
ATOM     67  C   UNL A   1      48.054  27.256  31.594  1.00  0.00     0.031 C 
ATOM     68  C   UNL A   1      45.671  26.988  33.060  1.00  0.00     0.029 A 
ATOM     69  C   UNL A   1      45.077  26.169  32.090  1.00  0.00     0.049 A 
ATOM     70  H   UNL A   1      43.073  25.481  32.284  1.00  0.00     0.167 HD
ATOM     71  C   UNL A   1      46.778  25.739  30.551  1.00  0.00     0.074 A 
ATOM     72  C   UNL A   1      47.689  25.975  31.648  1.00  0.00     0.031 C 
ATOM     73  C   UNL A   1      45.446  25.661  30.800  1.00  0.00     0.037 A 
BRANCH  60  74
ATOM     74  C   UNL A   1      41.871  28.184  31.950  1.00  0.00     0.058 A 
ATOM     75  C   UNL A   1      41.913  28.179  30.504  1.00  0.00     0.135 A 
ATOM     76  C   UNL A   1      40.527  28.210  32.393  1.00  0.00     0.135 A 
ATOM     77  F   UNL A   1      43.025  28.146  29.782  1.00  0.00    -0.206 F 
ATOM     78  C   UNL A   1      40.819  28.375  29.642  1.00  0.00     0.059 A 
ATOM     79  C   UNL A   1      39.405  28.351  31.545  1.00  0.00     0.059 A 
ATOM     80  F   UNL A   1      40.259  28.161  33.706  1.00  0.00    -0.206 F 
ATOM     81  C   UNL A   1      39.570  28.529  30.179  1.00  0.00     0.060 A 
BRANCH  81  82
ATOM     82  S   UNL A   1      38.211  29.088  29.129  1.00  0.00     0.124 S 
ATOM     83  O   UNL A   1      37.077  28.960  30.042  1.00  0.00    -0.237 OA
ATOM     84  O   UNL A   1      38.576  30.459  28.787  1.00  0.00    -0.237 OA
ATOM     85  O   UNL A   1      38.236  28.130  28.031  1.00  0.00    -0.744 OA
ENDBRANCH  81  82
ENDBRANCH  60  74
BRANCH  61  86
ATOM     86  C   UNL A   1      49.871  28.421  29.633  1.00  0.00     0.058 A 
ATOM     87  C   UNL A   1      50.918  28.816  30.518  1.00  0.00     0.135 A 
ATOM     88  C   UNL A   1      50.576  27.913  28.439  1.00  0.00     0.135 A 
ATOM     89  F   UNL A   1      50.632  29.600  31.569  1.00  0.00    -0.206 F 
ATOM     90  C   UNL A   1      52.366  28.529  30.320  1.00  0.00     0.059 A 
ATOM     91  C   UNL A   1      51.927  27.547  28.255  1.00  0.00     0.059 A 
ATOM     92  F   UNL A   1      50.080  27.901  27.207  1.00  0.00    -0.206 F 
ATOM     93  C   UNL A   1      52.848  27.832  29.208  1.00  0.00     0.060 A 
BRANCH  93  94
ATOM     94  S   UNL A   1      54.563  27.286  28.886  1.00  0.00     0.124 S 
ATOM     95  O   UNL A   1      54.495  26.736  27.538  1.00  0.00    -0.237 OA
ATOM     96  O   UNL A   1      55.323  28.522  29.037  1.00  0.00    -0.237 OA
ATOM     97  O   UNL A   1      54.812  26.297  29.937  1.00  0.00    -0.744 OA
ENDBRANCH  93  94
ENDBRANCH  61  86
BRANCH  73  98
ATOM     98  C   UNL A   1      44.613  25.433  29.586  1.00  0.00     0.058 A 
ATOM     99  C   UNL A   1      43.773  24.312  29.539  1.00  0.00     0.135 A 
ATOM    100  C   UNL A   1      44.691  26.211  28.429  1.00  0.00     0.135 A 
ATOM    101  F   UNL A   1      43.640  23.525  30.620  1.00  0.00    -0.206 F 
ATOM    102  C   UNL A   1      43.059  23.976  28.396  1.00  0.00     0.059 A 
ATOM    103  C   UNL A   1      43.985  25.908  27.268  1.00  0.00     0.059 A 
ATOM    104  F   UNL A   1      45.484  27.281  28.409  1.00  0.00    -0.206 F 
ATOM    105  C   UNL A   1      43.167  24.782  27.264  1.00  0.00     0.060 A 
BRANCH 105 106
ATOM    106  S   UNL A   1      42.253  24.313  25.784  1.00  0.00     0.124 S 
ATOM    107  O   UNL A   1      41.200  23.452  26.316  1.00  0.00    -0.237 OA
ATOM    108  O   UNL A   1      41.808  25.613  25.294  1.00  0.00    -0.237 OA
ATOM    109  O   UNL A   1      43.253  23.625  24.973  1.00  0.00    -0.744 OA
ENDBRANCH 105 106
ENDBRANCH  73  98
ENDBRANCH  47  48
ENDBRANCH  40  42
ENDBRANCH  39  40
ENDBRANCH  38  39
ENDBRANCH  37  38
ENDBRANCH  36  37
ENDBRANCH  35  36
ENDBRANCH   1  35
TORSDOF 25
ENDMDL
MODEL 3
REMARK VINA RESULT:     -10.9      3.158      6.000
REMARK SMILES Cc1cc(/C=C2/C(=O)NC(=S)N=C2OCCOCCOCCOCCOC(=O)c2ccc(-c3c4nc(c(-c5c(F)cc(S(=O)(=O)[O-])cc5F)c5ccc([nH]5)c(-c5c(F)cc(S(=O)(=O)[O-])cc5F)c5nc(c(-c6c(F)cc(S(=O)(=O)[O-])cc6F)c6ccc3[nH]6)C=C5)C=C4)cc2)c(C)n1-c1cccc(C(=O)[O-])c1
REMARK SMILES IDX 21 1 20 2 19 3 18 4 17 5 16 6 15 7 14 8 13 9 5 10 6 11 7 12
REMARK SMILES IDX 8 13 9 14 12 15 10 16 11 18 4 19 1 20 2 21 3 22 97 23 95 24
REMARK SMILES IDX 96 25 98 26 99 27 106 28 100 29 102 30 101 31 103 32 104 33
REMARK SMILES IDX 105 34 22 35 23 36 24 37 25 38 26 39 27 40 28 41 29 42 30 43
REMARK SMILES IDX 94 44 31 45 93 46 32 47 33 48 34 49 87 50 35 51 92 52 86 53
REMARK SMILES IDX 88 54 36 55 91 56 85 57 84 58 37 60 71 61 50 62 70 63 51 64
REMARK SMILES IDX 54 65 69 66 89 67 52 68 53 69 68 71 90 72 55 73 38 74 39 75
REMARK SMILES IDX 48 76 40 77 41 78 47 79 49 80 42 81 43 82 44 83 45 84 46 85
REMARK SMILES IDX 72 86 73 87 82 88 74 89 75 90 81 91 83 92 76 93 77 94 78 95
REMARK SMILES IDX 79 96 80 97 56 98 57 99 66 100 58 101 59 102 65 103 67 104
REMARK SMILES IDX 60 105 61 106 62 107 63 108 64 109
REMARK H PARENT 9 17 88 59 54 70
REMARK Flexibility Score: inf
ROOT
ATOM      1  C   UNL A   1      35.070  32.708  28.405  1.00  0.00     0.188 C 
ENDROOT
BRANCH   1   2
ATOM      2  O   UNL A   1      34.356  31.494  28.447  1.00  0.00    -0.377 OA
BRANCH   2   3
ATOM      3  C   UNL A   1      33.473  31.148  27.410  1.00  0.00     0.188 C 
BRANCH   3   4
ATOM      4  C   UNL A   1      32.770  29.774  27.399  1.00  0.00     0.188 C 
BRANCH   4   5
ATOM      5  O   UNL A   1      32.912  28.810  26.375  1.00  0.00    -0.376 OA
BRANCH   5   6
ATOM      6  C   UNL A   1      33.711  28.917  25.207  1.00  0.00     0.201 C 
BRANCH   6   7
ATOM      7  C   UNL A   1      33.172  28.824  23.756  1.00  0.00     0.260 C 
BRANCH   7   8
ATOM      8  O   UNL A   1      32.284  27.706  23.483  1.00  0.00    -0.475 OA
BRANCH   8   9
ATOM      9  C   UNL A   1      30.975  27.974  23.402  1.00  0.00     0.229 C 
ATOM     10  C   UNL A   1      30.199  25.780  24.669  1.00  0.00     0.029 C 
ATOM     11  C   UNL A   1      30.062  26.953  23.993  1.00  0.00     0.103 C 
ATOM     12  C   UNL A   1      28.617  27.274  23.676  1.00  0.00     0.262 C 
ATOM     13  O   UNL A   1      27.655  26.624  24.074  1.00  0.00    -0.269 OA
ATOM     14  N   UNL A   1      28.404  28.347  22.855  1.00  0.00    -0.297 N 
ATOM     15  N   UNL A   1      30.629  29.023  22.742  1.00  0.00    -0.184 NA
ATOM     16  C   UNL A   1      29.339  29.223  22.394  1.00  0.00     0.203 C 
ATOM     17  H   UNL A   1      27.475  28.503  22.567  1.00  0.00     0.172 HD
ATOM     18  S   UNL A   1      28.851  30.448  21.360  1.00  0.00    -0.038 S 
BRANCH  10  19
ATOM     19  C   UNL A   1      31.248  24.897  25.145  1.00  0.00    -0.003 A 
ATOM     20  C   UNL A   1      32.767  22.677  27.787  1.00  0.00     0.065 C 
ATOM     21  C   UNL A   1      32.317  23.466  26.610  1.00  0.00     0.020 A 
ATOM     22  C   UNL A   1      31.300  24.404  26.494  1.00  0.00     0.031 A 
ATOM     23  N   UNL A   1      32.948  23.408  25.391  1.00  0.00    -0.318 N 
ATOM     24  C   UNL A   1      32.229  24.182  24.489  1.00  0.00     0.027 A 
ATOM     25  C   UNL A   1      32.515  23.995  23.064  1.00  0.00     0.065 C 
BRANCH  23  26
ATOM     26  C   UNL A   1      34.050  22.598  24.987  1.00  0.00     0.046 A 
ATOM     27  C   UNL A   1      33.788  21.241  24.725  1.00  0.00     0.026 A 
ATOM     28  C   UNL A   1      35.360  23.035  25.232  1.00  0.00     0.036 A 
ATOM     29  C   UNL A   1      34.819  20.308  24.761  1.00  0.00     0.003 A 
ATOM     30  C   UNL A   1      36.399  22.090  25.254  1.00  0.00    -0.001 A 
ATOM     31  C   UNL A   1      36.120  20.730  25.035  1.00  0.00     0.010 A 
BRANCH  30  32
ATOM     32  C   UNL A   1      37.820  22.443  25.573  1.00  0.00     0.072 C 
ATOM     33  O   UNL A   1      38.722  21.677  25.652  1.00  0.00    -0.545 OA
ATOM     34  O   UNL A   1      37.968  23.779  25.745  1.00  0.00    -0.545 OA
ENDBRANCH  30  32
ENDBRANCH  23  26
ENDBRANCH  10  19
ENDBRANCH   8   9
ENDBRANCH   7   8
ENDBRANCH   6   7
ENDBRANCH   5   6
ENDBRANCH   4   5
ENDBRANCH   3   4
ENDBRANCH   2   3
ENDBRANCH   1   2
BRANCH   1  35
ATOM     35  C   UNL A   1      34.188  33.937  28.646  1.00  0.00     0.188 C 
BRANCH  35  36
ATOM     36  O   UNL A   1      34.629  34.912  29.569  1.00  0.00    -0.376 OA
BRANCH  36  37
ATOM     37  C   UNL A   1      33.928  35.012  30.791  1.00  0.00     0.202 C 
BRANCH  37  38
ATOM     38  C   UNL A   1      34.553  34.723  32.214  1.00  0.00     0.261 C 
BRANCH  38  39
ATOM     39  O   UNL A   1      35.559  33.717  32.715  1.00  0.00    -0.460 OA
BRANCH  39  40
ATOM     40  C   UNL A   1      36.947  33.893  32.749  1.00  0.00     0.338 C 
ATOM     41  O   UNL A   1      37.433  34.938  33.157  1.00  0.00    -0.246 OA
BRANCH  40  42
ATOM     42  C   UNL A   1      37.889  32.671  32.265  1.00  0.00     0.060 A 
ATOM     43  C   UNL A   1      38.745  31.781  33.004  1.00  0.00     0.016 A 
ATOM     44  C   UNL A   1      38.039  32.388  30.949  1.00  0.00     0.016 A 
ATOM     45  C   UNL A   1      39.681  30.592  32.435  1.00  0.00     0.010 A 
ATOM     46  C   UNL A   1      38.924  31.264  30.489  1.00  0.00     0.010 A 
ATOM     47  C   UNL A   1      39.872  30.238  31.069  1.00  0.00    -0.014 A 
BRANCH  47  48
ATOM     48  C   UNL A   1      40.241  28.529  30.337  1.00  0.00     0.031 A 
ATOM     49  C   UNL A   1      39.338  28.698  29.158  1.00  0.00     0.074 A 
ATOM     50  C   UNL A   1      41.231  27.337  30.034  1.00  0.00     0.049 A 
ATOM     51  N   UNL A   1      39.339  29.951  28.750  1.00  0.00    -0.248 NA
ATOM     52  C   UNL A   1      39.289  27.834  28.005  1.00  0.00     0.031 C 
ATOM     53  C   UNL A   1      42.627  27.055  30.528  1.00  0.00     0.029 A 
ATOM     54  N   UNL A   1      41.258  26.058  28.999  1.00  0.00    -0.354 N 
ATOM     55  C   UNL A   1      40.458  29.874  27.959  1.00  0.00     0.074 A 
ATOM     56  C   UNL A   1      39.938  28.686  27.186  1.00  0.00     0.031 C 
ATOM     57  C   UNL A   1      43.332  26.083  29.866  1.00  0.00     0.029 A 
ATOM     58  C   UNL A   1      42.613  25.345  28.777  1.00  0.00     0.049 A 
ATOM     59  H   UNL A   1      40.442  25.757  28.538  1.00  0.00     0.167 HD
ATOM     60  C   UNL A   1      41.821  30.211  28.253  1.00  0.00     0.037 A 
ATOM     61  C   UNL A   1      43.366  24.302  27.991  1.00  0.00     0.037 A 
ATOM     62  C   UNL A   1      42.573  30.202  27.027  1.00  0.00     0.049 A 
ATOM     63  C   UNL A   1      44.163  25.323  27.252  1.00  0.00     0.074 A 
ATOM     64  C   UNL A   1      42.280  29.650  25.801  1.00  0.00     0.029 A 
ATOM     65  N   UNL A   1      43.952  30.090  27.072  1.00  0.00    -0.354 N 
ATOM     66  N   UNL A   1      45.354  25.784  27.466  1.00  0.00    -0.248 NA
ATOM     67  C   UNL A   1      43.526  25.727  25.979  1.00  0.00     0.031 C 
ATOM     68  C   UNL A   1      42.890  28.457  26.185  1.00  0.00     0.029 A 
ATOM     69  C   UNL A   1      44.149  28.789  26.705  1.00  0.00     0.049 A 
ATOM     70  H   UNL A   1      44.620  30.774  27.308  1.00  0.00     0.167 HD
ATOM     71  C   UNL A   1      45.395  26.821  26.549  1.00  0.00     0.074 A 
ATOM     72  C   UNL A   1      44.508  26.467  25.464  1.00  0.00     0.031 C 
ATOM     73  C   UNL A   1      45.336  28.072  27.073  1.00  0.00     0.037 A 
BRANCH  60  74
ATOM     74  C   UNL A   1      42.735  30.765  29.613  1.00  0.00     0.058 A 
ATOM     75  C   UNL A   1      43.683  30.108  30.486  1.00  0.00     0.135 A 
ATOM     76  C   UNL A   1      42.421  32.048  30.121  1.00  0.00     0.135 A 
ATOM     77  F   UNL A   1      44.184  28.897  30.281  1.00  0.00    -0.206 F 
ATOM     78  C   UNL A   1      44.094  30.559  31.754  1.00  0.00     0.059 A 
ATOM     79  C   UNL A   1      42.863  32.549  31.367  1.00  0.00     0.059 A 
ATOM     80  F   UNL A   1      41.600  32.853  29.432  1.00  0.00    -0.206 F 
ATOM     81  C   UNL A   1      43.621  31.757  32.217  1.00  0.00     0.060 A 
BRANCH  81  82
ATOM     82  S   UNL A   1      43.879  32.207  33.947  1.00  0.00     0.124 S 
ATOM     83  O   UNL A   1      42.850  31.404  34.604  1.00  0.00    -0.237 OA
ATOM     84  O   UNL A   1      45.251  31.789  34.215  1.00  0.00    -0.237 OA
ATOM     85  O   UNL A   1      43.639  33.645  33.946  1.00  0.00    -0.744 OA
ENDBRANCH  81  82
ENDBRANCH  60  74
BRANCH  61  86
ATOM     86  C   UNL A   1      43.778  22.964  26.878  1.00  0.00     0.058 A 
ATOM     87  C   UNL A   1      42.944  21.851  26.562  1.00  0.00     0.135 A 
ATOM     88  C   UNL A   1      45.124  22.548  26.435  1.00  0.00     0.135 A 
ATOM     89  F   UNL A   1      41.720  21.769  27.104  1.00  0.00    -0.206 F 
ATOM     90  C   UNL A   1      43.355  20.670  25.752  1.00  0.00     0.059 A 
ATOM     91  C   UNL A   1      45.529  21.489  25.594  1.00  0.00     0.059 A 
ATOM     92  F   UNL A   1      46.267  22.998  26.940  1.00  0.00    -0.206 F 
ATOM     93  C   UNL A   1      44.641  20.537  25.218  1.00  0.00     0.060 A 
BRANCH  93  94
ATOM     94  S   UNL A   1      45.259  19.228  24.100  1.00  0.00     0.124 S 
ATOM     95  O   UNL A   1      46.707  19.339  24.219  1.00  0.00    -0.237 OA
ATOM     96  O   UNL A   1      44.659  18.023  24.663  1.00  0.00    -0.237 OA
ATOM     97  O   UNL A   1      44.722  19.611  22.792  1.00  0.00    -0.744 OA
ENDBRANCH  93  94
ENDBRANCH  61  86
BRANCH  73  98
ATOM     98  C   UNL A   1      46.288  28.307  28.194  1.00  0.00     0.058 A 
ATOM     99  C   UNL A   1      47.276  29.290  28.053  1.00  0.00     0.135 A 
ATOM    100  C   UNL A   1      46.333  27.530  29.355  1.00  0.00     0.135 A 
ATOM    101  F   UNL A   1      47.286  30.083  26.969  1.00  0.00    -0.206 F 
ATOM    102  C   UNL A   1      48.265  29.482  29.009  1.00  0.00     0.059 A 
ATOM    103  C   UNL A   1      47.306  27.697  30.336  1.00  0.00     0.059 A 
ATOM    104  F   UNL A   1      45.429  26.569  29.538  1.00  0.00    -0.206 F 
ATOM    105  C   UNL A   1      48.271  28.682  30.152  1.00  0.00     0.060 A 
BRANCH 105 106
ATOM    106  S   UNL A   1      49.579  28.929  31.366  1.00  0.00     0.124 S 
ATOM    107  O   UNL A   1      49.600  27.653  32.078  1.00  0.00    -0.237 OA
ATOM    108  O   UNL A   1      50.730  29.182  30.505  1.00  0.00    -0.237 OA
ATOM    109  O   UNL A   1      49.100  30.060  32.154  1.00  0.00    -0.744 OA
ENDBRANCH 105 106
ENDBRANCH  73  98
ENDBRANCH  47  48
ENDBRANCH  40  42
ENDBRANCH  39  40
ENDBRANCH  38  39
ENDBRANCH  37  38
ENDBRANCH  36  37
ENDBRANCH  35  36
ENDBRANCH   1  35
TORSDOF 25
ENDMDL
