MODEL 1
REMARK VINA RESULT:      -9.8      0.000      0.000
REMARK SMILES CC(C)CCn1nc(C(=O)OCCOCCOCCOCCOC(=O)c2ccc(-c3c4nc(c(-c5c(F)cc(S(=O)(=O)[O-])cc5F)c5ccc([nH]5)c(-c5c(F)cc(S(=O)(=O)[O-])cc5F)c5nc(c(-c6c(F)cc(S(=O)(=O)[O-])cc6F)c6ccc3[nH]6)C=C5)C=C4)cc2)c2c1CCN(C(=O)[C@@H]1CCc3nn(C)c(=O)n3C1)C2
REMARK SMILES IDX 17 1 16 2 15 3 14 4 13 5 12 6 11 7 9 8 10 9 8 10 6 11 7 12
REMARK SMILES IDX 93 13 92 14 94 15 110 16 95 17 96 18 5 19 4 20 2 21 1 22
REMARK SMILES IDX 3 23 97 24 98 25 99 26 100 27 109 28 101 29 108 30 102 31
REMARK SMILES IDX 106 32 103 33 104 34 107 35 105 36 18 37 19 38 20 39 21 40
REMARK SMILES IDX 22 41 23 42 24 43 25 44 26 45 27 46 91 47 28 48 90 49 29 50
REMARK SMILES IDX 30 51 31 52 84 53 32 54 89 55 83 56 85 57 33 58 88 59 82 60
REMARK SMILES IDX 81 61 34 63 68 64 47 65 67 66 48 67 51 68 66 69 86 70 49 71
REMARK SMILES IDX 50 72 65 74 87 75 52 76 35 77 36 78 45 79 37 80 38 81 44 82
REMARK SMILES IDX 46 83 39 84 40 85 41 86 42 87 43 88 69 89 70 90 79 91 71 92
REMARK SMILES IDX 72 93 78 94 80 95 73 96 74 97 75 98 76 99 77 100 53 101
REMARK SMILES IDX 54 102 63 103 55 104 56 105 62 106 64 107 57 108 58 109
REMARK SMILES IDX 59 110 60 111 61 112
REMARK H PARENT 85 62 51 73
REMARK Flexibility Score: inf
ROOT
ATOM      1  O   UNL A   1      39.496  21.435  25.764  1.00  0.00    -0.377 OA
ENDROOT
BRANCH   1   2
ATOM      2  C   UNL A   1      38.134  21.453  25.406  1.00  0.00     0.188 C 
BRANCH   2   3
ATOM      3  C   UNL A   1      37.332  22.758  25.608  1.00  0.00     0.188 C 
BRANCH   3   4
ATOM      4  O   UNL A   1      35.978  22.743  26.012  1.00  0.00    -0.376 OA
BRANCH   4   5
ATOM      5  C   UNL A   1      34.858  22.989  25.191  1.00  0.00     0.202 C 
BRANCH   5   6
ATOM      6  C   UNL A   1      33.421  23.231  25.659  1.00  0.00     0.261 C 
BRANCH   6   7
ATOM      7  O   UNL A   1      33.174  24.441  26.344  1.00  0.00    -0.458 OA
BRANCH   7   8
ATOM      8  C   UNL A   1      31.864  24.792  26.463  1.00  0.00     0.359 C 
ATOM      9  O   UNL A   1      31.070  24.267  27.233  1.00  0.00    -0.244 OA
BRANCH   8  10
ATOM     10  C   UNL A   1      31.570  25.938  25.602  1.00  0.00     0.175 A 
ATOM     11  N   UNL A   1      30.671  27.125  24.077  1.00  0.00    -0.268 N 
ATOM     12  N   UNL A   1      30.616  25.905  24.645  1.00  0.00    -0.165 NA
ATOM     13  C   UNL A   1      31.767  27.817  24.489  1.00  0.00     0.046 A 
ATOM     14  C   UNL A   1      32.175  27.220  25.659  1.00  0.00     0.028 A 
ATOM     15  C   UNL A   1      32.447  28.972  23.869  1.00  0.00     0.078 C 
ATOM     16  C   UNL A   1      33.175  27.809  26.604  1.00  0.00     0.159 C 
ATOM     17  C   UNL A   1      33.737  29.244  24.678  1.00  0.00     0.126 C 
ATOM     18  N   UNL A   1      33.533  29.165  26.129  1.00  0.00    -0.338 N 
BRANCH  11  19
ATOM     19  C   UNL A   1      29.618  27.543  23.170  1.00  0.00     0.145 C 
BRANCH  19  20
ATOM     20  C   UNL A   1      29.764  28.965  22.632  1.00  0.00     0.027 C 
BRANCH  20  21
ATOM     21  C   UNL A   1      28.423  29.705  22.484  1.00  0.00    -0.016 C 
ATOM     22  C   UNL A   1      28.150  30.608  23.683  1.00  0.00     0.007 C 
ATOM     23  C   UNL A   1      28.394  30.493  21.178  1.00  0.00     0.007 C 
ENDBRANCH  20  21
ENDBRANCH  19  20
ENDBRANCH  11  19
BRANCH  18  24
ATOM     24  C   UNL A   1      33.921  30.076  27.092  1.00  0.00     0.227 C 
ATOM     25  O   UNL A   1      33.051  30.680  27.735  1.00  0.00    -0.274 OA
BRANCH  24  26
ATOM     26  C   UNL A   1      35.389  30.453  27.388  1.00  0.00     0.099 C 
ATOM     27  C   UNL A   1      36.187  29.485  28.267  1.00  0.00     0.023 C 
ATOM     28  C   UNL A   1      35.667  31.905  27.737  1.00  0.00     0.142 C 
ATOM     29  C   UNL A   1      36.147  29.766  29.763  1.00  0.00     0.078 C 
ATOM     30  N   UNL A   1      35.724  32.128  29.159  1.00  0.00    -0.278 N 
ATOM     31  C   UNL A   1      35.899  31.201  30.120  1.00  0.00     0.133 A 
ATOM     32  C   UNL A   1      35.428  33.303  29.798  1.00  0.00     0.345 A 
ATOM     33  N   UNL A   1      35.717  31.638  31.334  1.00  0.00    -0.155 NA
ATOM     34  N   UNL A   1      35.408  32.972  31.154  1.00  0.00    -0.216 N 
ATOM     35  O   UNL A   1      35.160  34.378  29.287  1.00  0.00    -0.246 OA
ATOM     36  C   UNL A   1      35.007  33.841  32.225  1.00  0.00     0.179 C 
ENDBRANCH  24  26
ENDBRANCH  18  24
ENDBRANCH   8  10
ENDBRANCH   7   8
ENDBRANCH   6   7
ENDBRANCH   5   6
ENDBRANCH   4   5
ENDBRANCH   3   4
ENDBRANCH   2   3
ENDBRANCH   1   2
BRANCH   1  37
ATOM     37  C   UNL A   1      40.101  20.240  26.243  1.00  0.00     0.188 C 
BRANCH  37  38
ATOM     38  C   UNL A   1      41.632  20.038  26.380  1.00  0.00     0.188 C 
BRANCH  38  39
ATOM     39  O   UNL A   1      42.268  19.387  25.298  1.00  0.00    -0.376 OA
BRANCH  39  40
ATOM     40  C   UNL A   1      43.544  18.789  25.390  1.00  0.00     0.202 C 
BRANCH  40  41
ATOM     41  C   UNL A   1      44.689  19.351  24.556  1.00  0.00     0.261 C 
BRANCH  41  42
ATOM     42  O   UNL A   1      45.144  20.614  24.991  1.00  0.00    -0.460 OA
BRANCH  42  43
ATOM     43  C   UNL A   1      44.632  21.647  24.292  1.00  0.00     0.338 C 
ATOM     44  O   UNL A   1      44.442  21.707  23.095  1.00  0.00    -0.246 OA
BRANCH  43  45
ATOM     45  C   UNL A   1      44.442  22.753  25.229  1.00  0.00     0.060 A 
ATOM     46  C   UNL A   1      44.221  24.012  24.671  1.00  0.00     0.016 A 
ATOM     47  C   UNL A   1      44.841  22.566  26.560  1.00  0.00     0.016 A 
ATOM     48  C   UNL A   1      44.670  25.101  25.377  1.00  0.00     0.010 A 
ATOM     49  C   UNL A   1      45.307  23.649  27.251  1.00  0.00     0.010 A 
ATOM     50  C   UNL A   1      45.311  24.877  26.601  1.00  0.00    -0.014 A 
BRANCH  50  51
ATOM     51  C   UNL A   1      45.956  25.992  27.247  1.00  0.00     0.031 A 
ATOM     52  C   UNL A   1      47.409  25.981  27.011  1.00  0.00     0.074 A 
ATOM     53  C   UNL A   1      45.246  26.945  27.879  1.00  0.00     0.049 A 
ATOM     54  N   UNL A   1      48.329  25.628  27.843  1.00  0.00    -0.248 NA
ATOM     55  C   UNL A   1      47.878  26.129  25.623  1.00  0.00     0.031 C 
ATOM     56  C   UNL A   1      43.788  27.115  27.909  1.00  0.00     0.029 A 
ATOM     57  N   UNL A   1      45.692  28.029  28.568  1.00  0.00    -0.354 N 
ATOM     58  C   UNL A   1      49.518  25.806  27.149  1.00  0.00     0.074 A 
ATOM     59  C   UNL A   1      49.173  25.841  25.754  1.00  0.00     0.031 C 
ATOM     60  C   UNL A   1      43.489  28.346  28.385  1.00  0.00     0.029 A 
ATOM     61  C   UNL A   1      44.716  28.987  28.823  1.00  0.00     0.049 A 
ATOM     62  H   UNL A   1      46.627  28.127  28.862  1.00  0.00     0.167 HD
ATOM     63  C   UNL A   1      50.616  26.284  27.793  1.00  0.00     0.037 A 
ATOM     64  C   UNL A   1      44.931  30.232  29.317  1.00  0.00     0.037 A 
ATOM     65  C   UNL A   1      50.449  26.193  29.223  1.00  0.00     0.049 A 
ATOM     66  C   UNL A   1      46.237  30.192  30.022  1.00  0.00     0.074 A 
ATOM     67  C   UNL A   1      50.404  25.178  30.153  1.00  0.00     0.029 A 
ATOM     68  N   UNL A   1      49.865  27.297  29.792  1.00  0.00    -0.354 N 
ATOM     69  N   UNL A   1      46.447  29.472  31.093  1.00  0.00    -0.248 NA
ATOM     70  C   UNL A   1      47.442  30.614  29.317  1.00  0.00     0.031 C 
ATOM     71  C   UNL A   1      49.570  25.650  31.210  1.00  0.00     0.029 A 
ATOM     72  C   UNL A   1      49.166  26.954  30.918  1.00  0.00     0.049 A 
ATOM     73  H   UNL A   1      49.939  28.213  29.437  1.00  0.00     0.167 HD
ATOM     74  C   UNL A   1      47.744  29.007  30.957  1.00  0.00     0.074 A 
ATOM     75  C   UNL A   1      48.352  29.865  29.947  1.00  0.00     0.031 C 
ATOM     76  C   UNL A   1      48.099  27.782  31.447  1.00  0.00     0.037 A 
BRANCH  63  77
ATOM     77  C   UNL A   1      51.576  27.278  27.178  1.00  0.00     0.058 A 
ATOM     78  C   UNL A   1      51.079  28.519  26.734  1.00  0.00     0.135 A 
ATOM     79  C   UNL A   1      52.884  26.956  26.743  1.00  0.00     0.135 A 
ATOM     80  F   UNL A   1      49.842  28.916  27.068  1.00  0.00    -0.206 F 
ATOM     81  C   UNL A   1      51.807  29.350  25.880  1.00  0.00     0.059 A 
ATOM     82  C   UNL A   1      53.645  27.794  25.941  1.00  0.00     0.059 A 
ATOM     83  F   UNL A   1      53.455  25.771  26.981  1.00  0.00    -0.206 F 
ATOM     84  C   UNL A   1      53.086  28.972  25.482  1.00  0.00     0.060 A 
BRANCH  84  85
ATOM     85  S   UNL A   1      54.001  29.997  24.320  1.00  0.00     0.124 S 
ATOM     86  O   UNL A   1      55.257  30.199  25.035  1.00  0.00    -0.237 OA
ATOM     87  O   UNL A   1      54.062  29.136  23.144  1.00  0.00    -0.237 OA
ATOM     88  O   UNL A   1      53.157  31.181  24.180  1.00  0.00    -0.744 OA
ENDBRANCH  84  85
ENDBRANCH  63  77
BRANCH  64  89
ATOM     89  C   UNL A   1      44.242  31.495  28.943  1.00  0.00     0.058 A 
ATOM     90  C   UNL A   1      43.542  32.271  29.886  1.00  0.00     0.135 A 
ATOM     91  C   UNL A   1      44.489  32.107  27.698  1.00  0.00     0.135 A 
ATOM     92  F   UNL A   1      43.292  31.781  31.109  1.00  0.00    -0.206 F 
ATOM     93  C   UNL A   1      43.137  33.586  29.618  1.00  0.00     0.059 A 
ATOM     94  C   UNL A   1      44.093  33.413  27.407  1.00  0.00     0.059 A 
ATOM     95  F   UNL A   1      45.206  31.481  26.753  1.00  0.00    -0.206 F 
ATOM     96  C   UNL A   1      43.432  34.155  28.378  1.00  0.00     0.060 A 
BRANCH  96  97
ATOM     97  S   UNL A   1      43.036  35.894  28.072  1.00  0.00     0.124 S 
ATOM     98  O   UNL A   1      43.775  36.161  26.843  1.00  0.00    -0.237 OA
ATOM     99  O   UNL A   1      41.583  35.864  27.948  1.00  0.00    -0.237 OA
ATOM    100  O   UNL A   1      43.543  36.573  29.263  1.00  0.00    -0.744 OA
ENDBRANCH  96  97
ENDBRANCH  64  89
BRANCH  76 101
ATOM    101  C   UNL A   1      47.220  27.180  32.508  1.00  0.00     0.058 A 
ATOM    102  C   UNL A   1      47.231  27.549  33.864  1.00  0.00     0.135 A 
ATOM    103  C   UNL A   1      46.240  26.263  32.100  1.00  0.00     0.135 A 
ATOM    104  F   UNL A   1      48.082  28.481  34.316  1.00  0.00    -0.206 F 
ATOM    105  C   UNL A   1      46.326  27.007  34.780  1.00  0.00     0.059 A 
ATOM    106  C   UNL A   1      45.309  25.733  32.988  1.00  0.00     0.059 A 
ATOM    107  F   UNL A   1      46.147  25.913  30.807  1.00  0.00    -0.206 F 
ATOM    108  C   UNL A   1      45.365  26.101  34.330  1.00  0.00     0.060 A 
BRANCH 108 109
ATOM    109  S   UNL A   1      44.141  25.461  35.494  1.00  0.00     0.124 S 
ATOM    110  O   UNL A   1      44.565  24.076  35.655  1.00  0.00    -0.237 OA
ATOM    111  O   UNL A   1      44.328  26.324  36.657  1.00  0.00    -0.237 OA
ATOM    112  O   UNL A   1      42.873  25.647  34.791  1.00  0.00    -0.744 OA
ENDBRANCH 108 109
ENDBRANCH  76 101
ENDBRANCH  50  51
ENDBRANCH  43  45
ENDBRANCH  42  43
ENDBRANCH  41  42
ENDBRANCH  40  41
ENDBRANCH  39  40
ENDBRANCH  38  39
ENDBRANCH  37  38
ENDBRANCH   1  37
TORSDOF 28
ENDMDL
MODEL 2
REMARK VINA RESULT:      -9.5      3.343      8.335
REMARK SMILES CC(C)CCn1nc(C(=O)OCCOCCOCCOCCOC(=O)c2ccc(-c3c4nc(c(-c5c(F)cc(S(=O)(=O)[O-])cc5F)c5ccc([nH]5)c(-c5c(F)cc(S(=O)(=O)[O-])cc5F)c5nc(c(-c6c(F)cc(S(=O)(=O)[O-])cc6F)c6ccc3[nH]6)C=C5)C=C4)cc2)c2c1CCN(C(=O)[C@@H]1CCc3nn(C)c(=O)n3C1)C2
REMARK SMILES IDX 17 1 16 2 15 3 14 4 13 5 12 6 11 7 9 8 10 9 8 10 6 11 7 12
REMARK SMILES IDX 93 13 92 14 94 15 110 16 95 17 96 18 5 19 4 20 2 21 1 22
REMARK SMILES IDX 3 23 97 24 98 25 99 26 100 27 109 28 101 29 108 30 102 31
REMARK SMILES IDX 106 32 103 33 104 34 107 35 105 36 18 37 19 38 20 39 21 40
REMARK SMILES IDX 22 41 23 42 24 43 25 44 26 45 27 46 91 47 28 48 90 49 29 50
REMARK SMILES IDX 30 51 31 52 84 53 32 54 89 55 83 56 85 57 33 58 88 59 82 60
REMARK SMILES IDX 81 61 34 63 68 64 47 65 67 66 48 67 51 68 66 69 86 70 49 71
REMARK SMILES IDX 50 72 65 74 87 75 52 76 35 77 36 78 45 79 37 80 38 81 44 82
REMARK SMILES IDX 46 83 39 84 40 85 41 86 42 87 43 88 69 89 70 90 79 91 71 92
REMARK SMILES IDX 72 93 78 94 80 95 73 96 74 97 75 98 76 99 77 100 53 101
REMARK SMILES IDX 54 102 63 103 55 104 56 105 62 106 64 107 57 108 58 109
REMARK SMILES IDX 59 110 60 111 61 112
REMARK H PARENT 85 62 51 73
REMARK Flexibility Score: inf
ROOT
ATOM      1  O   UNL A   1      38.070  22.250  25.775  1.00  0.00    -0.377 OA
ENDROOT
BRANCH   1   2
ATOM      2  C   UNL A   1      37.067  22.239  24.785  1.00  0.00     0.188 C 
BRANCH   2   3
ATOM      3  C   UNL A   1      35.600  22.463  25.216  1.00  0.00     0.188 C 
BRANCH   3   4
ATOM      4  O   UNL A   1      34.531  22.352  24.300  1.00  0.00    -0.376 OA
BRANCH   4   5
ATOM      5  C   UNL A   1      33.618  23.369  23.952  1.00  0.00     0.202 C 
BRANCH   5   6
ATOM      6  C   UNL A   1      32.152  23.464  24.382  1.00  0.00     0.261 C 
BRANCH   6   7
ATOM      7  O   UNL A   1      31.898  24.072  25.631  1.00  0.00    -0.458 OA
BRANCH   7   8
ATOM      8  C   UNL A   1      30.781  24.848  25.689  1.00  0.00     0.359 C 
ATOM      9  O   UNL A   1      29.761  24.557  26.302  1.00  0.00    -0.244 OA
BRANCH   8  10
ATOM     10  C   UNL A   1      31.008  26.112  24.986  1.00  0.00     0.175 A 
ATOM     11  N   UNL A   1      30.796  27.685  23.564  1.00  0.00    -0.268 N 
ATOM     12  N   UNL A   1      30.266  26.499  23.925  1.00  0.00    -0.165 NA
ATOM     13  C   UNL A   1      31.967  27.925  24.211  1.00  0.00     0.046 A 
ATOM     14  C   UNL A   1      31.966  27.105  25.316  1.00  0.00     0.028 A 
ATOM     15  C   UNL A   1      33.068  28.847  23.867  1.00  0.00     0.078 C 
ATOM     16  C   UNL A   1      32.926  27.225  26.457  1.00  0.00     0.159 C 
ATOM     17  C   UNL A   1      34.223  28.587  24.862  1.00  0.00     0.126 C 
ATOM     18  N   UNL A   1      33.765  28.427  26.247  1.00  0.00    -0.338 N 
BRANCH  11  19
ATOM     19  C   UNL A   1      30.094  28.522  22.609  1.00  0.00     0.145 C 
BRANCH  19  20
ATOM     20  C   UNL A   1      29.487  29.794  23.199  1.00  0.00     0.027 C 
BRANCH  20  21
ATOM     21  C   UNL A   1      28.032  30.038  22.760  1.00  0.00    -0.016 C 
ATOM     22  C   UNL A   1      27.949  30.397  21.279  1.00  0.00     0.007 C 
ATOM     23  C   UNL A   1      27.169  28.821  23.084  1.00  0.00     0.007 C 
ENDBRANCH  20  21
ENDBRANCH  19  20
ENDBRANCH  11  19
BRANCH  18  24
ATOM     24  C   UNL A   1      34.251  29.049  27.380  1.00  0.00     0.227 C 
ATOM     25  O   UNL A   1      33.643  28.908  28.451  1.00  0.00    -0.274 OA
BRANCH  24  26
ATOM     26  C   UNL A   1      35.483  29.979  27.398  1.00  0.00     0.099 C 
ATOM     27  C   UNL A   1      36.688  29.513  28.222  1.00  0.00     0.023 C 
ATOM     28  C   UNL A   1      35.218  31.466  27.561  1.00  0.00     0.142 C 
ATOM     29  C   UNL A   1      36.715  29.977  29.671  1.00  0.00     0.078 C 
ATOM     30  N   UNL A   1      35.347  31.900  28.929  1.00  0.00    -0.278 N 
ATOM     31  C   UNL A   1      35.975  31.256  29.930  1.00  0.00     0.133 A 
ATOM     32  C   UNL A   1      34.696  32.964  29.495  1.00  0.00     0.345 A 
ATOM     33  N   UNL A   1      35.779  31.768  31.112  1.00  0.00    -0.155 NA
ATOM     34  N   UNL A   1      34.962  32.853  30.862  1.00  0.00    -0.216 N 
ATOM     35  O   UNL A   1      33.978  33.778  28.937  1.00  0.00    -0.246 OA
ATOM     36  C   UNL A   1      34.383  33.661  31.899  1.00  0.00     0.179 C 
ENDBRANCH  24  26
ENDBRANCH  18  24
ENDBRANCH   8  10
ENDBRANCH   7   8
ENDBRANCH   6   7
ENDBRANCH   5   6
ENDBRANCH   4   5
ENDBRANCH   3   4
ENDBRANCH   2   3
ENDBRANCH   1   2
BRANCH   1  37
ATOM     37  C   UNL A   1      39.041  21.212  25.829  1.00  0.00     0.188 C 
BRANCH  37  38
ATOM     38  C   UNL A   1      40.426  21.355  26.512  1.00  0.00     0.188 C 
BRANCH  38  39
ATOM     39  O   UNL A   1      41.550  21.221  25.666  1.00  0.00    -0.376 OA
BRANCH  39  40
ATOM     40  C   UNL A   1      42.811  20.767  26.111  1.00  0.00     0.202 C 
BRANCH  40  41
ATOM     41  C   UNL A   1      44.070  21.456  25.600  1.00  0.00     0.261 C 
BRANCH  41  42
ATOM     42  O   UNL A   1      44.365  22.667  26.261  1.00  0.00    -0.460 OA
BRANCH  42  43
ATOM     43  C   UNL A   1      44.123  23.766  25.519  1.00  0.00     0.338 C 
ATOM     44  O   UNL A   1      44.449  23.966  24.367  1.00  0.00    -0.246 OA
BRANCH  43  45
ATOM     45  C   UNL A   1      43.479  24.747  26.390  1.00  0.00     0.060 A 
ATOM     46  C   UNL A   1      43.872  26.075  26.233  1.00  0.00     0.016 A 
ATOM     47  C   UNL A   1      42.812  24.278  27.531  1.00  0.00     0.016 A 
ATOM     48  C   UNL A   1      43.839  26.878  27.346  1.00  0.00     0.010 A 
ATOM     49  C   UNL A   1      42.800  25.072  28.643  1.00  0.00     0.010 A 
ATOM     50  C   UNL A   1      43.413  26.316  28.555  1.00  0.00    -0.014 A 
BRANCH  50  51
ATOM     51  C   UNL A   1      43.563  27.093  29.759  1.00  0.00     0.031 A 
ATOM     52  C   UNL A   1      42.462  28.058  29.913  1.00  0.00     0.074 A 
ATOM     53  C   UNL A   1      44.548  26.841  30.640  1.00  0.00     0.049 A 
ATOM     54  N   UNL A   1      42.508  29.330  29.700  1.00  0.00    -0.248 NA
ATOM     55  C   UNL A   1      41.099  27.524  30.071  1.00  0.00     0.031 C 
ATOM     56  C   UNL A   1      45.500  25.723  30.636  1.00  0.00     0.029 A 
ATOM     57  N   UNL A   1      44.855  27.496  31.791  1.00  0.00    -0.354 N 
ATOM     58  C   UNL A   1      41.230  29.782  29.996  1.00  0.00     0.074 A 
ATOM     59  C   UNL A   1      40.369  28.632  29.944  1.00  0.00     0.031 C 
ATOM     60  C   UNL A   1      46.119  25.656  31.837  1.00  0.00     0.029 A 
ATOM     61  C   UNL A   1      45.717  26.802  32.634  1.00  0.00     0.049 A 
ATOM     62  H   UNL A   1      44.497  28.388  32.010  1.00  0.00     0.167 HD
ATOM     63  C   UNL A   1      41.059  30.977  30.622  1.00  0.00     0.037 A 
ATOM     64  C   UNL A   1      46.027  27.138  33.911  1.00  0.00     0.037 A 
ATOM     65  C   UNL A   1      42.267  31.763  30.558  1.00  0.00     0.049 A 
ATOM     66  C   UNL A   1      45.746  28.589  34.050  1.00  0.00     0.074 A 
ATOM     67  C   UNL A   1      42.964  32.431  29.576  1.00  0.00     0.029 A 
ATOM     68  N   UNL A   1      43.132  31.551  31.603  1.00  0.00    -0.354 N 
ATOM     69  N   UNL A   1      46.406  29.509  33.395  1.00  0.00    -0.248 NA
ATOM     70  C   UNL A   1      44.461  29.019  34.590  1.00  0.00     0.031 C 
ATOM     71  C   UNL A   1      44.332  32.408  29.980  1.00  0.00     0.029 A 
ATOM     72  C   UNL A   1      44.427  31.766  31.215  1.00  0.00     0.049 A 
ATOM     73  H   UNL A   1      42.857  31.280  32.509  1.00  0.00     0.167 HD
ATOM     74  C   UNL A   1      45.459  30.470  33.085  1.00  0.00     0.074 A 
ATOM     75  C   UNL A   1      44.336  30.200  33.975  1.00  0.00     0.031 C 
ATOM     76  C   UNL A   1      45.552  31.189  31.927  1.00  0.00     0.037 A 
BRANCH  63  77
ATOM     77  C   UNL A   1      40.028  31.213  31.704  1.00  0.00     0.058 A 
ATOM     78  C   UNL A   1      39.190  32.341  31.612  1.00  0.00     0.135 A 
ATOM     79  C   UNL A   1      40.026  30.554  32.957  1.00  0.00     0.135 A 
ATOM     80  F   UNL A   1      39.132  33.055  30.477  1.00  0.00    -0.206 F 
ATOM     81  C   UNL A   1      38.449  32.809  32.698  1.00  0.00     0.059 A 
ATOM     82  C   UNL A   1      39.252  30.970  34.031  1.00  0.00     0.059 A 
ATOM     83  F   UNL A   1      40.847  29.539  33.243  1.00  0.00    -0.206 F 
ATOM     84  C   UNL A   1      38.495  32.119  33.907  1.00  0.00     0.060 A 
BRANCH  84  85
ATOM     85  S   UNL A   1      37.606  32.757  35.335  1.00  0.00     0.124 S 
ATOM     86  O   UNL A   1      37.738  31.652  36.278  1.00  0.00    -0.237 OA
ATOM     87  O   UNL A   1      38.365  33.963  35.647  1.00  0.00    -0.237 OA
ATOM     88  O   UNL A   1      36.260  32.988  34.817  1.00  0.00    -0.744 OA
ENDBRANCH  84  85
ENDBRANCH  63  77
BRANCH  64  89
ATOM     89  C   UNL A   1      46.236  26.231  35.070  1.00  0.00     0.058 A 
ATOM     90  C   UNL A   1      47.405  26.276  35.851  1.00  0.00     0.135 A 
ATOM     91  C   UNL A   1      45.165  25.483  35.600  1.00  0.00     0.135 A 
ATOM     92  F   UNL A   1      48.463  26.991  35.440  1.00  0.00    -0.206 F 
ATOM     93  C   UNL A   1      47.497  25.639  37.097  1.00  0.00     0.059 A 
ATOM     94  C   UNL A   1      45.233  24.838  36.835  1.00  0.00     0.059 A 
ATOM     95  F   UNL A   1      43.983  25.430  34.968  1.00  0.00    -0.206 F 
ATOM     96  C   UNL A   1      46.397  24.934  37.588  1.00  0.00     0.060 A 
BRANCH  96  97
ATOM     97  S   UNL A   1      46.457  24.225  39.252  1.00  0.00     0.124 S 
ATOM     98  O   UNL A   1      46.925  22.869  38.987  1.00  0.00    -0.237 OA
ATOM     99  O   UNL A   1      47.403  25.105  39.930  1.00  0.00    -0.237 OA
ATOM    100  O   UNL A   1      45.074  24.327  39.715  1.00  0.00    -0.744 OA
ENDBRANCH  96  97
ENDBRANCH  64  89
BRANCH  76 101
ATOM    101  C   UNL A   1      46.897  31.254  31.259  1.00  0.00     0.058 A 
ATOM    102  C   UNL A   1      47.327  30.395  30.233  1.00  0.00     0.135 A 
ATOM    103  C   UNL A   1      47.747  32.315  31.605  1.00  0.00     0.135 A 
ATOM    104  F   UNL A   1      46.537  29.407  29.789  1.00  0.00    -0.206 F 
ATOM    105  C   UNL A   1      48.559  30.567  29.599  1.00  0.00     0.059 A 
ATOM    106  C   UNL A   1      48.965  32.525  30.967  1.00  0.00     0.059 A 
ATOM    107  F   UNL A   1      47.367  33.200  32.542  1.00  0.00    -0.206 F 
ATOM    108  C   UNL A   1      49.371  31.639  29.971  1.00  0.00     0.060 A 
BRANCH 108 109
ATOM    109  S   UNL A   1      50.927  31.915  29.098  1.00  0.00     0.124 S 
ATOM    110  O   UNL A   1      51.614  30.642  29.285  1.00  0.00    -0.237 OA
ATOM    111  O   UNL A   1      50.480  32.202  27.737  1.00  0.00    -0.237 OA
ATOM    112  O   UNL A   1      51.517  33.051  29.802  1.00  0.00    -0.744 OA
ENDBRANCH 108 109
ENDBRANCH  76 101
ENDBRANCH  50  51
ENDBRANCH  43  45
ENDBRANCH  42  43
ENDBRANCH  41  42
ENDBRANCH  40  41
ENDBRANCH  39  40
ENDBRANCH  38  39
ENDBRANCH  37  38
ENDBRANCH   1  37
TORSDOF 28
ENDMDL
MODEL 3
REMARK VINA RESULT:      -8.7      2.942      4.991
REMARK SMILES CC(C)CCn1nc(C(=O)OCCOCCOCCOCCOC(=O)c2ccc(-c3c4nc(c(-c5c(F)cc(S(=O)(=O)[O-])cc5F)c5ccc([nH]5)c(-c5c(F)cc(S(=O)(=O)[O-])cc5F)c5nc(c(-c6c(F)cc(S(=O)(=O)[O-])cc6F)c6ccc3[nH]6)C=C5)C=C4)cc2)c2c1CCN(C(=O)[C@@H]1CCc3nn(C)c(=O)n3C1)C2
REMARK SMILES IDX 17 1 16 2 15 3 14 4 13 5 12 6 11 7 9 8 10 9 8 10 6 11 7 12
REMARK SMILES IDX 93 13 92 14 94 15 110 16 95 17 96 18 5 19 4 20 2 21 1 22
REMARK SMILES IDX 3 23 97 24 98 25 99 26 100 27 109 28 101 29 108 30 102 31
REMARK SMILES IDX 106 32 103 33 104 34 107 35 105 36 18 37 19 38 20 39 21 40
REMARK SMILES IDX 22 41 23 42 24 43 25 44 26 45 27 46 91 47 28 48 90 49 29 50
REMARK SMILES IDX 30 51 31 52 84 53 32 54 89 55 83 56 85 57 33 58 88 59 82 60
REMARK SMILES IDX 81 61 34 63 68 64 47 65 67 66 48 67 51 68 66 69 86 70 49 71
REMARK SMILES IDX 50 72 65 74 87 75 52 76 35 77 36 78 45 79 37 80 38 81 44 82
REMARK SMILES IDX 46 83 39 84 40 85 41 86 42 87 43 88 69 89 70 90 79 91 71 92
REMARK SMILES IDX 72 93 78 94 80 95 73 96 74 97 75 98 76 99 77 100 53 101
REMARK SMILES IDX 54 102 63 103 55 104 56 105 62 106 64 107 57 108 58 109
REMARK SMILES IDX 59 110 60 111 61 112
REMARK H PARENT 85 62 51 73
REMARK Flexibility Score: inf
ROOT
ATOM      1  O   UNL A   1      40.550  22.767  27.408  1.00  0.00    -0.377 OA
ENDROOT
BRANCH   1   2
ATOM      2  C   UNL A   1      39.988  23.519  26.357  1.00  0.00     0.188 C 
BRANCH   2   3
ATOM      3  C   UNL A   1      38.539  24.034  26.509  1.00  0.00     0.188 C 
BRANCH   3   4
ATOM      4  O   UNL A   1      37.586  23.885  25.477  1.00  0.00    -0.376 OA
BRANCH   4   5
ATOM      5  C   UNL A   1      36.194  23.722  25.640  1.00  0.00     0.202 C 
BRANCH   5   6
ATOM      6  C   UNL A   1      35.490  22.569  26.359  1.00  0.00     0.261 C 
BRANCH   6   7
ATOM      7  O   UNL A   1      34.653  22.917  27.442  1.00  0.00    -0.458 OA
BRANCH   7   8
ATOM      8  C   UNL A   1      33.360  22.502  27.342  1.00  0.00     0.359 C 
ATOM      9  O   UNL A   1      32.553  22.509  28.263  1.00  0.00    -0.244 OA
BRANCH   8  10
ATOM     10  C   UNL A   1      33.057  22.128  25.959  1.00  0.00     0.175 A 
ATOM     11  N   UNL A   1      32.896  20.959  24.185  1.00  0.00    -0.268 N 
ATOM     12  N   UNL A   1      33.285  20.888  25.473  1.00  0.00    -0.165 NA
ATOM     13  C   UNL A   1      32.659  22.244  23.807  1.00  0.00     0.046 A 
ATOM     14  C   UNL A   1      32.463  22.952  24.970  1.00  0.00     0.028 A 
ATOM     15  C   UNL A   1      32.611  22.841  22.457  1.00  0.00     0.078 C 
ATOM     16  C   UNL A   1      31.908  24.341  25.029  1.00  0.00     0.159 C 
ATOM     17  C   UNL A   1      32.470  24.371  22.627  1.00  0.00     0.126 C 
ATOM     18  N   UNL A   1      31.502  24.747  23.664  1.00  0.00    -0.338 N 
BRANCH  11  19
ATOM     19  C   UNL A   1      32.762  19.741  23.408  1.00  0.00     0.145 C 
BRANCH  19  20
ATOM     20  C   UNL A   1      32.352  18.510  24.215  1.00  0.00     0.027 C 
BRANCH  20  21
ATOM     21  C   UNL A   1      33.525  17.560  24.519  1.00  0.00    -0.016 C 
ATOM     22  C   UNL A   1      33.194  16.621  25.675  1.00  0.00     0.007 C 
ATOM     23  C   UNL A   1      33.914  16.780  23.266  1.00  0.00     0.007 C 
ENDBRANCH  20  21
ENDBRANCH  19  20
ENDBRANCH  11  19
BRANCH  18  24
ATOM     24  C   UNL A   1      30.470  25.660  23.572  1.00  0.00     0.227 C 
ATOM     25  O   UNL A   1      29.303  25.266  23.711  1.00  0.00    -0.274 OA
BRANCH  24  26
ATOM     26  C   UNL A   1      30.662  27.155  23.237  1.00  0.00     0.099 C 
ATOM     27  C   UNL A   1      31.726  27.497  22.189  1.00  0.00     0.023 C 
ATOM     28  C   UNL A   1      30.678  28.124  24.407  1.00  0.00     0.142 C 
ATOM     29  C   UNL A   1      33.122  27.767  22.730  1.00  0.00     0.078 C 
ATOM     30  N   UNL A   1      32.016  28.442  24.838  1.00  0.00    -0.278 N 
ATOM     31  C   UNL A   1      33.156  28.269  24.144  1.00  0.00     0.133 A 
ATOM     32  C   UNL A   1      32.381  28.811  26.105  1.00  0.00     0.345 A 
ATOM     33  N   UNL A   1      34.245  28.455  24.835  1.00  0.00    -0.155 NA
ATOM     34  N   UNL A   1      33.777  28.795  26.089  1.00  0.00    -0.216 N 
ATOM     35  O   UNL A   1      31.648  29.026  27.057  1.00  0.00    -0.246 OA
ATOM     36  C   UNL A   1      34.634  28.977  27.228  1.00  0.00     0.179 C 
ENDBRANCH  24  26
ENDBRANCH  18  24
ENDBRANCH   8  10
ENDBRANCH   7   8
ENDBRANCH   6   7
ENDBRANCH   5   6
ENDBRANCH   4   5
ENDBRANCH   3   4
ENDBRANCH   2   3
ENDBRANCH   1   2
BRANCH   1  37
ATOM     37  C   UNL A   1      40.519  21.345  27.374  1.00  0.00     0.188 C 
BRANCH  37  38
ATOM     38  C   UNL A   1      41.780  20.455  27.227  1.00  0.00     0.188 C 
BRANCH  38  39
ATOM     39  O   UNL A   1      42.417  20.489  25.965  1.00  0.00    -0.376 OA
BRANCH  39  40
ATOM     40  C   UNL A   1      43.477  19.628  25.603  1.00  0.00     0.202 C 
BRANCH  40  41
ATOM     41  C   UNL A   1      44.699  20.209  24.904  1.00  0.00     0.261 C 
BRANCH  41  42
ATOM     42  O   UNL A   1      45.240  21.341  25.549  1.00  0.00    -0.460 OA
BRANCH  42  43
ATOM     43  C   UNL A   1      45.249  22.452  24.785  1.00  0.00     0.338 C 
ATOM     44  O   UNL A   1      45.509  22.532  23.602  1.00  0.00    -0.246 OA
BRANCH  43  45
ATOM     45  C   UNL A   1      44.993  23.589  25.667  1.00  0.00     0.060 A 
ATOM     46  C   UNL A   1      45.158  24.857  25.113  1.00  0.00     0.016 A 
ATOM     47  C   UNL A   1      44.960  23.356  27.050  1.00  0.00     0.016 A 
ATOM     48  C   UNL A   1      45.567  25.863  25.954  1.00  0.00     0.010 A 
ATOM     49  C   UNL A   1      45.389  24.352  27.880  1.00  0.00     0.010 A 
ATOM     50  C   UNL A   1      45.787  25.551  27.300  1.00  0.00    -0.014 A 
BRANCH  50  51
ATOM     51  C   UNL A   1      46.403  26.547  28.140  1.00  0.00     0.031 A 
ATOM     52  C   UNL A   1      47.707  26.089  28.645  1.00  0.00     0.074 A 
ATOM     53  C   UNL A   1      45.850  27.763  28.310  1.00  0.00     0.049 A 
ATOM     54  N   UNL A   1      47.975  25.664  29.833  1.00  0.00    -0.248 NA
ATOM     55  C   UNL A   1      48.772  25.831  27.660  1.00  0.00     0.031 C 
ATOM     56  C   UNL A   1      44.688  28.332  27.616  1.00  0.00     0.029 A 
ATOM     57  N   UNL A   1      46.272  28.793  29.090  1.00  0.00    -0.354 N 
ATOM     58  C   UNL A   1      49.331  25.369  29.804  1.00  0.00     0.074 A 
ATOM     59  C   UNL A   1      49.686  25.227  28.419  1.00  0.00     0.031 C 
ATOM     60  C   UNL A   1      44.639  29.664  27.842  1.00  0.00     0.029 A 
ATOM     61  C   UNL A   1      45.671  30.014  28.802  1.00  0.00     0.049 A 
ATOM     62  H   UNL A   1      46.946  28.683  29.801  1.00  0.00     0.167 HD
ATOM     63  C   UNL A   1      50.109  25.640  30.886  1.00  0.00     0.037 A 
ATOM     64  C   UNL A   1      46.043  31.222  29.294  1.00  0.00     0.037 A 
ATOM     65  C   UNL A   1      49.295  25.876  32.053  1.00  0.00     0.049 A 
ATOM     66  C   UNL A   1      46.792  30.960  30.548  1.00  0.00     0.074 A 
ATOM     67  C   UNL A   1      48.498  25.112  32.877  1.00  0.00     0.029 A 
ATOM     68  N   UNL A   1      48.926  27.187  32.224  1.00  0.00    -0.354 N 
ATOM     69  N   UNL A   1      46.242  30.430  31.610  1.00  0.00    -0.248 NA
ATOM     70  C   UNL A   1      48.248  30.888  30.508  1.00  0.00     0.031 C 
ATOM     71  C   UNL A   1      47.491  25.992  33.374  1.00  0.00     0.029 A 
ATOM     72  C   UNL A   1      47.725  27.274  32.876  1.00  0.00     0.049 A 
ATOM     73  H   UNL A   1      49.454  27.960  31.919  1.00  0.00     0.167 HD
ATOM     74  C   UNL A   1      47.220  29.608  32.142  1.00  0.00     0.074 A 
ATOM     75  C   UNL A   1      48.466  30.052  31.529  1.00  0.00     0.031 C 
ATOM     76  C   UNL A   1      46.882  28.451  32.785  1.00  0.00     0.037 A 
BRANCH  63  77
ATOM     77  C   UNL A   1      51.514  26.192  30.785  1.00  0.00     0.058 A 
ATOM     78  C   UNL A   1      52.531  25.610  31.566  1.00  0.00     0.135 A 
ATOM     79  C   UNL A   1      51.839  27.435  30.191  1.00  0.00     0.135 A 
ATOM     80  F   UNL A   1      52.324  24.443  32.195  1.00  0.00    -0.206 F 
ATOM     81  C   UNL A   1      53.758  26.241  31.782  1.00  0.00     0.059 A 
ATOM     82  C   UNL A   1      53.072  28.051  30.347  1.00  0.00     0.059 A 
ATOM     83  F   UNL A   1      50.949  28.170  29.517  1.00  0.00    -0.206 F 
ATOM     84  C   UNL A   1      54.014  27.467  31.174  1.00  0.00     0.060 A 
BRANCH  84  85
ATOM     85  S   UNL A   1      55.559  28.326  31.507  1.00  0.00     0.124 S 
ATOM     86  O   UNL A   1      56.006  27.660  32.726  1.00  0.00    -0.237 OA
ATOM     87  O   UNL A   1      56.327  28.043  30.300  1.00  0.00    -0.237 OA
ATOM     88  O   UNL A   1      55.142  29.717  31.665  1.00  0.00    -0.744 OA
ENDBRANCH  84  85
ENDBRANCH  63  77
BRANCH  64  89
ATOM     89  C   UNL A   1      46.066  32.529  28.587  1.00  0.00     0.058 A 
ATOM     90  C   UNL A   1      45.461  33.680  29.125  1.00  0.00     0.135 A 
ATOM     91  C   UNL A   1      46.923  32.737  27.487  1.00  0.00     0.135 A 
ATOM     92  F   UNL A   1      44.655  33.580  30.193  1.00  0.00    -0.206 F 
ATOM     93  C   UNL A   1      45.713  34.963  28.620  1.00  0.00     0.059 A 
ATOM     94  C   UNL A   1      47.187  34.004  26.965  1.00  0.00     0.059 A 
ATOM     95  F   UNL A   1      47.602  31.717  26.940  1.00  0.00    -0.206 F 
ATOM     96  C   UNL A   1      46.592  35.116  27.547  1.00  0.00     0.060 A 
BRANCH  96  97
ATOM     97  S   UNL A   1      47.030  36.777  26.977  1.00  0.00     0.124 S 
ATOM     98  O   UNL A   1      45.950  37.583  27.534  1.00  0.00    -0.237 OA
ATOM     99  O   UNL A   1      48.345  36.973  27.576  1.00  0.00    -0.237 OA
ATOM    100  O   UNL A   1      47.025  36.650  25.522  1.00  0.00    -0.744 OA
ENDBRANCH  96  97
ENDBRANCH  64  89
BRANCH  76 101
ATOM    101  C   UNL A   1      45.474  28.332  33.301  1.00  0.00     0.058 A 
ATOM    102  C   UNL A   1      44.403  27.764  32.588  1.00  0.00     0.135 A 
ATOM    103  C   UNL A   1      45.231  28.714  34.628  1.00  0.00     0.135 A 
ATOM    104  F   UNL A   1      44.576  27.300  31.343  1.00  0.00    -0.206 F 
ATOM    105  C   UNL A   1      43.140  27.610  33.163  1.00  0.00     0.059 A 
ATOM    106  C   UNL A   1      43.990  28.541  35.231  1.00  0.00     0.059 A 
ATOM    107  F   UNL A   1      46.230  29.214  35.375  1.00  0.00    -0.206 F 
ATOM    108  C   UNL A   1      42.944  27.999  34.488  1.00  0.00     0.060 A 
BRANCH 108 109
ATOM    109  S   UNL A   1      41.335  27.724  35.261  1.00  0.00     0.124 S 
ATOM    110  O   UNL A   1      40.419  27.913  34.141  1.00  0.00    -0.237 OA
ATOM    111  O   UNL A   1      41.453  26.357  35.762  1.00  0.00    -0.237 OA
ATOM    112  O   UNL A   1      41.274  28.753  36.296  1.00  0.00    -0.744 OA
ENDBRANCH 108 109
ENDBRANCH  76 101
ENDBRANCH  50  51
ENDBRANCH  43  45
ENDBRANCH  42  43
ENDBRANCH  41  42
ENDBRANCH  40  41
ENDBRANCH  39  40
ENDBRANCH  38  39
ENDBRANCH  37  38
ENDBRANCH   1  37
TORSDOF 28
ENDMDL
