MODEL 1
REMARK VINA RESULT:     -10.7      0.000      0.000
REMARK SMILES Cc1ncc(CO)c([C@H]2[NH2+][C@@H](C(=O)OCCOCCOCCOCCOC(=O)c3ccc(-c4c5nc(c(-c6c(F)cc(S(=O)(=O)[O-])cc6F)c6ccc([nH]6)c(-c6c(F)cc(S(=O)(=O)[O-])cc6F)c6nc(c(-c7c(F)cc(S(=O)(=O)[O-])cc7F)c7ccc4[nH]7)C=C6)C=C5)cc3)Cc3[nH]cnc32)c1O
REMARK SMILES IDX 20 1 19 2 18 3 17 4 16 5 15 6 14 7 12 8 13 9 11 10 9 11
REMARK SMILES IDX 10 12 100 13 96 16 99 17 95 18 97 19 98 20 8 22 1 23 2 24
REMARK SMILES IDX 3 25 101 26 4 27 5 28 102 29 6 31 7 32 21 34 22 35 23 36
REMARK SMILES IDX 24 37 25 38 26 39 27 40 28 41 29 42 30 43 94 44 31 45 93 46
REMARK SMILES IDX 32 47 33 48 34 49 87 50 35 51 92 52 86 53 88 54 36 55 91 56
REMARK SMILES IDX 85 57 84 58 37 60 71 61 50 62 70 63 51 64 54 65 69 66 89 67
REMARK SMILES IDX 52 68 53 69 68 71 90 72 55 73 38 74 39 75 48 76 40 77 41 78
REMARK SMILES IDX 47 79 49 80 42 81 43 82 44 83 45 84 46 85 72 86 73 87 82 88
REMARK SMILES IDX 74 89 75 90 81 91 83 92 76 93 77 94 78 95 79 96 80 97 56 98
REMARK SMILES IDX 57 99 66 100 58 101 59 102 65 103 67 104 60 105 61 106
REMARK SMILES IDX 62 107 63 108 64 109
REMARK H PARENT 10 14 10 15 97 21 102 30 7 33 88 59 54 70
REMARK Flexibility Score: inf
ROOT
ATOM      1  O   UNL A   1      34.559  22.895  25.912  1.00  0.00    -0.377 OA
ENDROOT
BRANCH   1   2
ATOM      2  C   UNL A   1      33.331  22.246  26.207  1.00  0.00     0.188 C 
BRANCH   2   3
ATOM      3  C   UNL A   1      32.247  22.325  25.091  1.00  0.00     0.188 C 
BRANCH   3   4
ATOM      4  O   UNL A   1      32.266  21.455  23.967  1.00  0.00    -0.376 OA
BRANCH   4   5
ATOM      5  C   UNL A   1      32.265  21.999  22.661  1.00  0.00     0.202 C 
BRANCH   5   6
ATOM      6  C   UNL A   1      32.576  23.490  22.464  1.00  0.00     0.261 C 
BRANCH   6   7
ATOM      7  O   UNL A   1      33.064  23.875  21.170  1.00  0.00    -0.459 OA
BRANCH   7   8
ATOM      8  C   UNL A   1      32.970  25.197  20.836  1.00  0.00     0.365 C 
ATOM      9  O   UNL A   1      33.217  25.658  19.730  1.00  0.00    -0.245 OA
BRANCH   8  10
ATOM     10  C   UNL A   1      32.514  26.009  22.061  1.00  0.00     0.300 C 
ATOM     11  C   UNL A   1      30.909  27.563  23.018  1.00  0.00     0.270 C 
ATOM     12  N   UNL A   1      31.449  27.032  21.739  1.00  0.00    -0.323 N 
ATOM     13  C   UNL A   1      32.027  28.284  23.702  1.00  0.00     0.124 A 
ATOM     14  H   UNL A   1      31.855  27.793  21.194  1.00  0.00     0.347 HD
ATOM     15  H   UNL A   1      30.702  26.602  21.195  1.00  0.00     0.347 HD
ATOM     16  C   UNL A   1      33.322  27.800  23.587  1.00  0.00     0.051 A 
ATOM     17  N   UNL A   1      31.987  29.293  24.625  1.00  0.00    -0.235 NA
ATOM     18  C   UNL A   1      33.758  26.671  22.715  1.00  0.00     0.133 C 
ATOM     19  N   UNL A   1      34.086  28.553  24.419  1.00  0.00    -0.348 N 
ATOM     20  C   UNL A   1      33.237  29.446  25.019  1.00  0.00     0.197 A 
ATOM     21  H   UNL A   1      35.058  28.474  24.562  1.00  0.00     0.167 HD
BRANCH  11  22
ATOM     22  C   UNL A   1      29.550  28.224  22.851  1.00  0.00     0.066 A 
ATOM     23  C   UNL A   1      28.382  31.615  21.421  1.00  0.00     0.071 C 
ATOM     24  C   UNL A   1      28.394  30.288  22.124  1.00  0.00     0.079 A 
ATOM     25  N   UNL A   1      27.209  29.849  22.582  1.00  0.00    -0.257 NA
ATOM     26  C   UNL A   1      29.555  29.515  22.240  1.00  0.00     0.146 A 
ATOM     27  C   UNL A   1      27.195  28.634  23.171  1.00  0.00     0.118 A 
ATOM     28  C   UNL A   1      28.309  27.792  23.355  1.00  0.00     0.009 A 
BRANCH  26  29
ATOM     29  O   UNL A   1      30.730  30.094  21.819  1.00  0.00    -0.505 OA
ATOM     30  H   UNL A   1      30.944  30.109  20.907  1.00  0.00     0.293 HD
ENDBRANCH  26  29
BRANCH  28  31
ATOM     31  C   UNL A   1      28.040  26.490  24.055  1.00  0.00     0.194 C 
BRANCH  31  32
ATOM     32  O   UNL A   1      29.137  26.149  24.907  1.00  0.00    -0.392 OA
ATOM     33  H   UNL A   1      28.833  25.543  25.600  1.00  0.00     0.211 HD
ENDBRANCH  31  32
ENDBRANCH  28  31
ENDBRANCH  11  22
ENDBRANCH   8  10
ENDBRANCH   7   8
ENDBRANCH   6   7
ENDBRANCH   5   6
ENDBRANCH   4   5
ENDBRANCH   3   4
ENDBRANCH   2   3
ENDBRANCH   1   2
BRANCH   1  34
ATOM     34  C   UNL A   1      35.631  22.016  25.586  1.00  0.00     0.188 C 
BRANCH  34  35
ATOM     35  C   UNL A   1      36.649  22.539  24.548  1.00  0.00     0.188 C 
BRANCH  35  36
ATOM     36  O   UNL A   1      37.894  21.850  24.562  1.00  0.00    -0.376 OA
BRANCH  36  37
ATOM     37  C   UNL A   1      38.412  21.268  25.747  1.00  0.00     0.202 C 
BRANCH  37  38
ATOM     38  C   UNL A   1      39.792  21.749  26.184  1.00  0.00     0.261 C 
BRANCH  38  39
ATOM     39  O   UNL A   1      39.804  22.331  27.474  1.00  0.00    -0.460 OA
BRANCH  39  40
ATOM     40  C   UNL A   1      40.986  22.840  27.849  1.00  0.00     0.338 C 
ATOM     41  O   UNL A   1      41.919  22.242  28.381  1.00  0.00    -0.246 OA
BRANCH  40  42
ATOM     42  C   UNL A   1      40.966  24.280  27.622  1.00  0.00     0.060 A 
ATOM     43  C   UNL A   1      42.211  24.901  27.562  1.00  0.00     0.016 A 
ATOM     44  C   UNL A   1      39.773  24.978  27.866  1.00  0.00     0.016 A 
ATOM     45  C   UNL A   1      42.299  26.172  28.061  1.00  0.00     0.010 A 
ATOM     46  C   UNL A   1      39.866  26.240  28.384  1.00  0.00     0.010 A 
ATOM     47  C   UNL A   1      41.138  26.763  28.574  1.00  0.00    -0.014 A 
BRANCH  47  48
ATOM     48  C   UNL A   1      41.293  28.003  29.290  1.00  0.00     0.031 A 
ATOM     49  C   UNL A   1      42.369  28.829  28.717  1.00  0.00     0.074 A 
ATOM     50  C   UNL A   1      40.481  28.335  30.308  1.00  0.00     0.049 A 
ATOM     51  N   UNL A   1      43.534  29.060  29.217  1.00  0.00    -0.248 NA
ATOM     52  C   UNL A   1      42.220  29.245  27.312  1.00  0.00     0.031 C 
ATOM     53  C   UNL A   1      39.240  27.682  30.732  1.00  0.00     0.029 A 
ATOM     54  N   UNL A   1      40.550  29.414  31.125  1.00  0.00    -0.354 N 
ATOM     55  C   UNL A   1      44.164  29.879  28.292  1.00  0.00     0.074 A 
ATOM     56  C   UNL A   1      43.430  29.744  27.063  1.00  0.00     0.031 C 
ATOM     57  C   UNL A   1      38.563  28.512  31.560  1.00  0.00     0.029 A 
ATOM     58  C   UNL A   1      39.378  29.688  31.816  1.00  0.00     0.049 A 
ATOM     59  H   UNL A   1      41.365  29.959  31.221  1.00  0.00     0.167 HD
ATOM     60  C   UNL A   1      45.041  30.835  28.697  1.00  0.00     0.037 A 
ATOM     61  C   UNL A   1      39.090  30.852  32.452  1.00  0.00     0.037 A 
ATOM     62  C   UNL A   1      45.521  30.566  30.029  1.00  0.00     0.049 A 
ATOM     63  C   UNL A   1      40.386  31.552  32.683  1.00  0.00     0.074 A 
ATOM     64  C   UNL A   1      46.198  29.514  30.615  1.00  0.00     0.029 A 
ATOM     65  N   UNL A   1      44.965  31.284  31.063  1.00  0.00    -0.354 N 
ATOM     66  N   UNL A   1      41.318  31.108  33.485  1.00  0.00    -0.248 NA
ATOM     67  C   UNL A   1      40.848  32.480  31.658  1.00  0.00     0.031 C 
ATOM     68  C   UNL A   1      45.641  29.393  31.922  1.00  0.00     0.029 A 
ATOM     69  C   UNL A   1      44.704  30.413  32.090  1.00  0.00     0.049 A 
ATOM     70  H   UNL A   1      44.787  32.252  31.066  1.00  0.00     0.167 HD
ATOM     71  C   UNL A   1      42.514  31.355  32.823  1.00  0.00     0.074 A 
ATOM     72  C   UNL A   1      42.166  32.273  31.742  1.00  0.00     0.031 C 
ATOM     73  C   UNL A   1      43.615  30.572  33.032  1.00  0.00     0.037 A 
BRANCH  60  74
ATOM     74  C   UNL A   1      45.129  32.198  28.054  1.00  0.00     0.058 A 
ATOM     75  C   UNL A   1      46.362  32.618  27.520  1.00  0.00     0.135 A 
ATOM     76  C   UNL A   1      44.147  33.209  28.187  1.00  0.00     0.135 A 
ATOM     77  F   UNL A   1      47.368  31.744  27.356  1.00  0.00    -0.206 F 
ATOM     78  C   UNL A   1      46.626  33.952  27.214  1.00  0.00     0.059 A 
ATOM     79  C   UNL A   1      44.369  34.532  27.833  1.00  0.00     0.059 A 
ATOM     80  F   UNL A   1      42.957  32.998  28.756  1.00  0.00    -0.206 F 
ATOM     81  C   UNL A   1      45.625  34.903  27.390  1.00  0.00     0.060 A 
BRANCH  81  82
ATOM     82  S   UNL A   1      45.987  36.640  27.100  1.00  0.00     0.124 S 
ATOM     83  O   UNL A   1      44.647  37.213  27.070  1.00  0.00    -0.237 OA
ATOM     84  O   UNL A   1      46.804  36.973  28.262  1.00  0.00    -0.237 OA
ATOM     85  O   UNL A   1      46.698  36.626  25.825  1.00  0.00    -0.744 OA
ENDBRANCH  81  82
ENDBRANCH  60  74
BRANCH  61  86
ATOM     86  C   UNL A   1      37.773  31.545  32.494  1.00  0.00     0.058 A 
ATOM     87  C   UNL A   1      37.228  32.013  33.702  1.00  0.00     0.135 A 
ATOM     88  C   UNL A   1      37.141  31.996  31.316  1.00  0.00     0.135 A 
ATOM     89  F   UNL A   1      37.785  31.664  34.872  1.00  0.00    -0.206 F 
ATOM     90  C   UNL A   1      36.139  32.895  33.740  1.00  0.00     0.059 A 
ATOM     91  C   UNL A   1      36.049  32.863  31.329  1.00  0.00     0.059 A 
ATOM     92  F   UNL A   1      37.621  31.679  30.105  1.00  0.00    -0.206 F 
ATOM     93  C   UNL A   1      35.565  33.326  32.544  1.00  0.00     0.060 A 
BRANCH  93  94
ATOM     94  S   UNL A   1      34.260  34.578  32.577  1.00  0.00     0.124 S 
ATOM     95  O   UNL A   1      33.100  33.794  32.989  1.00  0.00    -0.237 OA
ATOM     96  O   UNL A   1      34.769  35.530  33.557  1.00  0.00    -0.237 OA
ATOM     97  O   UNL A   1      34.223  35.066  31.199  1.00  0.00    -0.744 OA
ENDBRANCH  93  94
ENDBRANCH  61  86
BRANCH  73  98
ATOM     98  C   UNL A   1      43.614  29.638  34.215  1.00  0.00     0.058 A 
ATOM     99  C   UNL A   1      43.080  28.336  34.208  1.00  0.00     0.135 A 
ATOM    100  C   UNL A   1      44.342  30.023  35.352  1.00  0.00     0.135 A 
ATOM    101  F   UNL A   1      42.460  27.852  33.121  1.00  0.00    -0.206 F 
ATOM    102  C   UNL A   1      43.234  27.472  35.296  1.00  0.00     0.059 A 
ATOM    103  C   UNL A   1      44.536  29.169  36.433  1.00  0.00     0.059 A 
ATOM    104  F   UNL A   1      44.929  31.231  35.395  1.00  0.00    -0.206 F 
ATOM    105  C   UNL A   1      43.968  27.897  36.403  1.00  0.00     0.060 A 
BRANCH 105 106
ATOM    106  S   UNL A   1      44.243  26.754  37.775  1.00  0.00     0.124 S 
ATOM    107  O   UNL A   1      44.764  27.639  38.811  1.00  0.00    -0.237 OA
ATOM    108  O   UNL A   1      42.906  26.217  38.012  1.00  0.00    -0.237 OA
ATOM    109  O   UNL A   1      45.202  25.794  37.233  1.00  0.00    -0.744 OA
ENDBRANCH 105 106
ENDBRANCH  73  98
ENDBRANCH  47  48
ENDBRANCH  40  42
ENDBRANCH  39  40
ENDBRANCH  38  39
ENDBRANCH  37  38
ENDBRANCH  36  37
ENDBRANCH  35  36
ENDBRANCH  34  35
ENDBRANCH   1  34
TORSDOF 27
ENDMDL
MODEL 2
REMARK VINA RESULT:     -10.1      1.869      7.203
REMARK SMILES Cc1ncc(CO)c([C@H]2[NH2+][C@@H](C(=O)OCCOCCOCCOCCOC(=O)c3ccc(-c4c5nc(c(-c6c(F)cc(S(=O)(=O)[O-])cc6F)c6ccc([nH]6)c(-c6c(F)cc(S(=O)(=O)[O-])cc6F)c6nc(c(-c7c(F)cc(S(=O)(=O)[O-])cc7F)c7ccc4[nH]7)C=C6)C=C5)cc3)Cc3[nH]cnc32)c1O
REMARK SMILES IDX 20 1 19 2 18 3 17 4 16 5 15 6 14 7 12 8 13 9 11 10 9 11
REMARK SMILES IDX 10 12 100 13 96 16 99 17 95 18 97 19 98 20 8 22 1 23 2 24
REMARK SMILES IDX 3 25 101 26 4 27 5 28 102 29 6 31 7 32 21 34 22 35 23 36
REMARK SMILES IDX 24 37 25 38 26 39 27 40 28 41 29 42 30 43 94 44 31 45 93 46
REMARK SMILES IDX 32 47 33 48 34 49 87 50 35 51 92 52 86 53 88 54 36 55 91 56
REMARK SMILES IDX 85 57 84 58 37 60 71 61 50 62 70 63 51 64 54 65 69 66 89 67
REMARK SMILES IDX 52 68 53 69 68 71 90 72 55 73 38 74 39 75 48 76 40 77 41 78
REMARK SMILES IDX 47 79 49 80 42 81 43 82 44 83 45 84 46 85 72 86 73 87 82 88
REMARK SMILES IDX 74 89 75 90 81 91 83 92 76 93 77 94 78 95 79 96 80 97 56 98
REMARK SMILES IDX 57 99 66 100 58 101 59 102 65 103 67 104 60 105 61 106
REMARK SMILES IDX 62 107 63 108 64 109
REMARK H PARENT 10 14 10 15 97 21 102 30 7 33 88 59 54 70
REMARK Flexibility Score: inf
ROOT
ATOM      1  O   UNL A   1      34.702  22.828  25.957  1.00  0.00    -0.377 OA
ENDROOT
BRANCH   1   2
ATOM      2  C   UNL A   1      33.483  22.141  26.198  1.00  0.00     0.188 C 
BRANCH   2   3
ATOM      3  C   UNL A   1      32.420  22.245  25.064  1.00  0.00     0.188 C 
BRANCH   3   4
ATOM      4  O   UNL A   1      32.416  21.351  23.958  1.00  0.00    -0.376 OA
BRANCH   4   5
ATOM      5  C   UNL A   1      32.380  21.867  22.641  1.00  0.00     0.202 C 
BRANCH   5   6
ATOM      6  C   UNL A   1      32.353  23.387  22.427  1.00  0.00     0.261 C 
BRANCH   6   7
ATOM      7  O   UNL A   1      33.224  23.904  21.409  1.00  0.00    -0.459 OA
BRANCH   7   8
ATOM      8  C   UNL A   1      33.012  25.191  21.001  1.00  0.00     0.365 C 
ATOM      9  O   UNL A   1      33.178  25.599  19.859  1.00  0.00    -0.245 OA
BRANCH   8  10
ATOM     10  C   UNL A   1      32.541  26.042  22.194  1.00  0.00     0.300 C 
ATOM     11  C   UNL A   1      30.910  27.604  23.090  1.00  0.00     0.270 C 
ATOM     12  N   UNL A   1      31.460  27.033  21.833  1.00  0.00    -0.323 N 
ATOM     13  C   UNL A   1      32.015  28.368  23.747  1.00  0.00     0.124 A 
ATOM     14  H   UNL A   1      31.854  27.780  21.260  1.00  0.00     0.347 HD
ATOM     15  H   UNL A   1      30.720  26.570  21.305  1.00  0.00     0.347 HD
ATOM     16  C   UNL A   1      33.318  27.902  23.650  1.00  0.00     0.051 A 
ATOM     17  N   UNL A   1      31.957  29.411  24.631  1.00  0.00    -0.235 NA
ATOM     18  C   UNL A   1      33.774  26.748  22.822  1.00  0.00     0.133 C 
ATOM     19  N   UNL A   1      34.069  28.700  24.453  1.00  0.00    -0.348 N 
ATOM     20  C   UNL A   1      33.204  29.600  25.019  1.00  0.00     0.197 A 
ATOM     21  H   UNL A   1      35.041  28.642  24.599  1.00  0.00     0.167 HD
BRANCH  11  22
ATOM     22  C   UNL A   1      29.540  28.234  22.898  1.00  0.00     0.066 A 
ATOM     23  C   UNL A   1      28.296  31.453  21.163  1.00  0.00     0.071 C 
ATOM     24  C   UNL A   1      28.342  30.205  21.998  1.00  0.00     0.079 A 
ATOM     25  N   UNL A   1      27.176  29.808  22.535  1.00  0.00    -0.257 NA
ATOM     26  C   UNL A   1      29.514  29.456  22.157  1.00  0.00     0.146 A 
ATOM     27  C   UNL A   1      27.192  28.660  23.246  1.00  0.00     0.118 A 
ATOM     28  C   UNL A   1      28.318  27.848  23.482  1.00  0.00     0.009 A 
BRANCH  26  29
ATOM     29  O   UNL A   1      30.670  29.996  21.643  1.00  0.00    -0.505 OA
ATOM     30  H   UNL A   1      30.998  29.699  20.817  1.00  0.00     0.293 HD
ENDBRANCH  26  29
BRANCH  28  31
ATOM     31  C   UNL A   1      28.083  26.624  24.320  1.00  0.00     0.194 C 
BRANCH  31  32
ATOM     32  O   UNL A   1      26.836  26.016  23.971  1.00  0.00    -0.392 OA
ATOM     33  H   UNL A   1      26.189  26.706  23.756  1.00  0.00     0.211 HD
ENDBRANCH  31  32
ENDBRANCH  28  31
ENDBRANCH  11  22
ENDBRANCH   8  10
ENDBRANCH   7   8
ENDBRANCH   6   7
ENDBRANCH   5   6
ENDBRANCH   4   5
ENDBRANCH   3   4
ENDBRANCH   2   3
ENDBRANCH   1   2
BRANCH   1  34
ATOM     34  C   UNL A   1      35.816  21.984  25.685  1.00  0.00     0.188 C 
BRANCH  34  35
ATOM     35  C   UNL A   1      36.925  22.588  24.794  1.00  0.00     0.188 C 
BRANCH  35  36
ATOM     36  O   UNL A   1      38.137  21.842  24.796  1.00  0.00    -0.376 OA
BRANCH  36  37
ATOM     37  C   UNL A   1      38.641  21.240  25.977  1.00  0.00     0.202 C 
BRANCH  37  38
ATOM     38  C   UNL A   1      40.142  21.378  26.214  1.00  0.00     0.261 C 
BRANCH  38  39
ATOM     39  O   UNL A   1      40.467  21.888  27.493  1.00  0.00    -0.460 OA
BRANCH  39  40
ATOM     40  C   UNL A   1      41.747  22.257  27.642  1.00  0.00     0.338 C 
ATOM     41  O   UNL A   1      42.686  21.553  28.008  1.00  0.00    -0.246 OA
BRANCH  40  42
ATOM     42  C   UNL A   1      41.850  23.690  27.399  1.00  0.00     0.060 A 
ATOM     43  C   UNL A   1      43.133  24.172  27.154  1.00  0.00     0.016 A 
ATOM     44  C   UNL A   1      40.787  24.514  27.800  1.00  0.00     0.016 A 
ATOM     45  C   UNL A   1      43.428  25.426  27.617  1.00  0.00     0.010 A 
ATOM     46  C   UNL A   1      41.087  25.758  28.281  1.00  0.00     0.010 A 
ATOM     47  C   UNL A   1      42.423  26.140  28.280  1.00  0.00    -0.014 A 
BRANCH  47  48
ATOM     48  C   UNL A   1      42.811  27.354  28.949  1.00  0.00     0.031 A 
ATOM     49  C   UNL A   1      43.160  27.110  30.358  1.00  0.00     0.074 A 
ATOM     50  C   UNL A   1      42.888  28.526  28.294  1.00  0.00     0.049 A 
ATOM     51  N   UNL A   1      42.479  27.432  31.404  1.00  0.00    -0.248 NA
ATOM     52  C   UNL A   1      44.275  26.184  30.623  1.00  0.00     0.031 C 
ATOM     53  C   UNL A   1      42.820  28.767  26.850  1.00  0.00     0.029 A 
ATOM     54  N   UNL A   1      43.155  29.756  28.795  1.00  0.00    -0.354 N 
ATOM     55  C   UNL A   1      43.230  26.972  32.475  1.00  0.00     0.074 A 
ATOM     56  C   UNL A   1      44.159  26.014  31.940  1.00  0.00     0.031 C 
ATOM     57  C   UNL A   1      43.275  30.015  26.588  1.00  0.00     0.029 A 
ATOM     58  C   UNL A   1      43.544  30.691  27.846  1.00  0.00     0.049 A 
ATOM     59  H   UNL A   1      43.078  29.971  29.754  1.00  0.00     0.167 HD
ATOM     60  C   UNL A   1      43.239  27.646  33.655  1.00  0.00     0.037 A 
ATOM     61  C   UNL A   1      44.142  31.881  28.110  1.00  0.00     0.037 A 
ATOM     62  C   UNL A   1      42.101  28.527  33.756  1.00  0.00     0.049 A 
ATOM     63  C   UNL A   1      43.863  32.200  29.539  1.00  0.00     0.074 A 
ATOM     64  C   UNL A   1      40.733  28.340  33.724  1.00  0.00     0.029 A 
ATOM     65  N   UNL A   1      42.309  29.865  33.513  1.00  0.00    -0.354 N 
ATOM     66  N   UNL A   1      42.670  32.464  30.005  1.00  0.00    -0.248 NA
ATOM     67  C   UNL A   1      44.824  31.745  30.535  1.00  0.00     0.031 C 
ATOM     68  C   UNL A   1      40.219  29.468  33.020  1.00  0.00     0.029 A 
ATOM     69  C   UNL A   1      41.286  30.314  32.717  1.00  0.00     0.049 A 
ATOM     70  H   UNL A   1      43.059  30.405  33.853  1.00  0.00     0.167 HD
ATOM     71  C   UNL A   1      42.610  31.821  31.235  1.00  0.00     0.074 A 
ATOM     72  C   UNL A   1      43.993  31.463  31.542  1.00  0.00     0.031 C 
ATOM     73  C   UNL A   1      41.422  31.383  31.748  1.00  0.00     0.037 A 
BRANCH  60  74
ATOM     74  C   UNL A   1      44.476  27.806  34.504  1.00  0.00     0.058 A 
ATOM     75  C   UNL A   1      44.495  27.233  35.791  1.00  0.00     0.135 A 
ATOM     76  C   UNL A   1      45.521  28.720  34.229  1.00  0.00     0.135 A 
ATOM     77  F   UNL A   1      43.548  26.358  36.162  1.00  0.00    -0.206 F 
ATOM     78  C   UNL A   1      45.433  27.599  36.755  1.00  0.00     0.059 A 
ATOM     79  C   UNL A   1      46.500  29.053  35.155  1.00  0.00     0.059 A 
ATOM     80  F   UNL A   1      45.599  29.416  33.091  1.00  0.00    -0.206 F 
ATOM     81  C   UNL A   1      46.422  28.522  36.429  1.00  0.00     0.060 A 
BRANCH  81  82
ATOM     82  S   UNL A   1      47.571  29.080  37.695  1.00  0.00     0.124 S 
ATOM     83  O   UNL A   1      47.507  27.978  38.648  1.00  0.00    -0.237 OA
ATOM     84  O   UNL A   1      48.811  29.207  36.940  1.00  0.00    -0.237 OA
ATOM     85  O   UNL A   1      46.986  30.340  38.145  1.00  0.00    -0.744 OA
ENDBRANCH  81  82
ENDBRANCH  60  74
BRANCH  61  86
ATOM     86  C   UNL A   1      45.239  32.522  27.334  1.00  0.00     0.058 A 
ATOM     87  C   UNL A   1      45.166  33.867  26.931  1.00  0.00     0.135 A 
ATOM     88  C   UNL A   1      46.500  31.903  27.193  1.00  0.00     0.135 A 
ATOM     89  F   UNL A   1      44.016  34.547  27.060  1.00  0.00    -0.206 F 
ATOM     90  C   UNL A   1      46.281  34.564  26.445  1.00  0.00     0.059 A 
ATOM     91  C   UNL A   1      47.619  32.572  26.701  1.00  0.00     0.059 A 
ATOM     92  F   UNL A   1      46.707  30.648  27.616  1.00  0.00    -0.206 F 
ATOM     93  C   UNL A   1      47.509  33.909  26.348  1.00  0.00     0.060 A 
BRANCH  93  94
ATOM     94  S   UNL A   1      48.984  34.839  25.865  1.00  0.00     0.124 S 
ATOM     95  O   UNL A   1      49.413  35.406  27.138  1.00  0.00    -0.237 OA
ATOM     96  O   UNL A   1      49.839  33.795  25.311  1.00  0.00    -0.237 OA
ATOM     97  O   UNL A   1      48.474  35.804  24.893  1.00  0.00    -0.744 OA
ENDBRANCH  93  94
ENDBRANCH  61  86
BRANCH  73  98
ATOM     98  C   UNL A   1      40.144  31.880  31.121  1.00  0.00     0.058 A 
ATOM     99  C   UNL A   1      39.493  31.268  30.035  1.00  0.00     0.135 A 
ATOM    100  C   UNL A   1      39.465  32.926  31.766  1.00  0.00     0.135 A 
ATOM    101  F   UNL A   1      40.026  30.196  29.429  1.00  0.00    -0.206 F 
ATOM    102  C   UNL A   1      38.241  31.700  29.590  1.00  0.00     0.059 A 
ATOM    103  C   UNL A   1      38.204  33.352  31.361  1.00  0.00     0.059 A 
ATOM    104  F   UNL A   1      40.005  33.511  32.848  1.00  0.00    -0.206 F 
ATOM    105  C   UNL A   1      37.602  32.741  30.263  1.00  0.00     0.060 A 
BRANCH 105 106
ATOM    106  S   UNL A   1      35.946  33.246  29.746  1.00  0.00     0.124 S 
ATOM    107  O   UNL A   1      35.214  31.985  29.787  1.00  0.00    -0.237 OA
ATOM    108  O   UNL A   1      35.581  34.227  30.763  1.00  0.00    -0.237 OA
ATOM    109  O   UNL A   1      36.160  33.800  28.410  1.00  0.00    -0.744 OA
ENDBRANCH 105 106
ENDBRANCH  73  98
ENDBRANCH  47  48
ENDBRANCH  40  42
ENDBRANCH  39  40
ENDBRANCH  38  39
ENDBRANCH  37  38
ENDBRANCH  36  37
ENDBRANCH  35  36
ENDBRANCH  34  35
ENDBRANCH   1  34
TORSDOF 27
ENDMDL
MODEL 3
REMARK VINA RESULT:      -9.7      4.320      6.859
REMARK SMILES Cc1ncc(CO)c([C@H]2[NH2+][C@@H](C(=O)OCCOCCOCCOCCOC(=O)c3ccc(-c4c5nc(c(-c6c(F)cc(S(=O)(=O)[O-])cc6F)c6ccc([nH]6)c(-c6c(F)cc(S(=O)(=O)[O-])cc6F)c6nc(c(-c7c(F)cc(S(=O)(=O)[O-])cc7F)c7ccc4[nH]7)C=C6)C=C5)cc3)Cc3[nH]cnc32)c1O
REMARK SMILES IDX 20 1 19 2 18 3 17 4 16 5 15 6 14 7 12 8 13 9 11 10 9 11
REMARK SMILES IDX 10 12 100 13 96 16 99 17 95 18 97 19 98 20 8 22 1 23 2 24
REMARK SMILES IDX 3 25 101 26 4 27 5 28 102 29 6 31 7 32 21 34 22 35 23 36
REMARK SMILES IDX 24 37 25 38 26 39 27 40 28 41 29 42 30 43 94 44 31 45 93 46
REMARK SMILES IDX 32 47 33 48 34 49 87 50 35 51 92 52 86 53 88 54 36 55 91 56
REMARK SMILES IDX 85 57 84 58 37 60 71 61 50 62 70 63 51 64 54 65 69 66 89 67
REMARK SMILES IDX 52 68 53 69 68 71 90 72 55 73 38 74 39 75 48 76 40 77 41 78
REMARK SMILES IDX 47 79 49 80 42 81 43 82 44 83 45 84 46 85 72 86 73 87 82 88
REMARK SMILES IDX 74 89 75 90 81 91 83 92 76 93 77 94 78 95 79 96 80 97 56 98
REMARK SMILES IDX 57 99 66 100 58 101 59 102 65 103 67 104 60 105 61 106
REMARK SMILES IDX 62 107 63 108 64 109
REMARK H PARENT 10 14 10 15 97 21 102 30 7 33 88 59 54 70
REMARK Flexibility Score: inf
ROOT
ATOM      1  O   UNL A   1      38.361  29.979  28.227  1.00  0.00    -0.377 OA
ENDROOT
BRANCH   1   2
ATOM      2  C   UNL A   1      38.126  30.995  29.190  1.00  0.00     0.188 C 
BRANCH   2   3
ATOM      3  C   UNL A   1      37.012  32.020  28.822  1.00  0.00     0.188 C 
BRANCH   3   4
ATOM      4  O   UNL A   1      35.644  31.782  29.131  1.00  0.00    -0.376 OA
BRANCH   4   5
ATOM      5  C   UNL A   1      34.763  31.346  28.113  1.00  0.00     0.202 C 
BRANCH   5   6
ATOM      6  C   UNL A   1      34.951  29.951  27.500  1.00  0.00     0.261 C 
BRANCH   6   7
ATOM      7  O   UNL A   1      34.237  29.687  26.282  1.00  0.00    -0.459 OA
BRANCH   7   8
ATOM      8  C   UNL A   1      33.488  28.545  26.232  1.00  0.00     0.365 C 
ATOM      9  O   UNL A   1      33.205  27.853  27.200  1.00  0.00    -0.245 OA
BRANCH   8  10
ATOM     10  C   UNL A   1      33.065  28.266  24.780  1.00  0.00     0.300 C 
ATOM     11  C   UNL A   1      31.270  28.154  23.145  1.00  0.00     0.270 C 
ATOM     12  N   UNL A   1      31.568  28.162  24.601  1.00  0.00    -0.323 N 
ATOM     13  C   UNL A   1      31.874  26.908  22.580  1.00  0.00     0.124 A 
ATOM     14  H   UNL A   1      31.229  27.299  25.027  1.00  0.00     0.347 HD
ATOM     15  H   UNL A   1      31.105  28.953  25.049  1.00  0.00     0.347 HD
ATOM     16  C   UNL A   1      33.072  26.436  23.095  1.00  0.00     0.051 A 
ATOM     17  N   UNL A   1      31.537  26.198  21.459  1.00  0.00    -0.235 NA
ATOM     18  C   UNL A   1      33.787  26.983  24.285  1.00  0.00     0.133 C 
ATOM     19  N   UNL A   1      33.446  25.399  22.303  1.00  0.00    -0.348 N 
ATOM     20  C   UNL A   1      32.485  25.289  21.332  1.00  0.00     0.197 A 
ATOM     21  H   UNL A   1      34.249  24.837  22.405  1.00  0.00     0.167 HD
BRANCH  11  22
ATOM     22  C   UNL A   1      29.827  28.521  22.840  1.00  0.00     0.066 A 
ATOM     23  C   UNL A   1      28.156  31.413  20.902  1.00  0.00     0.071 C 
ATOM     24  C   UNL A   1      28.364  30.218  21.787  1.00  0.00     0.079 A 
ATOM     25  N   UNL A   1      27.252  29.632  22.263  1.00  0.00    -0.257 NA
ATOM     26  C   UNL A   1      29.636  29.698  22.051  1.00  0.00     0.146 A 
ATOM     27  C   UNL A   1      27.422  28.527  23.020  1.00  0.00     0.118 A 
ATOM     28  C   UNL A   1      28.655  27.938  23.359  1.00  0.00     0.009 A 
BRANCH  26  29
ATOM     29  O   UNL A   1      30.711  30.422  21.591  1.00  0.00    -0.505 OA
ATOM     30  H   UNL A   1      31.328  30.780  22.198  1.00  0.00     0.293 HD
ENDBRANCH  26  29
BRANCH  28  31
ATOM     31  C   UNL A   1      28.583  26.716  24.229  1.00  0.00     0.194 C 
BRANCH  31  32
ATOM     32  O   UNL A   1      27.396  25.972  23.941  1.00  0.00    -0.392 OA
ATOM     33  H   UNL A   1      26.632  26.411  24.347  1.00  0.00     0.211 HD
ENDBRANCH  31  32
ENDBRANCH  28  31
ENDBRANCH  11  22
ENDBRANCH   8  10
ENDBRANCH   7   8
ENDBRANCH   6   7
ENDBRANCH   5   6
ENDBRANCH   4   5
ENDBRANCH   3   4
ENDBRANCH   2   3
ENDBRANCH   1   2
BRANCH   1  34
ATOM     34  C   UNL A   1      38.604  28.686  28.774  1.00  0.00     0.188 C 
BRANCH  34  35
ATOM     35  C   UNL A   1      39.664  27.828  28.048  1.00  0.00     0.188 C 
BRANCH  35  36
ATOM     36  O   UNL A   1      39.267  26.478  27.836  1.00  0.00    -0.376 OA
BRANCH  36  37
ATOM     37  C   UNL A   1      40.149  25.394  28.076  1.00  0.00     0.202 C 
BRANCH  37  38
ATOM     38  C   UNL A   1      39.762  24.060  27.446  1.00  0.00     0.261 C 
BRANCH  38  39
ATOM     39  O   UNL A   1      40.671  23.015  27.735  1.00  0.00    -0.460 OA
BRANCH  39  40
ATOM     40  C   UNL A   1      41.180  22.400  26.658  1.00  0.00     0.338 C 
ATOM     41  O   UNL A   1      40.659  21.502  25.998  1.00  0.00    -0.246 OA
BRANCH  40  42
ATOM     42  C   UNL A   1      42.532  22.894  26.435  1.00  0.00     0.060 A 
ATOM     43  C   UNL A   1      43.430  22.693  27.481  1.00  0.00     0.016 A 
ATOM     44  C   UNL A   1      42.740  23.841  25.420  1.00  0.00     0.016 A 
ATOM     45  C   UNL A   1      44.378  23.659  27.685  1.00  0.00     0.010 A 
ATOM     46  C   UNL A   1      43.673  24.816  25.636  1.00  0.00     0.010 A 
ATOM     47  C   UNL A   1      44.394  24.762  26.823  1.00  0.00    -0.014 A 
BRANCH  47  48
ATOM     48  C   UNL A   1      45.246  25.865  27.183  1.00  0.00     0.031 A 
ATOM     49  C   UNL A   1      46.602  25.705  26.632  1.00  0.00     0.074 A 
ATOM     50  C   UNL A   1      44.783  26.914  27.884  1.00  0.00     0.049 A 
ATOM     51  N   UNL A   1      47.681  25.411  27.272  1.00  0.00    -0.248 NA
ATOM     52  C   UNL A   1      46.726  25.622  25.166  1.00  0.00     0.031 C 
ATOM     53  C   UNL A   1      43.394  27.246  28.213  1.00  0.00     0.029 A 
ATOM     54  N   UNL A   1      45.471  27.977  28.366  1.00  0.00    -0.354 N 
ATOM     55  C   UNL A   1      48.672  25.370  26.302  1.00  0.00     0.074 A 
ATOM     56  C   UNL A   1      47.999  25.250  25.038  1.00  0.00     0.031 C 
ATOM     57  C   UNL A   1      43.332  28.535  28.624  1.00  0.00     0.029 A 
ATOM     58  C   UNL A   1      44.682  29.068  28.703  1.00  0.00     0.049 A 
ATOM     59  H   UNL A   1      46.451  27.976  28.469  1.00  0.00     0.167 HD
ATOM     60  C   UNL A   1      49.943  25.753  26.594  1.00  0.00     0.037 A 
ATOM     61  C   UNL A   1      45.132  30.331  28.919  1.00  0.00     0.037 A 
ATOM     62  C   UNL A   1      50.173  25.740  28.017  1.00  0.00     0.049 A 
ATOM     63  C   UNL A   1      46.592  30.229  29.203  1.00  0.00     0.074 A 
ATOM     64  C   UNL A   1      50.104  24.768  28.996  1.00  0.00     0.029 A 
ATOM     65  N   UNL A   1      50.144  26.947  28.677  1.00  0.00    -0.354 N 
ATOM     66  N   UNL A   1      47.087  29.652  30.268  1.00  0.00    -0.248 NA
ATOM     67  C   UNL A   1      47.511  30.329  28.076  1.00  0.00     0.031 C 
ATOM     68  C   UNL A   1      49.583  25.430  30.145  1.00  0.00     0.029 A 
ATOM     69  C   UNL A   1      49.421  26.780  29.832  1.00  0.00     0.049 A 
ATOM     70  H   UNL A   1      50.568  27.782  28.376  1.00  0.00     0.167 HD
ATOM     71  C   UNL A   1      48.200  28.955  29.818  1.00  0.00     0.074 A 
ATOM     72  C   UNL A   1      48.456  29.475  28.477  1.00  0.00     0.031 C 
ATOM     73  C   UNL A   1      48.632  27.824  30.453  1.00  0.00     0.037 A 
BRANCH  60  74
ATOM     74  C   UNL A   1      50.814  26.521  25.630  1.00  0.00     0.058 A 
ATOM     75  C   UNL A   1      50.316  27.710  25.063  1.00  0.00     0.135 A 
ATOM     76  C   UNL A   1      51.987  26.006  25.030  1.00  0.00     0.135 A 
ATOM     77  F   UNL A   1      49.203  28.284  25.549  1.00  0.00    -0.206 F 
ATOM     78  C   UNL A   1      50.892  28.297  23.938  1.00  0.00     0.059 A 
ATOM     79  C   UNL A   1      52.611  26.608  23.947  1.00  0.00     0.059 A 
ATOM     80  F   UNL A   1      52.539  24.843  25.389  1.00  0.00    -0.206 F 
ATOM     81  C   UNL A   1      52.032  27.728  23.380  1.00  0.00     0.060 A 
BRANCH  81  82
ATOM     82  S   UNL A   1      52.720  28.415  21.867  1.00  0.00     0.124 S 
ATOM     83  O   UNL A   1      52.308  29.810  21.971  1.00  0.00    -0.237 OA
ATOM     84  O   UNL A   1      54.144  28.150  22.038  1.00  0.00    -0.237 OA
ATOM     85  O   UNL A   1      52.065  27.639  20.818  1.00  0.00    -0.744 OA
ENDBRANCH  81  82
ENDBRANCH  60  74
BRANCH  61  86
ATOM     86  C   UNL A   1      44.472  31.598  28.502  1.00  0.00     0.058 A 
ATOM     87  C   UNL A   1      43.968  32.510  29.446  1.00  0.00     0.135 A 
ATOM     88  C   UNL A   1      44.552  32.067  27.173  1.00  0.00     0.135 A 
ATOM     89  F   UNL A   1      43.887  32.163  30.740  1.00  0.00    -0.206 F 
ATOM     90  C   UNL A   1      43.593  33.815  29.100  1.00  0.00     0.059 A 
ATOM     91  C   UNL A   1      44.173  33.356  26.803  1.00  0.00     0.059 A 
ATOM     92  F   UNL A   1      45.089  31.313  26.203  1.00  0.00    -0.206 F 
ATOM     93  C   UNL A   1      43.714  34.234  27.775  1.00  0.00     0.060 A 
BRANCH  93  94
ATOM     94  S   UNL A   1      43.375  35.958  27.345  1.00  0.00     0.124 S 
ATOM     95  O   UNL A   1      42.429  36.348  28.384  1.00  0.00    -0.237 OA
ATOM     96  O   UNL A   1      44.700  36.563  27.428  1.00  0.00    -0.237 OA
ATOM     97  O   UNL A   1      42.817  35.868  25.997  1.00  0.00    -0.744 OA
ENDBRANCH  93  94
ENDBRANCH  61  86
BRANCH  73  98
ATOM     98  C   UNL A   1      48.083  27.519  31.824  1.00  0.00     0.058 A 
ATOM     99  C   UNL A   1      46.906  26.789  32.071  1.00  0.00     0.135 A 
ATOM    100  C   UNL A   1      48.883  27.835  32.933  1.00  0.00     0.135 A 
ATOM    101  F   UNL A   1      46.138  26.358  31.059  1.00  0.00    -0.206 F 
ATOM    102  C   UNL A   1      46.525  26.424  33.365  1.00  0.00     0.059 A 
ATOM    103  C   UNL A   1      48.542  27.454  34.226  1.00  0.00     0.059 A 
ATOM    104  F   UNL A   1      50.051  28.476  32.757  1.00  0.00    -0.206 F 
ATOM    105  C   UNL A   1      47.354  26.758  34.437  1.00  0.00     0.060 A 
BRANCH 105 106
ATOM    106  S   UNL A   1      46.910  26.213  36.101  1.00  0.00     0.124 S 
ATOM    107  O   UNL A   1      45.808  27.108  36.433  1.00  0.00    -0.237 OA
ATOM    108  O   UNL A   1      46.551  24.814  35.892  1.00  0.00    -0.237 OA
ATOM    109  O   UNL A   1      48.137  26.423  36.868  1.00  0.00    -0.744 OA
ENDBRANCH 105 106
ENDBRANCH  73  98
ENDBRANCH  47  48
ENDBRANCH  40  42
ENDBRANCH  39  40
ENDBRANCH  38  39
ENDBRANCH  37  38
ENDBRANCH  36  37
ENDBRANCH  35  36
ENDBRANCH  34  35
ENDBRANCH   1  34
TORSDOF 27
ENDMDL
