MODEL 1
REMARK VINA RESULT:     -11.8      0.000      0.000
REMARK SMILES Cc1ccc(-c2cc(Cl)cc3c2O[C@H](C(F)(F)F)C(C(=O)OCCOCCOCCOCCOC(=O)c2ccc(-c4c5nc(c(-c6c(F)cc(S(=O)(=O)[O-])cc6F)c6ccc([nH]6)c(-c6c(F)cc(S(=O)(=O)[O-])cc6F)c6nc(c(-c7c(F)cc(S(=O)(=O)[O-])cc7F)c7ccc4[nH]7)C=C6)C=C5)cc2)=C3)cc1F
REMARK SMILES IDX 29 1 28 2 27 3 26 4 25 5 24 6 23 7 22 8 20 9 21 10 19 11
REMARK SMILES IDX 6 12 7 13 12 14 8 15 11 16 13 17 9 18 10 19 103 20 14 21
REMARK SMILES IDX 5 22 1 23 2 24 3 25 105 26 4 27 104 28 106 29 15 30 16 31
REMARK SMILES IDX 17 32 18 33 30 34 31 35 32 36 33 37 34 38 35 39 36 40 37 41
REMARK SMILES IDX 38 42 102 43 39 44 101 45 40 46 41 47 42 48 95 49 43 50
REMARK SMILES IDX 100 51 94 52 96 53 44 54 99 55 93 56 92 57 45 59 79 60 58 61
REMARK SMILES IDX 78 62 59 63 62 64 77 65 97 66 60 67 61 68 76 70 98 71 63 72
REMARK SMILES IDX 46 73 47 74 56 75 48 76 49 77 55 78 57 79 50 80 51 81 52 82
REMARK SMILES IDX 53 83 54 84 80 85 81 86 90 87 82 88 83 89 89 90 91 91 84 92
REMARK SMILES IDX 85 93 86 94 87 95 88 96 64 97 65 98 74 99 66 100 67 101
REMARK SMILES IDX 73 102 75 103 68 104 69 105 70 106 71 107 72 108
REMARK H PARENT 96 58 62 69
REMARK Flexibility Score: inf
ROOT
ATOM      1  C   UNL A   1      38.572  27.502  30.932  1.00  0.00     0.188 C 
ENDROOT
BRANCH   1   2
ATOM      2  O   UNL A   1      38.603  27.404  28.922  1.00  0.00    -0.377 OA
BRANCH   2   3
ATOM      3  C   UNL A   1      39.385  26.257  27.822  1.00  0.00     0.188 C 
BRANCH   3   4
ATOM      4  C   UNL A   1      39.025  24.519  27.532  1.00  0.00     0.188 C 
BRANCH   4   5
ATOM      5  O   UNL A   1      38.293  23.688  26.568  1.00  0.00    -0.376 OA
BRANCH   5   6
ATOM      6  C   UNL A   1      37.178  23.919  25.666  1.00  0.00     0.202 C 
BRANCH   6   7
ATOM      7  C   UNL A   1      35.814  23.137  25.685  1.00  0.00     0.261 C 
BRANCH   7   8
ATOM      8  O   UNL A   1      34.816  23.631  24.774  1.00  0.00    -0.460 OA
BRANCH   8   9
ATOM      9  C   UNL A   1      33.580  23.736  25.277  1.00  0.00     0.338 C 
ATOM     10  O   UNL A   1      32.996  22.878  25.921  1.00  0.00    -0.246 OA
BRANCH   9  11
ATOM     11  C   UNL A   1      33.135  25.141  25.207  1.00  0.00     0.087 C 
ATOM     12  C   UNL A   1      32.262  29.251  25.278  1.00  0.00     0.026 A 
ATOM     13  C   UNL A   1      33.019  30.049  26.163  1.00  0.00     0.033 A 
ATOM     14  C   UNL A   1      32.614  27.889  25.157  1.00  0.00     0.135 A 
ATOM     15  C   UNL A   1      34.099  29.526  26.870  1.00  0.00     0.042 A 
ATOM     16  C   UNL A   1      33.654  27.364  25.932  1.00  0.00     0.019 A 
ATOM     17  O   UNL A   1      31.936  27.113  24.253  1.00  0.00    -0.475 OA
ATOM     18  Cl  UNL A   1      34.989  30.520  27.955  1.00  0.00    -0.084 Cl
ATOM     19  C   UNL A   1      34.428  28.186  26.748  1.00  0.00     0.032 A 
ATOM     20  C   UNL A   1      33.912  25.942  25.943  1.00  0.00     0.027 C 
ATOM     21  C   UNL A   1      32.043  25.654  24.308  1.00  0.00     0.316 C 
BRANCH  12  22
ATOM     22  C   UNL A   1      31.090  29.854  24.605  1.00  0.00    -0.012 A 
ATOM     23  C   UNL A   1      27.461  31.453  22.850  1.00  0.00     0.047 C 
ATOM     24  C   UNL A   1      28.718  30.921  23.464  1.00  0.00    -0.015 A 
ATOM     25  C   UNL A   1      29.426  31.645  24.427  1.00  0.00     0.007 A 
ATOM     26  C   UNL A   1      29.214  29.679  23.070  1.00  0.00     0.126 A 
ATOM     27  C   UNL A   1      30.598  31.117  24.985  1.00  0.00     0.009 A 
ATOM     28  C   UNL A   1      30.375  29.148  23.627  1.00  0.00     0.048 A 
ATOM     29  F   UNL A   1      28.550  28.959  22.154  1.00  0.00    -0.207 F 
ENDBRANCH  12  22
BRANCH  21  30
ATOM     30  C   UNL A   1      30.659  25.128  24.666  1.00  0.00     0.430 C 
ATOM     31  F   UNL A   1      29.692  25.986  24.258  1.00  0.00    -0.167 F 
ATOM     32  F   UNL A   1      30.409  23.937  24.082  1.00  0.00    -0.167 F 
ATOM     33  F   UNL A   1      30.517  24.976  26.003  1.00  0.00    -0.167 F 
ENDBRANCH  21  30
ENDBRANCH   9  11
ENDBRANCH   8   9
ENDBRANCH   7   8
ENDBRANCH   6   7
ENDBRANCH   5   6
ENDBRANCH   4   5
ENDBRANCH   3   4
ENDBRANCH   2   3
ENDBRANCH   1   2
BRANCH   1  34
ATOM     34  C   UNL A   1      37.768  28.828  31.924  1.00  0.00     0.188 C 
BRANCH  34  35
ATOM     35  O   UNL A   1      36.646  29.608  31.485  1.00  0.00    -0.376 OA
BRANCH  35  36
ATOM     36  C   UNL A   1      36.322  30.846  32.108  1.00  0.00     0.202 C 
BRANCH  36  37
ATOM     37  C   UNL A   1      36.484  32.140  31.309  1.00  0.00     0.261 C 
BRANCH  37  38
ATOM     38  O   UNL A   1      37.842  32.597  31.310  1.00  0.00    -0.460 OA
BRANCH  38  39
ATOM     39  C   UNL A   1      38.617  32.417  30.219  1.00  0.00     0.338 C 
ATOM     40  O   UNL A   1      38.369  32.718  29.066  1.00  0.00    -0.246 OA
BRANCH  39  41
ATOM     41  C   UNL A   1      39.984  32.256  30.781  1.00  0.00     0.060 A 
ATOM     42  C   UNL A   1      41.124  32.319  29.960  1.00  0.00     0.016 A 
ATOM     43  C   UNL A   1      40.006  31.548  31.991  1.00  0.00     0.016 A 
ATOM     44  C   UNL A   1      42.227  31.516  30.267  1.00  0.00     0.010 A 
ATOM     45  C   UNL A   1      41.072  30.705  32.254  1.00  0.00     0.010 A 
ATOM     46  C   UNL A   1      42.134  30.624  31.346  1.00  0.00    -0.014 A 
BRANCH  46  47
ATOM     47  C   UNL A   1      43.172  29.654  31.685  1.00  0.00     0.031 A 
ATOM     48  C   UNL A   1      43.030  28.347  31.042  1.00  0.00     0.074 A 
ATOM     49  C   UNL A   1      44.268  29.990  32.408  1.00  0.00     0.049 A 
ATOM     50  N   UNL A   1      43.606  27.267  31.420  1.00  0.00    -0.248 NA
ATOM     51  C   UNL A   1      42.162  28.166  29.878  1.00  0.00     0.031 C 
ATOM     52  C   UNL A   1      45.520  29.273  32.634  1.00  0.00     0.029 A 
ATOM     53  N   UNL A   1      44.367  31.021  33.344  1.00  0.00    -0.354 N 
ATOM     54  C   UNL A   1      43.566  26.431  30.326  1.00  0.00     0.074 A 
ATOM     55  C   UNL A   1      42.501  26.934  29.499  1.00  0.00     0.031 C 
ATOM     56  C   UNL A   1      45.999  29.611  33.853  1.00  0.00     0.029 A 
ATOM     57  C   UNL A   1      44.961  30.425  34.473  1.00  0.00     0.049 A 
ATOM     58  H   UNL A   1      44.085  31.957  33.237  1.00  0.00     0.167 HD
ATOM     59  C   UNL A   1      44.620  25.591  30.125  1.00  0.00     0.037 A 
ATOM     60  C   UNL A   1      44.192  30.085  35.551  1.00  0.00     0.037 A 
ATOM     61  C   UNL A   1      45.546  25.649  31.257  1.00  0.00     0.049 A 
ATOM     62  C   UNL A   1      44.326  28.598  35.874  1.00  0.00     0.074 A 
ATOM     63  C   UNL A   1      46.786  26.226  31.480  1.00  0.00     0.029 A 
ATOM     64  N   UNL A   1      45.056  25.324  32.505  1.00  0.00    -0.354 N 
ATOM     65  N   UNL A   1      44.641  27.709  34.963  1.00  0.00    -0.248 NA
ATOM     66  C   UNL A   1      44.229  27.984  37.200  1.00  0.00     0.031 C 
ATOM     67  C   UNL A   1      47.032  26.234  32.883  1.00  0.00     0.029 A 
ATOM     68  C   UNL A   1      45.915  25.711  33.505  1.00  0.00     0.049 A 
ATOM     69  H   UNL A   1      44.196  24.872  32.660  1.00  0.00     0.167 HD
ATOM     70  C   UNL A   1      44.944  26.514  35.557  1.00  0.00     0.074 A 
ATOM     71  C   UNL A   1      44.582  26.707  36.946  1.00  0.00     0.031 C 
ATOM     72  C   UNL A   1      45.513  25.474  34.875  1.00  0.00     0.037 A 
BRANCH  59  73
ATOM     73  C   UNL A   1      44.957  24.957  28.799  1.00  0.00     0.058 A 
ATOM     74  C   UNL A   1      45.444  25.753  27.741  1.00  0.00     0.135 A 
ATOM     75  C   UNL A   1      44.827  23.586  28.494  1.00  0.00     0.135 A 
ATOM     76  F   UNL A   1      45.673  27.064  27.880  1.00  0.00    -0.206 F 
ATOM     77  C   UNL A   1      45.732  25.250  26.478  1.00  0.00     0.059 A 
ATOM     78  C   UNL A   1      45.069  23.063  27.219  1.00  0.00     0.059 A 
ATOM     79  F   UNL A   1      44.522  22.682  29.433  1.00  0.00    -0.206 F 
ATOM     80  C   UNL A   1      45.537  23.905  26.222  1.00  0.00     0.060 A 
BRANCH  80  81
ATOM     81  S   UNL A   1      45.980  23.286  24.595  1.00  0.00     0.124 S 
ATOM     82  O   UNL A   1      46.930  24.293  24.134  1.00  0.00    -0.237 OA
ATOM     83  O   UNL A   1      46.545  21.980  24.918  1.00  0.00    -0.237 OA
ATOM     84  O   UNL A   1      44.706  23.260  23.883  1.00  0.00    -0.744 OA
ENDBRANCH  80  81
ENDBRANCH  59  73
BRANCH  60  85
ATOM     85  C   UNL A   1      42.999  30.998  35.724  1.00  0.00     0.058 A 
ATOM     86  C   UNL A   1      41.367  30.248  35.753  1.00  0.00     0.135 A 
ATOM     87  C   UNL A   1      43.090  32.668  36.138  1.00  0.00     0.135 A 
ATOM     88  F   UNL A   1      41.425  29.269  34.877  1.00  0.00    -0.206 F 
ATOM     89  C   UNL A   1      39.811  31.230  36.179  1.00  0.00     0.059 A 
ATOM     90  C   UNL A   1      41.696  33.633  36.544  1.00  0.00     0.059 A 
ATOM     91  F   UNL A   1      44.300  33.243  36.214  1.00  0.00    -0.206 F 
ATOM     92  C   UNL A   1      40.052  32.978  36.555  1.00  0.00     0.060 A 
BRANCH  92  93
ATOM     93  S   UNL A   1      38.782  34.155  36.988  1.00  0.00     0.124 S 
ATOM     94  O   UNL A   1      38.729  34.038  38.440  1.00  0.00    -0.237 OA
ATOM     95  O   UNL A   1      39.298  35.414  36.463  1.00  0.00    -0.237 OA
ATOM     96  O   UNL A   1      37.612  33.658  36.269  1.00  0.00    -0.744 OA
ENDBRANCH  92  93
ENDBRANCH  60  85
BRANCH  72  97
ATOM     97  C   UNL A   1      45.706  24.095  35.423  1.00  0.00     0.058 A 
ATOM     98  C   UNL A   1      44.761  23.074  35.305  1.00  0.00     0.135 A 
ATOM     99  C   UNL A   1      46.881  23.788  36.152  1.00  0.00     0.135 A 
ATOM    100  F   UNL A   1      43.568  23.307  34.734  1.00  0.00    -0.206 F 
ATOM    101  C   UNL A   1      45.023  21.783  35.765  1.00  0.00     0.059 A 
ATOM    102  C   UNL A   1      47.138  22.530  36.667  1.00  0.00     0.059 A 
ATOM    103  F   UNL A   1      47.854  24.689  36.344  1.00  0.00    -0.206 F 
ATOM    104  C   UNL A   1      46.230  21.517  36.414  1.00  0.00     0.060 A 
BRANCH 104 105
ATOM    105  S   UNL A   1      46.653  19.830  36.868  1.00  0.00     0.124 S 
ATOM    106  O   UNL A   1      46.160  19.063  35.730  1.00  0.00    -0.237 OA
ATOM    107  O   UNL A   1      48.105  19.925  36.988  1.00  0.00    -0.237 OA
ATOM    108  O   UNL A   1      45.933  19.620  38.119  1.00  0.00    -0.744 OA
ENDBRANCH 104 105
ENDBRANCH  72  97
ENDBRANCH  46  47
ENDBRANCH  39  41
ENDBRANCH  38  39
ENDBRANCH  37  38
ENDBRANCH  36  37
ENDBRANCH  35  36
ENDBRANCH  34  35
ENDBRANCH   1  34
TORSDOF 25
ENDMDL
MODEL 2
REMARK VINA RESULT:     -11.4      1.255      1.976
REMARK SMILES Cc1ccc(-c2cc(Cl)cc3c2O[C@H](C(F)(F)F)C(C(=O)OCCOCCOCCOCCOC(=O)c2ccc(-c4c5nc(c(-c6c(F)cc(S(=O)(=O)[O-])cc6F)c6ccc([nH]6)c(-c6c(F)cc(S(=O)(=O)[O-])cc6F)c6nc(c(-c7c(F)cc(S(=O)(=O)[O-])cc7F)c7ccc4[nH]7)C=C6)C=C5)cc2)=C3)cc1F
REMARK SMILES IDX 29 1 28 2 27 3 26 4 25 5 24 6 23 7 22 8 20 9 21 10 19 11
REMARK SMILES IDX 6 12 7 13 12 14 8 15 11 16 13 17 9 18 10 19 103 20 14 21
REMARK SMILES IDX 5 22 1 23 2 24 3 25 105 26 4 27 104 28 106 29 15 30 16 31
REMARK SMILES IDX 17 32 18 33 30 34 31 35 32 36 33 37 34 38 35 39 36 40 37 41
REMARK SMILES IDX 38 42 102 43 39 44 101 45 40 46 41 47 42 48 95 49 43 50
REMARK SMILES IDX 100 51 94 52 96 53 44 54 99 55 93 56 92 57 45 59 79 60 58 61
REMARK SMILES IDX 78 62 59 63 62 64 77 65 97 66 60 67 61 68 76 70 98 71 63 72
REMARK SMILES IDX 46 73 47 74 56 75 48 76 49 77 55 78 57 79 50 80 51 81 52 82
REMARK SMILES IDX 53 83 54 84 80 85 81 86 90 87 82 88 83 89 89 90 91 91 84 92
REMARK SMILES IDX 85 93 86 94 87 95 88 96 64 97 65 98 74 99 66 100 67 101
REMARK SMILES IDX 73 102 75 103 68 104 69 105 70 106 71 107 72 108
REMARK H PARENT 96 58 62 69
REMARK Flexibility Score: inf
ROOT
ATOM      1  C   UNL A   1      38.906  27.887  30.393  1.00  0.00     0.188 C 
ENDROOT
BRANCH   1   2
ATOM      2  O   UNL A   1      39.215  27.513  28.440  1.00  0.00    -0.377 OA
BRANCH   2   3
ATOM      3  C   UNL A   1      39.791  26.060  27.608  1.00  0.00     0.188 C 
BRANCH   3   4
ATOM      4  C   UNL A   1      39.072  24.413  27.546  1.00  0.00     0.188 C 
BRANCH   4   5
ATOM      5  O   UNL A   1      38.404  23.534  26.579  1.00  0.00    -0.376 OA
BRANCH   5   6
ATOM      6  C   UNL A   1      37.318  23.705  25.629  1.00  0.00     0.202 C 
BRANCH   6   7
ATOM      7  C   UNL A   1      35.912  23.007  25.717  1.00  0.00     0.261 C 
BRANCH   7   8
ATOM      8  O   UNL A   1      34.894  23.580  24.877  1.00  0.00    -0.460 OA
BRANCH   8   9
ATOM      9  C   UNL A   1      33.683  23.695  25.438  1.00  0.00     0.338 C 
ATOM     10  O   UNL A   1      33.186  22.910  26.231  1.00  0.00    -0.246 OA
BRANCH   9  11
ATOM     11  C   UNL A   1      33.157  25.053  25.203  1.00  0.00     0.087 C 
ATOM     12  C   UNL A   1      31.998  29.076  24.847  1.00  0.00     0.026 A 
ATOM     13  C   UNL A   1      32.560  29.986  25.769  1.00  0.00     0.033 A 
ATOM     14  C   UNL A   1      32.457  27.742  24.878  1.00  0.00     0.135 A 
ATOM     15  C   UNL A   1      33.558  29.596  26.657  1.00  0.00     0.042 A 
ATOM     16  C   UNL A   1      33.407  27.351  25.828  1.00  0.00     0.019 A 
ATOM     17  O   UNL A   1      31.975  26.859  23.946  1.00  0.00    -0.475 OA
ATOM     18  Cl  UNL A   1      34.208  30.725  27.781  1.00  0.00    -0.084 Cl
ATOM     19  C   UNL A   1      33.994  28.282  26.682  1.00  0.00     0.032 A 
ATOM     20  C   UNL A   1      33.760  25.959  25.980  1.00  0.00     0.027 C 
ATOM     21  C   UNL A   1      32.175  25.419  24.123  1.00  0.00     0.316 C 
BRANCH  12  22
ATOM     22  C   UNL A   1      30.897  29.541  23.972  1.00  0.00    -0.012 A 
ATOM     23  C   UNL A   1      27.887  31.132  21.286  1.00  0.00     0.047 C 
ATOM     24  C   UNL A   1      28.927  30.564  22.201  1.00  0.00    -0.015 A 
ATOM     25  C   UNL A   1      29.681  29.443  21.847  1.00  0.00     0.007 A 
ATOM     26  C   UNL A   1      29.155  31.152  23.445  1.00  0.00     0.126 A 
ATOM     27  C   UNL A   1      30.649  28.938  22.725  1.00  0.00     0.009 A 
ATOM     28  C   UNL A   1      30.122  30.658  24.317  1.00  0.00     0.048 A 
ATOM     29  F   UNL A   1      28.453  32.235  23.807  1.00  0.00    -0.207 F 
ENDBRANCH  12  22
BRANCH  21  30
ATOM     30  C   UNL A   1      30.793  24.808  24.320  1.00  0.00     0.430 C 
ATOM     31  F   UNL A   1      30.691  23.621  23.676  1.00  0.00    -0.167 F 
ATOM     32  F   UNL A   1      30.528  24.580  25.623  1.00  0.00    -0.167 F 
ATOM     33  F   UNL A   1      29.822  25.612  23.829  1.00  0.00    -0.167 F 
ENDBRANCH  21  30
ENDBRANCH   9  11
ENDBRANCH   8   9
ENDBRANCH   7   8
ENDBRANCH   6   7
ENDBRANCH   5   6
ENDBRANCH   4   5
ENDBRANCH   3   4
ENDBRANCH   2   3
ENDBRANCH   1   2
BRANCH   1  34
ATOM     34  C   UNL A   1      37.472  28.807  31.089  1.00  0.00     0.188 C 
BRANCH  34  35
ATOM     35  O   UNL A   1      36.752  29.840  30.398  1.00  0.00    -0.376 OA
BRANCH  35  36
ATOM     36  C   UNL A   1      36.052  30.853  31.113  1.00  0.00     0.202 C 
BRANCH  36  37
ATOM     37  C   UNL A   1      36.179  32.305  30.650  1.00  0.00     0.261 C 
BRANCH  37  38
ATOM     38  O   UNL A   1      37.412  32.893  31.080  1.00  0.00    -0.460 OA
BRANCH  38  39
ATOM     39  C   UNL A   1      38.428  33.048  30.205  1.00  0.00     0.338 C 
ATOM     40  O   UNL A   1      38.410  33.615  29.128  1.00  0.00    -0.246 OA
BRANCH  39  41
ATOM     41  C   UNL A   1      39.644  32.841  31.037  1.00  0.00     0.060 A 
ATOM     42  C   UNL A   1      40.899  33.329  30.631  1.00  0.00     0.016 A 
ATOM     43  C   UNL A   1      39.543  31.741  31.901  1.00  0.00     0.016 A 
ATOM     44  C   UNL A   1      42.046  32.595  30.948  1.00  0.00     0.010 A 
ATOM     45  C   UNL A   1      40.674  30.983  32.153  1.00  0.00     0.010 A 
ATOM     46  C   UNL A   1      41.903  31.362  31.600  1.00  0.00    -0.014 A 
BRANCH  46  47
ATOM     47  C   UNL A   1      43.014  30.456  31.872  1.00  0.00     0.031 A 
ATOM     48  C   UNL A   1      43.156  29.349  30.924  1.00  0.00     0.074 A 
ATOM     49  C   UNL A   1      43.939  30.711  32.829  1.00  0.00     0.049 A 
ATOM     50  N   UNL A   1      43.827  28.277  31.129  1.00  0.00    -0.248 NA
ATOM     51  C   UNL A   1      42.493  29.380  29.621  1.00  0.00     0.031 C 
ATOM     52  C   UNL A   1      45.240  30.100  33.090  1.00  0.00     0.029 A 
ATOM     53  N   UNL A   1      43.756  31.472  33.985  1.00  0.00    -0.354 N 
ATOM     54  C   UNL A   1      44.062  27.750  29.878  1.00  0.00     0.074 A 
ATOM     55  C   UNL A   1      43.058  28.331  29.025  1.00  0.00     0.031 C 
ATOM     56  C   UNL A   1      45.491  30.163  34.417  1.00  0.00     0.029 A 
ATOM     57  C   UNL A   1      44.269  30.675  35.026  1.00  0.00     0.049 A 
ATOM     58  H   UNL A   1      43.356  32.368  34.057  1.00  0.00     0.167 HD
ATOM     59  C   UNL A   1      45.245  27.109  29.667  1.00  0.00     0.037 A 
ATOM     60  C   UNL A   1      43.418  29.988  35.847  1.00  0.00     0.037 A 
ATOM     61  C   UNL A   1      45.987  26.974  30.921  1.00  0.00     0.049 A 
ATOM     62  C   UNL A   1      43.723  28.492  35.827  1.00  0.00     0.074 A 
ATOM     63  C   UNL A   1      47.086  27.605  31.481  1.00  0.00     0.029 A 
ATOM     64  N   UNL A   1      45.383  26.290  31.955  1.00  0.00    -0.354 N 
ATOM     65  N   UNL A   1      44.287  27.906  34.799  1.00  0.00    -0.248 NA
ATOM     66  C   UNL A   1      43.535  27.552  36.934  1.00  0.00     0.031 C 
ATOM     67  C   UNL A   1      47.133  27.280  32.868  1.00  0.00     0.029 A 
ATOM     68  C   UNL A   1      46.030  26.498  33.149  1.00  0.00     0.049 A 
ATOM     69  H   UNL A   1      44.585  25.722  31.850  1.00  0.00     0.167 HD
ATOM     70  C   UNL A   1      44.678  26.638  35.136  1.00  0.00     0.074 A 
ATOM     71  C   UNL A   1      44.103  26.429  36.449  1.00  0.00     0.031 C 
ATOM     72  C   UNL A   1      45.482  25.875  34.335  1.00  0.00     0.037 A 
BRANCH  59  73
ATOM     73  C   UNL A   1      45.851  26.876  28.306  1.00  0.00     0.058 A 
ATOM     74  C   UNL A   1      46.206  25.571  27.906  1.00  0.00     0.135 A 
ATOM     75  C   UNL A   1      46.114  27.878  27.348  1.00  0.00     0.135 A 
ATOM     76  F   UNL A   1      45.977  24.501  28.676  1.00  0.00    -0.206 F 
ATOM     77  C   UNL A   1      46.811  25.284  26.689  1.00  0.00     0.059 A 
ATOM     78  C   UNL A   1      46.761  27.621  26.135  1.00  0.00     0.059 A 
ATOM     79  F   UNL A   1      45.699  29.139  27.517  1.00  0.00    -0.206 F 
ATOM     80  C   UNL A   1      47.092  26.314  25.810  1.00  0.00     0.060 A 
BRANCH  80  81
ATOM     81  S   UNL A   1      47.818  25.891  24.222  1.00  0.00     0.124 S 
ATOM     82  O   UNL A   1      47.421  27.025  23.393  1.00  0.00    -0.237 OA
ATOM     83  O   UNL A   1      49.236  25.813  24.556  1.00  0.00    -0.237 OA
ATOM     84  O   UNL A   1      47.182  24.621  23.886  1.00  0.00    -0.744 OA
ENDBRANCH  80  81
ENDBRANCH  59  73
BRANCH  60  85
ATOM     85  C   UNL A   1      42.091  30.692  36.024  1.00  0.00     0.058 A 
ATOM     86  C   UNL A   1      40.601  29.805  35.557  1.00  0.00     0.135 A 
ATOM     87  C   UNL A   1      41.872  32.181  36.864  1.00  0.00     0.135 A 
ATOM     88  F   UNL A   1      40.934  29.119  34.484  1.00  0.00    -0.206 F 
ATOM     89  C   UNL A   1      38.872  30.467  35.925  1.00  0.00     0.059 A 
ATOM     90  C   UNL A   1      40.306  32.849  37.240  1.00  0.00     0.059 A 
ATOM     91  F   UNL A   1      42.959  32.830  37.309  1.00  0.00    -0.206 F 
ATOM     92  C   UNL A   1      38.793  32.056  36.776  1.00  0.00     0.060 A 
BRANCH  92  93
ATOM     93  S   UNL A   1      37.314  32.932  37.255  1.00  0.00     0.124 S 
ATOM     94  O   UNL A   1      36.659  33.163  35.973  1.00  0.00    -0.237 OA
ATOM     95  O   UNL A   1      36.649  32.001  38.158  1.00  0.00    -0.237 OA
ATOM     96  O   UNL A   1      37.837  34.121  37.922  1.00  0.00    -0.744 OA
ENDBRANCH  92  93
ENDBRANCH  60  85
BRANCH  72  97
ATOM     97  C   UNL A   1      45.798  24.432  34.567  1.00  0.00     0.058 A 
ATOM     98  C   UNL A   1      46.856  23.988  35.364  1.00  0.00     0.135 A 
ATOM     99  C   UNL A   1      45.033  23.432  33.918  1.00  0.00     0.135 A 
ATOM    100  F   UNL A   1      47.707  24.864  35.923  1.00  0.00    -0.206 F 
ATOM    101  C   UNL A   1      47.060  22.630  35.612  1.00  0.00     0.059 A 
ATOM    102  C   UNL A   1      45.253  22.079  34.103  1.00  0.00     0.059 A 
ATOM    103  F   UNL A   1      44.002  23.734  33.118  1.00  0.00    -0.206 F 
ATOM    104  C   UNL A   1      46.230  21.688  35.002  1.00  0.00     0.060 A 
BRANCH 104 105
ATOM    105  S   UNL A   1      46.375  19.949  35.435  1.00  0.00     0.124 S 
ATOM    106  O   UNL A   1      44.984  19.508  35.443  1.00  0.00    -0.237 OA
ATOM    107  O   UNL A   1      47.193  19.451  34.334  1.00  0.00    -0.237 OA
ATOM    108  O   UNL A   1      47.027  19.974  36.740  1.00  0.00    -0.744 OA
ENDBRANCH 104 105
ENDBRANCH  72  97
ENDBRANCH  46  47
ENDBRANCH  39  41
ENDBRANCH  38  39
ENDBRANCH  37  38
ENDBRANCH  36  37
ENDBRANCH  35  36
ENDBRANCH  34  35
ENDBRANCH   1  34
TORSDOF 25
ENDMDL
MODEL 3
REMARK VINA RESULT:     -10.4      7.086     12.027
REMARK SMILES Cc1ccc(-c2cc(Cl)cc3c2O[C@H](C(F)(F)F)C(C(=O)OCCOCCOCCOCCOC(=O)c2ccc(-c4c5nc(c(-c6c(F)cc(S(=O)(=O)[O-])cc6F)c6ccc([nH]6)c(-c6c(F)cc(S(=O)(=O)[O-])cc6F)c6nc(c(-c7c(F)cc(S(=O)(=O)[O-])cc7F)c7ccc4[nH]7)C=C6)C=C5)cc2)=C3)cc1F
REMARK SMILES IDX 29 1 28 2 27 3 26 4 25 5 24 6 23 7 22 8 20 9 21 10 19 11
REMARK SMILES IDX 6 12 7 13 12 14 8 15 11 16 13 17 9 18 10 19 103 20 14 21
REMARK SMILES IDX 5 22 1 23 2 24 3 25 105 26 4 27 104 28 106 29 15 30 16 31
REMARK SMILES IDX 17 32 18 33 30 34 31 35 32 36 33 37 34 38 35 39 36 40 37 41
REMARK SMILES IDX 38 42 102 43 39 44 101 45 40 46 41 47 42 48 95 49 43 50
REMARK SMILES IDX 100 51 94 52 96 53 44 54 99 55 93 56 92 57 45 59 79 60 58 61
REMARK SMILES IDX 78 62 59 63 62 64 77 65 97 66 60 67 61 68 76 70 98 71 63 72
REMARK SMILES IDX 46 73 47 74 56 75 48 76 49 77 55 78 57 79 50 80 51 81 52 82
REMARK SMILES IDX 53 83 54 84 80 85 81 86 90 87 82 88 83 89 89 90 91 91 84 92
REMARK SMILES IDX 85 93 86 94 87 95 88 96 64 97 65 98 74 99 66 100 67 101
REMARK SMILES IDX 73 102 75 103 68 104 69 105 70 106 71 107 72 108
REMARK H PARENT 96 58 62 69
REMARK Flexibility Score: inf
ROOT
ATOM      1  C   UNL A   1      35.454  29.330  27.417  1.00  0.00     0.188 C 
ENDROOT
BRANCH   1   2
ATOM      2  O   UNL A   1      33.747  30.319  27.814  1.00  0.00    -0.377 OA
BRANCH   2   3
ATOM      3  C   UNL A   1      32.354  30.698  26.789  1.00  0.00     0.188 C 
BRANCH   3   4
ATOM      4  C   UNL A   1      31.590  29.723  25.485  1.00  0.00     0.188 C 
BRANCH   4   5
ATOM      5  O   UNL A   1      31.138  29.893  24.099  1.00  0.00    -0.376 OA
BRANCH   5   6
ATOM      6  C   UNL A   1      30.834  28.982  23.009  1.00  0.00     0.202 C 
BRANCH   6   7
ATOM      7  C   UNL A   1      30.791  27.414  23.116  1.00  0.00     0.261 C 
BRANCH   7   8
ATOM      8  O   UNL A   1      31.914  26.818  23.790  1.00  0.00    -0.460 OA
BRANCH   8   9
ATOM      9  C   UNL A   1      31.620  26.140  24.906  1.00  0.00     0.338 C 
ATOM     10  O   UNL A   1      30.663  26.345  25.637  1.00  0.00    -0.246 OA
BRANCH   9  11
ATOM     11  C   UNL A   1      32.441  24.915  24.970  1.00  0.00     0.087 C 
ATOM     12  C   UNL A   1      35.135  21.710  25.330  1.00  0.00     0.026 A 
ATOM     13  C   UNL A   1      36.477  22.034  25.622  1.00  0.00     0.033 A 
ATOM     14  C   UNL A   1      34.193  22.761  25.315  1.00  0.00     0.135 A 
ATOM     15  C   UNL A   1      36.861  23.339  25.919  1.00  0.00     0.042 A 
ATOM     16  C   UNL A   1      34.611  24.077  25.542  1.00  0.00     0.019 A 
ATOM     17  O   UNL A   1      32.873  22.459  25.101  1.00  0.00    -0.475 OA
ATOM     18  Cl  UNL A   1      38.509  23.704  26.251  1.00  0.00    -0.084 Cl
ATOM     19  C   UNL A   1      35.929  24.363  25.893  1.00  0.00     0.032 A 
ATOM     20  C   UNL A   1      33.692  25.178  25.363  1.00  0.00     0.027 C 
ATOM     21  C   UNL A   1      31.919  23.518  24.770  1.00  0.00     0.316 C 
BRANCH  12  22
ATOM     22  C   UNL A   1      34.806  20.314  24.963  1.00  0.00    -0.012 A 
ATOM     23  C   UNL A   1      33.878  16.315  23.563  1.00  0.00     0.047 C 
ATOM     24  C   UNL A   1      34.218  17.688  24.054  1.00  0.00    -0.015 A 
ATOM     25  C   UNL A   1      35.514  18.024  24.452  1.00  0.00     0.007 A 
ATOM     26  C   UNL A   1      33.226  18.665  24.131  1.00  0.00     0.126 A 
ATOM     27  C   UNL A   1      35.800  19.319  24.904  1.00  0.00     0.009 A 
ATOM     28  C   UNL A   1      33.507  19.956  24.573  1.00  0.00     0.048 A 
ATOM     29  F   UNL A   1      31.975  18.373  23.748  1.00  0.00    -0.207 F 
ENDBRANCH  12  22
BRANCH  21  30
ATOM     30  C   UNL A   1      31.436  23.243  23.352  1.00  0.00     0.430 C 
ATOM     31  F   UNL A   1      31.374  21.911  23.109  1.00  0.00    -0.167 F 
ATOM     32  F   UNL A   1      30.202  23.746  23.136  1.00  0.00    -0.167 F 
ATOM     33  F   UNL A   1      32.272  23.776  22.432  1.00  0.00    -0.167 F 
ENDBRANCH  21  30
ENDBRANCH   9  11
ENDBRANCH   8   9
ENDBRANCH   7   8
ENDBRANCH   6   7
ENDBRANCH   5   6
ENDBRANCH   4   5
ENDBRANCH   3   4
ENDBRANCH   2   3
ENDBRANCH   1   2
BRANCH   1  34
ATOM     34  C   UNL A   1      37.075  29.627  28.237  1.00  0.00     0.188 C 
BRANCH  34  35
ATOM     35  O   UNL A   1      38.331  29.724  27.549  1.00  0.00    -0.376 OA
BRANCH  35  36
ATOM     36  C   UNL A   1      39.329  28.719  27.694  1.00  0.00     0.202 C 
BRANCH  36  37
ATOM     37  C   UNL A   1      40.633  28.854  26.906  1.00  0.00     0.261 C 
BRANCH  37  38
ATOM     38  O   UNL A   1      41.777  28.591  27.725  1.00  0.00    -0.460 OA
BRANCH  38  39
ATOM     39  C   UNL A   1      42.411  29.607  28.347  1.00  0.00     0.338 C 
ATOM     40  O   UNL A   1      41.934  30.448  29.086  1.00  0.00    -0.246 OA
BRANCH  39  41
ATOM     41  C   UNL A   1      43.837  29.184  28.350  1.00  0.00     0.060 A 
ATOM     42  C   UNL A   1      44.661  29.398  29.470  1.00  0.00     0.016 A 
ATOM     43  C   UNL A   1      44.384  29.072  27.064  1.00  0.00     0.016 A 
ATOM     44  C   UNL A   1      46.015  29.683  29.271  1.00  0.00     0.010 A 
ATOM     45  C   UNL A   1      45.709  29.421  26.868  1.00  0.00     0.010 A 
ATOM     46  C   UNL A   1      46.493  29.814  27.959  1.00  0.00    -0.014 A 
BRANCH  46  47
ATOM     47  C   UNL A   1      47.855  30.227  27.631  1.00  0.00     0.031 A 
ATOM     48  C   UNL A   1      47.977  31.584  27.095  1.00  0.00     0.074 A 
ATOM     49  C   UNL A   1      48.936  29.476  27.951  1.00  0.00     0.049 A 
ATOM     50  N   UNL A   1      48.985  32.040  26.450  1.00  0.00    -0.248 NA
ATOM     51  C   UNL A   1      46.895  32.557  27.246  1.00  0.00     0.031 C 
ATOM     52  C   UNL A   1      50.360  29.803  27.957  1.00  0.00     0.029 A 
ATOM     53  N   UNL A   1      48.971  28.090  28.114  1.00  0.00    -0.354 N 
ATOM     54  C   UNL A   1      48.882  33.411  26.535  1.00  0.00     0.074 A 
ATOM     55  C   UNL A   1      47.498  33.672  26.835  1.00  0.00     0.031 C 
ATOM     56  C   UNL A   1      51.064  28.680  27.688  1.00  0.00     0.029 A 
ATOM     57  C   UNL A   1      50.074  27.665  27.349  1.00  0.00     0.049 A 
ATOM     58  H   UNL A   1      48.360  27.533  28.647  1.00  0.00     0.167 HD
ATOM     59  C   UNL A   1      50.033  34.135  26.618  1.00  0.00     0.037 A 
ATOM     60  C   UNL A   1      49.877  27.096  26.121  1.00  0.00     0.037 A 
ATOM     61  C   UNL A   1      51.199  33.269  26.435  1.00  0.00     0.049 A 
ATOM     62  C   UNL A   1      50.623  27.865  25.033  1.00  0.00     0.074 A 
ATOM     63  C   UNL A   1      52.156  32.724  27.275  1.00  0.00     0.029 A 
ATOM     64  N   UNL A   1      51.296  32.566  25.252  1.00  0.00    -0.354 N 
ATOM     65  N   UNL A   1      50.909  29.139  25.146  1.00  0.00    -0.248 NA
ATOM     66  C   UNL A   1      51.192  27.303  23.806  1.00  0.00     0.031 C 
ATOM     67  C   UNL A   1      52.833  31.686  26.571  1.00  0.00     0.029 A 
ATOM     68  C   UNL A   1      52.244  31.573  25.327  1.00  0.00     0.049 A 
ATOM     69  H   UNL A   1      50.753  32.751  24.452  1.00  0.00     0.167 HD
ATOM     70  C   UNL A   1      51.791  29.512  24.168  1.00  0.00     0.074 A 
ATOM     71  C   UNL A   1      51.865  28.356  23.299  1.00  0.00     0.031 C 
ATOM     72  C   UNL A   1      52.428  30.723  24.171  1.00  0.00     0.037 A 
BRANCH  59  73
ATOM     73  C   UNL A   1      50.112  35.542  27.153  1.00  0.00     0.058 A 
ATOM     74  C   UNL A   1      50.213  35.765  28.542  1.00  0.00     0.135 A 
ATOM     75  C   UNL A   1      50.092  36.715  26.369  1.00  0.00     0.135 A 
ATOM     76  F   UNL A   1      50.296  34.760  29.422  1.00  0.00    -0.206 F 
ATOM     77  C   UNL A   1      50.243  37.031  29.112  1.00  0.00     0.059 A 
ATOM     78  C   UNL A   1      50.077  38.000  26.920  1.00  0.00     0.059 A 
ATOM     79  F   UNL A   1      50.150  36.668  25.032  1.00  0.00    -0.206 F 
ATOM     80  C   UNL A   1      50.169  38.146  28.296  1.00  0.00     0.060 A 
BRANCH  80  81
ATOM     81  S   UNL A   1      50.273  39.763  29.070  1.00  0.00     0.124 S 
ATOM     82  O   UNL A   1      48.873  40.056  29.355  1.00  0.00    -0.237 OA
ATOM     83  O   UNL A   1      51.113  39.484  30.230  1.00  0.00    -0.237 OA
ATOM     84  O   UNL A   1      50.886  40.594  28.038  1.00  0.00    -0.744 OA
ENDBRANCH  80  81
ENDBRANCH  59  73
BRANCH  60  85
ATOM     85  C   UNL A   1      48.568  26.342  26.035  1.00  0.00     0.058 A 
ATOM     86  C   UNL A   1      48.284  25.018  27.214  1.00  0.00     0.135 A 
ATOM     87  C   UNL A   1      47.228  26.808  25.057  1.00  0.00     0.135 A 
ATOM     88  F   UNL A   1      49.456  24.443  27.372  1.00  0.00    -0.206 F 
ATOM     89  C   UNL A   1      46.619  24.142  27.368  1.00  0.00     0.059 A 
ATOM     90  C   UNL A   1      45.663  26.045  25.149  1.00  0.00     0.059 A 
ATOM     91  F   UNL A   1      47.375  27.852  24.226  1.00  0.00    -0.206 F 
ATOM     92  C   UNL A   1      45.317  24.708  26.255  1.00  0.00     0.060 A 
BRANCH  92  93
ATOM     93  S   UNL A   1      43.649  24.077  26.163  1.00  0.00     0.124 S 
ATOM     94  O   UNL A   1      42.852  25.248  26.510  1.00  0.00    -0.237 OA
ATOM     95  O   UNL A   1      43.541  23.611  24.786  1.00  0.00    -0.237 OA
ATOM     96  O   UNL A   1      43.650  22.999  27.148  1.00  0.00    -0.744 OA
ENDBRANCH  92  93
ENDBRANCH  60  85
BRANCH  72  97
ATOM     97  C   UNL A   1      53.263  31.252  23.048  1.00  0.00     0.058 A 
ATOM     98  C   UNL A   1      54.632  31.510  23.154  1.00  0.00     0.135 A 
ATOM     99  C   UNL A   1      52.654  31.569  21.809  1.00  0.00     0.135 A 
ATOM    100  F   UNL A   1      55.269  31.353  24.326  1.00  0.00    -0.206 F 
ATOM    101  C   UNL A   1      55.380  31.929  22.054  1.00  0.00     0.059 A 
ATOM    102  C   UNL A   1      53.366  32.039  20.721  1.00  0.00     0.059 A 
ATOM    103  F   UNL A   1      51.346  31.378  21.591  1.00  0.00    -0.206 F 
ATOM    104  C   UNL A   1      54.741  32.157  20.834  1.00  0.00     0.060 A 
BRANCH 104 105
ATOM    105  S   UNL A   1      55.710  32.539  19.369  1.00  0.00     0.124 S 
ATOM    106  O   UNL A   1      56.961  33.030  19.937  1.00  0.00    -0.237 OA
ATOM    107  O   UNL A   1      55.774  31.232  18.724  1.00  0.00    -0.237 OA
ATOM    108  O   UNL A   1      54.905  33.541  18.677  1.00  0.00    -0.744 OA
ENDBRANCH 104 105
ENDBRANCH  72  97
ENDBRANCH  46  47
ENDBRANCH  39  41
ENDBRANCH  38  39
ENDBRANCH  37  38
ENDBRANCH  36  37
ENDBRANCH  35  36
ENDBRANCH  34  35
ENDBRANCH   1  34
TORSDOF 25
ENDMDL
