MODEL 1
REMARK VINA RESULT:      -9.7      0.000      0.000
REMARK SMILES Cc1ccc2ncc(/C=C/c3cc(C(=O)OCCOCCOCCOCCOC(=O)c4ccc(-c5c6nc(c(-c7c(F)cc(S(=O)(=O)[O-])cc7F)c7ccc([nH]7)c(-c7c(F)cc(S(=O)(=O)[O-])cc7F)c7nc(c(-c8c(F)cc(S(=O)(=O)[O-])cc8F)c8ccc5[nH]8)C=C7)C=C6)cc4)ncn3)n2c1
REMARK SMILES IDX 23 1 22 2 21 3 20 4 19 5 18 6 17 7 16 8 14 9 15 10 13 11
REMARK SMILES IDX 11 12 12 13 99 14 98 15 97 16 10 17 9 18 8 19 1 20 2 21 3 22
REMARK SMILES IDX 101 23 4 24 100 25 5 26 6 27 7 28 24 29 25 30 26 31 27 32
REMARK SMILES IDX 28 33 29 34 30 35 31 36 32 37 96 38 33 39 95 40 34 41 35 42
REMARK SMILES IDX 36 43 89 44 37 45 94 46 88 47 90 48 38 49 93 50 87 51 86 52
REMARK SMILES IDX 39 54 73 55 52 56 72 57 53 58 56 59 71 60 91 61 54 62 55 63
REMARK SMILES IDX 70 65 92 66 57 67 40 68 41 69 50 70 42 71 43 72 49 73 51 74
REMARK SMILES IDX 44 75 45 76 46 77 47 78 48 79 74 80 75 81 84 82 76 83 77 84
REMARK SMILES IDX 83 85 85 86 78 87 79 88 80 89 81 90 82 91 58 92 59 93 68 94
REMARK SMILES IDX 60 95 61 96 67 97 69 98 62 99 63 100 64 101 65 102 66 103
REMARK H PARENT 90 53 56 64
REMARK Flexibility Score: inf
ROOT
ATOM      1  C   UNL A   1      44.046  45.249  32.959  1.00  0.00     0.188 C 
ENDROOT
BRANCH   1   2
ATOM      2  O   UNL A   1      43.131  44.640  32.054  1.00  0.00    -0.377 OA
BRANCH   2   3
ATOM      3  C   UNL A   1      43.050  43.232  32.045  1.00  0.00     0.188 C 
BRANCH   3   4
ATOM      4  C   UNL A   1      43.555  42.594  30.743  1.00  0.00     0.188 C 
BRANCH   4   5
ATOM      5  O   UNL A   1      44.145  43.491  29.826  1.00  0.00    -0.376 OA
BRANCH   5   6
ATOM      6  C   UNL A   1      44.866  43.093  28.668  1.00  0.00     0.202 C 
BRANCH   6   7
ATOM      7  C   UNL A   1      45.243  43.950  27.446  1.00  0.00     0.261 C 
BRANCH   7   8
ATOM      8  O   UNL A   1      45.553  43.257  26.250  1.00  0.00    -0.459 OA
BRANCH   8   9
ATOM      9  C   UNL A   1      45.180  43.850  25.092  1.00  0.00     0.357 C 
ATOM     10  O   UNL A   1      45.778  44.697  24.475  1.00  0.00    -0.244 OA
BRANCH   9  11
ATOM     11  C   UNL A   1      44.017  43.051  24.612  1.00  0.00     0.152 A 
ATOM     12  C   UNL A   1      42.378  42.586  23.045  1.00  0.00     0.067 A 
ATOM     13  C   UNL A   1      43.417  43.394  23.429  1.00  0.00     0.064 A 
ATOM     14  N   UNL A   1      41.842  41.638  23.840  1.00  0.00    -0.237 NA
ATOM     15  C   UNL A   1      42.470  41.439  25.008  1.00  0.00     0.223 A 
ATOM     16  N   UNL A   1      43.561  42.077  25.435  1.00  0.00    -0.229 NA
BRANCH  12  17
ATOM     17  C   UNL A   1      41.859  42.648  21.675  1.00  0.00     0.030 C 
ATOM     18  C   UNL A   1      42.030  43.775  20.968  1.00  0.00     0.030 C 
BRANCH  18  19
ATOM     19  C   UNL A   1      41.705  44.074  19.624  1.00  0.00     0.065 A 
ATOM     20  C   UNL A   1      45.382  46.964  17.762  1.00  0.00     0.046 C 
ATOM     21  C   UNL A   1      44.071  46.245  17.730  1.00  0.00    -0.034 A 
ATOM     22  C   UNL A   1      43.249  46.302  16.529  1.00  0.00     0.009 A 
ATOM     23  C   UNL A   1      43.613  45.548  18.786  1.00  0.00     0.096 A 
ATOM     24  C   UNL A   1      42.069  45.662  16.459  1.00  0.00     0.048 A 
ATOM     25  N   UNL A   1      42.396  44.863  18.718  1.00  0.00    -0.300 N 
ATOM     26  C   UNL A   1      41.605  44.898  17.563  1.00  0.00     0.137 A 
ATOM     27  N   UNL A   1      40.504  44.196  17.686  1.00  0.00    -0.236 NA
ATOM     28  C   UNL A   1      40.555  43.689  18.949  1.00  0.00     0.140 A 
ENDBRANCH  18  19
ENDBRANCH  12  17
ENDBRANCH   9  11
ENDBRANCH   8   9
ENDBRANCH   7   8
ENDBRANCH   6   7
ENDBRANCH   5   6
ENDBRANCH   4   5
ENDBRANCH   3   4
ENDBRANCH   2   3
ENDBRANCH   1   2
BRANCH   1  29
ATOM     29  C   UNL A   1      45.276  44.510  33.540  1.00  0.00     0.188 C 
BRANCH  29  30
ATOM     30  O   UNL A   1      45.106  44.107  34.889  1.00  0.00    -0.376 OA
BRANCH  30  31
ATOM     31  C   UNL A   1      45.605  42.837  35.273  1.00  0.00     0.202 C 
BRANCH  31  32
ATOM     32  C   UNL A   1      44.694  41.599  35.149  1.00  0.00     0.261 C 
BRANCH  32  33
ATOM     33  O   UNL A   1      45.352  40.338  35.366  1.00  0.00    -0.460 OA
BRANCH  33  34
ATOM     34  C   UNL A   1      45.377  39.399  34.391  1.00  0.00     0.338 C 
ATOM     35  O   UNL A   1      46.307  39.141  33.652  1.00  0.00    -0.246 OA
BRANCH  34  36
ATOM     36  C   UNL A   1      44.203  38.518  34.657  1.00  0.00     0.060 A 
ATOM     37  C   UNL A   1      43.994  37.910  35.901  1.00  0.00     0.016 A 
ATOM     38  C   UNL A   1      43.518  38.052  33.526  1.00  0.00     0.016 A 
ATOM     39  C   UNL A   1      43.203  36.758  35.973  1.00  0.00     0.010 A 
ATOM     40  C   UNL A   1      42.758  36.883  33.597  1.00  0.00     0.010 A 
ATOM     41  C   UNL A   1      42.632  36.203  34.809  1.00  0.00    -0.014 A 
BRANCH  41  42
ATOM     42  C   UNL A   1      41.687  35.076  34.953  1.00  0.00     0.031 A 
ATOM     43  C   UNL A   1      42.145  33.890  34.179  1.00  0.00     0.074 A 
ATOM     44  C   UNL A   1      40.631  34.970  35.794  1.00  0.00     0.049 A 
ATOM     45  N   UNL A   1      41.552  33.283  33.207  1.00  0.00    -0.248 NA
ATOM     46  C   UNL A   1      43.523  33.429  34.431  1.00  0.00     0.031 C 
ATOM     47  C   UNL A   1      40.235  35.916  36.835  1.00  0.00     0.029 A 
ATOM     48  N   UNL A   1      39.721  33.953  35.962  1.00  0.00    -0.354 N 
ATOM     49  C   UNL A   1      42.398  32.236  32.855  1.00  0.00     0.074 A 
ATOM     50  C   UNL A   1      43.659  32.481  33.507  1.00  0.00     0.031 C 
ATOM     51  C   UNL A   1      39.273  35.372  37.612  1.00  0.00     0.029 A 
ATOM     52  C   UNL A   1      38.954  34.042  37.130  1.00  0.00     0.049 A 
ATOM     53  H   UNL A   1      39.618  33.220  35.313  1.00  0.00     0.167 HD
ATOM     54  C   UNL A   1      41.946  31.113  32.241  1.00  0.00     0.037 A 
ATOM     55  C   UNL A   1      38.178  33.081  37.715  1.00  0.00     0.037 A 
ATOM     56  C   UNL A   1      40.657  31.307  31.641  1.00  0.00     0.049 A 
ATOM     57  C   UNL A   1      37.882  32.062  36.679  1.00  0.00     0.074 A 
ATOM     58  C   UNL A   1      40.169  32.127  30.644  1.00  0.00     0.029 A 
ATOM     59  N   UNL A   1      39.556  30.843  32.318  1.00  0.00    -0.354 N 
ATOM     60  N   UNL A   1      37.123  32.280  35.642  1.00  0.00    -0.248 NA
ATOM     61  C   UNL A   1      38.805  30.945  36.556  1.00  0.00     0.031 C 
ATOM     62  C   UNL A   1      38.856  32.482  31.061  1.00  0.00     0.029 A 
ATOM     63  C   UNL A   1      38.593  31.818  32.259  1.00  0.00     0.049 A 
ATOM     64  H   UNL A   1      39.473  29.969  32.764  1.00  0.00     0.167 HD
ATOM     65  C   UNL A   1      37.771  31.641  34.596  1.00  0.00     0.074 A 
ATOM     66  C   UNL A   1      38.764  30.777  35.233  1.00  0.00     0.031 C 
ATOM     67  C   UNL A   1      37.634  32.074  33.310  1.00  0.00     0.037 A 
BRANCH  54  68
ATOM     68  C   UNL A   1      42.549  29.759  32.481  1.00  0.00     0.058 A 
ATOM     69  C   UNL A   1      42.440  29.151  33.744  1.00  0.00     0.135 A 
ATOM     70  C   UNL A   1      43.445  29.146  31.575  1.00  0.00     0.135 A 
ATOM     71  F   UNL A   1      41.647  29.680  34.689  1.00  0.00    -0.206 F 
ATOM     72  C   UNL A   1      43.186  28.023  34.088  1.00  0.00     0.059 A 
ATOM     73  C   UNL A   1      44.151  27.990  31.875  1.00  0.00     0.059 A 
ATOM     74  F   UNL A   1      43.741  29.697  30.389  1.00  0.00    -0.206 F 
ATOM     75  C   UNL A   1      44.039  27.452  33.145  1.00  0.00     0.060 A 
BRANCH  75  76
ATOM     76  S   UNL A   1      45.050  26.037  33.611  1.00  0.00     0.124 S 
ATOM     77  O   UNL A   1      45.539  25.588  32.312  1.00  0.00    -0.237 OA
ATOM     78  O   UNL A   1      46.039  26.652  34.490  1.00  0.00    -0.237 OA
ATOM     79  O   UNL A   1      44.101  25.147  34.271  1.00  0.00    -0.744 OA
ENDBRANCH  75  76
ENDBRANCH  54  68
BRANCH  55  80
ATOM     80  C   UNL A   1      37.948  32.814  39.174  1.00  0.00     0.058 A 
ATOM     81  C   UNL A   1      38.990  32.890  40.124  1.00  0.00     0.135 A 
ATOM     82  C   UNL A   1      36.646  32.756  39.714  1.00  0.00     0.135 A 
ATOM     83  F   UNL A   1      40.268  32.965  39.722  1.00  0.00    -0.206 F 
ATOM     84  C   UNL A   1      38.751  32.966  41.507  1.00  0.00     0.059 A 
ATOM     85  C   UNL A   1      36.384  32.815  41.083  1.00  0.00     0.059 A 
ATOM     86  F   UNL A   1      35.567  32.740  38.920  1.00  0.00    -0.206 F 
ATOM     87  C   UNL A   1      37.438  32.956  41.975  1.00  0.00     0.060 A 
BRANCH  87  88
ATOM     88  S   UNL A   1      37.098  33.271  43.727  1.00  0.00     0.124 S 
ATOM     89  O   UNL A   1      38.404  33.049  44.337  1.00  0.00    -0.237 OA
ATOM     90  O   UNL A   1      36.630  34.653  43.705  1.00  0.00    -0.237 OA
ATOM     91  O   UNL A   1      36.078  32.278  44.058  1.00  0.00    -0.744 OA
ENDBRANCH  87  88
ENDBRANCH  55  80
BRANCH  67  92
ATOM     92  C   UNL A   1      36.542  33.068  33.001  1.00  0.00     0.058 A 
ATOM     93  C   UNL A   1      36.656  34.461  33.172  1.00  0.00     0.135 A 
ATOM     94  C   UNL A   1      35.397  32.596  32.339  1.00  0.00     0.135 A 
ATOM     95  F   UNL A   1      37.757  35.004  33.712  1.00  0.00    -0.206 F 
ATOM     96  C   UNL A   1      35.668  35.339  32.718  1.00  0.00     0.059 A 
ATOM     97  C   UNL A   1      34.418  33.454  31.850  1.00  0.00     0.059 A 
ATOM     98  F   UNL A   1      35.254  31.281  32.103  1.00  0.00    -0.206 F 
ATOM     99  C   UNL A   1      34.558  34.826  32.045  1.00  0.00     0.060 A 
BRANCH  99 100
ATOM    100  S   UNL A   1      33.347  35.973  31.350  1.00  0.00     0.124 S 
ATOM    101  O   UNL A   1      33.632  35.893  29.922  1.00  0.00    -0.237 OA
ATOM    102  O   UNL A   1      32.077  35.389  31.780  1.00  0.00    -0.237 OA
ATOM    103  O   UNL A   1      33.683  37.247  31.982  1.00  0.00    -0.744 OA
ENDBRANCH  99 100
ENDBRANCH  67  92
ENDBRANCH  41  42
ENDBRANCH  34  36
ENDBRANCH  33  34
ENDBRANCH  32  33
ENDBRANCH  31  32
ENDBRANCH  30  31
ENDBRANCH  29  30
ENDBRANCH   1  29
TORSDOF 25
ENDMDL
MODEL 2
REMARK VINA RESULT:      -9.2      6.554     14.324
REMARK SMILES Cc1ccc2ncc(/C=C/c3cc(C(=O)OCCOCCOCCOCCOC(=O)c4ccc(-c5c6nc(c(-c7c(F)cc(S(=O)(=O)[O-])cc7F)c7ccc([nH]7)c(-c7c(F)cc(S(=O)(=O)[O-])cc7F)c7nc(c(-c8c(F)cc(S(=O)(=O)[O-])cc8F)c8ccc5[nH]8)C=C7)C=C6)cc4)ncn3)n2c1
REMARK SMILES IDX 23 1 22 2 21 3 20 4 19 5 18 6 17 7 16 8 14 9 15 10 13 11
REMARK SMILES IDX 11 12 12 13 99 14 98 15 97 16 10 17 9 18 8 19 1 20 2 21 3 22
REMARK SMILES IDX 101 23 4 24 100 25 5 26 6 27 7 28 24 29 25 30 26 31 27 32
REMARK SMILES IDX 28 33 29 34 30 35 31 36 32 37 96 38 33 39 95 40 34 41 35 42
REMARK SMILES IDX 36 43 89 44 37 45 94 46 88 47 90 48 38 49 93 50 87 51 86 52
REMARK SMILES IDX 39 54 73 55 52 56 72 57 53 58 56 59 71 60 91 61 54 62 55 63
REMARK SMILES IDX 70 65 92 66 57 67 40 68 41 69 50 70 42 71 43 72 49 73 51 74
REMARK SMILES IDX 44 75 45 76 46 77 47 78 48 79 74 80 75 81 84 82 76 83 77 84
REMARK SMILES IDX 83 85 85 86 78 87 79 88 80 89 81 90 82 91 58 92 59 93 68 94
REMARK SMILES IDX 60 95 61 96 67 97 69 98 62 99 63 100 64 101 65 102 66 103
REMARK H PARENT 90 53 56 64
REMARK Flexibility Score: inf
ROOT
ATOM      1  C   UNL A   1      31.901  28.017  24.555  1.00  0.00     0.188 C 
ENDROOT
BRANCH   1   2
ATOM      2  O   UNL A   1      30.917  27.212  25.198  1.00  0.00    -0.377 OA
BRANCH   2   3
ATOM      3  C   UNL A   1      30.584  25.976  24.606  1.00  0.00     0.188 C 
BRANCH   3   4
ATOM      4  C   UNL A   1      31.553  24.841  24.964  1.00  0.00     0.188 C 
BRANCH   4   5
ATOM      5  O   UNL A   1      30.975  23.756  25.657  1.00  0.00    -0.376 OA
BRANCH   5   6
ATOM      6  C   UNL A   1      31.293  22.391  25.417  1.00  0.00     0.202 C 
BRANCH   6   7
ATOM      7  C   UNL A   1      32.573  21.813  24.789  1.00  0.00     0.261 C 
BRANCH   7   8
ATOM      8  O   UNL A   1      33.474  21.158  25.662  1.00  0.00    -0.459 OA
BRANCH   8   9
ATOM      9  C   UNL A   1      34.077  21.927  26.599  1.00  0.00     0.357 C 
ATOM     10  O   UNL A   1      33.633  22.259  27.671  1.00  0.00    -0.244 OA
BRANCH   9  11
ATOM     11  C   UNL A   1      35.489  22.051  26.141  1.00  0.00     0.152 A 
ATOM     12  C   UNL A   1      37.451  23.257  25.902  1.00  0.00     0.067 A 
ATOM     13  C   UNL A   1      36.145  23.240  26.321  1.00  0.00     0.064 A 
ATOM     14  N   UNL A   1      38.016  22.259  25.192  1.00  0.00    -0.237 NA
ATOM     15  C   UNL A   1      37.252  21.171  25.014  1.00  0.00     0.223 A 
ATOM     16  N   UNL A   1      36.014  20.992  25.481  1.00  0.00    -0.229 NA
BRANCH  12  17
ATOM     17  C   UNL A   1      38.347  24.343  26.313  1.00  0.00     0.030 C 
ATOM     18  C   UNL A   1      39.290  24.092  27.232  1.00  0.00     0.030 C 
BRANCH  18  19
ATOM     19  C   UNL A   1      40.317  24.920  27.743  1.00  0.00     0.065 A 
ATOM     20  C   UNL A   1      38.175  28.361  30.727  1.00  0.00     0.046 C 
ATOM     21  C   UNL A   1      39.309  27.706  30.005  1.00  0.00    -0.034 A 
ATOM     22  C   UNL A   1      40.654  28.250  30.136  1.00  0.00     0.009 A 
ATOM     23  C   UNL A   1      39.128  26.628  29.219  1.00  0.00     0.096 A 
ATOM     24  C   UNL A   1      41.700  27.684  29.509  1.00  0.00     0.048 A 
ATOM     25  N   UNL A   1      40.212  26.021  28.578  1.00  0.00    -0.300 N 
ATOM     26  C   UNL A   1      41.512  26.525  28.710  1.00  0.00     0.137 A 
ATOM     27  N   UNL A   1      42.393  25.824  28.039  1.00  0.00    -0.236 NA
ATOM     28  C   UNL A   1      41.670  24.837  27.439  1.00  0.00     0.140 A 
ENDBRANCH  18  19
ENDBRANCH  12  17
ENDBRANCH   9  11
ENDBRANCH   8   9
ENDBRANCH   7   8
ENDBRANCH   6   7
ENDBRANCH   5   6
ENDBRANCH   4   5
ENDBRANCH   3   4
ENDBRANCH   2   3
ENDBRANCH   1   2
BRANCH   1  29
ATOM     29  C   UNL A   1      33.170  28.533  25.275  1.00  0.00     0.188 C 
BRANCH  29  30
ATOM     30  O   UNL A   1      33.344  27.988  26.572  1.00  0.00    -0.376 OA
BRANCH  30  31
ATOM     31  C   UNL A   1      33.683  28.871  27.626  1.00  0.00     0.202 C 
BRANCH  31  32
ATOM     32  C   UNL A   1      35.027  29.625  27.576  1.00  0.00     0.261 C 
BRANCH  32  33
ATOM     33  O   UNL A   1      34.935  31.002  27.169  1.00  0.00    -0.460 OA
BRANCH  33  34
ATOM     34  C   UNL A   1      34.564  31.957  28.055  1.00  0.00     0.338 C 
ATOM     35  O   UNL A   1      33.435  32.203  28.430  1.00  0.00    -0.246 OA
BRANCH  34  36
ATOM     36  C   UNL A   1      35.823  32.373  28.741  1.00  0.00     0.060 A 
ATOM     37  C   UNL A   1      37.066  31.812  28.422  1.00  0.00     0.016 A 
ATOM     38  C   UNL A   1      35.661  33.082  29.940  1.00  0.00     0.016 A 
ATOM     39  C   UNL A   1      38.096  31.856  29.368  1.00  0.00     0.010 A 
ATOM     40  C   UNL A   1      36.680  33.093  30.894  1.00  0.00     0.010 A 
ATOM     41  C   UNL A   1      37.888  32.442  30.634  1.00  0.00    -0.014 A 
BRANCH  41  42
ATOM     42  C   UNL A   1      39.043  32.596  31.542  1.00  0.00     0.031 A 
ATOM     43  C   UNL A   1      40.227  33.132  30.816  1.00  0.00     0.074 A 
ATOM     44  C   UNL A   1      39.071  32.478  32.890  1.00  0.00     0.049 A 
ATOM     45  N   UNL A   1      41.386  32.588  30.649  1.00  0.00    -0.248 NA
ATOM     46  C   UNL A   1      40.023  34.371  30.043  1.00  0.00     0.031 C 
ATOM     47  C   UNL A   1      37.933  32.265  33.780  1.00  0.00     0.029 A 
ATOM     48  N   UNL A   1      40.116  32.604  33.776  1.00  0.00    -0.354 N 
ATOM     49  C   UNL A   1      42.124  33.511  29.915  1.00  0.00     0.074 A 
ATOM     50  C   UNL A   1      41.193  34.492  29.420  1.00  0.00     0.031 C 
ATOM     51  C   UNL A   1      38.316  32.421  35.067  1.00  0.00     0.029 A 
ATOM     52  C   UNL A   1      39.733  32.728  35.117  1.00  0.00     0.049 A 
ATOM     53  H   UNL A   1      41.058  32.607  33.490  1.00  0.00     0.167 HD
ATOM     54  C   UNL A   1      43.480  33.546  29.949  1.00  0.00     0.037 A 
ATOM     55  C   UNL A   1      40.484  33.132  36.184  1.00  0.00     0.037 A 
ATOM     56  C   UNL A   1      44.041  32.323  30.450  1.00  0.00     0.049 A 
ATOM     57  C   UNL A   1      41.909  32.970  35.807  1.00  0.00     0.074 A 
ATOM     58  C   UNL A   1      44.020  31.009  30.031  1.00  0.00     0.029 A 
ATOM     59  N   UNL A   1      44.453  32.294  31.759  1.00  0.00    -0.354 N 
ATOM     60  N   UNL A   1      42.486  31.815  35.623  1.00  0.00    -0.248 NA
ATOM     61  C   UNL A   1      42.568  34.105  35.180  1.00  0.00     0.031 C 
ATOM     62  C   UNL A   1      43.965  30.236  31.225  1.00  0.00     0.029 A 
ATOM     63  C   UNL A   1      44.010  31.117  32.306  1.00  0.00     0.049 A 
ATOM     64  H   UNL A   1      44.973  32.992  32.221  1.00  0.00     0.167 HD
ATOM     65  C   UNL A   1      43.295  32.003  34.514  1.00  0.00     0.074 A 
ATOM     66  C   UNL A   1      43.358  33.450  34.327  1.00  0.00     0.031 C 
ATOM     67  C   UNL A   1      43.612  30.964  33.688  1.00  0.00     0.037 A 
BRANCH  54  68
ATOM     68  C   UNL A   1      44.261  34.823  29.828  1.00  0.00     0.058 A 
ATOM     69  C   UNL A   1      44.109  35.837  30.788  1.00  0.00     0.135 A 
ATOM     70  C   UNL A   1      44.974  35.178  28.660  1.00  0.00     0.135 A 
ATOM     71  F   UNL A   1      43.413  35.612  31.914  1.00  0.00    -0.206 F 
ATOM     72  C   UNL A   1      44.614  37.123  30.592  1.00  0.00     0.059 A 
ATOM     73  C   UNL A   1      45.536  36.432  28.470  1.00  0.00     0.059 A 
ATOM     74  F   UNL A   1      45.078  34.349  27.612  1.00  0.00    -0.206 F 
ATOM     75  C   UNL A   1      45.325  37.409  29.428  1.00  0.00     0.060 A 
BRANCH  75  76
ATOM     76  S   UNL A   1      45.919  39.085  29.144  1.00  0.00     0.124 S 
ATOM     77  O   UNL A   1      46.878  39.243  30.231  1.00  0.00    -0.237 OA
ATOM     78  O   UNL A   1      46.482  38.981  27.802  1.00  0.00    -0.237 OA
ATOM     79  O   UNL A   1      44.708  39.894  29.248  1.00  0.00    -0.744 OA
ENDBRANCH  75  76
ENDBRANCH  54  68
BRANCH  55  80
ATOM     80  C   UNL A   1      40.071  33.946  37.376  1.00  0.00     0.058 A 
ATOM     81  C   UNL A   1      40.438  33.589  38.692  1.00  0.00     0.135 A 
ATOM     82  C   UNL A   1      39.547  35.247  37.231  1.00  0.00     0.135 A 
ATOM     83  F   UNL A   1      40.964  32.380  38.944  1.00  0.00    -0.206 F 
ATOM     84  C   UNL A   1      40.349  34.484  39.773  1.00  0.00     0.059 A 
ATOM     85  C   UNL A   1      39.435  36.148  38.290  1.00  0.00     0.059 A 
ATOM     86  F   UNL A   1      39.213  35.730  36.026  1.00  0.00    -0.206 F 
ATOM     87  C   UNL A   1      39.870  35.774  39.554  1.00  0.00     0.060 A 
BRANCH  87  88
ATOM     88  S   UNL A   1      39.950  37.007  40.879  1.00  0.00     0.124 S 
ATOM     89  O   UNL A   1      38.999  36.477  41.849  1.00  0.00    -0.237 OA
ATOM     90  O   UNL A   1      41.356  36.951  41.266  1.00  0.00    -0.237 OA
ATOM     91  O   UNL A   1      39.541  38.244  40.216  1.00  0.00    -0.744 OA
ENDBRANCH  87  88
ENDBRANCH  55  80
BRANCH  67  92
ATOM     92  C   UNL A   1      43.317  29.561  34.155  1.00  0.00     0.058 A 
ATOM     93  C   UNL A   1      44.156  28.804  34.995  1.00  0.00     0.135 A 
ATOM     94  C   UNL A   1      42.045  29.034  33.879  1.00  0.00     0.135 A 
ATOM     95  F   UNL A   1      45.351  29.273  35.383  1.00  0.00    -0.206 F 
ATOM     96  C   UNL A   1      43.752  27.574  35.519  1.00  0.00     0.059 A 
ATOM     97  C   UNL A   1      41.610  27.827  34.418  1.00  0.00     0.059 A 
ATOM     98  F   UNL A   1      41.180  29.732  33.124  1.00  0.00    -0.206 F 
ATOM     99  C   UNL A   1      42.470  27.100  35.237  1.00  0.00     0.060 A 
BRANCH  99 100
ATOM    100  S   UNL A   1      41.907  25.571  36.019  1.00  0.00     0.124 S 
ATOM    101  O   UNL A   1      42.297  25.776  37.409  1.00  0.00    -0.237 OA
ATOM    102  O   UNL A   1      40.470  25.590  35.751  1.00  0.00    -0.237 OA
ATOM    103  O   UNL A   1      42.651  24.533  35.310  1.00  0.00    -0.744 OA
ENDBRANCH  99 100
ENDBRANCH  67  92
ENDBRANCH  41  42
ENDBRANCH  34  36
ENDBRANCH  33  34
ENDBRANCH  32  33
ENDBRANCH  31  32
ENDBRANCH  30  31
ENDBRANCH  29  30
ENDBRANCH   1  29
TORSDOF 25
ENDMDL
MODEL 3
REMARK VINA RESULT:      -9.1      2.111      2.566
REMARK SMILES Cc1ccc2ncc(/C=C/c3cc(C(=O)OCCOCCOCCOCCOC(=O)c4ccc(-c5c6nc(c(-c7c(F)cc(S(=O)(=O)[O-])cc7F)c7ccc([nH]7)c(-c7c(F)cc(S(=O)(=O)[O-])cc7F)c7nc(c(-c8c(F)cc(S(=O)(=O)[O-])cc8F)c8ccc5[nH]8)C=C7)C=C6)cc4)ncn3)n2c1
REMARK SMILES IDX 23 1 22 2 21 3 20 4 19 5 18 6 17 7 16 8 14 9 15 10 13 11
REMARK SMILES IDX 11 12 12 13 99 14 98 15 97 16 10 17 9 18 8 19 1 20 2 21 3 22
REMARK SMILES IDX 101 23 4 24 100 25 5 26 6 27 7 28 24 29 25 30 26 31 27 32
REMARK SMILES IDX 28 33 29 34 30 35 31 36 32 37 96 38 33 39 95 40 34 41 35 42
REMARK SMILES IDX 36 43 89 44 37 45 94 46 88 47 90 48 38 49 93 50 87 51 86 52
REMARK SMILES IDX 39 54 73 55 52 56 72 57 53 58 56 59 71 60 91 61 54 62 55 63
REMARK SMILES IDX 70 65 92 66 57 67 40 68 41 69 50 70 42 71 43 72 49 73 51 74
REMARK SMILES IDX 44 75 45 76 46 77 47 78 48 79 74 80 75 81 84 82 76 83 77 84
REMARK SMILES IDX 83 85 85 86 78 87 79 88 80 89 81 90 82 91 58 92 59 93 68 94
REMARK SMILES IDX 60 95 61 96 67 97 69 98 62 99 63 100 64 101 65 102 66 103
REMARK H PARENT 90 53 56 64
REMARK Flexibility Score: inf
ROOT
ATOM      1  C   UNL A   1      43.391  44.991  33.037  1.00  0.00     0.188 C 
ENDROOT
BRANCH   1   2
ATOM      2  O   UNL A   1      42.694  44.309  31.998  1.00  0.00    -0.377 OA
BRANCH   2   3
ATOM      3  C   UNL A   1      42.481  42.923  32.146  1.00  0.00     0.188 C 
BRANCH   3   4
ATOM      4  C   UNL A   1      42.918  42.099  30.927  1.00  0.00     0.188 C 
BRANCH   4   5
ATOM      5  O   UNL A   1      44.058  41.291  31.128  1.00  0.00    -0.376 OA
BRANCH   5   6
ATOM      6  C   UNL A   1      45.363  41.795  31.381  1.00  0.00     0.202 C 
BRANCH   6   7
ATOM      7  C   UNL A   1      46.214  42.712  30.486  1.00  0.00     0.261 C 
BRANCH   7   8
ATOM      8  O   UNL A   1      46.013  42.608  29.088  1.00  0.00    -0.459 OA
BRANCH   8   9
ATOM      9  C   UNL A   1      45.031  43.374  28.558  1.00  0.00     0.357 C 
ATOM     10  O   UNL A   1      44.716  44.492  28.886  1.00  0.00    -0.244 OA
BRANCH   9  11
ATOM     11  C   UNL A   1      44.607  42.652  27.326  1.00  0.00     0.152 A 
ATOM     12  C   UNL A   1      44.489  42.458  25.022  1.00  0.00     0.067 A 
ATOM     13  C   UNL A   1      44.883  43.204  26.103  1.00  0.00     0.064 A 
ATOM     14  N   UNL A   1      43.719  41.356  25.122  1.00  0.00    -0.237 NA
ATOM     15  C   UNL A   1      43.451  40.948  26.372  1.00  0.00     0.223 A 
ATOM     16  N   UNL A   1      43.882  41.521  27.497  1.00  0.00    -0.229 NA
BRANCH  12  17
ATOM     17  C   UNL A   1      44.991  42.774  23.681  1.00  0.00     0.030 C 
ATOM     18  C   UNL A   1      46.277  42.523  23.395  1.00  0.00     0.030 C 
BRANCH  18  19
ATOM     19  C   UNL A   1      46.991  42.656  22.181  1.00  0.00     0.065 A 
ATOM     20  C   UNL A   1      46.806  47.497  20.813  1.00  0.00     0.046 C 
ATOM     21  C   UNL A   1      47.155  46.052  20.651  1.00  0.00    -0.034 A 
ATOM     22  C   UNL A   1      47.869  45.614  19.460  1.00  0.00     0.009 A 
ATOM     23  C   UNL A   1      46.820  45.129  21.572  1.00  0.00     0.096 A 
ATOM     24  C   UNL A   1      48.208  44.325  19.282  1.00  0.00     0.048 A 
ATOM     25  N   UNL A   1      47.184  43.789  21.406  1.00  0.00    -0.300 N 
ATOM     26  C   UNL A   1      47.885  43.360  20.272  1.00  0.00     0.137 A 
ATOM     27  N   UNL A   1      48.139  42.074  20.295  1.00  0.00    -0.236 NA
ATOM     28  C   UNL A   1      47.591  41.632  21.462  1.00  0.00     0.140 A 
ENDBRANCH  18  19
ENDBRANCH  12  17
ENDBRANCH   9  11
ENDBRANCH   8   9
ENDBRANCH   7   8
ENDBRANCH   6   7
ENDBRANCH   5   6
ENDBRANCH   4   5
ENDBRANCH   3   4
ENDBRANCH   2   3
ENDBRANCH   1   2
BRANCH   1  29
ATOM     29  C   UNL A   1      44.727  44.482  33.631  1.00  0.00     0.188 C 
BRANCH  29  30
ATOM     30  O   UNL A   1      44.628  44.097  34.992  1.00  0.00    -0.376 OA
BRANCH  30  31
ATOM     31  C   UNL A   1      45.187  42.854  35.376  1.00  0.00     0.202 C 
BRANCH  31  32
ATOM     32  C   UNL A   1      44.519  41.547  34.902  1.00  0.00     0.261 C 
BRANCH  32  33
ATOM     33  O   UNL A   1      45.307  40.359  35.092  1.00  0.00    -0.460 OA
BRANCH  33  34
ATOM     34  C   UNL A   1      45.324  39.387  34.150  1.00  0.00     0.338 C 
ATOM     35  O   UNL A   1      46.254  39.088  33.428  1.00  0.00    -0.246 OA
BRANCH  34  36
ATOM     36  C   UNL A   1      44.134  38.533  34.439  1.00  0.00     0.060 A 
ATOM     37  C   UNL A   1      43.907  37.974  35.703  1.00  0.00     0.016 A 
ATOM     38  C   UNL A   1      43.450  38.036  33.320  1.00  0.00     0.016 A 
ATOM     39  C   UNL A   1      43.098  36.838  35.810  1.00  0.00     0.010 A 
ATOM     40  C   UNL A   1      42.672  36.883  33.427  1.00  0.00     0.010 A 
ATOM     41  C   UNL A   1      42.527  36.249  34.662  1.00  0.00    -0.014 A 
BRANCH  41  42
ATOM     42  C   UNL A   1      41.563  35.143  34.839  1.00  0.00     0.031 A 
ATOM     43  C   UNL A   1      41.951  33.959  34.024  1.00  0.00     0.074 A 
ATOM     44  C   UNL A   1      40.552  35.048  35.733  1.00  0.00     0.049 A 
ATOM     45  N   UNL A   1      41.292  33.382  33.075  1.00  0.00    -0.248 NA
ATOM     46  C   UNL A   1      43.328  33.461  34.194  1.00  0.00     0.031 C 
ATOM     47  C   UNL A   1      40.235  35.985  36.808  1.00  0.00     0.029 A 
ATOM     48  N   UNL A   1      39.627  34.049  35.934  1.00  0.00    -0.354 N 
ATOM     49  C   UNL A   1      42.093  32.322  32.663  1.00  0.00     0.074 A 
ATOM     50  C   UNL A   1      43.392  32.526  33.250  1.00  0.00     0.031 C 
ATOM     51  C   UNL A   1      39.303  35.451  37.628  1.00  0.00     0.029 A 
ATOM     52  C   UNL A   1      38.926  34.137  37.143  1.00  0.00     0.049 A 
ATOM     53  H   UNL A   1      39.472  33.330  35.280  1.00  0.00     0.167 HD
ATOM     54  C   UNL A   1      41.582  31.220  32.057  1.00  0.00     0.037 A 
ATOM     55  C   UNL A   1      38.159  33.185  37.754  1.00  0.00     0.037 A 
ATOM     56  C   UNL A   1      40.267  31.454  31.529  1.00  0.00     0.049 A 
ATOM     57  C   UNL A   1      37.783  32.191  36.720  1.00  0.00     0.074 A 
ATOM     58  C   UNL A   1      39.748  32.302  30.572  1.00  0.00     0.029 A 
ATOM     59  N   UNL A   1      39.194  31.005  32.257  1.00  0.00    -0.354 N 
ATOM     60  N   UNL A   1      36.976  32.443  35.728  1.00  0.00    -0.248 NA
ATOM     61  C   UNL A   1      38.671  31.054  36.531  1.00  0.00     0.031 C 
ATOM     62  C   UNL A   1      38.467  32.681  31.065  1.00  0.00     0.029 A 
ATOM     63  C   UNL A   1      38.253  32.003  32.265  1.00  0.00     0.049 A 
ATOM     64  H   UNL A   1      39.113  30.126  32.694  1.00  0.00     0.167 HD
ATOM     65  C   UNL A   1      37.552  31.807  34.640  1.00  0.00     0.074 A 
ATOM     66  C   UNL A   1      38.555  30.910  35.209  1.00  0.00     0.031 C 
ATOM     67  C   UNL A   1      37.357  32.265  33.370  1.00  0.00     0.037 A 
BRANCH  54  68
ATOM     68  C   UNL A   1      42.164  29.849  32.244  1.00  0.00     0.058 A 
ATOM     69  C   UNL A   1      42.094  29.217  33.497  1.00  0.00     0.135 A 
ATOM     70  C   UNL A   1      43.006  29.236  31.288  1.00  0.00     0.135 A 
ATOM     71  F   UNL A   1      41.354  29.743  34.485  1.00  0.00    -0.206 F 
ATOM     72  C   UNL A   1      42.827  28.066  33.786  1.00  0.00     0.059 A 
ATOM     73  C   UNL A   1      43.697  28.058  31.534  1.00  0.00     0.059 A 
ATOM     74  F   UNL A   1      43.264  29.805  30.102  1.00  0.00    -0.206 F 
ATOM     75  C   UNL A   1      43.627  27.496  32.797  1.00  0.00     0.060 A 
BRANCH  75  76
ATOM     76  S   UNL A   1      44.625  26.050  33.190  1.00  0.00     0.124 S 
ATOM     77  O   UNL A   1      43.703  25.275  34.012  1.00  0.00    -0.237 OA
ATOM     78  O   UNL A   1      44.909  25.512  31.863  1.00  0.00    -0.237 OA
ATOM     79  O   UNL A   1      45.774  26.614  33.891  1.00  0.00    -0.744 OA
ENDBRANCH  75  76
ENDBRANCH  54  68
BRANCH  55  80
ATOM     80  C   UNL A   1      38.000  32.899  39.218  1.00  0.00     0.058 A 
ATOM     81  C   UNL A   1      36.760  32.517  39.778  1.00  0.00     0.135 A 
ATOM     82  C   UNL A   1      39.118  32.718  40.058  1.00  0.00     0.135 A 
ATOM     83  F   UNL A   1      35.631  32.631  39.062  1.00  0.00    -0.206 F 
ATOM     84  C   UNL A   1      36.650  31.939  41.054  1.00  0.00     0.059 A 
ATOM     85  C   UNL A   1      39.033  32.160  41.334  1.00  0.00     0.059 A 
ATOM     86  F   UNL A   1      40.358  32.988  39.628  1.00  0.00    -0.206 F 
ATOM     87  C   UNL A   1      37.802  31.739  41.815  1.00  0.00     0.060 A 
BRANCH  87  88
ATOM     88  S   UNL A   1      37.713  30.801  43.363  1.00  0.00     0.124 S 
ATOM     89  O   UNL A   1      38.055  29.453  42.925  1.00  0.00    -0.237 OA
ATOM     90  O   UNL A   1      38.707  31.477  44.189  1.00  0.00    -0.237 OA
ATOM     91  O   UNL A   1      36.327  30.984  43.790  1.00  0.00    -0.744 OA
ENDBRANCH  87  88
ENDBRANCH  55  80
BRANCH  67  92
ATOM     92  C   UNL A   1      36.275  33.289  33.135  1.00  0.00     0.058 A 
ATOM     93  C   UNL A   1      36.422  34.672  33.351  1.00  0.00     0.135 A 
ATOM     94  C   UNL A   1      35.100  32.862  32.496  1.00  0.00     0.135 A 
ATOM     95  F   UNL A   1      37.551  35.175  33.872  1.00  0.00    -0.206 F 
ATOM     96  C   UNL A   1      35.436  35.584  32.964  1.00  0.00     0.059 A 
ATOM     97  C   UNL A   1      34.121  33.756  32.072  1.00  0.00     0.059 A 
ATOM     98  F   UNL A   1      34.923  31.560  32.218  1.00  0.00    -0.206 F 
ATOM     99  C   UNL A   1      34.294  35.117  32.311  1.00  0.00     0.060 A 
BRANCH  99 100
ATOM    100  S   UNL A   1      33.082  36.311  31.701  1.00  0.00     0.124 S 
ATOM    101  O   UNL A   1      33.898  37.168  30.849  1.00  0.00    -0.237 OA
ATOM    102  O   UNL A   1      32.119  35.456  31.009  1.00  0.00    -0.237 OA
ATOM    103  O   UNL A   1      32.581  36.940  32.920  1.00  0.00    -0.744 OA
ENDBRANCH  99 100
ENDBRANCH  67  92
ENDBRANCH  41  42
ENDBRANCH  34  36
ENDBRANCH  33  34
ENDBRANCH  32  33
ENDBRANCH  31  32
ENDBRANCH  30  31
ENDBRANCH  29  30
ENDBRANCH   1  29
TORSDOF 25
ENDMDL
