MODEL 1
REMARK VINA RESULT:     -10.4      0.000      0.000
REMARK SMILES CC(=O)Nc1cc(NC(C)=O)cc(C(=O)Nc2ccc(Br)cc2C(=O)OCCOCCOCCOCCOC(=O)c2ccc(-c3c4nc(c(-c5c(F)cc(S(=O)(=O)[O-])cc5F)c5ccc([nH]5)c(-c5c(F)cc(S(=O)(=O)[O-])cc5F)c5nc(c(-c6c(F)cc(S(=O)(=O)[O-])cc6F)c6ccc3[nH]6)C=C5)C=C4)cc2)c1
REMARK SMILES IDX 32 1 31 2 30 3 29 4 28 5 27 6 26 7 24 8 25 9 23 10 17 11
REMARK SMILES IDX 18 12 19 13 22 14 20 15 21 16 16 17 14 18 15 19 13 21 5 22
REMARK SMILES IDX 6 23 107 24 7 25 12 26 4 27 1 28 2 29 3 30 8 32 9 33 10 35
REMARK SMILES IDX 11 36 33 37 34 38 35 39 36 40 37 41 38 42 39 43 40 44 41 45
REMARK SMILES IDX 42 46 106 47 43 48 105 49 44 50 45 51 46 52 99 53 47 54
REMARK SMILES IDX 104 55 98 56 100 57 48 58 103 59 97 60 96 61 49 63 83 64
REMARK SMILES IDX 62 65 82 66 63 67 66 68 81 69 101 70 64 71 65 72 80 74
REMARK SMILES IDX 102 75 67 76 50 77 51 78 60 79 52 80 53 81 59 82 61 83 54 84
REMARK SMILES IDX 55 85 56 86 57 87 58 88 84 89 85 90 94 91 86 92 87 93 93 94
REMARK SMILES IDX 95 95 88 96 89 97 90 98 91 99 92 100 68 101 69 102 78 103
REMARK SMILES IDX 70 104 71 105 77 106 79 107 72 108 73 109 74 110 75 111
REMARK SMILES IDX 76 112
REMARK H PARENT 16 20 4 31 8 34 100 62 66 73
REMARK Flexibility Score: inf
ROOT
ATOM      1  O   UNL A   1      40.856  20.049  26.983  1.00  0.00    -0.377 OA
ENDROOT
BRANCH   1   2
ATOM      2  C   UNL A   1      40.190  19.507  25.864  1.00  0.00     0.188 C 
BRANCH   2   3
ATOM      3  C   UNL A   1      38.967  20.292  25.346  1.00  0.00     0.188 C 
BRANCH   3   4
ATOM      4  O   UNL A   1      38.556  21.505  25.948  1.00  0.00    -0.376 OA
BRANCH   4   5
ATOM      5  C   UNL A   1      37.629  22.412  25.384  1.00  0.00     0.202 C 
BRANCH   5   6
ATOM      6  C   UNL A   1      36.649  23.303  26.149  1.00  0.00     0.261 C 
BRANCH   6   7
ATOM      7  O   UNL A   1      35.255  23.039  26.039  1.00  0.00    -0.460 OA
BRANCH   7   8
ATOM      8  C   UNL A   1      34.662  23.646  24.995  1.00  0.00     0.340 C 
ATOM      9  O   UNL A   1      34.834  24.807  24.652  1.00  0.00    -0.246 OA
BRANCH   8  10
ATOM     10  C   UNL A   1      33.885  22.680  24.185  1.00  0.00     0.084 A 
ATOM     11  C   UNL A   1      33.307  22.918  22.922  1.00  0.00     0.056 A 
ATOM     12  C   UNL A   1      32.453  21.927  22.399  1.00  0.00     0.028 A 
ATOM     13  C   UNL A   1      32.258  20.703  23.050  1.00  0.00     0.018 A 
ATOM     14  C   UNL A   1      33.684  21.441  24.835  1.00  0.00     0.033 A 
ATOM     15  C   UNL A   1      32.888  20.460  24.261  1.00  0.00     0.018 A 
ATOM     16  Br  UNL A   1      32.673  18.798  25.130  1.00  0.00    -0.051 Br
BRANCH  11  17
ATOM     17  N   UNL A   1      33.505  24.023  22.060  1.00  0.00    -0.321 N 
ATOM     18  C   UNL A   1      32.882  25.244  21.894  1.00  0.00     0.255 C 
ATOM     19  O   UNL A   1      33.165  25.926  20.910  1.00  0.00    -0.269 OA
ATOM     20  H   UNL A   1      34.257  23.891  21.437  1.00  0.00     0.170 HD
BRANCH  18  21
ATOM     21  C   UNL A   1      31.919  25.794  22.883  1.00  0.00     0.044 A 
ATOM     22  C   UNL A   1      31.390  27.566  24.414  1.00  0.00     0.044 A 
ATOM     23  C   UNL A   1      30.684  26.635  25.198  1.00  0.00     0.052 A 
ATOM     24  C   UNL A   1      31.896  27.160  23.185  1.00  0.00     0.040 A 
ATOM     25  C   UNL A   1      30.539  25.299  24.808  1.00  0.00     0.044 A 
ATOM     26  C   UNL A   1      31.163  24.881  23.631  1.00  0.00     0.040 A 
BRANCH  22  27
ATOM     27  N   UNL A   1      31.791  28.748  25.079  1.00  0.00    -0.326 N 
ATOM     28  C   UNL A   1      34.009  28.205  26.082  1.00  0.00     0.114 C 
ATOM     29  C   UNL A   1      32.762  29.031  25.992  1.00  0.00     0.221 C 
ATOM     30  O   UNL A   1      32.622  30.012  26.727  1.00  0.00    -0.275 OA
ATOM     31  H   UNL A   1      31.252  29.534  24.829  1.00  0.00     0.169 HD
ENDBRANCH  22  27
BRANCH  25  32
ATOM     32  N   UNL A   1      29.905  24.313  25.599  1.00  0.00    -0.326 N 
ATOM     33  C   UNL A   1      30.409  23.712  26.739  1.00  0.00     0.221 C 
ATOM     34  H   UNL A   1      29.009  24.024  25.308  1.00  0.00     0.169 HD
ATOM     35  C   UNL A   1      29.454  22.735  27.378  1.00  0.00     0.114 C 
ATOM     36  O   UNL A   1      31.513  23.902  27.241  1.00  0.00    -0.275 OA
ENDBRANCH  25  32
ENDBRANCH  18  21
ENDBRANCH  11  17
ENDBRANCH   8  10
ENDBRANCH   7   8
ENDBRANCH   6   7
ENDBRANCH   5   6
ENDBRANCH   4   5
ENDBRANCH   3   4
ENDBRANCH   2   3
ENDBRANCH   1   2
BRANCH   1  37
ATOM     37  C   UNL A   1      42.070  20.762  26.785  1.00  0.00     0.188 C 
BRANCH  37  38
ATOM     38  C   UNL A   1      42.148  21.960  25.811  1.00  0.00     0.188 C 
BRANCH  38  39
ATOM     39  O   UNL A   1      43.301  21.994  24.988  1.00  0.00    -0.376 OA
BRANCH  39  40
ATOM     40  C   UNL A   1      43.635  23.181  24.295  1.00  0.00     0.202 C 
BRANCH  40  41
ATOM     41  C   UNL A   1      44.479  24.232  25.033  1.00  0.00     0.261 C 
BRANCH  41  42
ATOM     42  O   UNL A   1      43.822  24.935  26.096  1.00  0.00    -0.460 OA
BRANCH  42  43
ATOM     43  C   UNL A   1      44.508  25.078  27.249  1.00  0.00     0.338 C 
ATOM     44  O   UNL A   1      45.605  24.610  27.511  1.00  0.00    -0.246 OA
BRANCH  43  45
ATOM     45  C   UNL A   1      43.803  26.080  28.072  1.00  0.00     0.060 A 
ATOM     46  C   UNL A   1      44.201  27.421  27.990  1.00  0.00     0.016 A 
ATOM     47  C   UNL A   1      42.750  25.702  28.909  1.00  0.00     0.016 A 
ATOM     48  C   UNL A   1      43.574  28.382  28.779  1.00  0.00     0.010 A 
ATOM     49  C   UNL A   1      42.143  26.661  29.722  1.00  0.00     0.010 A 
ATOM     50  C   UNL A   1      42.582  27.996  29.688  1.00  0.00    -0.014 A 
BRANCH  50  51
ATOM     51  C   UNL A   1      42.176  28.950  30.747  1.00  0.00     0.031 A 
ATOM     52  C   UNL A   1      43.020  29.029  31.990  1.00  0.00     0.074 A 
ATOM     53  C   UNL A   1      41.121  29.768  30.583  1.00  0.00     0.049 A 
ATOM     54  N   UNL A   1      42.878  29.787  33.045  1.00  0.00    -0.248 NA
ATOM     55  C   UNL A   1      44.186  28.130  32.049  1.00  0.00     0.031 C 
ATOM     56  C   UNL A   1      40.257  29.807  29.405  1.00  0.00     0.029 A 
ATOM     57  N   UNL A   1      40.600  30.724  31.417  1.00  0.00    -0.354 N 
ATOM     58  C   UNL A   1      43.929  29.455  33.893  1.00  0.00     0.074 A 
ATOM     59  C   UNL A   1      44.683  28.406  33.245  1.00  0.00     0.031 C 
ATOM     60  C   UNL A   1      39.302  30.735  29.597  1.00  0.00     0.029 A 
ATOM     61  C   UNL A   1      39.473  31.333  30.921  1.00  0.00     0.049 A 
ATOM     62  H   UNL A   1      40.995  30.951  32.289  1.00  0.00     0.167 HD
ATOM     63  C   UNL A   1      44.240  29.984  35.099  1.00  0.00     0.037 A 
ATOM     64  C   UNL A   1      38.663  32.253  31.483  1.00  0.00     0.037 A 
ATOM     65  C   UNL A   1      43.481  31.028  35.736  1.00  0.00     0.049 A 
ATOM     66  C   UNL A   1      38.997  32.785  32.854  1.00  0.00     0.074 A 
ATOM     67  C   UNL A   1      43.721  31.647  36.950  1.00  0.00     0.029 A 
ATOM     68  N   UNL A   1      42.326  31.598  35.219  1.00  0.00    -0.354 N 
ATOM     69  N   UNL A   1      40.009  32.483  33.635  1.00  0.00    -0.248 NA
ATOM     70  C   UNL A   1      38.083  33.787  33.419  1.00  0.00     0.031 C 
ATOM     71  C   UNL A   1      42.679  32.548  37.194  1.00  0.00     0.029 A 
ATOM     72  C   UNL A   1      41.824  32.539  36.104  1.00  0.00     0.049 A 
ATOM     73  H   UNL A   1      41.922  31.366  34.351  1.00  0.00     0.167 HD
ATOM     74  C   UNL A   1      39.866  33.277  34.770  1.00  0.00     0.074 A 
ATOM     75  C   UNL A   1      38.683  34.087  34.562  1.00  0.00     0.031 C 
ATOM     76  C   UNL A   1      40.640  33.333  35.883  1.00  0.00     0.037 A 
BRANCH  63  77
ATOM     77  C   UNL A   1      45.432  29.419  35.823  1.00  0.00     0.058 A 
ATOM     78  C   UNL A   1      45.322  28.333  36.706  1.00  0.00     0.135 A 
ATOM     79  C   UNL A   1      46.711  29.956  35.603  1.00  0.00     0.135 A 
ATOM     80  F   UNL A   1      44.121  27.796  36.973  1.00  0.00    -0.206 F 
ATOM     81  C   UNL A   1      46.434  27.812  37.360  1.00  0.00     0.059 A 
ATOM     82  C   UNL A   1      47.841  29.432  36.223  1.00  0.00     0.059 A 
ATOM     83  F   UNL A   1      46.873  31.000  34.776  1.00  0.00    -0.206 F 
ATOM     84  C   UNL A   1      47.691  28.367  37.108  1.00  0.00     0.060 A 
BRANCH  84  85
ATOM     85  S   UNL A   1      49.127  27.667  37.952  1.00  0.00     0.124 S 
ATOM     86  O   UNL A   1      49.488  26.574  37.054  1.00  0.00    -0.237 OA
ATOM     87  O   UNL A   1      50.050  28.797  37.979  1.00  0.00    -0.237 OA
ATOM     88  O   UNL A   1      48.595  27.263  39.250  1.00  0.00    -0.744 OA
ENDBRANCH  84  85
ENDBRANCH  63  77
BRANCH  64  89
ATOM     89  C   UNL A   1      37.451  32.722  30.757  1.00  0.00     0.058 A 
ATOM     90  C   UNL A   1      36.191  32.152  30.994  1.00  0.00     0.135 A 
ATOM     91  C   UNL A   1      37.532  33.749  29.801  1.00  0.00     0.135 A 
ATOM     92  F   UNL A   1      36.061  31.159  31.886  1.00  0.00    -0.206 F 
ATOM     93  C   UNL A   1      35.059  32.571  30.302  1.00  0.00     0.059 A 
ATOM     94  C   UNL A   1      36.410  34.207  29.120  1.00  0.00     0.059 A 
ATOM     95  F   UNL A   1      38.712  34.332  29.540  1.00  0.00    -0.206 F 
ATOM     96  C   UNL A   1      35.177  33.604  29.370  1.00  0.00     0.060 A 
BRANCH  96  97
ATOM     97  S   UNL A   1      33.690  34.176  28.520  1.00  0.00     0.124 S 
ATOM     98  O   UNL A   1      34.217  35.260  27.701  1.00  0.00    -0.237 OA
ATOM     99  O   UNL A   1      33.271  32.976  27.802  1.00  0.00    -0.237 OA
ATOM    100  O   UNL A   1      32.811  34.580  29.615  1.00  0.00    -0.744 OA
ENDBRANCH  96  97
ENDBRANCH  64  89
BRANCH  76 101
ATOM    101  C   UNL A   1      40.248  34.323  36.949  1.00  0.00     0.058 A 
ATOM    102  C   UNL A   1      40.703  35.652  36.931  1.00  0.00     0.135 A 
ATOM    103  C   UNL A   1      39.387  33.942  37.992  1.00  0.00     0.135 A 
ATOM    104  F   UNL A   1      41.528  36.071  35.959  1.00  0.00    -0.206 F 
ATOM    105  C   UNL A   1      40.359  36.553  37.934  1.00  0.00     0.059 A 
ATOM    106  C   UNL A   1      39.000  34.836  38.986  1.00  0.00     0.059 A 
ATOM    107  F   UNL A   1      38.907  32.690  38.051  1.00  0.00    -0.206 F 
ATOM    108  C   UNL A   1      39.509  36.134  38.960  1.00  0.00     0.060 A 
BRANCH 108 109
ATOM    109  S   UNL A   1      39.075  37.310  40.259  1.00  0.00     0.124 S 
ATOM    110  O   UNL A   1      38.325  36.464  41.182  1.00  0.00    -0.237 OA
ATOM    111  O   UNL A   1      40.385  37.754  40.727  1.00  0.00    -0.237 OA
ATOM    112  O   UNL A   1      38.291  38.320  39.556  1.00  0.00    -0.744 OA
ENDBRANCH 108 109
ENDBRANCH  76 101
ENDBRANCH  50  51
ENDBRANCH  43  45
ENDBRANCH  42  43
ENDBRANCH  41  42
ENDBRANCH  40  41
ENDBRANCH  39  40
ENDBRANCH  38  39
ENDBRANCH  37  38
ENDBRANCH   1  37
TORSDOF 27
ENDMDL
MODEL 2
REMARK VINA RESULT:      -9.6      1.143      2.201
REMARK SMILES CC(=O)Nc1cc(NC(C)=O)cc(C(=O)Nc2ccc(Br)cc2C(=O)OCCOCCOCCOCCOC(=O)c2ccc(-c3c4nc(c(-c5c(F)cc(S(=O)(=O)[O-])cc5F)c5ccc([nH]5)c(-c5c(F)cc(S(=O)(=O)[O-])cc5F)c5nc(c(-c6c(F)cc(S(=O)(=O)[O-])cc6F)c6ccc3[nH]6)C=C5)C=C4)cc2)c1
REMARK SMILES IDX 32 1 31 2 30 3 29 4 28 5 27 6 26 7 24 8 25 9 23 10 17 11
REMARK SMILES IDX 18 12 19 13 22 14 20 15 21 16 16 17 14 18 15 19 13 21 5 22
REMARK SMILES IDX 6 23 107 24 7 25 12 26 4 27 1 28 2 29 3 30 8 32 9 33 10 35
REMARK SMILES IDX 11 36 33 37 34 38 35 39 36 40 37 41 38 42 39 43 40 44 41 45
REMARK SMILES IDX 42 46 106 47 43 48 105 49 44 50 45 51 46 52 99 53 47 54
REMARK SMILES IDX 104 55 98 56 100 57 48 58 103 59 97 60 96 61 49 63 83 64
REMARK SMILES IDX 62 65 82 66 63 67 66 68 81 69 101 70 64 71 65 72 80 74
REMARK SMILES IDX 102 75 67 76 50 77 51 78 60 79 52 80 53 81 59 82 61 83 54 84
REMARK SMILES IDX 55 85 56 86 57 87 58 88 84 89 85 90 94 91 86 92 87 93 93 94
REMARK SMILES IDX 95 95 88 96 89 97 90 98 91 99 92 100 68 101 69 102 78 103
REMARK SMILES IDX 70 104 71 105 77 106 79 107 72 108 73 109 74 110 75 111
REMARK SMILES IDX 76 112
REMARK H PARENT 16 20 4 31 8 34 100 62 66 73
REMARK Flexibility Score: inf
ROOT
ATOM      1  O   UNL A   1      41.185  19.926  26.704  1.00  0.00    -0.377 OA
ENDROOT
BRANCH   1   2
ATOM      2  C   UNL A   1      40.381  19.208  25.794  1.00  0.00     0.188 C 
BRANCH   2   3
ATOM      3  C   UNL A   1      38.929  19.701  25.624  1.00  0.00     0.188 C 
BRANCH   3   4
ATOM      4  O   UNL A   1      38.515  20.967  26.102  1.00  0.00    -0.376 OA
BRANCH   4   5
ATOM      5  C   UNL A   1      37.792  21.918  25.344  1.00  0.00     0.202 C 
BRANCH   5   6
ATOM      6  C   UNL A   1      36.917  23.044  25.897  1.00  0.00     0.261 C 
BRANCH   6   7
ATOM      7  O   UNL A   1      35.519  23.018  25.630  1.00  0.00    -0.460 OA
BRANCH   7   8
ATOM      8  C   UNL A   1      35.193  23.384  24.376  1.00  0.00     0.340 C 
ATOM      9  O   UNL A   1      35.755  24.245  23.715  1.00  0.00    -0.246 OA
BRANCH   8  10
ATOM     10  C   UNL A   1      34.158  22.489  23.809  1.00  0.00     0.084 A 
ATOM     11  C   UNL A   1      33.318  22.767  22.713  1.00  0.00     0.056 A 
ATOM     12  C   UNL A   1      32.275  21.859  22.444  1.00  0.00     0.028 A 
ATOM     13  C   UNL A   1      32.130  20.668  23.166  1.00  0.00     0.018 A 
ATOM     14  C   UNL A   1      34.006  21.284  24.532  1.00  0.00     0.033 A 
ATOM     15  C   UNL A   1      33.008  20.379  24.200  1.00  0.00     0.018 A 
ATOM     16  Br  UNL A   1      32.855  18.757  25.154  1.00  0.00    -0.051 Br
BRANCH  11  17
ATOM     17  N   UNL A   1      33.404  23.837  21.790  1.00  0.00    -0.321 N 
ATOM     18  C   UNL A   1      32.845  25.098  21.716  1.00  0.00     0.255 C 
ATOM     19  O   UNL A   1      32.960  25.737  20.671  1.00  0.00    -0.269 OA
ATOM     20  H   UNL A   1      33.996  23.637  21.029  1.00  0.00     0.170 HD
BRANCH  18  21
ATOM     21  C   UNL A   1      32.154  25.738  22.864  1.00  0.00     0.044 A 
ATOM     22  C   UNL A   1      30.259  26.998  23.631  1.00  0.00     0.044 A 
ATOM     23  C   UNL A   1      31.075  27.555  24.633  1.00  0.00     0.052 A 
ATOM     24  C   UNL A   1      30.778  25.987  22.830  1.00  0.00     0.040 A 
ATOM     25  C   UNL A   1      32.410  27.170  24.798  1.00  0.00     0.044 A 
ATOM     26  C   UNL A   1      32.949  26.246  23.901  1.00  0.00     0.040 A 
BRANCH  22  27
ATOM     27  N   UNL A   1      29.086  27.724  23.322  1.00  0.00    -0.326 N 
ATOM     28  C   UNL A   1      29.874  29.695  22.011  1.00  0.00     0.114 C 
ATOM     29  C   UNL A   1      28.855  28.980  22.846  1.00  0.00     0.221 C 
ATOM     30  O   UNL A   1      27.768  29.516  23.079  1.00  0.00    -0.275 OA
ATOM     31  H   UNL A   1      28.260  27.213  23.486  1.00  0.00     0.169 HD
ENDBRANCH  22  27
BRANCH  25  32
ATOM     32  N   UNL A   1      33.288  27.757  25.739  1.00  0.00    -0.326 N 
ATOM     33  C   UNL A   1      33.454  29.108  25.989  1.00  0.00     0.221 C 
ATOM     34  H   UNL A   1      33.837  27.139  26.274  1.00  0.00     0.169 HD
ATOM     35  C   UNL A   1      34.434  29.399  27.099  1.00  0.00     0.114 C 
ATOM     36  O   UNL A   1      32.897  30.035  25.410  1.00  0.00    -0.275 OA
ENDBRANCH  25  32
ENDBRANCH  18  21
ENDBRANCH  11  17
ENDBRANCH   8  10
ENDBRANCH   7   8
ENDBRANCH   6   7
ENDBRANCH   5   6
ENDBRANCH   4   5
ENDBRANCH   3   4
ENDBRANCH   2   3
ENDBRANCH   1   2
BRANCH   1  37
ATOM     37  C   UNL A   1      42.451  20.410  26.275  1.00  0.00     0.188 C 
BRANCH  37  38
ATOM     38  C   UNL A   1      42.588  21.770  25.553  1.00  0.00     0.188 C 
BRANCH  38  39
ATOM     39  O   UNL A   1      43.885  22.065  25.063  1.00  0.00    -0.376 OA
BRANCH  39  40
ATOM     40  C   UNL A   1      44.183  23.369  24.605  1.00  0.00     0.202 C 
BRANCH  40  41
ATOM     41  C   UNL A   1      45.174  24.211  25.424  1.00  0.00     0.261 C 
BRANCH  41  42
ATOM     42  O   UNL A   1      44.598  25.107  26.383  1.00  0.00    -0.460 OA
BRANCH  42  43
ATOM     43  C   UNL A   1      45.431  25.631  27.307  1.00  0.00     0.338 C 
ATOM     44  O   UNL A   1      46.646  25.517  27.345  1.00  0.00    -0.246 OA
BRANCH  43  45
ATOM     45  C   UNL A   1      44.645  26.549  28.154  1.00  0.00     0.060 A 
ATOM     46  C   UNL A   1      44.840  27.930  28.013  1.00  0.00     0.016 A 
ATOM     47  C   UNL A   1      43.714  26.053  29.070  1.00  0.00     0.016 A 
ATOM     48  C   UNL A   1      44.135  28.817  28.822  1.00  0.00     0.010 A 
ATOM     49  C   UNL A   1      43.029  26.943  29.901  1.00  0.00     0.010 A 
ATOM     50  C   UNL A   1      43.270  28.325  29.806  1.00  0.00    -0.014 A 
BRANCH  50  51
ATOM     51  C   UNL A   1      42.802  29.245  30.868  1.00  0.00     0.031 A 
ATOM     52  C   UNL A   1      43.634  29.369  32.115  1.00  0.00     0.074 A 
ATOM     53  C   UNL A   1      41.699  29.997  30.705  1.00  0.00     0.049 A 
ATOM     54  N   UNL A   1      43.442  30.111  33.174  1.00  0.00    -0.248 NA
ATOM     55  C   UNL A   1      44.854  28.544  32.174  1.00  0.00     0.031 C 
ATOM     56  C   UNL A   1      40.838  29.990  29.523  1.00  0.00     0.029 A 
ATOM     57  N   UNL A   1      41.116  30.914  31.542  1.00  0.00    -0.354 N 
ATOM     58  C   UNL A   1      44.508  29.840  34.024  1.00  0.00     0.074 A 
ATOM     59  C   UNL A   1      45.328  28.843  33.374  1.00  0.00     0.031 C 
ATOM     60  C   UNL A   1      39.827  30.856  29.717  1.00  0.00     0.029 A 
ATOM     61  C   UNL A   1      39.956  31.456  31.044  1.00  0.00     0.049 A 
ATOM     62  H   UNL A   1      41.493  31.160  32.417  1.00  0.00     0.167 HD
ATOM     63  C   UNL A   1      44.781  30.380  35.235  1.00  0.00     0.037 A 
ATOM     64  C   UNL A   1      39.088  32.321  31.608  1.00  0.00     0.037 A 
ATOM     65  C   UNL A   1      43.956  31.372  35.875  1.00  0.00     0.049 A 
ATOM     66  C   UNL A   1      39.383  32.864  32.984  1.00  0.00     0.074 A 
ATOM     67  C   UNL A   1      44.153  31.998  37.093  1.00  0.00     0.029 A 
ATOM     68  N   UNL A   1      42.771  31.872  35.356  1.00  0.00    -0.354 N 
ATOM     69  N   UNL A   1      40.409  32.621  33.767  1.00  0.00    -0.248 NA
ATOM     70  C   UNL A   1      38.407  33.804  33.550  1.00  0.00     0.031 C 
ATOM     71  C   UNL A   1      43.056  32.831  37.338  1.00  0.00     0.029 A 
ATOM     72  C   UNL A   1      42.208  32.775  36.243  1.00  0.00     0.049 A 
ATOM     73  H   UNL A   1      42.385  31.621  34.485  1.00  0.00     0.167 HD
ATOM     74  C   UNL A   1      40.212  33.398  34.906  1.00  0.00     0.074 A 
ATOM     75  C   UNL A   1      38.982  34.134  34.697  1.00  0.00     0.031 C 
ATOM     76  C   UNL A   1      40.978  33.495  36.022  1.00  0.00     0.037 A 
BRANCH  63  77
ATOM     77  C   UNL A   1      46.003  29.886  35.960  1.00  0.00     0.058 A 
ATOM     78  C   UNL A   1      47.258  30.501  35.811  1.00  0.00     0.135 A 
ATOM     79  C   UNL A   1      45.909  28.798  36.843  1.00  0.00     0.135 A 
ATOM     80  F   UNL A   1      47.412  31.528  34.963  1.00  0.00    -0.206 F 
ATOM     81  C   UNL A   1      48.378  30.041  36.497  1.00  0.00     0.059 A 
ATOM     82  C   UNL A   1      47.010  28.342  37.562  1.00  0.00     0.059 A 
ATOM     83  F   UNL A   1      44.737  28.168  37.016  1.00  0.00    -0.206 F 
ATOM     84  C   UNL A   1      48.242  28.963  37.374  1.00  0.00     0.060 A 
BRANCH  84  85
ATOM     85  S   UNL A   1      49.702  28.391  38.270  1.00  0.00     0.124 S 
ATOM     86  O   UNL A   1      49.612  29.170  39.501  1.00  0.00    -0.237 OA
ATOM     87  O   UNL A   1      49.442  26.961  38.404  1.00  0.00    -0.237 OA
ATOM     88  O   UNL A   1      50.806  28.745  37.383  1.00  0.00    -0.744 OA
ENDBRANCH  84  85
ENDBRANCH  63  77
BRANCH  64  89
ATOM     89  C   UNL A   1      37.852  32.718  30.880  1.00  0.00     0.058 A 
ATOM     90  C   UNL A   1      36.605  32.160  31.199  1.00  0.00     0.135 A 
ATOM     91  C   UNL A   1      37.897  33.661  29.840  1.00  0.00     0.135 A 
ATOM     92  F   UNL A   1      36.509  31.244  32.174  1.00  0.00    -0.206 F 
ATOM     93  C   UNL A   1      35.450  32.510  30.506  1.00  0.00     0.059 A 
ATOM     94  C   UNL A   1      36.751  34.052  29.154  1.00  0.00     0.059 A 
ATOM     95  F   UNL A   1      39.063  34.231  29.498  1.00  0.00    -0.206 F 
ATOM     96  C   UNL A   1      35.533  33.463  29.488  1.00  0.00     0.060 A 
BRANCH  96  97
ATOM     97  S   UNL A   1      34.017  33.950  28.636  1.00  0.00     0.124 S 
ATOM     98  O   UNL A   1      33.174  34.368  29.749  1.00  0.00    -0.237 OA
ATOM     99  O   UNL A   1      34.492  35.015  27.757  1.00  0.00    -0.237 OA
ATOM    100  O   UNL A   1      33.604  32.725  27.956  1.00  0.00    -0.744 OA
ENDBRANCH  96  97
ENDBRANCH  64  89
BRANCH  76 101
ATOM    101  C   UNL A   1      40.521  34.453  37.092  1.00  0.00     0.058 A 
ATOM    102  C   UNL A   1      39.757  34.028  38.192  1.00  0.00     0.135 A 
ATOM    103  C   UNL A   1      40.870  35.813  37.025  1.00  0.00     0.135 A 
ATOM    104  F   UNL A   1      39.394  32.742  38.307  1.00  0.00    -0.206 F 
ATOM    105  C   UNL A   1      39.316  34.924  39.161  1.00  0.00     0.059 A 
ATOM    106  C   UNL A   1      40.470  36.720  38.002  1.00  0.00     0.059 A 
ATOM    107  F   UNL A   1      41.613  36.272  36.006  1.00  0.00    -0.206 F 
ATOM    108  C   UNL A   1      39.675  36.270  39.054  1.00  0.00     0.060 A 
BRANCH 108 109
ATOM    109  S   UNL A   1      39.090  37.423  40.314  1.00  0.00     0.124 S 
ATOM    110  O   UNL A   1      38.435  36.522  41.256  1.00  0.00    -0.237 OA
ATOM    111  O   UNL A   1      40.332  38.034  40.779  1.00  0.00    -0.237 OA
ATOM    112  O   UNL A   1      38.199  38.312  39.574  1.00  0.00    -0.744 OA
ENDBRANCH 108 109
ENDBRANCH  76 101
ENDBRANCH  50  51
ENDBRANCH  43  45
ENDBRANCH  42  43
ENDBRANCH  41  42
ENDBRANCH  40  41
ENDBRANCH  39  40
ENDBRANCH  38  39
ENDBRANCH  37  38
ENDBRANCH   1  37
TORSDOF 27
ENDMDL
MODEL 3
REMARK VINA RESULT:      -8.2      5.725      7.817
REMARK SMILES CC(=O)Nc1cc(NC(C)=O)cc(C(=O)Nc2ccc(Br)cc2C(=O)OCCOCCOCCOCCOC(=O)c2ccc(-c3c4nc(c(-c5c(F)cc(S(=O)(=O)[O-])cc5F)c5ccc([nH]5)c(-c5c(F)cc(S(=O)(=O)[O-])cc5F)c5nc(c(-c6c(F)cc(S(=O)(=O)[O-])cc6F)c6ccc3[nH]6)C=C5)C=C4)cc2)c1
REMARK SMILES IDX 32 1 31 2 30 3 29 4 28 5 27 6 26 7 24 8 25 9 23 10 17 11
REMARK SMILES IDX 18 12 19 13 22 14 20 15 21 16 16 17 14 18 15 19 13 21 5 22
REMARK SMILES IDX 6 23 107 24 7 25 12 26 4 27 1 28 2 29 3 30 8 32 9 33 10 35
REMARK SMILES IDX 11 36 33 37 34 38 35 39 36 40 37 41 38 42 39 43 40 44 41 45
REMARK SMILES IDX 42 46 106 47 43 48 105 49 44 50 45 51 46 52 99 53 47 54
REMARK SMILES IDX 104 55 98 56 100 57 48 58 103 59 97 60 96 61 49 63 83 64
REMARK SMILES IDX 62 65 82 66 63 67 66 68 81 69 101 70 64 71 65 72 80 74
REMARK SMILES IDX 102 75 67 76 50 77 51 78 60 79 52 80 53 81 59 82 61 83 54 84
REMARK SMILES IDX 55 85 56 86 57 87 58 88 84 89 85 90 94 91 86 92 87 93 93 94
REMARK SMILES IDX 95 95 88 96 89 97 90 98 91 99 92 100 68 101 69 102 78 103
REMARK SMILES IDX 70 104 71 105 77 106 79 107 72 108 73 109 74 110 75 111
REMARK SMILES IDX 76 112
REMARK H PARENT 16 20 4 31 8 34 100 62 66 73
REMARK Flexibility Score: inf
ROOT
ATOM      1  O   UNL A   1      40.570  20.540  27.576  1.00  0.00    -0.377 OA
ENDROOT
BRANCH   1   2
ATOM      2  C   UNL A   1      39.998  19.791  26.527  1.00  0.00     0.188 C 
BRANCH   2   3
ATOM      3  C   UNL A   1      39.357  20.597  25.377  1.00  0.00     0.188 C 
BRANCH   3   4
ATOM      4  O   UNL A   1      37.998  20.428  25.021  1.00  0.00    -0.376 OA
BRANCH   4   5
ATOM      5  C   UNL A   1      36.944  21.273  25.437  1.00  0.00     0.202 C 
BRANCH   5   6
ATOM      6  C   UNL A   1      35.446  20.996  25.293  1.00  0.00     0.261 C 
BRANCH   6   7
ATOM      7  O   UNL A   1      34.641  21.935  24.589  1.00  0.00    -0.460 OA
BRANCH   7   8
ATOM      8  C   UNL A   1      33.478  21.431  24.137  1.00  0.00     0.340 C 
ATOM      9  O   UNL A   1      33.297  20.283  23.757  1.00  0.00    -0.246 OA
BRANCH   8  10
ATOM     10  C   UNL A   1      32.370  22.399  24.313  1.00  0.00     0.084 A 
ATOM     11  C   UNL A   1      32.100  23.520  23.504  1.00  0.00     0.056 A 
ATOM     12  C   UNL A   1      31.110  24.419  23.945  1.00  0.00     0.028 A 
ATOM     13  C   UNL A   1      30.343  24.167  25.089  1.00  0.00     0.018 A 
ATOM     14  C   UNL A   1      31.590  22.151  25.465  1.00  0.00     0.033 A 
ATOM     15  C   UNL A   1      30.578  23.024  25.837  1.00  0.00     0.018 A 
ATOM     16  Br  UNL A   1      29.523  22.645  27.356  1.00  0.00    -0.051 Br
BRANCH  11  17
ATOM     17  N   UNL A   1      32.668  23.856  22.251  1.00  0.00    -0.321 N 
ATOM     18  C   UNL A   1      32.835  25.034  21.550  1.00  0.00     0.255 C 
ATOM     19  O   UNL A   1      33.197  24.979  20.376  1.00  0.00    -0.269 OA
ATOM     20  H   UNL A   1      33.025  23.073  21.772  1.00  0.00     0.170 HD
BRANCH  18  21
ATOM     21  C   UNL A   1      32.643  26.371  22.169  1.00  0.00     0.044 A 
ATOM     22  C   UNL A   1      33.209  27.864  23.962  1.00  0.00     0.044 A 
ATOM     23  C   UNL A   1      31.931  28.441  23.842  1.00  0.00     0.052 A 
ATOM     24  C   UNL A   1      33.604  26.913  23.029  1.00  0.00     0.040 A 
ATOM     25  C   UNL A   1      31.025  28.034  22.856  1.00  0.00     0.044 A 
ATOM     26  C   UNL A   1      31.394  26.988  22.009  1.00  0.00     0.040 A 
BRANCH  22  27
ATOM     27  N   UNL A   1      33.863  28.075  25.198  1.00  0.00    -0.326 N 
ATOM     28  C   UNL A   1      32.123  27.641  26.931  1.00  0.00     0.114 C 
ATOM     29  C   UNL A   1      33.426  28.227  26.480  1.00  0.00     0.221 C 
ATOM     30  O   UNL A   1      34.142  28.825  27.287  1.00  0.00    -0.275 OA
ATOM     31  H   UNL A   1      34.843  28.123  25.113  1.00  0.00     0.169 HD
ENDBRANCH  22  27
BRANCH  25  32
ATOM     32  N   UNL A   1      29.706  28.532  22.747  1.00  0.00    -0.326 N 
ATOM     33  C   UNL A   1      28.555  27.951  23.252  1.00  0.00     0.221 C 
ATOM     34  H   UNL A   1      29.594  29.381  22.261  1.00  0.00     0.169 HD
ATOM     35  C   UNL A   1      27.311  28.768  23.007  1.00  0.00     0.114 C 
ATOM     36  O   UNL A   1      28.474  26.883  23.850  1.00  0.00    -0.275 OA
ENDBRANCH  25  32
ENDBRANCH  18  21
ENDBRANCH  11  17
ENDBRANCH   8  10
ENDBRANCH   7   8
ENDBRANCH   6   7
ENDBRANCH   5   6
ENDBRANCH   4   5
ENDBRANCH   3   4
ENDBRANCH   2   3
ENDBRANCH   1   2
BRANCH   1  37
ATOM     37  C   UNL A   1      41.831  21.164  27.372  1.00  0.00     0.188 C 
BRANCH  37  38
ATOM     38  C   UNL A   1      41.935  22.660  26.995  1.00  0.00     0.188 C 
BRANCH  38  39
ATOM     39  O   UNL A   1      43.171  23.053  26.425  1.00  0.00    -0.376 OA
BRANCH  39  40
ATOM     40  C   UNL A   1      43.201  24.082  25.454  1.00  0.00     0.202 C 
BRANCH  40  41
ATOM     41  C   UNL A   1      44.176  25.249  25.671  1.00  0.00     0.261 C 
BRANCH  41  42
ATOM     42  O   UNL A   1      43.792  26.217  26.656  1.00  0.00    -0.460 OA
BRANCH  42  43
ATOM     43  C   UNL A   1      44.319  26.075  27.891  1.00  0.00     0.338 C 
ATOM     44  O   UNL A   1      44.909  25.099  28.327  1.00  0.00    -0.246 OA
BRANCH  43  45
ATOM     45  C   UNL A   1      44.250  27.386  28.564  1.00  0.00     0.060 A 
ATOM     46  C   UNL A   1      43.342  28.342  28.087  1.00  0.00     0.016 A 
ATOM     47  C   UNL A   1      45.064  27.668  29.663  1.00  0.00     0.016 A 
ATOM     48  C   UNL A   1      43.279  29.599  28.683  1.00  0.00     0.010 A 
ATOM     49  C   UNL A   1      45.021  28.938  30.241  1.00  0.00     0.010 A 
ATOM     50  C   UNL A   1      44.157  29.920  29.725  1.00  0.00    -0.014 A 
BRANCH  50  51
ATOM     51  C   UNL A   1      44.316  31.342  30.110  1.00  0.00     0.031 A 
ATOM     52  C   UNL A   1      43.463  31.871  31.232  1.00  0.00     0.074 A 
ATOM     53  C   UNL A   1      45.236  32.126  29.522  1.00  0.00     0.049 A 
ATOM     54  N   UNL A   1      43.427  33.067  31.755  1.00  0.00    -0.248 NA
ATOM     55  C   UNL A   1      42.525  30.916  31.849  1.00  0.00     0.031 C 
ATOM     56  C   UNL A   1      46.144  31.710  28.454  1.00  0.00     0.029 A 
ATOM     57  N   UNL A   1      45.555  33.441  29.743  1.00  0.00    -0.354 N 
ATOM     58  C   UNL A   1      42.462  33.013  32.755  1.00  0.00     0.074 A 
ATOM     59  C   UNL A   1      41.915  31.675  32.746  1.00  0.00     0.031 C 
ATOM     60  C   UNL A   1      46.913  32.757  28.105  1.00  0.00     0.029 A 
ATOM     61  C   UNL A   1      46.531  33.921  28.904  1.00  0.00     0.049 A 
ATOM     62  H   UNL A   1      45.125  33.991  30.437  1.00  0.00     0.167 HD
ATOM     63  C   UNL A   1      42.075  33.989  33.609  1.00  0.00     0.037 A 
ATOM     64  C   UNL A   1      47.042  35.163  28.783  1.00  0.00     0.037 A 
ATOM     65  C   UNL A   1      42.625  35.320  33.608  1.00  0.00     0.049 A 
ATOM     66  C   UNL A   1      46.550  36.250  29.706  1.00  0.00     0.074 A 
ATOM     67  C   UNL A   1      42.315  36.378  34.443  1.00  0.00     0.029 A 
ATOM     68  N   UNL A   1      43.588  35.779  32.721  1.00  0.00    -0.354 N 
ATOM     69  N   UNL A   1      45.658  36.180  30.667  1.00  0.00    -0.248 NA
ATOM     70  C   UNL A   1      47.141  37.584  29.534  1.00  0.00     0.031 C 
ATOM     71  C   UNL A   1      43.047  37.494  34.022  1.00  0.00     0.029 A 
ATOM     72  C   UNL A   1      43.862  37.114  32.968  1.00  0.00     0.049 A 
ATOM     73  H   UNL A   1      44.015  35.235  32.019  1.00  0.00     0.167 HD
ATOM     74  C   UNL A   1      45.600  37.453  31.229  1.00  0.00     0.074 A 
ATOM     75  C   UNL A   1      46.564  38.265  30.514  1.00  0.00     0.031 C 
ATOM     76  C   UNL A   1      44.821  37.910  32.242  1.00  0.00     0.037 A 
BRANCH  63  77
ATOM     77  C   UNL A   1      40.982  33.665  34.591  1.00  0.00     0.058 A 
ATOM     78  C   UNL A   1      39.623  33.812  34.269  1.00  0.00     0.135 A 
ATOM     79  C   UNL A   1      41.303  33.168  35.865  1.00  0.00     0.135 A 
ATOM     80  F   UNL A   1      39.260  34.306  33.075  1.00  0.00    -0.206 F 
ATOM     81  C   UNL A   1      38.622  33.498  35.182  1.00  0.00     0.059 A 
ATOM     82  C   UNL A   1      40.316  32.818  36.783  1.00  0.00     0.059 A 
ATOM     83  F   UNL A   1      42.585  33.015  36.228  1.00  0.00    -0.206 F 
ATOM     84  C   UNL A   1      38.979  32.997  36.436  1.00  0.00     0.060 A 
BRANCH  84  85
ATOM     85  S   UNL A   1      37.666  32.576  37.603  1.00  0.00     0.124 S 
ATOM     86  O   UNL A   1      38.252  33.009  38.868  1.00  0.00    -0.237 OA
ATOM     87  O   UNL A   1      36.549  33.378  37.114  1.00  0.00    -0.237 OA
ATOM     88  O   UNL A   1      37.518  31.133  37.442  1.00  0.00    -0.744 OA
ENDBRANCH  84  85
ENDBRANCH  63  77
BRANCH  64  89
ATOM     89  C   UNL A   1      48.065  35.451  27.742  1.00  0.00     0.058 A 
ATOM     90  C   UNL A   1      49.431  35.514  28.058  1.00  0.00     0.135 A 
ATOM     91  C   UNL A   1      47.695  35.679  26.407  1.00  0.00     0.135 A 
ATOM     92  F   UNL A   1      49.838  35.319  29.321  1.00  0.00    -0.206 F 
ATOM     93  C   UNL A   1      50.390  35.806  27.093  1.00  0.00     0.059 A 
ATOM     94  C   UNL A   1      48.637  35.940  25.418  1.00  0.00     0.059 A 
ATOM     95  F   UNL A   1      46.402  35.625  26.049  1.00  0.00    -0.206 F 
ATOM     96  C   UNL A   1      49.984  36.012  25.773  1.00  0.00     0.060 A 
BRANCH  96  97
ATOM     97  S   UNL A   1      51.244  36.333  24.521  1.00  0.00     0.124 S 
ATOM     98  O   UNL A   1      52.207  37.132  25.269  1.00  0.00    -0.237 OA
ATOM     99  O   UNL A   1      51.672  34.983  24.167  1.00  0.00    -0.237 OA
ATOM    100  O   UNL A   1      50.510  37.043  23.477  1.00  0.00    -0.744 OA
ENDBRANCH  96  97
ENDBRANCH  64  89
BRANCH  76 101
ATOM    101  C   UNL A   1      45.002  39.348  32.657  1.00  0.00     0.058 A 
ATOM    102  C   UNL A   1      44.245  40.385  32.088  1.00  0.00     0.135 A 
ATOM    103  C   UNL A   1      45.932  39.689  33.653  1.00  0.00     0.135 A 
ATOM    104  F   UNL A   1      43.343  40.118  31.131  1.00  0.00    -0.206 F 
ATOM    105  C   UNL A   1      44.437  41.713  32.457  1.00  0.00     0.059 A 
ATOM    106  C   UNL A   1      46.115  41.006  34.064  1.00  0.00     0.059 A 
ATOM    107  F   UNL A   1      46.670  38.737  34.245  1.00  0.00    -0.206 F 
ATOM    108  C   UNL A   1      45.378  42.013  33.444  1.00  0.00     0.060 A 
BRANCH 108 109
ATOM    109  S   UNL A   1      45.623  43.741  33.909  1.00  0.00     0.124 S 
ATOM    110  O   UNL A   1      47.045  43.920  33.632  1.00  0.00    -0.237 OA
ATOM    111  O   UNL A   1      44.709  44.439  33.009  1.00  0.00    -0.237 OA
ATOM    112  O   UNL A   1      45.250  43.770  35.319  1.00  0.00    -0.744 OA
ENDBRANCH 108 109
ENDBRANCH  76 101
ENDBRANCH  50  51
ENDBRANCH  43  45
ENDBRANCH  42  43
ENDBRANCH  41  42
ENDBRANCH  40  41
ENDBRANCH  39  40
ENDBRANCH  38  39
ENDBRANCH  37  38
ENDBRANCH   1  37
TORSDOF 27
ENDMDL
