MODEL 1
REMARK VINA RESULT:      -9.7      0.000      0.000
REMARK SMILES CCC[C@H]([NH2+]Cc1c(O)ccc2c(-c3ccccc3)cc(=O)oc12)C(=O)OCCOCCOCCOCCOC(=O)c1ccc(-c2c3nc(c(-c4c(F)cc(S(=O)(=O)[O-])cc4F)c4ccc([nH]4)c(-c4c(F)cc(S(=O)(=O)[O-])cc4F)c4nc(c(-c5c(F)cc(S(=O)(=O)[O-])cc5F)c5ccc2[nH]5)C=C4)C=C3)cc1
REMARK SMILES IDX 32 1 31 2 30 3 29 4 28 5 27 6 25 7 26 8 4 9 3 10 2 11 1 12
REMARK SMILES IDX 5 13 6 16 7 17 8 18 24 19 10 20 12 21 23 22 11 23 13 24
REMARK SMILES IDX 21 25 20 26 22 27 9 28 14 30 15 31 19 32 16 33 18 34 17 35
REMARK SMILES IDX 33 36 34 37 35 38 36 39 37 40 38 41 39 42 40 43 41 44 42 45
REMARK SMILES IDX 43 46 107 47 44 48 106 49 45 50 46 51 47 52 100 53 48 54
REMARK SMILES IDX 105 55 99 56 101 57 49 58 104 59 98 60 97 61 50 63 84 64
REMARK SMILES IDX 63 65 83 66 64 67 67 68 82 69 102 70 65 71 66 72 81 74
REMARK SMILES IDX 103 75 68 76 51 77 52 78 61 79 53 80 54 81 60 82 62 83 55 84
REMARK SMILES IDX 56 85 57 86 58 87 59 88 85 89 86 90 95 91 87 92 88 93 94 94
REMARK SMILES IDX 96 95 89 96 90 97 91 98 92 99 93 100 69 101 70 102 79 103
REMARK SMILES IDX 71 104 72 105 78 106 80 107 73 108 74 109 75 110 76 111
REMARK SMILES IDX 77 112
REMARK H PARENT 5 14 5 15 9 29 101 62 67 73
REMARK Flexibility Score: inf
ROOT
ATOM      1  C   UNL A   1      33.855  25.316  26.121  1.00  0.00     0.188 C 
ENDROOT
BRANCH   1   2
ATOM      2  C   UNL A   1      34.920  25.011  25.064  1.00  0.00     0.188 C 
BRANCH   2   3
ATOM      3  O   UNL A   1      35.757  23.878  25.179  1.00  0.00    -0.376 OA
BRANCH   3   4
ATOM      4  C   UNL A   1      35.521  22.843  26.121  1.00  0.00     0.202 C 
BRANCH   4   5
ATOM      5  C   UNL A   1      34.928  21.451  25.812  1.00  0.00     0.261 C 
BRANCH   5   6
ATOM      6  O   UNL A   1      33.637  21.103  26.340  1.00  0.00    -0.459 OA
BRANCH   6   7
ATOM      7  C   UNL A   1      33.008  20.106  25.688  1.00  0.00     0.364 C 
ATOM      8  O   UNL A   1      32.958  18.958  26.137  1.00  0.00    -0.245 OA
BRANCH   7   9
ATOM      9  C   UNL A   1      32.365  20.443  24.330  1.00  0.00     0.293 C 
BRANCH   9  10
ATOM     10  C   UNL A   1      33.103  19.694  23.213  1.00  0.00     0.077 C 
BRANCH  10  11
ATOM     11  C   UNL A   1      32.449  18.346  22.838  1.00  0.00     0.003 C 
ATOM     12  C   UNL A   1      33.192  17.126  23.377  1.00  0.00     0.004 C 
ENDBRANCH  10  11
ENDBRANCH   9  10
BRANCH   9  13
ATOM     13  N   UNL A   1      31.956  21.817  23.950  1.00  0.00    -0.331 N 
ATOM     14  H   UNL A   1      31.693  22.286  24.817  1.00  0.00     0.347 HD
ATOM     15  H   UNL A   1      31.239  21.639  23.246  1.00  0.00     0.347 HD
BRANCH  13  16
ATOM     16  C   UNL A   1      32.853  22.725  23.249  1.00  0.00     0.306 C 
BRANCH  16  17
ATOM     17  C   UNL A   1      32.187  24.026  22.748  1.00  0.00     0.091 A 
ATOM     18  C   UNL A   1      32.557  24.517  21.484  1.00  0.00     0.128 A 
ATOM     19  C   UNL A   1      31.321  24.864  23.499  1.00  0.00     0.151 A 
ATOM     20  C   UNL A   1      32.112  25.754  21.005  1.00  0.00     0.047 A 
ATOM     21  C   UNL A   1      30.860  26.119  23.045  1.00  0.00     0.026 A 
ATOM     22  O   UNL A   1      30.899  24.420  24.777  1.00  0.00    -0.422 OA
ATOM     23  C   UNL A   1      31.280  26.556  21.788  1.00  0.00     0.016 A 
ATOM     24  C   UNL A   1      29.972  26.948  23.892  1.00  0.00    -0.000 A 
ATOM     25  C   UNL A   1      30.064  25.158  25.594  1.00  0.00     0.336 A 
ATOM     26  C   UNL A   1      29.601  26.450  25.081  1.00  0.00     0.103 A 
ATOM     27  O   UNL A   1      29.747  24.778  26.715  1.00  0.00    -0.246 OA
BRANCH  18  28
ATOM     28  O   UNL A   1      33.390  23.763  20.702  1.00  0.00    -0.507 OA
ATOM     29  H   UNL A   1      33.846  23.032  21.071  1.00  0.00     0.293 HD
ENDBRANCH  18  28
BRANCH  24  30
ATOM     30  C   UNL A   1      29.418  28.288  23.563  1.00  0.00    -0.017 A 
ATOM     31  C   UNL A   1      30.170  29.454  23.769  1.00  0.00     0.009 A 
ATOM     32  C   UNL A   1      28.113  28.413  23.071  1.00  0.00     0.009 A 
ATOM     33  C   UNL A   1      29.636  30.715  23.491  1.00  0.00     0.001 A 
ATOM     34  C   UNL A   1      27.580  29.675  22.787  1.00  0.00     0.001 A 
ATOM     35  C   UNL A   1      28.339  30.824  22.999  1.00  0.00     0.000 A 
ENDBRANCH  24  30
ENDBRANCH  16  17
ENDBRANCH  13  16
ENDBRANCH   9  13
ENDBRANCH   7   9
ENDBRANCH   6   7
ENDBRANCH   5   6
ENDBRANCH   4   5
ENDBRANCH   3   4
ENDBRANCH   2   3
ENDBRANCH   1   2
BRANCH   1  36
ATOM     36  O   UNL A   1      33.265  26.593  26.056  1.00  0.00    -0.377 OA
BRANCH  36  37
ATOM     37  C   UNL A   1      33.657  27.490  25.031  1.00  0.00     0.188 C 
BRANCH  37  38
ATOM     38  C   UNL A   1      33.335  28.991  25.165  1.00  0.00     0.188 C 
BRANCH  38  39
ATOM     39  O   UNL A   1      33.391  29.497  26.489  1.00  0.00    -0.376 OA
BRANCH  39  40
ATOM     40  C   UNL A   1      32.881  30.795  26.732  1.00  0.00     0.202 C 
BRANCH  40  41
ATOM     41  C   UNL A   1      33.594  31.651  27.787  1.00  0.00     0.261 C 
BRANCH  41  42
ATOM     42  O   UNL A   1      33.662  33.062  27.552  1.00  0.00    -0.460 OA
BRANCH  42  43
ATOM     43  C   UNL A   1      33.609  33.876  28.629  1.00  0.00     0.338 C 
ATOM     44  O   UNL A   1      32.718  34.645  28.915  1.00  0.00    -0.246 OA
BRANCH  43  45
ATOM     45  C   UNL A   1      34.741  33.519  29.515  1.00  0.00     0.060 A 
ATOM     46  C   UNL A   1      36.026  33.953  29.165  1.00  0.00     0.016 A 
ATOM     47  C   UNL A   1      34.541  32.765  30.674  1.00  0.00     0.016 A 
ATOM     48  C   UNL A   1      37.123  33.595  29.948  1.00  0.00     0.010 A 
ATOM     49  C   UNL A   1      35.645  32.386  31.444  1.00  0.00     0.010 A 
ATOM     50  C   UNL A   1      36.944  32.767  31.062  1.00  0.00    -0.014 A 
BRANCH  50  51
ATOM     51  C   UNL A   1      38.128  32.128  31.688  1.00  0.00     0.031 A 
ATOM     52  C   UNL A   1      38.545  32.596  33.058  1.00  0.00     0.074 A 
ATOM     53  C   UNL A   1      38.794  31.130  31.079  1.00  0.00     0.049 A 
ATOM     54  N   UNL A   1      39.559  32.221  33.792  1.00  0.00    -0.248 NA
ATOM     55  C   UNL A   1      37.701  33.630  33.682  1.00  0.00     0.031 C 
ATOM     56  C   UNL A   1      38.454  30.559  29.777  1.00  0.00     0.029 A 
ATOM     57  N   UNL A   1      39.902  30.425  31.478  1.00  0.00    -0.354 N 
ATOM     58  C   UNL A   1      39.481  32.977  34.956  1.00  0.00     0.074 A 
ATOM     59  C   UNL A   1      38.340  33.853  34.820  1.00  0.00     0.031 C 
ATOM     60  C   UNL A   1      39.346  29.597  29.478  1.00  0.00     0.029 A 
ATOM     61  C   UNL A   1      40.338  29.510  30.549  1.00  0.00     0.049 A 
ATOM     62  H   UNL A   1      40.343  30.561  32.347  1.00  0.00     0.167 HD
ATOM     63  C   UNL A   1      40.283  32.937  36.047  1.00  0.00     0.037 A 
ATOM     64  C   UNL A   1      41.427  28.714  30.555  1.00  0.00     0.037 A 
ATOM     65  C   UNL A   1      41.418  32.061  36.174  1.00  0.00     0.049 A 
ATOM     66  C   UNL A   1      42.351  28.740  31.746  1.00  0.00     0.074 A 
ATOM     67  C   UNL A   1      42.288  31.930  37.241  1.00  0.00     0.029 A 
ATOM     68  N   UNL A   1      41.846  31.171  35.199  1.00  0.00    -0.354 N 
ATOM     69  N   UNL A   1      42.256  29.444  32.851  1.00  0.00    -0.248 NA
ATOM     70  C   UNL A   1      43.529  27.862  31.698  1.00  0.00     0.031 C 
ATOM     71  C   UNL A   1      43.279  31.010  36.887  1.00  0.00     0.029 A 
ATOM     72  C   UNL A   1      42.986  30.512  35.626  1.00  0.00     0.049 A 
ATOM     73  H   UNL A   1      41.404  31.029  34.330  1.00  0.00     0.167 HD
ATOM     74  C   UNL A   1      43.342  29.070  33.639  1.00  0.00     0.074 A 
ATOM     75  C   UNL A   1      44.074  28.070  32.889  1.00  0.00     0.031 C 
ATOM     76  C   UNL A   1      43.700  29.512  34.871  1.00  0.00     0.037 A 
BRANCH  63  77
ATOM     77  C   UNL A   1      39.987  33.893  37.170  1.00  0.00     0.058 A 
ATOM     78  C   UNL A   1      40.523  35.191  37.205  1.00  0.00     0.135 A 
ATOM     79  C   UNL A   1      39.125  33.514  38.212  1.00  0.00     0.135 A 
ATOM     80  F   UNL A   1      41.371  35.599  36.247  1.00  0.00    -0.206 F 
ATOM     81  C   UNL A   1      40.233  36.069  38.244  1.00  0.00     0.059 A 
ATOM     82  C   UNL A   1      38.796  34.387  39.244  1.00  0.00     0.059 A 
ATOM     83  F   UNL A   1      38.590  32.284  38.233  1.00  0.00    -0.206 F 
ATOM     84  C   UNL A   1      39.365  35.659  39.257  1.00  0.00     0.060 A 
BRANCH  84  85
ATOM     85  S   UNL A   1      38.990  36.816  40.592  1.00  0.00     0.124 S 
ATOM     86  O   UNL A   1      37.875  36.146  41.253  1.00  0.00    -0.237 OA
ATOM     87  O   UNL A   1      40.245  36.846  41.337  1.00  0.00    -0.237 OA
ATOM     88  O   UNL A   1      38.651  38.049  39.889  1.00  0.00    -0.744 OA
ENDBRANCH  84  85
ENDBRANCH  63  77
BRANCH  64  89
ATOM     89  C   UNL A   1      41.719  27.840  29.384  1.00  0.00     0.058 A 
ATOM     90  C   UNL A   1      40.902  26.743  29.069  1.00  0.00     0.135 A 
ATOM     91  C   UNL A   1      42.831  28.080  28.560  1.00  0.00     0.135 A 
ATOM     92  F   UNL A   1      39.836  26.461  29.833  1.00  0.00    -0.206 F 
ATOM     93  C   UNL A   1      41.183  25.907  27.992  1.00  0.00     0.059 A 
ATOM     94  C   UNL A   1      43.116  27.278  27.460  1.00  0.00     0.059 A 
ATOM     95  F   UNL A   1      43.643  29.119  28.812  1.00  0.00    -0.206 F 
ATOM     96  C   UNL A   1      42.291  26.187  27.190  1.00  0.00     0.060 A 
BRANCH  96  97
ATOM     97  S   UNL A   1      42.620  25.124  25.768  1.00  0.00     0.124 S 
ATOM     98  O   UNL A   1      42.326  26.021  24.655  1.00  0.00    -0.237 OA
ATOM     99  O   UNL A   1      44.026  24.784  25.961  1.00  0.00    -0.237 OA
ATOM    100  O   UNL A   1      41.684  24.019  25.951  1.00  0.00    -0.744 OA
ENDBRANCH  96  97
ENDBRANCH  64  89
BRANCH  76 101
ATOM    101  C   UNL A   1      44.912  28.891  35.512  1.00  0.00     0.058 A 
ATOM    102  C   UNL A   1      46.206  29.389  35.294  1.00  0.00     0.135 A 
ATOM    103  C   UNL A   1      44.766  27.821  36.412  1.00  0.00     0.135 A 
ATOM    104  F   UNL A   1      46.403  30.408  34.442  1.00  0.00    -0.206 F 
ATOM    105  C   UNL A   1      47.314  28.834  35.926  1.00  0.00     0.059 A 
ATOM    106  C   UNL A   1      45.856  27.273  37.081  1.00  0.00     0.059 A 
ATOM    107  F   UNL A   1      43.550  27.313  36.668  1.00  0.00    -0.206 F 
ATOM    108  C   UNL A   1      47.129  27.779  36.822  1.00  0.00     0.060 A 
BRANCH 108 109
ATOM    109  S   UNL A   1      48.572  27.096  37.663  1.00  0.00     0.124 S 
ATOM    110  O   UNL A   1      49.301  28.306  38.027  1.00  0.00    -0.237 OA
ATOM    111  O   UNL A   1      47.969  26.363  38.771  1.00  0.00    -0.237 OA
ATOM    112  O   UNL A   1      49.203  26.268  36.640  1.00  0.00    -0.744 OA
ENDBRANCH 108 109
ENDBRANCH  76 101
ENDBRANCH  50  51
ENDBRANCH  43  45
ENDBRANCH  42  43
ENDBRANCH  41  42
ENDBRANCH  40  41
ENDBRANCH  39  40
ENDBRANCH  38  39
ENDBRANCH  37  38
ENDBRANCH  36  37
ENDBRANCH   1  36
TORSDOF 30
ENDMDL
MODEL 2
REMARK VINA RESULT:      -8.6      0.944      2.058
REMARK SMILES CCC[C@H]([NH2+]Cc1c(O)ccc2c(-c3ccccc3)cc(=O)oc12)C(=O)OCCOCCOCCOCCOC(=O)c1ccc(-c2c3nc(c(-c4c(F)cc(S(=O)(=O)[O-])cc4F)c4ccc([nH]4)c(-c4c(F)cc(S(=O)(=O)[O-])cc4F)c4nc(c(-c5c(F)cc(S(=O)(=O)[O-])cc5F)c5ccc2[nH]5)C=C4)C=C3)cc1
REMARK SMILES IDX 32 1 31 2 30 3 29 4 28 5 27 6 25 7 26 8 4 9 3 10 2 11 1 12
REMARK SMILES IDX 5 13 6 16 7 17 8 18 24 19 10 20 12 21 23 22 11 23 13 24
REMARK SMILES IDX 21 25 20 26 22 27 9 28 14 30 15 31 19 32 16 33 18 34 17 35
REMARK SMILES IDX 33 36 34 37 35 38 36 39 37 40 38 41 39 42 40 43 41 44 42 45
REMARK SMILES IDX 43 46 107 47 44 48 106 49 45 50 46 51 47 52 100 53 48 54
REMARK SMILES IDX 105 55 99 56 101 57 49 58 104 59 98 60 97 61 50 63 84 64
REMARK SMILES IDX 63 65 83 66 64 67 67 68 82 69 102 70 65 71 66 72 81 74
REMARK SMILES IDX 103 75 68 76 51 77 52 78 61 79 53 80 54 81 60 82 62 83 55 84
REMARK SMILES IDX 56 85 57 86 58 87 59 88 85 89 86 90 95 91 87 92 88 93 94 94
REMARK SMILES IDX 96 95 89 96 90 97 91 98 92 99 93 100 69 101 70 102 79 103
REMARK SMILES IDX 71 104 72 105 78 106 80 107 73 108 74 109 75 110 76 111
REMARK SMILES IDX 77 112
REMARK H PARENT 5 14 5 15 9 29 101 62 67 73
REMARK Flexibility Score: inf
ROOT
ATOM      1  C   UNL A   1      33.843  25.456  25.907  1.00  0.00     0.188 C 
ENDROOT
BRANCH   1   2
ATOM      2  C   UNL A   1      35.140  25.261  25.117  1.00  0.00     0.188 C 
BRANCH   2   3
ATOM      3  O   UNL A   1      36.173  24.431  25.607  1.00  0.00    -0.376 OA
BRANCH   3   4
ATOM      4  C   UNL A   1      35.947  23.098  26.037  1.00  0.00     0.202 C 
BRANCH   4   5
ATOM      5  C   UNL A   1      36.545  21.824  25.402  1.00  0.00     0.261 C 
BRANCH   5   6
ATOM      6  O   UNL A   1      36.037  20.537  25.795  1.00  0.00    -0.459 OA
BRANCH   6   7
ATOM      7  C   UNL A   1      34.979  20.104  25.082  1.00  0.00     0.364 C 
ATOM      8  O   UNL A   1      35.102  19.339  24.123  1.00  0.00    -0.245 OA
BRANCH   7   9
ATOM      9  C   UNL A   1      33.589  20.623  25.494  1.00  0.00     0.293 C 
BRANCH   9  10
ATOM     10  C   UNL A   1      32.587  19.461  25.499  1.00  0.00     0.077 C 
BRANCH  10  11
ATOM     11  C   UNL A   1      33.252  18.074  25.637  1.00  0.00     0.003 C 
ATOM     12  C   UNL A   1      32.445  16.935  25.019  1.00  0.00     0.004 C 
ENDBRANCH  10  11
ENDBRANCH   9  10
BRANCH   9  13
ATOM     13  N   UNL A   1      33.017  21.893  24.985  1.00  0.00    -0.331 N 
ATOM     14  H   UNL A   1      33.521  22.107  24.124  1.00  0.00     0.347 HD
ATOM     15  H   UNL A   1      33.123  22.513  25.788  1.00  0.00     0.347 HD
BRANCH  13  16
ATOM     16  C   UNL A   1      31.601  22.035  24.675  1.00  0.00     0.306 C 
BRANCH  16  17
ATOM     17  C   UNL A   1      31.034  23.455  24.895  1.00  0.00     0.091 A 
ATOM     18  C   UNL A   1      30.252  23.687  26.040  1.00  0.00     0.128 A 
ATOM     19  C   UNL A   1      31.114  24.537  23.980  1.00  0.00     0.151 A 
ATOM     20  C   UNL A   1      29.585  24.898  26.254  1.00  0.00     0.047 A 
ATOM     21  C   UNL A   1      30.449  25.769  24.166  1.00  0.00     0.026 A 
ATOM     22  O   UNL A   1      31.900  24.372  22.813  1.00  0.00    -0.422 OA
ATOM     23  C   UNL A   1      29.672  25.927  25.315  1.00  0.00     0.016 A 
ATOM     24  C   UNL A   1      30.563  26.848  23.158  1.00  0.00    -0.000 A 
ATOM     25  C   UNL A   1      32.040  25.356  21.853  1.00  0.00     0.336 A 
ATOM     26  C   UNL A   1      31.342  26.622  22.089  1.00  0.00     0.103 A 
ATOM     27  O   UNL A   1      32.686  25.178  20.826  1.00  0.00    -0.246 OA
BRANCH  18  28
ATOM     28  O   UNL A   1      30.129  22.689  26.968  1.00  0.00    -0.507 OA
ATOM     29  H   UNL A   1      29.356  22.630  27.494  1.00  0.00     0.293 HD
ENDBRANCH  18  28
BRANCH  24  30
ATOM     30  C   UNL A   1      29.917  28.186  23.203  1.00  0.00    -0.017 A 
ATOM     31  C   UNL A   1      30.520  29.259  23.876  1.00  0.00     0.009 A 
ATOM     32  C   UNL A   1      28.670  28.391  22.600  1.00  0.00     0.009 A 
ATOM     33  C   UNL A   1      29.896  30.508  23.946  1.00  0.00     0.001 A 
ATOM     34  C   UNL A   1      28.048  29.642  22.665  1.00  0.00     0.001 A 
ATOM     35  C   UNL A   1      28.659  30.699  23.339  1.00  0.00     0.000 A 
ENDBRANCH  24  30
ENDBRANCH  16  17
ENDBRANCH  13  16
ENDBRANCH   9  13
ENDBRANCH   7   9
ENDBRANCH   6   7
ENDBRANCH   5   6
ENDBRANCH   4   5
ENDBRANCH   3   4
ENDBRANCH   2   3
ENDBRANCH   1   2
BRANCH   1  36
ATOM     36  O   UNL A   1      33.276  26.744  25.860  1.00  0.00    -0.377 OA
BRANCH  36  37
ATOM     37  C   UNL A   1      33.875  27.739  25.047  1.00  0.00     0.188 C 
BRANCH  37  38
ATOM     38  C   UNL A   1      33.376  29.195  25.129  1.00  0.00     0.188 C 
BRANCH  38  39
ATOM     39  O   UNL A   1      33.010  29.626  26.431  1.00  0.00    -0.376 OA
BRANCH  39  40
ATOM     40  C   UNL A   1      32.502  30.940  26.582  1.00  0.00     0.202 C 
BRANCH  40  41
ATOM     41  C   UNL A   1      33.038  31.776  27.751  1.00  0.00     0.261 C 
BRANCH  41  42
ATOM     42  O   UNL A   1      33.495  33.102  27.456  1.00  0.00    -0.460 OA
BRANCH  42  43
ATOM     43  C   UNL A   1      33.482  34.003  28.463  1.00  0.00     0.338 C 
ATOM     44  O   UNL A   1      32.609  34.805  28.709  1.00  0.00    -0.246 OA
BRANCH  43  45
ATOM     45  C   UNL A   1      34.635  33.705  29.343  1.00  0.00     0.060 A 
ATOM     46  C   UNL A   1      35.895  34.203  28.985  1.00  0.00     0.016 A 
ATOM     47  C   UNL A   1      34.480  32.944  30.504  1.00  0.00     0.016 A 
ATOM     48  C   UNL A   1      37.012  33.903  29.763  1.00  0.00     0.010 A 
ATOM     49  C   UNL A   1      35.606  32.623  31.269  1.00  0.00     0.010 A 
ATOM     50  C   UNL A   1      36.882  33.069  30.880  1.00  0.00    -0.014 A 
BRANCH  50  51
ATOM     51  C   UNL A   1      38.100  32.492  31.500  1.00  0.00     0.031 A 
ATOM     52  C   UNL A   1      38.541  33.035  32.834  1.00  0.00     0.074 A 
ATOM     53  C   UNL A   1      38.777  31.485  30.919  1.00  0.00     0.049 A 
ATOM     54  N   UNL A   1      39.585  32.723  33.555  1.00  0.00    -0.248 NA
ATOM     55  C   UNL A   1      37.685  34.074  33.434  1.00  0.00     0.031 C 
ATOM     56  C   UNL A   1      38.418  30.844  29.655  1.00  0.00     0.029 A 
ATOM     57  N   UNL A   1      39.915  30.830  31.318  1.00  0.00    -0.354 N 
ATOM     58  C   UNL A   1      39.517  33.529  34.686  1.00  0.00     0.074 A 
ATOM     59  C   UNL A   1      38.349  34.368  34.541  1.00  0.00     0.031 C 
ATOM     60  C   UNL A   1      39.328  29.894  29.376  1.00  0.00     0.029 A 
ATOM     61  C   UNL A   1      40.351  29.883  30.421  1.00  0.00     0.049 A 
ATOM     62  H   UNL A   1      40.375  31.018  32.167  1.00  0.00     0.167 HD
ATOM     63  C   UNL A   1      40.350  33.562  35.753  1.00  0.00     0.037 A 
ATOM     64  C   UNL A   1      41.461  29.118  30.431  1.00  0.00     0.037 A 
ATOM     65  C   UNL A   1      41.512  32.724  35.888  1.00  0.00     0.049 A 
ATOM     66  C   UNL A   1      42.417  29.225  31.594  1.00  0.00     0.074 A 
ATOM     67  C   UNL A   1      42.414  32.667  36.935  1.00  0.00     0.029 A 
ATOM     68  N   UNL A   1      41.938  31.801  34.944  1.00  0.00    -0.354 N 
ATOM     69  N   UNL A   1      42.333  29.977  32.666  1.00  0.00    -0.248 NA
ATOM     70  C   UNL A   1      43.618  28.377  31.552  1.00  0.00     0.031 C 
ATOM     71  C   UNL A   1      43.421  31.758  36.595  1.00  0.00     0.029 A 
ATOM     72  C   UNL A   1      43.107  31.194  35.368  1.00  0.00     0.049 A 
ATOM     73  H   UNL A   1      41.477  31.606  34.095  1.00  0.00     0.167 HD
ATOM     74  C   UNL A   1      43.449  29.671  33.440  1.00  0.00     0.074 A 
ATOM     75  C   UNL A   1      44.188  28.656  32.716  1.00  0.00     0.031 C 
ATOM     76  C   UNL A   1      43.828  30.178  34.639  1.00  0.00     0.037 A 
BRANCH  63  77
ATOM     77  C   UNL A   1      40.058  34.561  36.840  1.00  0.00     0.058 A 
ATOM     78  C   UNL A   1      39.177  34.276  37.896  1.00  0.00     0.135 A 
ATOM     79  C   UNL A   1      40.697  35.811  36.841  1.00  0.00     0.135 A 
ATOM     80  F   UNL A   1      38.522  33.105  37.933  1.00  0.00    -0.206 F 
ATOM     81  C   UNL A   1      38.923  35.204  38.901  1.00  0.00     0.059 A 
ATOM     82  C   UNL A   1      40.482  36.742  37.853  1.00  0.00     0.059 A 
ATOM     83  F   UNL A   1      41.543  36.140  35.853  1.00  0.00    -0.206 F 
ATOM     84  C   UNL A   1      39.584  36.433  38.873  1.00  0.00     0.060 A 
BRANCH  84  85
ATOM     85  S   UNL A   1      39.251  37.621  40.191  1.00  0.00     0.124 S 
ATOM     86  O   UNL A   1      38.885  36.737  41.294  1.00  0.00    -0.237 OA
ATOM     87  O   UNL A   1      40.535  38.303  40.324  1.00  0.00    -0.237 OA
ATOM     88  O   UNL A   1      38.166  38.434  39.652  1.00  0.00    -0.744 OA
ENDBRANCH  84  85
ENDBRANCH  63  77
BRANCH  64  89
ATOM     89  C   UNL A   1      41.746  28.198  29.294  1.00  0.00     0.058 A 
ATOM     90  C   UNL A   1      42.701  28.519  28.318  1.00  0.00     0.135 A 
ATOM     91  C   UNL A   1      41.059  26.981  29.157  1.00  0.00     0.135 A 
ATOM     92  F   UNL A   1      43.375  29.676  28.393  1.00  0.00    -0.206 F 
ATOM     93  C   UNL A   1      42.954  27.676  27.239  1.00  0.00     0.059 A 
ATOM     94  C   UNL A   1      41.316  26.108  28.106  1.00  0.00     0.059 A 
ATOM     95  F   UNL A   1      40.139  26.622  30.067  1.00  0.00    -0.206 F 
ATOM     96  C   UNL A   1      42.259  26.469  27.145  1.00  0.00     0.060 A 
BRANCH  96  97
ATOM     97  S   UNL A   1      42.628  25.362  25.767  1.00  0.00     0.124 S 
ATOM     98  O   UNL A   1      42.330  26.211  24.619  1.00  0.00    -0.237 OA
ATOM     99  O   UNL A   1      44.038  25.059  25.990  1.00  0.00    -0.237 OA
ATOM    100  O   UNL A   1      41.712  24.245  25.979  1.00  0.00    -0.744 OA
ENDBRANCH  96  97
ENDBRANCH  64  89
BRANCH  76 101
ATOM    101  C   UNL A   1      45.075  29.622  35.274  1.00  0.00     0.058 A 
ATOM    102  C   UNL A   1      46.335  30.207  35.076  1.00  0.00     0.135 A 
ATOM    103  C   UNL A   1      44.993  28.522  36.147  1.00  0.00     0.135 A 
ATOM    104  F   UNL A   1      46.470  31.257  34.250  1.00  0.00    -0.206 F 
ATOM    105  C   UNL A   1      47.473  29.709  35.702  1.00  0.00     0.059 A 
ATOM    106  C   UNL A   1      46.113  28.029  36.809  1.00  0.00     0.059 A 
ATOM    107  F   UNL A   1      43.811  27.931  36.382  1.00  0.00    -0.206 F 
ATOM    108  C   UNL A   1      47.352  28.622  36.571  1.00  0.00     0.060 A 
BRANCH 108 109
ATOM    109  S   UNL A   1      48.832  28.013  37.405  1.00  0.00     0.124 S 
ATOM    110  O   UNL A   1      48.257  27.301  38.542  1.00  0.00    -0.237 OA
ATOM    111  O   UNL A   1      49.446  27.177  36.379  1.00  0.00    -0.237 OA
ATOM    112  O   UNL A   1      49.564  29.232  37.734  1.00  0.00    -0.744 OA
ENDBRANCH 108 109
ENDBRANCH  76 101
ENDBRANCH  50  51
ENDBRANCH  43  45
ENDBRANCH  42  43
ENDBRANCH  41  42
ENDBRANCH  40  41
ENDBRANCH  39  40
ENDBRANCH  38  39
ENDBRANCH  37  38
ENDBRANCH  36  37
ENDBRANCH   1  36
TORSDOF 30
ENDMDL
MODEL 3
REMARK VINA RESULT:      -8.0      1.956      8.062
REMARK SMILES CCC[C@H]([NH2+]Cc1c(O)ccc2c(-c3ccccc3)cc(=O)oc12)C(=O)OCCOCCOCCOCCOC(=O)c1ccc(-c2c3nc(c(-c4c(F)cc(S(=O)(=O)[O-])cc4F)c4ccc([nH]4)c(-c4c(F)cc(S(=O)(=O)[O-])cc4F)c4nc(c(-c5c(F)cc(S(=O)(=O)[O-])cc5F)c5ccc2[nH]5)C=C4)C=C3)cc1
REMARK SMILES IDX 32 1 31 2 30 3 29 4 28 5 27 6 25 7 26 8 4 9 3 10 2 11 1 12
REMARK SMILES IDX 5 13 6 16 7 17 8 18 24 19 10 20 12 21 23 22 11 23 13 24
REMARK SMILES IDX 21 25 20 26 22 27 9 28 14 30 15 31 19 32 16 33 18 34 17 35
REMARK SMILES IDX 33 36 34 37 35 38 36 39 37 40 38 41 39 42 40 43 41 44 42 45
REMARK SMILES IDX 43 46 107 47 44 48 106 49 45 50 46 51 47 52 100 53 48 54
REMARK SMILES IDX 105 55 99 56 101 57 49 58 104 59 98 60 97 61 50 63 84 64
REMARK SMILES IDX 63 65 83 66 64 67 67 68 82 69 102 70 65 71 66 72 81 74
REMARK SMILES IDX 103 75 68 76 51 77 52 78 61 79 53 80 54 81 60 82 62 83 55 84
REMARK SMILES IDX 56 85 57 86 58 87 59 88 85 89 86 90 95 91 87 92 88 93 94 94
REMARK SMILES IDX 96 95 89 96 90 97 91 98 92 99 93 100 69 101 70 102 79 103
REMARK SMILES IDX 71 104 72 105 78 106 80 107 73 108 74 109 75 110 76 111
REMARK SMILES IDX 77 112
REMARK H PARENT 5 14 5 15 9 29 101 62 67 73
REMARK Flexibility Score: inf
ROOT
ATOM      1  C   UNL A   1      33.452  25.689  26.129  1.00  0.00     0.188 C 
ENDROOT
BRANCH   1   2
ATOM      2  C   UNL A   1      34.426  25.267  25.026  1.00  0.00     0.188 C 
BRANCH   2   3
ATOM      3  O   UNL A   1      35.691  24.723  25.342  1.00  0.00    -0.376 OA
BRANCH   3   4
ATOM      4  C   UNL A   1      35.933  23.326  25.392  1.00  0.00     0.202 C 
BRANCH   4   5
ATOM      5  C   UNL A   1      35.893  22.441  26.657  1.00  0.00     0.261 C 
BRANCH   5   6
ATOM      6  O   UNL A   1      35.133  21.221  26.638  1.00  0.00    -0.459 OA
BRANCH   6   7
ATOM      7  C   UNL A   1      34.839  20.755  25.409  1.00  0.00     0.364 C 
ATOM      8  O   UNL A   1      35.680  20.202  24.697  1.00  0.00    -0.245 OA
BRANCH   7   9
ATOM      9  C   UNL A   1      33.400  20.963  24.900  1.00  0.00     0.293 C 
BRANCH   9  10
ATOM     10  C   UNL A   1      32.897  19.672  24.241  1.00  0.00     0.077 C 
BRANCH  10  11
ATOM     11  C   UNL A   1      33.289  18.393  25.012  1.00  0.00     0.003 C 
ATOM     12  C   UNL A   1      33.785  17.258  24.119  1.00  0.00     0.004 C 
ENDBRANCH  10  11
ENDBRANCH   9  10
BRANCH   9  13
ATOM     13  N   UNL A   1      32.961  22.194  24.199  1.00  0.00    -0.331 N 
ATOM     14  H   UNL A   1      33.514  22.247  23.343  1.00  0.00     0.347 HD
ATOM     15  H   UNL A   1      33.089  22.907  24.917  1.00  0.00     0.347 HD
BRANCH  13  16
ATOM     16  C   UNL A   1      31.576  22.406  23.803  1.00  0.00     0.306 C 
BRANCH  16  17
ATOM     17  C   UNL A   1      30.986  23.768  24.232  1.00  0.00     0.091 A 
ATOM     18  C   UNL A   1      30.291  23.835  25.452  1.00  0.00     0.128 A 
ATOM     19  C   UNL A   1      30.961  24.951  23.448  1.00  0.00     0.151 A 
ATOM     20  C   UNL A   1      29.608  24.988  25.857  1.00  0.00     0.047 A 
ATOM     21  C   UNL A   1      30.278  26.126  23.828  1.00  0.00     0.026 A 
ATOM     22  O   UNL A   1      31.656  24.953  22.213  1.00  0.00    -0.422 OA
ATOM     23  C   UNL A   1      29.589  26.121  25.043  1.00  0.00     0.016 A 
ATOM     24  C   UNL A   1      30.279  27.318  22.949  1.00  0.00    -0.000 A 
ATOM     25  C   UNL A   1      31.691  26.046  21.369  1.00  0.00     0.336 A 
ATOM     26  C   UNL A   1      30.977  27.248  21.805  1.00  0.00     0.103 A 
ATOM     27  O   UNL A   1      32.259  26.013  20.283  1.00  0.00    -0.246 OA
BRANCH  18  28
ATOM     28  O   UNL A   1      30.272  22.733  26.262  1.00  0.00    -0.507 OA
ATOM     29  H   UNL A   1      30.175  22.833  27.189  1.00  0.00     0.293 HD
ENDBRANCH  18  28
BRANCH  24  30
ATOM     30  C   UNL A   1      29.599  28.616  23.201  1.00  0.00    -0.017 A 
ATOM     31  C   UNL A   1      28.254  28.809  22.852  1.00  0.00     0.009 A 
ATOM     32  C   UNL A   1      30.304  29.687  23.763  1.00  0.00     0.009 A 
ATOM     33  C   UNL A   1      27.626  30.041  23.058  1.00  0.00     0.001 A 
ATOM     34  C   UNL A   1      29.674  30.918  23.974  1.00  0.00     0.001 A 
ATOM     35  C   UNL A   1      28.337  31.096  23.621  1.00  0.00     0.000 A 
ENDBRANCH  24  30
ENDBRANCH  16  17
ENDBRANCH  13  16
ENDBRANCH   9  13
ENDBRANCH   7   9
ENDBRANCH   6   7
ENDBRANCH   5   6
ENDBRANCH   4   5
ENDBRANCH   3   4
ENDBRANCH   2   3
ENDBRANCH   1   2
BRANCH   1  36
ATOM     36  O   UNL A   1      32.916  26.987  26.020  1.00  0.00    -0.377 OA
BRANCH  36  37
ATOM     37  C   UNL A   1      33.332  27.825  24.955  1.00  0.00     0.188 C 
BRANCH  37  38
ATOM     38  C   UNL A   1      33.500  29.338  25.194  1.00  0.00     0.188 C 
BRANCH  38  39
ATOM     39  O   UNL A   1      33.888  29.693  26.512  1.00  0.00    -0.376 OA
BRANCH  39  40
ATOM     40  C   UNL A   1      33.630  31.014  26.952  1.00  0.00     0.202 C 
BRANCH  40  41
ATOM     41  C   UNL A   1      34.239  31.446  28.291  1.00  0.00     0.261 C 
BRANCH  41  42
ATOM     42  O   UNL A   1      35.156  32.547  28.273  1.00  0.00    -0.460 OA
BRANCH  42  43
ATOM     43  C   UNL A   1      34.963  33.533  29.176  1.00  0.00     0.338 C 
ATOM     44  O   UNL A   1      33.967  34.207  29.315  1.00  0.00    -0.246 OA
BRANCH  43  45
ATOM     45  C   UNL A   1      36.114  33.514  30.109  1.00  0.00     0.060 A 
ATOM     46  C   UNL A   1      37.210  34.343  29.835  1.00  0.00     0.016 A 
ATOM     47  C   UNL A   1      36.115  32.690  31.237  1.00  0.00     0.016 A 
ATOM     48  C   UNL A   1      38.331  34.316  30.663  1.00  0.00     0.010 A 
ATOM     49  C   UNL A   1      37.251  32.646  32.052  1.00  0.00     0.010 A 
ATOM     50  C   UNL A   1      38.379  33.430  31.746  1.00  0.00    -0.014 A 
BRANCH  50  51
ATOM     51  C   UNL A   1      39.677  33.170  32.415  1.00  0.00     0.031 A 
ATOM     52  C   UNL A   1      40.654  32.250  31.731  1.00  0.00     0.074 A 
ATOM     53  C   UNL A   1      40.003  33.765  33.576  1.00  0.00     0.049 A 
ATOM     54  N   UNL A   1      41.830  31.841  32.129  1.00  0.00    -0.248 NA
ATOM     55  C   UNL A   1      40.245  31.717  30.420  1.00  0.00     0.031 C 
ATOM     56  C   UNL A   1      39.161  34.713  34.305  1.00  0.00     0.029 A 
ATOM     57  N   UNL A   1      41.131  33.652  34.350  1.00  0.00    -0.354 N 
ATOM     58  C   UNL A   1      42.296  31.000  31.126  1.00  0.00     0.074 A 
ATOM     59  C   UNL A   1      41.265  30.930  30.115  1.00  0.00     0.031 C 
ATOM     60  C   UNL A   1      39.799  35.086  35.429  1.00  0.00     0.029 A 
ATOM     61  C   UNL A   1      41.076  34.378  35.516  1.00  0.00     0.049 A 
ATOM     62  H   UNL A   1      41.907  33.104  34.093  1.00  0.00     0.167 HD
ATOM     63  C   UNL A   1      43.482  30.350  31.049  1.00  0.00     0.037 A 
ATOM     64  C   UNL A   1      41.945  34.440  36.546  1.00  0.00     0.037 A 
ATOM     65  C   UNL A   1      44.503  30.425  32.061  1.00  0.00     0.049 A 
ATOM     66  C   UNL A   1      43.227  33.648  36.475  1.00  0.00     0.074 A 
ATOM     67  C   UNL A   1      45.745  29.818  32.074  1.00  0.00     0.029 A 
ATOM     68  N   UNL A   1      44.397  31.144  33.242  1.00  0.00    -0.354 N 
ATOM     69  N   UNL A   1      43.667  32.871  35.512  1.00  0.00    -0.248 NA
ATOM     70  C   UNL A   1      44.135  33.742  37.627  1.00  0.00     0.031 C 
ATOM     71  C   UNL A   1      46.365  30.117  33.292  1.00  0.00     0.029 A 
ATOM     72  C   UNL A   1      45.537  30.970  34.007  1.00  0.00     0.049 A 
ATOM     73  H   UNL A   1      43.623  31.698  33.500  1.00  0.00     0.167 HD
ATOM     74  C   UNL A   1      44.913  32.411  35.928  1.00  0.00     0.074 A 
ATOM     75  C   UNL A   1      45.162  33.005  37.226  1.00  0.00     0.031 C 
ATOM     76  C   UNL A   1      45.775  31.576  35.295  1.00  0.00     0.037 A 
BRANCH  63  77
ATOM     77  C   UNL A   1      43.724  29.472  29.851  1.00  0.00     0.058 A 
ATOM     78  C   UNL A   1      43.446  28.096  29.868  1.00  0.00     0.135 A 
ATOM     79  C   UNL A   1      44.210  30.026  28.656  1.00  0.00     0.135 A 
ATOM     80  F   UNL A   1      43.001  27.509  30.991  1.00  0.00    -0.206 F 
ATOM     81  C   UNL A   1      43.664  27.296  28.751  1.00  0.00     0.059 A 
ATOM     82  C   UNL A   1      44.405  29.251  27.517  1.00  0.00     0.059 A 
ATOM     83  F   UNL A   1      44.500  31.334  28.585  1.00  0.00    -0.206 F 
ATOM     84  C   UNL A   1      44.141  27.884  27.578  1.00  0.00     0.060 A 
BRANCH  84  85
ATOM     85  S   UNL A   1      44.406  26.834  26.133  1.00  0.00     0.124 S 
ATOM     86  O   UNL A   1      43.226  25.976  26.177  1.00  0.00    -0.237 OA
ATOM     87  O   UNL A   1      44.444  27.807  25.046  1.00  0.00    -0.237 OA
ATOM     88  O   UNL A   1      45.674  26.171  26.423  1.00  0.00    -0.744 OA
ENDBRANCH  84  85
ENDBRANCH  63  77
BRANCH  64  89
ATOM     89  C   UNL A   1      41.626  35.265  37.745  1.00  0.00     0.058 A 
ATOM     90  C   UNL A   1      40.838  34.759  38.790  1.00  0.00     0.135 A 
ATOM     91  C   UNL A   1      42.095  36.583  37.864  1.00  0.00     0.135 A 
ATOM     92  F   UNL A   1      40.352  33.510  38.719  1.00  0.00    -0.206 F 
ATOM     93  C   UNL A   1      40.514  35.532  39.901  1.00  0.00     0.059 A 
ATOM     94  C   UNL A   1      41.811  37.365  38.979  1.00  0.00     0.059 A 
ATOM     95  F   UNL A   1      42.858  37.115  36.896  1.00  0.00    -0.206 F 
ATOM     96  C   UNL A   1      41.011  36.834  39.989  1.00  0.00     0.060 A 
BRANCH  96  97
ATOM     97  S   UNL A   1      40.624  37.812  41.456  1.00  0.00     0.124 S 
ATOM     98  O   UNL A   1      39.170  37.703  41.507  1.00  0.00    -0.237 OA
ATOM     99  O   UNL A   1      41.356  37.099  42.498  1.00  0.00    -0.237 OA
ATOM    100  O   UNL A   1      41.145  39.135  41.125  1.00  0.00    -0.744 OA
ENDBRANCH  96  97
ENDBRANCH  64  89
BRANCH  76 101
ATOM    101  C   UNL A   1      47.088  31.283  35.969  1.00  0.00     0.058 A 
ATOM    102  C   UNL A   1      48.222  32.085  35.770  1.00  0.00     0.135 A 
ATOM    103  C   UNL A   1      47.193  30.217  36.881  1.00  0.00     0.135 A 
ATOM    104  F   UNL A   1      48.179  33.113  34.907  1.00  0.00    -0.206 F 
ATOM    105  C   UNL A   1      49.419  31.829  36.431  1.00  0.00     0.059 A 
ATOM    106  C   UNL A   1      48.370  29.964  37.579  1.00  0.00     0.059 A 
ATOM    107  F   UNL A   1      46.135  29.425  37.120  1.00  0.00    -0.206 F 
ATOM    108  C   UNL A   1      49.482  30.769  37.338  1.00  0.00     0.060 A 
BRANCH 108 109
ATOM    109  S   UNL A   1      51.030  30.474  38.217  1.00  0.00     0.124 S 
ATOM    110  O   UNL A   1      51.678  31.778  38.118  1.00  0.00    -0.237 OA
ATOM    111  O   UNL A   1      50.565  30.097  39.548  1.00  0.00    -0.237 OA
ATOM    112  O   UNL A   1      51.659  29.402  37.451  1.00  0.00    -0.744 OA
ENDBRANCH 108 109
ENDBRANCH  76 101
ENDBRANCH  50  51
ENDBRANCH  43  45
ENDBRANCH  42  43
ENDBRANCH  41  42
ENDBRANCH  40  41
ENDBRANCH  39  40
ENDBRANCH  38  39
ENDBRANCH  37  38
ENDBRANCH  36  37
ENDBRANCH   1  36
TORSDOF 30
ENDMDL
