MODEL 1
REMARK VINA RESULT:      -9.7      0.000      0.000
REMARK SMILES Cc1cc(SCC(=O)OCCOCCOCCOCCOC(=O)c2ccc(-c3c4nc(c(-c5c(F)cc(S(=O)(=O)[O-])cc5F)c5ccc([nH]5)c(-c5c(F)cc(S(=O)(=O)[O-])cc5F)c5nc(c(-c6c(F)cc(S(=O)(=O)[O-])cc6F)c6ccc3[nH]6)C=C5)C=C4)cc2)c2cc(C(F)(F)F)ccc2n1
REMARK SMILES IDX 15 1 14 2 13 3 12 4 11 5 10 6 9 7 7 8 8 9 6 10 5 11 4 12
REMARK SMILES IDX 1 13 2 14 3 15 100 16 99 17 90 18 98 19 91 20 97 21 92 22
REMARK SMILES IDX 93 23 94 24 95 25 96 26 16 27 17 28 18 29 19 30 20 31 21 32
REMARK SMILES IDX 22 33 23 34 24 35 25 36 89 37 26 38 88 39 27 40 28 41 29 42
REMARK SMILES IDX 82 43 30 44 87 45 81 46 83 47 31 48 86 49 80 50 79 51 32 53
REMARK SMILES IDX 66 54 45 55 65 56 46 57 49 58 64 59 84 60 47 61 48 62 63 64
REMARK SMILES IDX 85 65 50 66 33 67 34 68 43 69 35 70 36 71 42 72 44 73 37 74
REMARK SMILES IDX 38 75 39 76 40 77 41 78 67 79 68 80 77 81 69 82 70 83 76 84
REMARK SMILES IDX 78 85 71 86 72 87 73 88 74 89 75 90 51 91 52 92 61 93 53 94
REMARK SMILES IDX 54 95 60 96 62 97 55 98 56 99 57 100 58 101 59 102
REMARK H PARENT 83 52 49 63
REMARK Flexibility Score: inf
ROOT
ATOM      1  O   UNL A   1      31.685  29.738  24.927  1.00  0.00    -0.377 OA
ENDROOT
BRANCH   1   2
ATOM      2  C   UNL A   1      30.843  28.655  24.639  1.00  0.00     0.188 C 
BRANCH   2   3
ATOM      3  C   UNL A   1      30.487  28.274  23.192  1.00  0.00     0.188 C 
BRANCH   3   4
ATOM      4  O   UNL A   1      31.315  27.385  22.476  1.00  0.00    -0.376 OA
BRANCH   4   5
ATOM      5  C   UNL A   1      31.590  26.079  22.937  1.00  0.00     0.202 C 
BRANCH   5   6
ATOM      6  C   UNL A   1      30.518  25.002  23.219  1.00  0.00     0.261 C 
BRANCH   6   7
ATOM      7  O   UNL A   1      30.623  24.211  24.424  1.00  0.00    -0.463 OA
BRANCH   7   8
ATOM      8  C   UNL A   1      30.580  24.867  25.606  1.00  0.00     0.316 C 
ATOM      9  O   UNL A   1      29.658  25.623  25.911  1.00  0.00    -0.251 OA
BRANCH   8  10
ATOM     10  C   UNL A   1      31.749  24.653  26.563  1.00  0.00     0.197 C 
BRANCH  10  11
ATOM     11  S   UNL A   1      33.477  24.579  25.954  1.00  0.00    -0.114 SA
BRANCH  11  12
ATOM     12  C   UNL A   1      33.940  22.821  25.659  1.00  0.00     0.019 A 
ATOM     13  C   UNL A   1      32.570  19.790  23.843  1.00  0.00     0.067 C 
ATOM     14  C   UNL A   1      33.473  20.701  24.621  1.00  0.00     0.039 A 
ATOM     15  C   UNL A   1      33.010  21.895  25.167  1.00  0.00     0.039 A 
ATOM     16  N   UNL A   1      34.768  20.337  24.651  1.00  0.00    -0.253 NA
ATOM     17  C   UNL A   1      35.668  21.180  25.161  1.00  0.00     0.072 A 
ATOM     18  C   UNL A   1      35.337  22.451  25.684  1.00  0.00     0.014 A 
ATOM     19  C   UNL A   1      36.992  20.768  25.089  1.00  0.00     0.029 A 
ATOM     20  C   UNL A   1      36.426  23.255  26.137  1.00  0.00     0.024 A 
ATOM     21  C   UNL A   1      38.041  21.574  25.518  1.00  0.00     0.015 A 
ATOM     22  C   UNL A   1      37.770  22.827  26.063  1.00  0.00     0.056 A 
BRANCH  22  23
ATOM     23  C   UNL A   1      38.896  23.701  26.564  1.00  0.00     0.416 C 
ATOM     24  F   UNL A   1      39.202  24.711  25.708  1.00  0.00    -0.166 F 
ATOM     25  F   UNL A   1      38.597  24.289  27.756  1.00  0.00    -0.166 F 
ATOM     26  F   UNL A   1      40.059  23.019  26.772  1.00  0.00    -0.166 F 
ENDBRANCH  22  23
ENDBRANCH  11  12
ENDBRANCH  10  11
ENDBRANCH   8  10
ENDBRANCH   7   8
ENDBRANCH   6   7
ENDBRANCH   5   6
ENDBRANCH   4   5
ENDBRANCH   3   4
ENDBRANCH   2   3
ENDBRANCH   1   2
BRANCH   1  27
ATOM     27  C   UNL A   1      33.048  29.435  24.890  1.00  0.00     0.188 C 
BRANCH  27  28
ATOM     28  C   UNL A   1      33.529  28.909  26.240  1.00  0.00     0.188 C 
BRANCH  28  29
ATOM     29  O   UNL A   1      34.495  29.611  27.009  1.00  0.00    -0.376 OA
BRANCH  29  30
ATOM     30  C   UNL A   1      34.286  30.912  27.545  1.00  0.00     0.202 C 
BRANCH  30  31
ATOM     31  C   UNL A   1      35.316  31.753  28.320  1.00  0.00     0.261 C 
BRANCH  31  32
ATOM     32  O   UNL A   1      36.046  31.121  29.360  1.00  0.00    -0.460 OA
BRANCH  32  33
ATOM     33  C   UNL A   1      37.116  31.800  29.811  1.00  0.00     0.338 C 
ATOM     34  O   UNL A   1      37.127  32.796  30.516  1.00  0.00    -0.246 OA
BRANCH  33  35
ATOM     35  C   UNL A   1      38.294  30.992  29.470  1.00  0.00     0.060 A 
ATOM     36  C   UNL A   1      39.295  30.860  30.438  1.00  0.00     0.016 A 
ATOM     37  C   UNL A   1      38.375  30.319  28.245  1.00  0.00     0.016 A 
ATOM     38  C   UNL A   1      40.389  30.047  30.189  1.00  0.00     0.010 A 
ATOM     39  C   UNL A   1      39.501  29.549  27.972  1.00  0.00     0.010 A 
ATOM     40  C   UNL A   1      40.519  29.441  28.935  1.00  0.00    -0.014 A 
BRANCH  40  41
ATOM     41  C   UNL A   1      41.853  28.953  28.546  1.00  0.00     0.031 A 
ATOM     42  C   UNL A   1      42.963  29.964  28.523  1.00  0.00     0.074 A 
ATOM     43  C   UNL A   1      42.069  27.653  28.296  1.00  0.00     0.049 A 
ATOM     44  N   UNL A   1      44.217  29.811  28.202  1.00  0.00    -0.248 NA
ATOM     45  C   UNL A   1      42.607  31.339  28.923  1.00  0.00     0.031 C 
ATOM     46  C   UNL A   1      41.058  26.598  28.366  1.00  0.00     0.029 A 
ATOM     47  N   UNL A   1      43.216  27.001  27.932  1.00  0.00    -0.354 N 
ATOM     48  C   UNL A   1      44.797  31.063  28.360  1.00  0.00     0.074 A 
ATOM     49  C   UNL A   1      43.756  31.974  28.773  1.00  0.00     0.031 C 
ATOM     50  C   UNL A   1      41.630  25.427  28.037  1.00  0.00     0.029 A 
ATOM     51  C   UNL A   1      43.033  25.659  27.700  1.00  0.00     0.049 A 
ATOM     52  H   UNL A   1      44.087  27.450  27.845  1.00  0.00     0.167 HD
ATOM     53  C   UNL A   1      46.090  31.415  28.181  1.00  0.00     0.037 A 
ATOM     54  C   UNL A   1      43.905  24.742  27.239  1.00  0.00     0.037 A 
ATOM     55  C   UNL A   1      47.101  30.488  27.751  1.00  0.00     0.049 A 
ATOM     56  C   UNL A   1      45.319  25.179  26.950  1.00  0.00     0.074 A 
ATOM     57  C   UNL A   1      48.440  30.725  27.517  1.00  0.00     0.029 A 
ATOM     58  N   UNL A   1      46.872  29.146  27.483  1.00  0.00    -0.354 N 
ATOM     59  N   UNL A   1      45.864  26.365  27.104  1.00  0.00    -0.248 NA
ATOM     60  C   UNL A   1      46.237  24.159  26.428  1.00  0.00     0.031 C 
ATOM     61  C   UNL A   1      49.012  29.537  27.050  1.00  0.00     0.029 A 
ATOM     62  C   UNL A   1      48.043  28.544  27.059  1.00  0.00     0.049 A 
ATOM     63  H   UNL A   1      46.006  28.689  27.578  1.00  0.00     0.167 HD
ATOM     64  C   UNL A   1      47.197  26.225  26.730  1.00  0.00     0.074 A 
ATOM     65  C   UNL A   1      47.375  24.837  26.351  1.00  0.00     0.031 C 
ATOM     66  C   UNL A   1      48.186  27.152  26.706  1.00  0.00     0.037 A 
BRANCH  53  67
ATOM     67  C   UNL A   1      46.457  32.853  28.409  1.00  0.00     0.058 A 
ATOM     68  C   UNL A   1      46.394  33.809  27.381  1.00  0.00     0.135 A 
ATOM     69  C   UNL A   1      46.872  33.286  29.679  1.00  0.00     0.135 A 
ATOM     70  F   UNL A   1      46.033  33.445  26.140  1.00  0.00    -0.206 F 
ATOM     71  C   UNL A   1      46.747  35.137  27.599  1.00  0.00     0.059 A 
ATOM     72  C   UNL A   1      47.200  34.615  29.927  1.00  0.00     0.059 A 
ATOM     73  F   UNL A   1      46.966  32.413  30.694  1.00  0.00    -0.206 F 
ATOM     74  C   UNL A   1      47.146  35.531  28.878  1.00  0.00     0.060 A 
BRANCH  74  75
ATOM     75  S   UNL A   1      47.584  37.261  29.147  1.00  0.00     0.124 S 
ATOM     76  O   UNL A   1      46.276  37.860  29.393  1.00  0.00    -0.237 OA
ATOM     77  O   UNL A   1      48.470  37.180  30.304  1.00  0.00    -0.237 OA
ATOM     78  O   UNL A   1      48.226  37.649  27.895  1.00  0.00    -0.744 OA
ENDBRANCH  74  75
ENDBRANCH  53  67
BRANCH  54  79
ATOM     79  C   UNL A   1      43.464  23.341  27.002  1.00  0.00     0.058 A 
ATOM     80  C   UNL A   1      43.182  22.873  25.709  1.00  0.00     0.135 A 
ATOM     81  C   UNL A   1      43.309  22.438  28.067  1.00  0.00     0.135 A 
ATOM     82  F   UNL A   1      43.307  23.696  24.657  1.00  0.00    -0.206 F 
ATOM     83  C   UNL A   1      42.748  21.571  25.482  1.00  0.00     0.059 A 
ATOM     84  C   UNL A   1      42.904  21.122  27.862  1.00  0.00     0.059 A 
ATOM     85  F   UNL A   1      43.575  22.828  29.324  1.00  0.00    -0.206 F 
ATOM     86  C   UNL A   1      42.614  20.702  26.566  1.00  0.00     0.060 A 
BRANCH  86  87
ATOM     87  S   UNL A   1      42.086  19.003  26.255  1.00  0.00     0.124 S 
ATOM     88  O   UNL A   1      42.179  18.418  27.586  1.00  0.00    -0.237 OA
ATOM     89  O   UNL A   1      40.737  19.195  25.732  1.00  0.00    -0.237 OA
ATOM     90  O   UNL A   1      43.063  18.520  25.283  1.00  0.00    -0.744 OA
ENDBRANCH  86  87
ENDBRANCH  54  79
BRANCH  66  91
ATOM     91  C   UNL A   1      49.560  26.692  26.306  1.00  0.00     0.058 A 
ATOM     92  C   UNL A   1      50.038  26.838  24.995  1.00  0.00     0.135 A 
ATOM     93  C   UNL A   1      50.438  26.175  27.272  1.00  0.00     0.135 A 
ATOM     94  F   UNL A   1      49.238  27.323  24.032  1.00  0.00    -0.206 F 
ATOM     95  C   UNL A   1      51.335  26.472  24.652  1.00  0.00     0.059 A 
ATOM     96  C   UNL A   1      51.749  25.833  26.960  1.00  0.00     0.059 A 
ATOM     97  F   UNL A   1      50.033  26.027  28.544  1.00  0.00    -0.206 F 
ATOM     98  C   UNL A   1      52.185  25.978  25.644  1.00  0.00     0.060 A 
BRANCH  98  99
ATOM     99  S   UNL A   1      53.882  25.559  25.197  1.00  0.00     0.124 S 
ATOM    100  O   UNL A   1      53.961  24.164  25.620  1.00  0.00    -0.237 OA
ATOM    101  O   UNL A   1      53.887  25.785  23.754  1.00  0.00    -0.237 OA
ATOM    102  O   UNL A   1      54.683  26.498  25.975  1.00  0.00    -0.744 OA
ENDBRANCH  98  99
ENDBRANCH  66  91
ENDBRANCH  40  41
ENDBRANCH  33  35
ENDBRANCH  32  33
ENDBRANCH  31  32
ENDBRANCH  30  31
ENDBRANCH  29  30
ENDBRANCH  28  29
ENDBRANCH  27  28
ENDBRANCH   1  27
TORSDOF 26
ENDMDL
MODEL 2
REMARK VINA RESULT:      -9.4      6.295     11.796
REMARK SMILES Cc1cc(SCC(=O)OCCOCCOCCOCCOC(=O)c2ccc(-c3c4nc(c(-c5c(F)cc(S(=O)(=O)[O-])cc5F)c5ccc([nH]5)c(-c5c(F)cc(S(=O)(=O)[O-])cc5F)c5nc(c(-c6c(F)cc(S(=O)(=O)[O-])cc6F)c6ccc3[nH]6)C=C5)C=C4)cc2)c2cc(C(F)(F)F)ccc2n1
REMARK SMILES IDX 15 1 14 2 13 3 12 4 11 5 10 6 9 7 7 8 8 9 6 10 5 11 4 12
REMARK SMILES IDX 1 13 2 14 3 15 100 16 99 17 90 18 98 19 91 20 97 21 92 22
REMARK SMILES IDX 93 23 94 24 95 25 96 26 16 27 17 28 18 29 19 30 20 31 21 32
REMARK SMILES IDX 22 33 23 34 24 35 25 36 89 37 26 38 88 39 27 40 28 41 29 42
REMARK SMILES IDX 82 43 30 44 87 45 81 46 83 47 31 48 86 49 80 50 79 51 32 53
REMARK SMILES IDX 66 54 45 55 65 56 46 57 49 58 64 59 84 60 47 61 48 62 63 64
REMARK SMILES IDX 85 65 50 66 33 67 34 68 43 69 35 70 36 71 42 72 44 73 37 74
REMARK SMILES IDX 38 75 39 76 40 77 41 78 67 79 68 80 77 81 69 82 70 83 76 84
REMARK SMILES IDX 78 85 71 86 72 87 73 88 74 89 75 90 51 91 52 92 61 93 53 94
REMARK SMILES IDX 54 95 60 96 62 97 55 98 56 99 57 100 58 101 59 102
REMARK H PARENT 83 52 49 63
REMARK Flexibility Score: inf
ROOT
ATOM      1  O   UNL A   1      36.986  22.085  23.915  1.00  0.00    -0.377 OA
ENDROOT
BRANCH   1   2
ATOM      2  C   UNL A   1      35.609  22.107  24.175  1.00  0.00     0.188 C 
BRANCH   2   3
ATOM      3  C   UNL A   1      34.930  21.017  25.022  1.00  0.00     0.188 C 
BRANCH   3   4
ATOM      4  O   UNL A   1      33.814  20.325  24.511  1.00  0.00    -0.376 OA
BRANCH   4   5
ATOM      5  C   UNL A   1      32.520  20.892  24.500  1.00  0.00     0.202 C 
BRANCH   5   6
ATOM      6  C   UNL A   1      32.099  22.139  25.310  1.00  0.00     0.261 C 
BRANCH   6   7
ATOM      7  O   UNL A   1      30.909  22.072  26.126  1.00  0.00    -0.463 OA
BRANCH   7   8
ATOM      8  C   UNL A   1      30.452  23.230  26.657  1.00  0.00     0.316 C 
ATOM      9  O   UNL A   1      29.523  23.268  27.463  1.00  0.00    -0.251 OA
BRANCH   8  10
ATOM     10  C   UNL A   1      31.125  24.520  26.196  1.00  0.00     0.197 C 
BRANCH  10  11
ATOM     11  S   UNL A   1      30.160  26.054  25.926  1.00  0.00    -0.114 SA
BRANCH  11  12
ATOM     12  C   UNL A   1      31.317  27.448  25.597  1.00  0.00     0.019 A 
ATOM     13  C   UNL A   1      33.367  29.960  27.559  1.00  0.00     0.067 C 
ATOM     14  C   UNL A   1      32.789  29.160  26.430  1.00  0.00     0.039 A 
ATOM     15  C   UNL A   1      31.661  28.362  26.603  1.00  0.00     0.039 A 
ATOM     16  N   UNL A   1      33.500  29.184  25.288  1.00  0.00    -0.253 NA
ATOM     17  C   UNL A   1      33.162  28.359  24.294  1.00  0.00     0.072 A 
ATOM     18  C   UNL A   1      32.081  27.450  24.370  1.00  0.00     0.014 A 
ATOM     19  C   UNL A   1      33.986  28.386  23.178  1.00  0.00     0.029 A 
ATOM     20  C   UNL A   1      31.888  26.597  23.242  1.00  0.00     0.024 A 
ATOM     21  C   UNL A   1      33.794  27.532  22.096  1.00  0.00     0.015 A 
ATOM     22  C   UNL A   1      32.730  26.632  22.109  1.00  0.00     0.056 A 
BRANCH  22  23
ATOM     23  C   UNL A   1      32.487  25.721  20.929  1.00  0.00     0.416 C 
ATOM     24  F   UNL A   1      32.667  24.408  21.229  1.00  0.00    -0.166 F 
ATOM     25  F   UNL A   1      31.218  25.832  20.446  1.00  0.00    -0.166 F 
ATOM     26  F   UNL A   1      33.307  25.979  19.869  1.00  0.00    -0.166 F 
ENDBRANCH  22  23
ENDBRANCH  11  12
ENDBRANCH  10  11
ENDBRANCH   8  10
ENDBRANCH   7   8
ENDBRANCH   6   7
ENDBRANCH   5   6
ENDBRANCH   4   5
ENDBRANCH   3   4
ENDBRANCH   2   3
ENDBRANCH   1   2
BRANCH   1  27
ATOM     27  C   UNL A   1      37.756  21.512  24.930  1.00  0.00     0.188 C 
BRANCH  27  28
ATOM     28  C   UNL A   1      37.858  22.447  26.132  1.00  0.00     0.188 C 
BRANCH  28  29
ATOM     29  O   UNL A   1      39.022  23.227  26.369  1.00  0.00    -0.376 OA
BRANCH  29  30
ATOM     30  C   UNL A   1      40.292  22.675  26.694  1.00  0.00     0.202 C 
BRANCH  30  31
ATOM     31  C   UNL A   1      41.638  23.043  26.045  1.00  0.00     0.261 C 
BRANCH  31  32
ATOM     32  O   UNL A   1      42.309  24.203  26.511  1.00  0.00    -0.460 OA
BRANCH  32  33
ATOM     33  C   UNL A   1      41.731  25.374  26.188  1.00  0.00     0.338 C 
ATOM     34  O   UNL A   1      41.172  25.669  25.144  1.00  0.00    -0.246 OA
BRANCH  33  35
ATOM     35  C   UNL A   1      41.709  26.179  27.416  1.00  0.00     0.060 A 
ATOM     36  C   UNL A   1      40.663  25.958  28.320  1.00  0.00     0.016 A 
ATOM     37  C   UNL A   1      42.738  27.082  27.703  1.00  0.00     0.016 A 
ATOM     38  C   UNL A   1      40.642  26.640  29.526  1.00  0.00     0.010 A 
ATOM     39  C   UNL A   1      42.686  27.810  28.888  1.00  0.00     0.010 A 
ATOM     40  C   UNL A   1      41.620  27.607  29.781  1.00  0.00    -0.014 A 
BRANCH  40  41
ATOM     41  C   UNL A   1      41.343  28.598  30.836  1.00  0.00     0.031 A 
ATOM     42  C   UNL A   1      42.222  28.553  32.053  1.00  0.00     0.074 A 
ATOM     43  C   UNL A   1      40.397  29.536  30.674  1.00  0.00     0.049 A 
ATOM     44  N   UNL A   1      42.186  29.289  33.127  1.00  0.00    -0.248 NA
ATOM     45  C   UNL A   1      43.291  27.538  32.053  1.00  0.00     0.031 C 
ATOM     46  C   UNL A   1      39.551  29.689  29.491  1.00  0.00     0.029 A 
ATOM     47  N   UNL A   1      39.993  30.538  31.513  1.00  0.00    -0.354 N 
ATOM     48  C   UNL A   1      43.223  28.828  33.928  1.00  0.00     0.074 A 
ATOM     49  C   UNL A   1      43.851  27.729  33.235  1.00  0.00     0.031 C 
ATOM     50  C   UNL A   1      38.712  30.720  29.689  1.00  0.00     0.029 A 
ATOM     51  C   UNL A   1      38.940  31.271  31.023  1.00  0.00     0.049 A 
ATOM     52  H   UNL A   1      40.416  30.716  32.384  1.00  0.00     0.167 HD
ATOM     53  C   UNL A   1      43.617  29.292  35.136  1.00  0.00     0.037 A 
ATOM     54  C   UNL A   1      38.232  32.255  31.612  1.00  0.00     0.037 A 
ATOM     55  C   UNL A   1      42.960  30.377  35.810  1.00  0.00     0.049 A 
ATOM     56  C   UNL A   1      38.627  32.689  33.001  1.00  0.00     0.074 A 
ATOM     57  C   UNL A   1      43.253  30.927  37.042  1.00  0.00     0.029 A 
ATOM     58  N   UNL A   1      41.868  31.070  35.305  1.00  0.00    -0.354 N 
ATOM     59  N   UNL A   1      39.611  32.252  33.754  1.00  0.00    -0.248 NA
ATOM     60  C   UNL A   1      37.821  33.748  33.622  1.00  0.00     0.031 C 
ATOM     61  C   UNL A   1      42.300  31.916  37.309  1.00  0.00     0.029 A 
ATOM     62  C   UNL A   1      41.457  32.028  36.213  1.00  0.00     0.049 A 
ATOM     63  H   UNL A   1      41.448  30.904  34.431  1.00  0.00     0.167 HD
ATOM     64  C   UNL A   1      39.564  33.005  34.923  1.00  0.00     0.074 A 
ATOM     65  C   UNL A   1      38.459  33.931  34.771  1.00  0.00     0.031 C 
ATOM     66  C   UNL A   1      40.360  32.945  36.019  1.00  0.00     0.037 A 
BRANCH  53  67
ATOM     67  C   UNL A   1      44.771  28.600  35.803  1.00  0.00     0.058 A 
ATOM     68  C   UNL A   1      44.587  27.496  36.652  1.00  0.00     0.135 A 
ATOM     69  C   UNL A   1      46.086  29.043  35.583  1.00  0.00     0.135 A 
ATOM     70  F   UNL A   1      43.350  27.050  36.923  1.00  0.00    -0.206 F 
ATOM     71  C   UNL A   1      45.662  26.870  37.275  1.00  0.00     0.059 A 
ATOM     72  C   UNL A   1      47.178  28.412  36.170  1.00  0.00     0.059 A 
ATOM     73  F   UNL A   1      46.319  30.102  34.793  1.00  0.00    -0.206 F 
ATOM     74  C   UNL A   1      46.955  27.333  37.024  1.00  0.00     0.060 A 
BRANCH  74  75
ATOM     75  S   UNL A   1      48.339  26.497  37.826  1.00  0.00     0.124 S 
ATOM     76  O   UNL A   1      47.699  25.947  39.017  1.00  0.00    -0.237 OA
ATOM     77  O   UNL A   1      48.740  25.523  36.816  1.00  0.00    -0.237 OA
ATOM     78  O   UNL A   1      49.294  27.575  38.068  1.00  0.00    -0.744 OA
ENDBRANCH  74  75
ENDBRANCH  53  67
BRANCH  54  79
ATOM     79  C   UNL A   1      37.077  32.872  30.907  1.00  0.00     0.058 A 
ATOM     80  C   UNL A   1      35.757  32.509  31.212  1.00  0.00     0.135 A 
ATOM     81  C   UNL A   1      37.270  33.839  29.906  1.00  0.00     0.135 A 
ATOM     82  F   UNL A   1      35.517  31.585  32.156  1.00  0.00    -0.206 F 
ATOM     83  C   UNL A   1      34.672  33.065  30.542  1.00  0.00     0.059 A 
ATOM     84  C   UNL A   1      36.200  34.432  29.241  1.00  0.00     0.059 A 
ATOM     85  F   UNL A   1      38.511  34.233  29.580  1.00  0.00    -0.206 F 
ATOM     86  C   UNL A   1      34.904  34.028  29.559  1.00  0.00     0.060 A 
BRANCH  86  87
ATOM     87  S   UNL A   1      33.487  34.772  28.722  1.00  0.00     0.124 S 
ATOM     88  O   UNL A   1      33.145  33.740  27.750  1.00  0.00    -0.237 OA
ATOM     89  O   UNL A   1      32.545  34.952  29.822  1.00  0.00    -0.237 OA
ATOM     90  O   UNL A   1      34.034  36.006  28.166  1.00  0.00    -0.744 OA
ENDBRANCH  86  87
ENDBRANCH  54  79
BRANCH  66  91
ATOM     91  C   UNL A   1      40.102  33.936  37.119  1.00  0.00     0.058 A 
ATOM     92  C   UNL A   1      40.710  35.200  37.135  1.00  0.00     0.135 A 
ATOM     93  C   UNL A   1      39.167  33.644  38.125  1.00  0.00     0.135 A 
ATOM     94  F   UNL A   1      41.616  35.528  36.200  1.00  0.00    -0.206 F 
ATOM     95  C   UNL A   1      40.412  36.135  38.121  1.00  0.00     0.059 A 
ATOM     96  C   UNL A   1      38.828  34.574  39.101  1.00  0.00     0.059 A 
ATOM     97  F   UNL A   1      38.547  32.452  38.147  1.00  0.00    -0.206 F 
ATOM     98  C   UNL A   1      39.463  35.815  39.095  1.00  0.00     0.060 A 
BRANCH  98  99
ATOM     99  S   UNL A   1      39.046  37.057  40.334  1.00  0.00     0.124 S 
ATOM    100  O   UNL A   1      40.360  37.379  40.881  1.00  0.00    -0.237 OA
ATOM    101  O   UNL A   1      38.421  38.102  39.528  1.00  0.00    -0.237 OA
ATOM    102  O   UNL A   1      38.145  36.350  41.238  1.00  0.00    -0.744 OA
ENDBRANCH  98  99
ENDBRANCH  66  91
ENDBRANCH  40  41
ENDBRANCH  33  35
ENDBRANCH  32  33
ENDBRANCH  31  32
ENDBRANCH  30  31
ENDBRANCH  29  30
ENDBRANCH  28  29
ENDBRANCH  27  28
ENDBRANCH   1  27
TORSDOF 26
ENDMDL
MODEL 3
REMARK VINA RESULT:      -9.0      6.336     11.577
REMARK SMILES Cc1cc(SCC(=O)OCCOCCOCCOCCOC(=O)c2ccc(-c3c4nc(c(-c5c(F)cc(S(=O)(=O)[O-])cc5F)c5ccc([nH]5)c(-c5c(F)cc(S(=O)(=O)[O-])cc5F)c5nc(c(-c6c(F)cc(S(=O)(=O)[O-])cc6F)c6ccc3[nH]6)C=C5)C=C4)cc2)c2cc(C(F)(F)F)ccc2n1
REMARK SMILES IDX 15 1 14 2 13 3 12 4 11 5 10 6 9 7 7 8 8 9 6 10 5 11 4 12
REMARK SMILES IDX 1 13 2 14 3 15 100 16 99 17 90 18 98 19 91 20 97 21 92 22
REMARK SMILES IDX 93 23 94 24 95 25 96 26 16 27 17 28 18 29 19 30 20 31 21 32
REMARK SMILES IDX 22 33 23 34 24 35 25 36 89 37 26 38 88 39 27 40 28 41 29 42
REMARK SMILES IDX 82 43 30 44 87 45 81 46 83 47 31 48 86 49 80 50 79 51 32 53
REMARK SMILES IDX 66 54 45 55 65 56 46 57 49 58 64 59 84 60 47 61 48 62 63 64
REMARK SMILES IDX 85 65 50 66 33 67 34 68 43 69 35 70 36 71 42 72 44 73 37 74
REMARK SMILES IDX 38 75 39 76 40 77 41 78 67 79 68 80 77 81 69 82 70 83 76 84
REMARK SMILES IDX 78 85 71 86 72 87 73 88 74 89 75 90 51 91 52 92 61 93 53 94
REMARK SMILES IDX 54 95 60 96 62 97 55 98 56 99 57 100 58 101 59 102
REMARK H PARENT 83 52 49 63
REMARK Flexibility Score: inf
ROOT
ATOM      1  O   UNL A   1      36.778  22.766  24.666  1.00  0.00    -0.377 OA
ENDROOT
BRANCH   1   2
ATOM      2  C   UNL A   1      35.672  22.008  24.259  1.00  0.00     0.188 C 
BRANCH   2   3
ATOM      3  C   UNL A   1      35.158  20.820  25.090  1.00  0.00     0.188 C 
BRANCH   3   4
ATOM      4  O   UNL A   1      33.989  20.139  24.694  1.00  0.00    -0.376 OA
BRANCH   4   5
ATOM      5  C   UNL A   1      32.723  20.765  24.687  1.00  0.00     0.202 C 
BRANCH   5   6
ATOM      6  C   UNL A   1      32.157  21.621  25.843  1.00  0.00     0.261 C 
BRANCH   6   7
ATOM      7  O   UNL A   1      31.081  22.545  25.566  1.00  0.00    -0.463 OA
BRANCH   7   8
ATOM      8  C   UNL A   1      30.771  23.446  26.527  1.00  0.00     0.316 C 
ATOM      9  O   UNL A   1      29.909  23.235  27.379  1.00  0.00    -0.251 OA
BRANCH   8  10
ATOM     10  C   UNL A   1      31.525  24.772  26.506  1.00  0.00     0.197 C 
BRANCH  10  11
ATOM     11  S   UNL A   1      30.649  26.370  26.711  1.00  0.00    -0.114 SA
BRANCH  11  12
ATOM     12  C   UNL A   1      31.740  27.737  26.136  1.00  0.00     0.019 A 
ATOM     13  C   UNL A   1      34.054  30.342  27.626  1.00  0.00     0.067 C 
ATOM     14  C   UNL A   1      33.316  29.484  26.642  1.00  0.00     0.039 A 
ATOM     15  C   UNL A   1      32.229  28.703  27.026  1.00  0.00     0.039 A 
ATOM     16  N   UNL A   1      33.847  29.441  25.407  1.00  0.00    -0.253 NA
ATOM     17  C   UNL A   1      33.365  28.565  24.522  1.00  0.00     0.072 A 
ATOM     18  C   UNL A   1      32.311  27.667  24.809  1.00  0.00     0.014 A 
ATOM     19  C   UNL A   1      34.012  28.525  23.295  1.00  0.00     0.029 A 
ATOM     20  C   UNL A   1      31.953  26.754  23.773  1.00  0.00     0.024 A 
ATOM     21  C   UNL A   1      33.662  27.614  22.303  1.00  0.00     0.015 A 
ATOM     22  C   UNL A   1      32.615  26.722  22.525  1.00  0.00     0.056 A 
BRANCH  22  23
ATOM     23  C   UNL A   1      32.201  25.748  21.447  1.00  0.00     0.416 C 
ATOM     24  F   UNL A   1      31.406  26.314  20.501  1.00  0.00    -0.166 F 
ATOM     25  F   UNL A   1      33.272  25.228  20.785  1.00  0.00    -0.166 F 
ATOM     26  F   UNL A   1      31.508  24.674  21.926  1.00  0.00    -0.166 F 
ENDBRANCH  22  23
ENDBRANCH  11  12
ENDBRANCH  10  11
ENDBRANCH   8  10
ENDBRANCH   7   8
ENDBRANCH   6   7
ENDBRANCH   5   6
ENDBRANCH   4   5
ENDBRANCH   3   4
ENDBRANCH   2   3
ENDBRANCH   1   2
BRANCH   1  27
ATOM     27  C   UNL A   1      37.487  22.222  25.739  1.00  0.00     0.188 C 
BRANCH  27  28
ATOM     28  C   UNL A   1      38.306  23.294  26.453  1.00  0.00     0.188 C 
BRANCH  28  29
ATOM     29  O   UNL A   1      39.690  23.473  26.183  1.00  0.00    -0.376 OA
BRANCH  29  30
ATOM     30  C   UNL A   1      40.700  22.559  26.589  1.00  0.00     0.202 C 
BRANCH  30  31
ATOM     31  C   UNL A   1      42.220  22.777  26.486  1.00  0.00     0.261 C 
BRANCH  31  32
ATOM     32  O   UNL A   1      42.784  23.879  27.180  1.00  0.00    -0.460 OA
BRANCH  32  33
ATOM     33  C   UNL A   1      42.654  25.072  26.574  1.00  0.00     0.338 C 
ATOM     34  O   UNL A   1      42.720  25.316  25.380  1.00  0.00    -0.246 OA
BRANCH  33  35
ATOM     35  C   UNL A   1      42.202  26.015  27.606  1.00  0.00     0.060 A 
ATOM     36  C   UNL A   1      42.942  27.189  27.785  1.00  0.00     0.016 A 
ATOM     37  C   UNL A   1      41.030  25.777  28.333  1.00  0.00     0.016 A 
ATOM     38  C   UNL A   1      42.511  28.141  28.694  1.00  0.00     0.010 A 
ATOM     39  C   UNL A   1      40.628  26.707  29.287  1.00  0.00     0.010 A 
ATOM     40  C   UNL A   1      41.389  27.872  29.485  1.00  0.00    -0.014 A 
BRANCH  40  41
ATOM     41  C   UNL A   1      41.206  28.672  30.708  1.00  0.00     0.031 A 
ATOM     42  C   UNL A   1      40.094  29.682  30.695  1.00  0.00     0.074 A 
ATOM     43  C   UNL A   1      41.955  28.451  31.799  1.00  0.00     0.049 A 
ATOM     44  N   UNL A   1      39.729  30.523  31.621  1.00  0.00    -0.248 NA
ATOM     45  C   UNL A   1      39.281  29.747  29.467  1.00  0.00     0.031 C 
ATOM     46  C   UNL A   1      43.006  27.441  31.913  1.00  0.00     0.029 A 
ATOM     47  N   UNL A   1      41.941  29.067  33.021  1.00  0.00    -0.354 N 
ATOM     48  C   UNL A   1      38.648  31.214  31.090  1.00  0.00     0.074 A 
ATOM     49  C   UNL A   1      38.434  30.721  29.750  1.00  0.00     0.031 C 
ATOM     50  C   UNL A   1      43.551  27.518  33.139  1.00  0.00     0.029 A 
ATOM     51  C   UNL A   1      42.911  28.605  33.878  1.00  0.00     0.049 A 
ATOM     52  H   UNL A   1      41.300  29.773  33.262  1.00  0.00     0.167 HD
ATOM     53  C   UNL A   1      37.897  32.173  31.677  1.00  0.00     0.037 A 
ATOM     54  C   UNL A   1      43.248  29.043  35.106  1.00  0.00     0.037 A 
ATOM     55  C   UNL A   1      38.146  32.656  33.007  1.00  0.00     0.049 A 
ATOM     56  C   UNL A   1      42.460  30.181  35.703  1.00  0.00     0.074 A 
ATOM     57  C   UNL A   1      37.468  33.635  33.707  1.00  0.00     0.029 A 
ATOM     58  N   UNL A   1      39.164  32.197  33.832  1.00  0.00    -0.354 N 
ATOM     59  N   UNL A   1      41.436  30.831  35.197  1.00  0.00    -0.248 NA
ATOM     60  C   UNL A   1      42.869  30.648  37.034  1.00  0.00     0.031 C 
ATOM     61  C   UNL A   1      38.113  33.809  34.936  1.00  0.00     0.029 A 
ATOM     62  C   UNL A   1      39.149  32.891  35.028  1.00  0.00     0.049 A 
ATOM     63  H   UNL A   1      39.802  31.484  33.601  1.00  0.00     0.167 HD
ATOM     64  C   UNL A   1      41.056  31.758  36.162  1.00  0.00     0.074 A 
ATOM     65  C   UNL A   1      41.957  31.579  37.283  1.00  0.00     0.031 C 
ATOM     66  C   UNL A   1      40.054  32.672  36.131  1.00  0.00     0.037 A 
BRANCH  53  67
ATOM     67  C   UNL A   1      36.782  32.774  30.871  1.00  0.00     0.058 A 
ATOM     68  C   UNL A   1      35.438  32.422  31.081  1.00  0.00     0.135 A 
ATOM     69  C   UNL A   1      37.060  33.726  29.876  1.00  0.00     0.135 A 
ATOM     70  F   UNL A   1      35.117  31.495  31.997  1.00  0.00    -0.206 F 
ATOM     71  C   UNL A   1      34.413  32.976  30.320  1.00  0.00     0.059 A 
ATOM     72  C   UNL A   1      36.048  34.316  29.125  1.00  0.00     0.059 A 
ATOM     73  F   UNL A   1      38.328  34.088  29.623  1.00  0.00    -0.206 F 
ATOM     74  C   UNL A   1      34.729  33.926  29.346  1.00  0.00     0.060 A 
BRANCH  74  75
ATOM     75  S   UNL A   1      33.385  34.648  28.382  1.00  0.00     0.124 S 
ATOM     76  O   UNL A   1      32.524  35.182  29.432  1.00  0.00    -0.237 OA
ATOM     77  O   UNL A   1      34.084  35.640  27.571  1.00  0.00    -0.237 OA
ATOM     78  O   UNL A   1      32.845  33.509  27.645  1.00  0.00    -0.744 OA
ENDBRANCH  74  75
ENDBRANCH  53  67
BRANCH  54  79
ATOM     79  C   UNL A   1      44.388  28.424  35.835  1.00  0.00     0.058 A 
ATOM     80  C   UNL A   1      45.664  29.009  35.826  1.00  0.00     0.135 A 
ATOM     81  C   UNL A   1      44.227  27.229  36.554  1.00  0.00     0.135 A 
ATOM     82  F   UNL A   1      45.874  30.148  35.148  1.00  0.00    -0.206 F 
ATOM     83  C   UNL A   1      46.740  28.424  36.486  1.00  0.00     0.059 A 
ATOM     84  C   UNL A   1      45.281  26.640  37.248  1.00  0.00     0.059 A 
ATOM     85  F   UNL A   1      43.026  26.631  36.607  1.00  0.00    -0.206 F 
ATOM     86  C   UNL A   1      46.538  27.241  37.197  1.00  0.00     0.060 A 
BRANCH  86  87
ATOM     87  S   UNL A   1      47.933  26.512  38.082  1.00  0.00     0.124 S 
ATOM     88  O   UNL A   1      47.264  25.539  38.937  1.00  0.00    -0.237 OA
ATOM     89  O   UNL A   1      48.732  25.962  36.990  1.00  0.00    -0.237 OA
ATOM     90  O   UNL A   1      48.528  27.654  38.770  1.00  0.00    -0.744 OA
ENDBRANCH  86  87
ENDBRANCH  54  79
BRANCH  66  91
ATOM     91  C   UNL A   1      39.843  33.513  37.359  1.00  0.00     0.058 A 
ATOM     92  C   UNL A   1      40.538  34.713  37.564  1.00  0.00     0.135 A 
ATOM     93  C   UNL A   1      38.866  33.149  38.301  1.00  0.00     0.135 A 
ATOM     94  F   UNL A   1      41.485  35.104  36.697  1.00  0.00    -0.206 F 
ATOM     95  C   UNL A   1      40.284  35.517  38.670  1.00  0.00     0.059 A 
ATOM     96  C   UNL A   1      38.571  33.953  39.396  1.00  0.00     0.059 A 
ATOM     97  F   UNL A   1      38.163  32.015  38.143  1.00  0.00    -0.206 F 
ATOM     98  C   UNL A   1      39.293  35.132  39.576  1.00  0.00     0.060 A 
BRANCH  98  99
ATOM     99  S   UNL A   1      38.936  36.212  40.976  1.00  0.00     0.124 S 
ATOM    100  O   UNL A   1      40.236  36.274  41.637  1.00  0.00    -0.237 OA
ATOM    101  O   UNL A   1      38.500  37.440  40.317  1.00  0.00    -0.237 OA
ATOM    102  O   UNL A   1      37.895  35.496  41.704  1.00  0.00    -0.744 OA
ENDBRANCH  98  99
ENDBRANCH  66  91
ENDBRANCH  40  41
ENDBRANCH  33  35
ENDBRANCH  32  33
ENDBRANCH  31  32
ENDBRANCH  30  31
ENDBRANCH  29  30
ENDBRANCH  28  29
ENDBRANCH  27  28
ENDBRANCH   1  27
TORSDOF 26
ENDMDL
