MODEL 1
REMARK VINA RESULT:     -10.4      0.000      0.000
REMARK SMILES O=C(OCCOCCOCCOCCOC(=O)c1ccc2c(c1)[C@@H]1C=CC[C@@H]1[C@H](c1ccncc1)N2)c1ccc(-c2c3nc(c(-c4c(F)cc(S(=O)(=O)[O-])cc4F)c4ccc([nH]4)c(-c4c(F)cc(S(=O)(=O)[O-])cc4F)c4nc(c(-c5c(F)cc(S(=O)(=O)[O-])cc5F)c5ccc2[nH]5)C=C4)C=C3)cc1
REMARK SMILES IDX 8 1 7 2 6 3 5 4 4 5 3 6 2 7 1 8 37 9 38 10 102 11 39 12
REMARK SMILES IDX 101 13 40 14 41 15 42 16 95 17 43 18 100 19 94 20 96 21
REMARK SMILES IDX 44 22 99 23 93 24 92 25 45 27 79 28 58 29 78 30 59 31 62 32
REMARK SMILES IDX 77 33 97 34 60 35 61 36 76 38 98 39 63 40 46 41 47 42 56 43
REMARK SMILES IDX 48 44 49 45 55 46 57 47 50 48 51 49 52 50 53 51 54 52 80 53
REMARK SMILES IDX 81 54 90 55 82 56 83 57 89 58 91 59 84 60 85 61 86 62 87 63
REMARK SMILES IDX 88 64 64 65 65 66 74 67 66 68 67 69 73 70 75 71 68 72 69 73
REMARK SMILES IDX 70 74 71 75 72 76 9 77 10 78 11 79 12 80 13 81 14 82 15 83
REMARK SMILES IDX 16 84 17 85 18 86 19 87 23 88 20 89 22 90 21 91 24 92 36 93
REMARK SMILES IDX 25 94 28 95 29 96 26 98 27 99 30 100 31 101 35 102 32 103
REMARK SMILES IDX 34 104 33 105
REMARK H PARENT 96 26 62 37 36 97
REMARK Flexibility Score: inf
ROOT
ATOM      1  C   UNL A   1      36.872  23.588  24.340  1.00  0.00     0.188 C 
ENDROOT
BRANCH   1   2
ATOM      2  C   UNL A   1      36.768  22.078  24.112  1.00  0.00     0.188 C 
BRANCH   2   3
ATOM      3  O   UNL A   1      37.383  21.326  25.157  1.00  0.00    -0.376 OA
BRANCH   3   4
ATOM      4  C   UNL A   1      37.556  19.926  24.944  1.00  0.00     0.202 C 
BRANCH   4   5
ATOM      5  C   UNL A   1      38.902  19.349  25.376  1.00  0.00     0.261 C 
BRANCH   5   6
ATOM      6  O   UNL A   1      39.786  20.318  25.951  1.00  0.00    -0.460 OA
BRANCH   6   7
ATOM      7  C   UNL A   1      41.125  20.235  26.139  1.00  0.00     0.338 C 
ATOM      8  O   UNL A   1      41.647  19.125  26.027  1.00  0.00    -0.246 OA
BRANCH   7   9
ATOM      9  C   UNL A   1      42.016  21.385  26.495  1.00  0.00     0.060 A 
ATOM     10  C   UNL A   1      42.476  21.712  27.773  1.00  0.00     0.016 A 
ATOM     11  C   UNL A   1      42.490  22.153  25.418  1.00  0.00     0.016 A 
ATOM     12  C   UNL A   1      43.343  22.769  27.998  1.00  0.00     0.010 A 
ATOM     13  C   UNL A   1      43.349  23.232  25.628  1.00  0.00     0.010 A 
ATOM     14  C   UNL A   1      43.744  23.556  26.929  1.00  0.00    -0.014 A 
BRANCH  14  15
ATOM     15  C   UNL A   1      44.326  24.867  27.238  1.00  0.00     0.031 A 
ATOM     16  C   UNL A   1      43.375  25.923  27.705  1.00  0.00     0.074 A 
ATOM     17  C   UNL A   1      45.654  25.049  27.211  1.00  0.00     0.049 A 
ATOM     18  N   UNL A   1      43.569  27.197  27.879  1.00  0.00    -0.248 NA
ATOM     19  C   UNL A   1      42.006  25.470  28.022  1.00  0.00     0.031 C 
ATOM     20  C   UNL A   1      46.645  24.006  26.941  1.00  0.00     0.029 A 
ATOM     21  N   UNL A   1      46.398  26.177  27.418  1.00  0.00    -0.354 N 
ATOM     22  C   UNL A   1      42.336  27.708  28.264  1.00  0.00     0.074 A 
ATOM     23  C   UNL A   1      41.402  26.609  28.310  1.00  0.00     0.031 C 
ATOM     24  C   UNL A   1      47.871  24.552  26.974  1.00  0.00     0.029 A 
ATOM     25  C   UNL A   1      47.738  25.988  27.186  1.00  0.00     0.049 A 
ATOM     26  H   UNL A   1      46.011  27.035  27.704  1.00  0.00     0.167 HD
ATOM     27  C   UNL A   1      42.024  28.996  28.530  1.00  0.00     0.037 A 
ATOM     28  C   UNL A   1      48.722  26.902  27.088  1.00  0.00     0.037 A 
ATOM     29  C   UNL A   1      43.004  30.044  28.460  1.00  0.00     0.049 A 
ATOM     30  C   UNL A   1      48.345  28.346  27.285  1.00  0.00     0.074 A 
ATOM     31  C   UNL A   1      42.837  31.402  28.636  1.00  0.00     0.029 A 
ATOM     32  N   UNL A   1      44.351  29.831  28.179  1.00  0.00    -0.354 N 
ATOM     33  N   UNL A   1      47.162  28.856  27.553  1.00  0.00    -0.248 NA
ATOM     34  C   UNL A   1      49.414  29.341  27.156  1.00  0.00     0.031 C 
ATOM     35  C   UNL A   1      44.074  32.015  28.405  1.00  0.00     0.029 A 
ATOM     36  C   UNL A   1      45.027  31.033  28.159  1.00  0.00     0.049 A 
ATOM     37  H   UNL A   1      44.761  28.951  28.017  1.00  0.00     0.167 HD
ATOM     38  C   UNL A   1      47.348  30.227  27.657  1.00  0.00     0.074 A 
ATOM     39  C   UNL A   1      48.761  30.466  27.416  1.00  0.00     0.031 C 
ATOM     40  C   UNL A   1      46.445  31.203  27.934  1.00  0.00     0.037 A 
BRANCH  27  41
ATOM     41  C   UNL A   1      40.578  29.310  28.794  1.00  0.00     0.058 A 
ATOM     42  C   UNL A   1      39.633  29.442  27.762  1.00  0.00     0.135 A 
ATOM     43  C   UNL A   1      40.149  29.572  30.106  1.00  0.00     0.135 A 
ATOM     44  F   UNL A   1      39.992  29.241  26.484  1.00  0.00    -0.206 F 
ATOM     45  C   UNL A   1      38.332  29.871  28.016  1.00  0.00     0.059 A 
ATOM     46  C   UNL A   1      38.845  29.969  30.386  1.00  0.00     0.059 A 
ATOM     47  F   UNL A   1      41.011  29.477  31.130  1.00  0.00    -0.206 F 
ATOM     48  C   UNL A   1      37.951  30.140  29.332  1.00  0.00     0.060 A 
BRANCH  48  49
ATOM     49  S   UNL A   1      36.277  30.742  29.642  1.00  0.00     0.124 S 
ATOM     50  O   UNL A   1      36.324  32.065  29.027  1.00  0.00    -0.237 OA
ATOM     51  O   UNL A   1      35.457  29.753  28.950  1.00  0.00    -0.237 OA
ATOM     52  O   UNL A   1      36.174  30.730  31.098  1.00  0.00    -0.744 OA
ENDBRANCH  48  49
ENDBRANCH  27  41
BRANCH  28  53
ATOM     53  C   UNL A   1      50.100  26.469  26.737  1.00  0.00     0.058 A 
ATOM     54  C   UNL A   1      50.509  26.337  25.403  1.00  0.00     0.135 A 
ATOM     55  C   UNL A   1      51.064  26.243  27.736  1.00  0.00     0.135 A 
ATOM     56  F   UNL A   1      49.630  26.534  24.410  1.00  0.00    -0.206 F 
ATOM     57  C   UNL A   1      51.821  26.004  25.071  1.00  0.00     0.059 A 
ATOM     58  C   UNL A   1      52.386  25.936  27.430  1.00  0.00     0.059 A 
ATOM     59  F   UNL A   1      50.731  26.365  29.031  1.00  0.00    -0.206 F 
ATOM     60  C   UNL A   1      52.756  25.816  26.092  1.00  0.00     0.060 A 
BRANCH  60  61
ATOM     61  S   UNL A   1      54.469  25.461  25.646  1.00  0.00     0.124 S 
ATOM     62  O   UNL A   1      55.188  26.486  26.396  1.00  0.00    -0.237 OA
ATOM     63  O   UNL A   1      54.631  24.091  26.121  1.00  0.00    -0.237 OA
ATOM     64  O   UNL A   1      54.481  25.618  24.195  1.00  0.00    -0.744 OA
ENDBRANCH  60  61
ENDBRANCH  28  53
BRANCH  40  65
ATOM     65  C   UNL A   1      46.966  32.603  28.062  1.00  0.00     0.058 A 
ATOM     66  C   UNL A   1      46.901  33.517  27.003  1.00  0.00     0.135 A 
ATOM     67  C   UNL A   1      47.420  33.059  29.310  1.00  0.00     0.135 A 
ATOM     68  F   UNL A   1      46.481  33.122  25.791  1.00  0.00    -0.206 F 
ATOM     69  C   UNL A   1      47.267  34.846  27.178  1.00  0.00     0.059 A 
ATOM     70  C   UNL A   1      47.761  34.389  29.515  1.00  0.00     0.059 A 
ATOM     71  F   UNL A   1      47.487  32.218  30.355  1.00  0.00    -0.206 F 
ATOM     72  C   UNL A   1      47.683  35.274  28.442  1.00  0.00     0.060 A 
BRANCH  72  73
ATOM     73  S   UNL A   1      48.069  37.020  28.676  1.00  0.00     0.124 S 
ATOM     74  O   UNL A   1      49.039  37.251  27.611  1.00  0.00    -0.237 OA
ATOM     75  O   UNL A   1      46.766  37.652  28.498  1.00  0.00    -0.237 OA
ATOM     76  O   UNL A   1      48.603  37.070  30.034  1.00  0.00    -0.744 OA
ENDBRANCH  72  73
ENDBRANCH  40  65
ENDBRANCH  14  15
ENDBRANCH   7   9
ENDBRANCH   6   7
ENDBRANCH   5   6
ENDBRANCH   4   5
ENDBRANCH   3   4
ENDBRANCH   2   3
ENDBRANCH   1   2
BRANCH   1  77
ATOM     77  O   UNL A   1      35.817  24.182  25.093  1.00  0.00    -0.377 OA
BRANCH  77  78
ATOM     78  C   UNL A   1      34.734  24.725  24.345  1.00  0.00     0.188 C 
BRANCH  78  79
ATOM     79  C   UNL A   1      34.039  26.011  24.861  1.00  0.00     0.188 C 
BRANCH  79  80
ATOM     80  O   UNL A   1      33.571  26.865  23.833  1.00  0.00    -0.376 OA
BRANCH  80  81
ATOM     81  C   UNL A   1      32.896  28.046  24.243  1.00  0.00     0.202 C 
BRANCH  81  82
ATOM     82  C   UNL A   1      31.354  28.060  24.228  1.00  0.00     0.261 C 
BRANCH  82  83
ATOM     83  O   UNL A   1      30.680  27.123  25.089  1.00  0.00    -0.460 OA
BRANCH  83  84
ATOM     84  C   UNL A   1      29.790  26.265  24.547  1.00  0.00     0.338 C 
ATOM     85  O   UNL A   1      28.697  26.533  24.078  1.00  0.00    -0.246 OA
BRANCH  84  86
ATOM     86  C   UNL A   1      30.465  24.950  24.406  1.00  0.00     0.060 A 
ATOM     87  C   UNL A   1      30.645  24.407  23.127  1.00  0.00     0.018 A 
ATOM     88  C   UNL A   1      31.008  24.302  25.517  1.00  0.00     0.022 A 
ATOM     89  C   UNL A   1      31.369  23.223  22.964  1.00  0.00     0.027 A 
ATOM     90  C   UNL A   1      31.668  23.067  25.364  1.00  0.00    -0.017 A 
ATOM     91  C   UNL A   1      31.825  22.510  24.078  1.00  0.00     0.038 A 
ATOM     92  C   UNL A   1      32.102  22.306  26.594  1.00  0.00     0.049 C 
ATOM     93  N   UNL A   1      32.388  21.242  23.903  1.00  0.00    -0.378 N 
ATOM     94  C   UNL A   1      33.227  22.935  27.367  1.00  0.00    -0.023 C 
ATOM     95  C   UNL A   1      32.661  20.898  26.319  1.00  0.00     0.031 C 
ATOM     96  C   UNL A   1      32.149  20.313  25.000  1.00  0.00     0.114 C 
ATOM     97  H   UNL A   1      32.906  20.996  23.103  1.00  0.00     0.161 HD
ATOM     98  C   UNL A   1      34.354  22.214  27.307  1.00  0.00    -0.030 C 
ATOM     99  C   UNL A   1      34.189  21.013  26.438  1.00  0.00     0.034 C 
BRANCH  96 100
ATOM    100  C   UNL A   1      32.700  18.917  24.760  1.00  0.00    -0.022 A 
ATOM    101  C   UNL A   1      33.197  18.614  23.483  1.00  0.00     0.026 A 
ATOM    102  C   UNL A   1      32.695  17.897  25.714  1.00  0.00     0.026 A 
ATOM    103  C   UNL A   1      33.644  17.331  23.215  1.00  0.00     0.111 A 
ATOM    104  C   UNL A   1      33.179  16.646  25.355  1.00  0.00     0.111 A 
ATOM    105  N   UNL A   1      33.649  16.338  24.126  1.00  0.00    -0.265 NA
ENDBRANCH  96 100
ENDBRANCH  84  86
ENDBRANCH  83  84
ENDBRANCH  82  83
ENDBRANCH  81  82
ENDBRANCH  80  81
ENDBRANCH  79  80
ENDBRANCH  78  79
ENDBRANCH  77  78
ENDBRANCH   1  77
TORSDOF 24
ENDMDL
MODEL 2
REMARK VINA RESULT:      -9.8      2.181      8.089
REMARK SMILES O=C(OCCOCCOCCOCCOC(=O)c1ccc2c(c1)[C@@H]1C=CC[C@@H]1[C@H](c1ccncc1)N2)c1ccc(-c2c3nc(c(-c4c(F)cc(S(=O)(=O)[O-])cc4F)c4ccc([nH]4)c(-c4c(F)cc(S(=O)(=O)[O-])cc4F)c4nc(c(-c5c(F)cc(S(=O)(=O)[O-])cc5F)c5ccc2[nH]5)C=C4)C=C3)cc1
REMARK SMILES IDX 8 1 7 2 6 3 5 4 4 5 3 6 2 7 1 8 37 9 38 10 102 11 39 12
REMARK SMILES IDX 101 13 40 14 41 15 42 16 95 17 43 18 100 19 94 20 96 21
REMARK SMILES IDX 44 22 99 23 93 24 92 25 45 27 79 28 58 29 78 30 59 31 62 32
REMARK SMILES IDX 77 33 97 34 60 35 61 36 76 38 98 39 63 40 46 41 47 42 56 43
REMARK SMILES IDX 48 44 49 45 55 46 57 47 50 48 51 49 52 50 53 51 54 52 80 53
REMARK SMILES IDX 81 54 90 55 82 56 83 57 89 58 91 59 84 60 85 61 86 62 87 63
REMARK SMILES IDX 88 64 64 65 65 66 74 67 66 68 67 69 73 70 75 71 68 72 69 73
REMARK SMILES IDX 70 74 71 75 72 76 9 77 10 78 11 79 12 80 13 81 14 82 15 83
REMARK SMILES IDX 16 84 17 85 18 86 19 87 23 88 20 89 22 90 21 91 24 92 36 93
REMARK SMILES IDX 25 94 28 95 29 96 26 98 27 99 30 100 31 101 35 102 32 103
REMARK SMILES IDX 34 104 33 105
REMARK H PARENT 96 26 62 37 36 97
REMARK Flexibility Score: inf
ROOT
ATOM      1  C   UNL A   1      33.116  32.838  28.053  1.00  0.00     0.188 C 
ENDROOT
BRANCH   1   2
ATOM      2  C   UNL A   1      34.291  33.817  28.091  1.00  0.00     0.188 C 
BRANCH   2   3
ATOM      3  O   UNL A   1      35.551  33.153  28.185  1.00  0.00    -0.376 OA
BRANCH   3   4
ATOM      4  C   UNL A   1      35.565  31.739  28.002  1.00  0.00     0.202 C 
BRANCH   4   5
ATOM      5  C   UNL A   1      35.188  30.907  29.226  1.00  0.00     0.261 C 
BRANCH   5   6
ATOM      6  O   UNL A   1      36.192  30.897  30.247  1.00  0.00    -0.460 OA
BRANCH   6   7
ATOM      7  C   UNL A   1      37.124  29.949  30.506  1.00  0.00     0.338 C 
ATOM      8  O   UNL A   1      36.824  29.059  31.303  1.00  0.00    -0.246 OA
BRANCH   7   9
ATOM      9  C   UNL A   1      38.501  29.913  29.917  1.00  0.00     0.060 A 
ATOM     10  C   UNL A   1      38.820  29.933  28.557  1.00  0.00     0.016 A 
ATOM     11  C   UNL A   1      39.564  29.943  30.833  1.00  0.00     0.016 A 
ATOM     12  C   UNL A   1      40.130  29.950  28.105  1.00  0.00     0.010 A 
ATOM     13  C   UNL A   1      40.890  29.941  30.398  1.00  0.00     0.010 A 
ATOM     14  C   UNL A   1      41.165  29.909  29.027  1.00  0.00    -0.014 A 
BRANCH  14  15
ATOM     15  C   UNL A   1      42.494  29.538  28.532  1.00  0.00     0.031 A 
ATOM     16  C   UNL A   1      42.658  28.128  28.060  1.00  0.00     0.074 A 
ATOM     17  C   UNL A   1      43.460  30.460  28.406  1.00  0.00     0.049 A 
ATOM     18  N   UNL A   1      43.740  27.479  27.741  1.00  0.00    -0.248 NA
ATOM     19  C   UNL A   1      41.418  27.339  27.929  1.00  0.00     0.031 C 
ATOM     20  C   UNL A   1      43.302  31.890  28.679  1.00  0.00     0.029 A 
ATOM     21  N   UNL A   1      44.763  30.331  28.015  1.00  0.00    -0.354 N 
ATOM     22  C   UNL A   1      43.319  26.191  27.432  1.00  0.00     0.074 A 
ATOM     23  C   UNL A   1      41.885  26.150  27.590  1.00  0.00     0.031 C 
ATOM     24  C   UNL A   1      44.478  32.504  28.468  1.00  0.00     0.029 A 
ATOM     25  C   UNL A   1      45.478  31.498  28.128  1.00  0.00     0.049 A 
ATOM     26  H   UNL A   1      45.148  29.488  27.684  1.00  0.00     0.167 HD
ATOM     27  C   UNL A   1      44.085  25.139  27.071  1.00  0.00     0.037 A 
ATOM     28  C   UNL A   1      46.806  31.695  28.034  1.00  0.00     0.037 A 
ATOM     29  C   UNL A   1      45.511  25.248  26.938  1.00  0.00     0.049 A 
ATOM     30  C   UNL A   1      47.663  30.495  27.733  1.00  0.00     0.074 A 
ATOM     31  C   UNL A   1      46.434  24.265  26.644  1.00  0.00     0.029 A 
ATOM     32  N   UNL A   1      46.218  26.437  27.102  1.00  0.00    -0.354 N 
ATOM     33  N   UNL A   1      47.289  29.249  27.536  1.00  0.00    -0.248 NA
ATOM     34  C   UNL A   1      49.110  30.708  27.654  1.00  0.00     0.031 C 
ATOM     35  C   UNL A   1      47.705  24.850  26.687  1.00  0.00     0.029 A 
ATOM     36  C   UNL A   1      47.569  26.212  26.933  1.00  0.00     0.049 A 
ATOM     37  H   UNL A   1      45.813  27.309  27.308  1.00  0.00     0.167 HD
ATOM     38  C   UNL A   1      48.450  28.535  27.277  1.00  0.00     0.074 A 
ATOM     39  C   UNL A   1      49.541  29.490  27.350  1.00  0.00     0.031 C 
ATOM     40  C   UNL A   1      48.608  27.215  26.996  1.00  0.00     0.037 A 
BRANCH  27  41
ATOM     41  C   UNL A   1      43.398  23.810  26.924  1.00  0.00     0.058 A 
ATOM     42  C   UNL A   1      43.047  23.014  28.028  1.00  0.00     0.135 A 
ATOM     43  C   UNL A   1      43.165  23.282  25.643  1.00  0.00     0.135 A 
ATOM     44  F   UNL A   1      43.278  23.449  29.277  1.00  0.00    -0.206 F 
ATOM     45  C   UNL A   1      42.539  21.727  27.867  1.00  0.00     0.059 A 
ATOM     46  C   UNL A   1      42.629  22.012  25.459  1.00  0.00     0.059 A 
ATOM     47  F   UNL A   1      43.495  23.990  24.551  1.00  0.00    -0.206 F 
ATOM     48  C   UNL A   1      42.342  21.232  26.576  1.00  0.00     0.060 A 
BRANCH  48  49
ATOM     49  S   UNL A   1      41.730  19.545  26.381  1.00  0.00     0.124 S 
ATOM     50  O   UNL A   1      42.187  18.923  27.620  1.00  0.00    -0.237 OA
ATOM     51  O   UNL A   1      40.289  19.747  26.269  1.00  0.00    -0.237 OA
ATOM     52  O   UNL A   1      42.391  19.080  25.165  1.00  0.00    -0.744 OA
ENDBRANCH  48  49
ENDBRANCH  27  41
BRANCH  28  53
ATOM     53  C   UNL A   1      47.372  33.047  28.287  1.00  0.00     0.058 A 
ATOM     54  C   UNL A   1      47.549  33.973  27.250  1.00  0.00     0.135 A 
ATOM     55  C   UNL A   1      47.684  33.467  29.592  1.00  0.00     0.135 A 
ATOM     56  F   UNL A   1      47.273  33.623  25.985  1.00  0.00    -0.206 F 
ATOM     57  C   UNL A   1      48.008  35.266  27.496  1.00  0.00     0.059 A 
ATOM     58  C   UNL A   1      48.119  34.760  29.866  1.00  0.00     0.059 A 
ATOM     59  F   UNL A   1      47.525  32.626  30.626  1.00  0.00    -0.206 F 
ATOM     60  C   UNL A   1      48.280  35.654  28.809  1.00  0.00     0.060 A 
BRANCH  60  61
ATOM     61  S   UNL A   1      48.800  37.355  29.122  1.00  0.00     0.124 S 
ATOM     62  O   UNL A   1      47.518  38.032  29.280  1.00  0.00    -0.237 OA
ATOM     63  O   UNL A   1      49.600  37.211  30.334  1.00  0.00    -0.237 OA
ATOM     64  O   UNL A   1      49.554  37.704  27.922  1.00  0.00    -0.744 OA
ENDBRANCH  60  61
ENDBRANCH  28  53
BRANCH  40  65
ATOM     65  C   UNL A   1      49.995  26.744  26.677  1.00  0.00     0.058 A 
ATOM     66  C   UNL A   1      50.837  26.202  27.657  1.00  0.00     0.135 A 
ATOM     67  C   UNL A   1      50.427  26.724  25.341  1.00  0.00     0.135 A 
ATOM     68  F   UNL A   1      50.466  26.208  28.947  1.00  0.00    -0.206 F 
ATOM     69  C   UNL A   1      52.067  25.651  27.321  1.00  0.00     0.059 A 
ATOM     70  C   UNL A   1      51.637  26.150  24.979  1.00  0.00     0.059 A 
ATOM     71  F   UNL A   1      49.645  27.223  24.369  1.00  0.00    -0.206 F 
ATOM     72  C   UNL A   1      52.451  25.617  25.977  1.00  0.00     0.060 A 
BRANCH  72  73
ATOM     73  S   UNL A   1      54.009  24.818  25.547  1.00  0.00     0.124 S 
ATOM     74  O   UNL A   1      54.717  24.849  26.823  1.00  0.00    -0.237 OA
ATOM     75  O   UNL A   1      53.568  23.502  25.096  1.00  0.00    -0.237 OA
ATOM     76  O   UNL A   1      54.556  25.680  24.504  1.00  0.00    -0.744 OA
ENDBRANCH  72  73
ENDBRANCH  40  65
ENDBRANCH  14  15
ENDBRANCH   7   9
ENDBRANCH   6   7
ENDBRANCH   5   6
ENDBRANCH   4   5
ENDBRANCH   3   4
ENDBRANCH   2   3
ENDBRANCH   1   2
BRANCH   1  77
ATOM     77  O   UNL A   1      32.339  32.838  26.858  1.00  0.00    -0.377 OA
BRANCH  77  78
ATOM     78  C   UNL A   1      31.654  31.628  26.547  1.00  0.00     0.188 C 
BRANCH  78  79
ATOM     79  C   UNL A   1      32.285  30.280  26.978  1.00  0.00     0.188 C 
BRANCH  79  80
ATOM     80  O   UNL A   1      32.520  29.385  25.906  1.00  0.00    -0.376 OA
BRANCH  80  81
ATOM     81  C   UNL A   1      31.452  28.517  25.553  1.00  0.00     0.202 C 
BRANCH  81  82
ATOM     82  C   UNL A   1      31.208  28.213  24.061  1.00  0.00     0.261 C 
BRANCH  82  83
ATOM     83  O   UNL A   1      32.110  27.289  23.422  1.00  0.00    -0.460 OA
BRANCH  83  84
ATOM     84  C   UNL A   1      31.618  26.425  22.510  1.00  0.00     0.338 C 
ATOM     85  O   UNL A   1      31.027  26.698  21.478  1.00  0.00    -0.246 OA
BRANCH  84  86
ATOM     86  C   UNL A   1      32.122  25.073  22.856  1.00  0.00     0.060 A 
ATOM     87  C   UNL A   1      32.929  24.387  21.939  1.00  0.00     0.018 A 
ATOM     88  C   UNL A   1      31.887  24.523  24.118  1.00  0.00     0.022 A 
ATOM     89  C   UNL A   1      33.498  23.159  22.287  1.00  0.00     0.027 A 
ATOM     90  C   UNL A   1      32.393  23.249  24.442  1.00  0.00    -0.017 A 
ATOM     91  C   UNL A   1      33.183  22.550  23.506  1.00  0.00     0.038 A 
ATOM     92  C   UNL A   1      31.990  22.606  25.747  1.00  0.00     0.049 C 
ATOM     93  N   UNL A   1      33.618  21.245  23.759  1.00  0.00    -0.378 N 
ATOM     94  C   UNL A   1      32.550  23.261  26.978  1.00  0.00    -0.023 C 
ATOM     95  C   UNL A   1      32.464  21.151  25.924  1.00  0.00     0.031 C 
ATOM     96  C   UNL A   1      32.718  20.453  24.587  1.00  0.00     0.114 C 
ATOM     97  H   UNL A   1      34.466  20.890  23.408  1.00  0.00     0.161 HD
ATOM     98  C   UNL A   1      33.441  22.486  27.609  1.00  0.00    -0.030 C 
ATOM     99  C   UNL A   1      33.669  21.207  26.877  1.00  0.00     0.034 C 
BRANCH  96 100
ATOM    100  C   UNL A   1      33.166  19.015  24.787  1.00  0.00    -0.022 A 
ATOM    101  C   UNL A   1      34.496  18.688  24.478  1.00  0.00     0.026 A 
ATOM    102  C   UNL A   1      32.326  17.982  25.209  1.00  0.00     0.026 A 
ATOM    103  C   UNL A   1      34.915  17.373  24.587  1.00  0.00     0.111 A 
ATOM    104  C   UNL A   1      32.843  16.697  25.302  1.00  0.00     0.111 A 
ATOM    105  N   UNL A   1      34.117  16.368  24.996  1.00  0.00    -0.265 NA
ENDBRANCH  96 100
ENDBRANCH  84  86
ENDBRANCH  83  84
ENDBRANCH  82  83
ENDBRANCH  81  82
ENDBRANCH  80  81
ENDBRANCH  79  80
ENDBRANCH  78  79
ENDBRANCH  77  78
ENDBRANCH   1  77
TORSDOF 24
ENDMDL
MODEL 3
REMARK VINA RESULT:      -9.5      2.511      8.525
REMARK SMILES O=C(OCCOCCOCCOCCOC(=O)c1ccc2c(c1)[C@@H]1C=CC[C@@H]1[C@H](c1ccncc1)N2)c1ccc(-c2c3nc(c(-c4c(F)cc(S(=O)(=O)[O-])cc4F)c4ccc([nH]4)c(-c4c(F)cc(S(=O)(=O)[O-])cc4F)c4nc(c(-c5c(F)cc(S(=O)(=O)[O-])cc5F)c5ccc2[nH]5)C=C4)C=C3)cc1
REMARK SMILES IDX 8 1 7 2 6 3 5 4 4 5 3 6 2 7 1 8 37 9 38 10 102 11 39 12
REMARK SMILES IDX 101 13 40 14 41 15 42 16 95 17 43 18 100 19 94 20 96 21
REMARK SMILES IDX 44 22 99 23 93 24 92 25 45 27 79 28 58 29 78 30 59 31 62 32
REMARK SMILES IDX 77 33 97 34 60 35 61 36 76 38 98 39 63 40 46 41 47 42 56 43
REMARK SMILES IDX 48 44 49 45 55 46 57 47 50 48 51 49 52 50 53 51 54 52 80 53
REMARK SMILES IDX 81 54 90 55 82 56 83 57 89 58 91 59 84 60 85 61 86 62 87 63
REMARK SMILES IDX 88 64 64 65 65 66 74 67 66 68 67 69 73 70 75 71 68 72 69 73
REMARK SMILES IDX 70 74 71 75 72 76 9 77 10 78 11 79 12 80 13 81 14 82 15 83
REMARK SMILES IDX 16 84 17 85 18 86 19 87 23 88 20 89 22 90 21 91 24 92 36 93
REMARK SMILES IDX 25 94 28 95 29 96 26 98 27 99 30 100 31 101 35 102 32 103
REMARK SMILES IDX 34 104 33 105
REMARK H PARENT 96 26 62 37 36 97
REMARK Flexibility Score: inf
ROOT
ATOM      1  C   UNL A   1      35.831  24.086  24.321  1.00  0.00     0.188 C 
ENDROOT
BRANCH   1   2
ATOM      2  C   UNL A   1      35.894  22.561  24.434  1.00  0.00     0.188 C 
BRANCH   2   3
ATOM      3  O   UNL A   1      36.870  22.124  25.379  1.00  0.00    -0.376 OA
BRANCH   3   4
ATOM      4  C   UNL A   1      37.540  20.893  25.111  1.00  0.00     0.202 C 
BRANCH   4   5
ATOM      5  C   UNL A   1      38.944  20.759  25.698  1.00  0.00     0.261 C 
BRANCH   5   6
ATOM      6  O   UNL A   1      39.368  21.906  26.442  1.00  0.00    -0.460 OA
BRANCH   6   7
ATOM      7  C   UNL A   1      40.539  22.582  26.359  1.00  0.00     0.338 C 
ATOM      8  O   UNL A   1      41.506  21.988  25.880  1.00  0.00    -0.246 OA
BRANCH   7   9
ATOM      9  C   UNL A   1      40.755  23.989  26.825  1.00  0.00     0.060 A 
ATOM     10  C   UNL A   1      40.523  25.151  26.086  1.00  0.00     0.016 A 
ATOM     11  C   UNL A   1      41.152  24.140  28.164  1.00  0.00     0.016 A 
ATOM     12  C   UNL A   1      40.703  26.416  26.622  1.00  0.00     0.010 A 
ATOM     13  C   UNL A   1      41.356  25.405  28.716  1.00  0.00     0.010 A 
ATOM     14  C   UNL A   1      41.162  26.541  27.925  1.00  0.00    -0.014 A 
BRANCH  14  15
ATOM     15  C   UNL A   1      41.707  27.843  28.326  1.00  0.00     0.031 A 
ATOM     16  C   UNL A   1      43.183  28.025  28.163  1.00  0.00     0.074 A 
ATOM     17  C   UNL A   1      40.892  28.840  28.701  1.00  0.00     0.049 A 
ATOM     18  N   UNL A   1      43.954  28.983  28.587  1.00  0.00    -0.248 NA
ATOM     19  C   UNL A   1      43.888  26.970  27.409  1.00  0.00     0.031 C 
ATOM     20  C   UNL A   1      39.429  28.778  28.703  1.00  0.00     0.029 A 
ATOM     21  N   UNL A   1      41.179  30.098  29.148  1.00  0.00    -0.354 N 
ATOM     22  C   UNL A   1      45.239  28.616  28.208  1.00  0.00     0.074 A 
ATOM     23  C   UNL A   1      45.147  27.357  27.511  1.00  0.00     0.031 C 
ATOM     24  C   UNL A   1      38.946  29.946  29.158  1.00  0.00     0.029 A 
ATOM     25  C   UNL A   1      40.066  30.794  29.551  1.00  0.00     0.049 A 
ATOM     26  H   UNL A   1      42.091  30.467  29.178  1.00  0.00     0.167 HD
ATOM     27  C   UNL A   1      46.390  29.280  28.452  1.00  0.00     0.037 A 
ATOM     28  C   UNL A   1      39.986  31.956  30.226  1.00  0.00     0.037 A 
ATOM     29  C   UNL A   1      46.411  30.530  29.160  1.00  0.00     0.049 A 
ATOM     30  C   UNL A   1      41.280  32.637  30.584  1.00  0.00     0.074 A 
ATOM     31  C   UNL A   1      47.494  31.294  29.543  1.00  0.00     0.029 A 
ATOM     32  N   UNL A   1      45.268  31.195  29.596  1.00  0.00    -0.354 N 
ATOM     33  N   UNL A   1      42.510  32.253  30.318  1.00  0.00    -0.248 NA
ATOM     34  C   UNL A   1      41.191  33.890  31.338  1.00  0.00     0.031 C 
ATOM     35  C   UNL A   1      47.007  32.392  30.261  1.00  0.00     0.029 A 
ATOM     36  C   UNL A   1      45.617  32.352  30.261  1.00  0.00     0.049 A 
ATOM     37  H   UNL A   1      44.345  30.884  29.452  1.00  0.00     0.167 HD
ATOM     38  C   UNL A   1      43.342  33.231  30.843  1.00  0.00     0.074 A 
ATOM     39  C   UNL A   1      42.471  34.224  31.449  1.00  0.00     0.031 C 
ATOM     40  C   UNL A   1      44.697  33.315  30.824  1.00  0.00     0.037 A 
BRANCH  27  41
ATOM     41  C   UNL A   1      47.671  28.600  28.053  1.00  0.00     0.058 A 
ATOM     42  C   UNL A   1      48.188  28.670  26.749  1.00  0.00     0.135 A 
ATOM     43  C   UNL A   1      48.347  27.787  28.979  1.00  0.00     0.135 A 
ATOM     44  F   UNL A   1      47.565  29.400  25.811  1.00  0.00    -0.206 F 
ATOM     45  C   UNL A   1      49.298  27.920  26.364  1.00  0.00     0.059 A 
ATOM     46  C   UNL A   1      49.477  27.056  28.624  1.00  0.00     0.059 A 
ATOM     47  F   UNL A   1      47.890  27.669  30.235  1.00  0.00    -0.206 F 
ATOM     48  C   UNL A   1      49.930  27.109  27.308  1.00  0.00     0.060 A 
BRANCH  48  49
ATOM     49  S   UNL A   1      51.336  26.106  26.785  1.00  0.00     0.124 S 
ATOM     50  O   UNL A   1      51.318  26.309  25.339  1.00  0.00    -0.237 OA
ATOM     51  O   UNL A   1      52.447  26.730  27.496  1.00  0.00    -0.237 OA
ATOM     52  O   UNL A   1      50.983  24.762  27.234  1.00  0.00    -0.744 OA
ENDBRANCH  48  49
ENDBRANCH  27  41
BRANCH  28  53
ATOM     53  C   UNL A   1      38.658  32.481  30.638  1.00  0.00     0.058 A 
ATOM     54  C   UNL A   1      37.966  33.418  29.858  1.00  0.00     0.135 A 
ATOM     55  C   UNL A   1      38.018  32.001  31.794  1.00  0.00     0.135 A 
ATOM     56  F   UNL A   1      38.531  33.914  28.748  1.00  0.00    -0.206 F 
ATOM     57  C   UNL A   1      36.688  33.854  30.204  1.00  0.00     0.059 A 
ATOM     58  C   UNL A   1      36.732  32.401  32.146  1.00  0.00     0.059 A 
ATOM     59  F   UNL A   1      38.629  31.095  32.574  1.00  0.00    -0.206 F 
ATOM     60  C   UNL A   1      36.075  33.331  31.344  1.00  0.00     0.060 A 
BRANCH  60  61
ATOM     61  S   UNL A   1      34.390  33.848  31.738  1.00  0.00     0.124 S 
ATOM     62  O   UNL A   1      33.899  32.702  32.496  1.00  0.00    -0.237 OA
ATOM     63  O   UNL A   1      34.615  35.070  32.502  1.00  0.00    -0.237 OA
ATOM     64  O   UNL A   1      33.780  34.042  30.425  1.00  0.00    -0.744 OA
ENDBRANCH  60  61
ENDBRANCH  28  53
BRANCH  40  65
ATOM     65  C   UNL A   1      45.316  34.548  31.410  1.00  0.00     0.058 A 
ATOM     66  C   UNL A   1      45.747  34.600  32.742  1.00  0.00     0.135 A 
ATOM     67  C   UNL A   1      45.591  35.645  30.577  1.00  0.00     0.135 A 
ATOM     68  F   UNL A   1      45.499  33.576  33.575  1.00  0.00    -0.206 F 
ATOM     69  C   UNL A   1      46.436  35.702  33.231  1.00  0.00     0.059 A 
ATOM     70  C   UNL A   1      46.304  36.743  31.036  1.00  0.00     0.059 A 
ATOM     71  F   UNL A   1      45.205  35.632  29.290  1.00  0.00    -0.206 F 
ATOM     72  C   UNL A   1      46.722  36.762  32.366  1.00  0.00     0.060 A 
BRANCH  72  73
ATOM     73  S   UNL A   1      47.694  38.146  32.991  1.00  0.00     0.124 S 
ATOM     74  O   UNL A   1      48.809  37.456  33.632  1.00  0.00    -0.237 OA
ATOM     75  O   UNL A   1      48.016  38.876  31.770  1.00  0.00    -0.237 OA
ATOM     76  O   UNL A   1      46.773  38.827  33.897  1.00  0.00    -0.744 OA
ENDBRANCH  72  73
ENDBRANCH  40  65
ENDBRANCH  14  15
ENDBRANCH   7   9
ENDBRANCH   6   7
ENDBRANCH   5   6
ENDBRANCH   4   5
ENDBRANCH   3   4
ENDBRANCH   2   3
ENDBRANCH   1   2
BRANCH   1  77
ATOM     77  O   UNL A   1      35.527  24.790  25.521  1.00  0.00    -0.377 OA
BRANCH  77  78
ATOM     78  C   UNL A   1      34.211  25.325  25.626  1.00  0.00     0.188 C 
BRANCH  78  79
ATOM     79  C   UNL A   1      34.005  26.849  25.437  1.00  0.00     0.188 C 
BRANCH  79  80
ATOM     80  O   UNL A   1      32.736  27.316  25.859  1.00  0.00    -0.376 OA
BRANCH  80  81
ATOM     81  C   UNL A   1      32.405  28.656  25.523  1.00  0.00     0.202 C 
BRANCH  81  82
ATOM     82  C   UNL A   1      31.267  28.906  24.514  1.00  0.00     0.261 C 
BRANCH  82  83
ATOM     83  O   UNL A   1      30.429  27.785  24.175  1.00  0.00    -0.460 OA
BRANCH  83  84
ATOM     84  C   UNL A   1      30.502  27.269  22.931  1.00  0.00     0.338 C 
ATOM     85  O   UNL A   1      30.279  27.844  21.879  1.00  0.00    -0.246 OA
BRANCH  84  86
ATOM     86  C   UNL A   1      31.130  25.928  23.039  1.00  0.00     0.060 A 
ATOM     87  C   UNL A   1      32.065  25.531  22.074  1.00  0.00     0.018 A 
ATOM     88  C   UNL A   1      30.875  25.105  24.138  1.00  0.00     0.022 A 
ATOM     89  C   UNL A   1      32.743  24.317  22.214  1.00  0.00     0.027 A 
ATOM     90  C   UNL A   1      31.497  23.845  24.239  1.00  0.00    -0.017 A 
ATOM     91  C   UNL A   1      32.419  23.438  23.253  1.00  0.00     0.038 A 
ATOM     92  C   UNL A   1      31.085  22.906  25.347  1.00  0.00     0.049 C 
ATOM     93  N   UNL A   1      32.979  22.156  23.273  1.00  0.00    -0.378 N 
ATOM     94  C   UNL A   1      31.487  23.338  26.729  1.00  0.00    -0.023 C 
ATOM     95  C   UNL A   1      31.705  21.499  25.266  1.00  0.00     0.031 C 
ATOM     96  C   UNL A   1      32.120  21.125  23.842  1.00  0.00     0.114 C 
ATOM     97  H   UNL A   1      33.882  21.966  22.931  1.00  0.00     0.161 HD
ATOM     98  C   UNL A   1      32.416  22.536  27.265  1.00  0.00    -0.030 C 
ATOM     99  C   UNL A   1      32.832  21.467  26.311  1.00  0.00     0.034 C 
BRANCH  96 100
ATOM    100  C   UNL A   1      32.712  19.727  23.784  1.00  0.00    -0.022 A 
ATOM    101  C   UNL A   1      33.850  19.457  24.561  1.00  0.00     0.026 A 
ATOM    102  C   UNL A   1      32.227  18.703  22.966  1.00  0.00     0.026 A 
ATOM    103  C   UNL A   1      34.449  18.213  24.479  1.00  0.00     0.111 A 
ATOM    104  C   UNL A   1      32.889  17.482  22.964  1.00  0.00     0.111 A 
ATOM    105  N   UNL A   1      33.992  17.215  23.698  1.00  0.00    -0.265 NA
ENDBRANCH  96 100
ENDBRANCH  84  86
ENDBRANCH  83  84
ENDBRANCH  82  83
ENDBRANCH  81  82
ENDBRANCH  80  81
ENDBRANCH  79  80
ENDBRANCH  78  79
ENDBRANCH  77  78
ENDBRANCH   1  77
TORSDOF 24
ENDMDL
