MODEL 1
REMARK VINA RESULT:      -9.4      0.000      0.000
REMARK SMILES NS(=O)(=O)c1ccc(-n2nc(C(=O)OCCOCCOCCOCCOC(=O)c3ccc(-c4c5nc(c(-c6c(F)cc(S(=O)(=O)[O-])cc6F)c6ccc([nH]6)c(-c6c(F)cc(S(=O)(=O)[O-])cc6F)c6nc(c(-c7c(F)cc(S(=O)(=O)[O-])cc7F)c7ccc4[nH]7)C=C6)C=C5)cc3)cc2-c2cc3ccccc3s2)cc1
REMARK SMILES IDX 20 1 19 2 18 3 17 4 16 5 15 6 14 7 12 8 13 9 11 10 9 11
REMARK SMILES IDX 10 12 96 13 95 14 8 15 5 16 6 17 107 18 7 19 106 20 2 21
REMARK SMILES IDX 3 22 4 23 1 24 97 27 98 28 105 29 99 30 104 31 100 32 103 33
REMARK SMILES IDX 101 34 102 35 21 36 22 37 23 38 24 39 25 40 26 41 27 42
REMARK SMILES IDX 28 43 29 44 30 45 94 46 31 47 93 48 32 49 33 50 34 51 87 52
REMARK SMILES IDX 35 53 92 54 86 55 88 56 36 57 91 58 85 59 84 60 37 62 71 63
REMARK SMILES IDX 50 64 70 65 51 66 54 67 69 68 89 69 52 70 53 71 68 73 90 74
REMARK SMILES IDX 55 75 38 76 39 77 48 78 40 79 41 80 47 81 49 82 42 83 43 84
REMARK SMILES IDX 44 85 45 86 46 87 72 88 73 89 82 90 74 91 75 92 81 93 83 94
REMARK SMILES IDX 76 95 77 96 78 97 79 98 80 99 56 100 57 101 66 102 58 103
REMARK SMILES IDX 59 104 65 105 67 106 60 107 61 108 62 109 63 110 64 111
REMARK H PARENT 1 25 1 26 88 61 54 72
REMARK Flexibility Score: inf
ROOT
ATOM      1  O   UNL A   1      39.476  33.191  31.421  1.00  0.00    -0.377 OA
ENDROOT
BRANCH   1   2
ATOM      2  C   UNL A   1      39.662  32.463  30.222  1.00  0.00     0.188 C 
BRANCH   2   3
ATOM      3  C   UNL A   1      38.837  31.157  30.121  1.00  0.00     0.188 C 
BRANCH   3   4
ATOM      4  O   UNL A   1      37.431  31.115  30.351  1.00  0.00    -0.376 OA
BRANCH   4   5
ATOM      5  C   UNL A   1      36.524  32.041  29.779  1.00  0.00     0.202 C 
BRANCH   5   6
ATOM      6  C   UNL A   1      36.221  32.053  28.275  1.00  0.00     0.261 C 
BRANCH   6   7
ATOM      7  O   UNL A   1      35.438  30.964  27.806  1.00  0.00    -0.458 OA
BRANCH   7   8
ATOM      8  C   UNL A   1      34.145  31.248  27.469  1.00  0.00     0.358 C 
ATOM      9  O   UNL A   1      33.587  32.315  27.686  1.00  0.00    -0.244 OA
BRANCH   8  10
ATOM     10  C   UNL A   1      33.544  30.105  26.767  1.00  0.00     0.171 A 
ATOM     11  N   UNL A   1      33.184  28.139  26.030  1.00  0.00    -0.231 N 
ATOM     12  N   UNL A   1      33.755  28.809  27.066  1.00  0.00    -0.160 NA
ATOM     13  C   UNL A   1      32.731  28.996  25.058  1.00  0.00     0.085 A 
ATOM     14  C   UNL A   1      32.622  30.209  25.705  1.00  0.00     0.068 A 
BRANCH  11  15
ATOM     15  C   UNL A   1      33.078  26.743  26.067  1.00  0.00     0.065 A 
ATOM     16  C   UNL A   1      32.872  23.992  26.179  1.00  0.00     0.082 A 
ATOM     17  C   UNL A   1      34.054  24.583  25.711  1.00  0.00     0.024 A 
ATOM     18  C   UNL A   1      31.788  24.773  26.597  1.00  0.00     0.024 A 
ATOM     19  C   UNL A   1      34.154  25.969  25.640  1.00  0.00     0.030 A 
ATOM     20  C   UNL A   1      31.899  26.163  26.561  1.00  0.00     0.030 A 
BRANCH  16  21
ATOM     21  S   UNL A   1      32.769  22.229  26.255  1.00  0.00     0.238 S 
ATOM     22  O   UNL A   1      34.030  21.659  25.857  1.00  0.00    -0.207 OA
ATOM     23  O   UNL A   1      31.506  21.814  25.678  1.00  0.00    -0.207 OA
BRANCH  21  24
ATOM     24  N   UNL A   1      32.653  21.927  27.903  1.00  0.00    -0.225 NA
ATOM     25  H   UNL A   1      32.778  22.799  28.418  1.00  0.00     0.137 HD
ATOM     26  H   UNL A   1      33.376  21.262  28.178  1.00  0.00     0.137 HD
ENDBRANCH  21  24
ENDBRANCH  16  21
ENDBRANCH  11  15
BRANCH  13  27
ATOM     27  C   UNL A   1      32.664  28.836  23.624  1.00  0.00     0.054 A 
ATOM     28  C   UNL A   1      32.961  27.684  22.897  1.00  0.00     0.031 A 
ATOM     29  S   UNL A   1      31.113  29.328  22.929  1.00  0.00    -0.134 S 
ATOM     30  C   UNL A   1      31.752  26.866  22.927  1.00  0.00    -0.007 A 
ATOM     31  C   UNL A   1      30.625  27.668  23.168  1.00  0.00     0.035 A 
ATOM     32  C   UNL A   1      31.586  25.464  22.944  1.00  0.00     0.009 A 
ATOM     33  C   UNL A   1      29.398  27.140  23.595  1.00  0.00     0.019 A 
ATOM     34  C   UNL A   1      30.378  24.928  23.407  1.00  0.00     0.001 A 
ATOM     35  C   UNL A   1      29.319  25.756  23.774  1.00  0.00     0.001 A 
ENDBRANCH  13  27
ENDBRANCH   8  10
ENDBRANCH   7   8
ENDBRANCH   6   7
ENDBRANCH   5   6
ENDBRANCH   4   5
ENDBRANCH   3   4
ENDBRANCH   2   3
ENDBRANCH   1   2
BRANCH   1  36
ATOM     36  C   UNL A   1      38.813  34.448  31.274  1.00  0.00     0.188 C 
BRANCH  36  37
ATOM     37  C   UNL A   1      37.496  34.673  32.062  1.00  0.00     0.188 C 
BRANCH  37  38
ATOM     38  O   UNL A   1      37.648  34.778  33.470  1.00  0.00    -0.376 OA
BRANCH  38  39
ATOM     39  C   UNL A   1      36.585  34.550  34.379  1.00  0.00     0.202 C 
BRANCH  39  40
ATOM     40  C   UNL A   1      36.311  33.126  34.849  1.00  0.00     0.261 C 
BRANCH  40  41
ATOM     41  O   UNL A   1      37.015  32.129  34.138  1.00  0.00    -0.460 OA
BRANCH  41  42
ATOM     42  C   UNL A   1      37.835  31.386  34.905  1.00  0.00     0.338 C 
ATOM     43  O   UNL A   1      37.790  31.247  36.114  1.00  0.00    -0.246 OA
BRANCH  42  44
ATOM     44  C   UNL A   1      38.921  30.903  34.059  1.00  0.00     0.060 A 
ATOM     45  C   UNL A   1      38.667  29.740  33.337  1.00  0.00     0.016 A 
ATOM     46  C   UNL A   1      40.219  31.390  34.283  1.00  0.00     0.016 A 
ATOM     47  C   UNL A   1      39.736  28.932  33.039  1.00  0.00     0.010 A 
ATOM     48  C   UNL A   1      41.281  30.572  34.003  1.00  0.00     0.010 A 
ATOM     49  C   UNL A   1      41.016  29.320  33.461  1.00  0.00    -0.014 A 
BRANCH  49  50
ATOM     50  C   UNL A   1      42.124  28.458  33.119  1.00  0.00     0.031 A 
ATOM     51  C   UNL A   1      42.499  27.639  34.289  1.00  0.00     0.074 A 
ATOM     52  C   UNL A   1      42.651  28.383  31.881  1.00  0.00     0.049 A 
ATOM     53  N   UNL A   1      43.496  27.844  35.081  1.00  0.00    -0.248 NA
ATOM     54  C   UNL A   1      41.510  26.680  34.816  1.00  0.00     0.031 C 
ATOM     55  C   UNL A   1      42.138  29.005  30.656  1.00  0.00     0.029 A 
ATOM     56  N   UNL A   1      43.712  27.658  31.431  1.00  0.00    -0.354 N 
ATOM     57  C   UNL A   1      43.435  26.801  35.996  1.00  0.00     0.074 A 
ATOM     58  C   UNL A   1      42.081  26.324  35.969  1.00  0.00     0.031 C 
ATOM     59  C   UNL A   1      42.746  28.446  29.583  1.00  0.00     0.029 A 
ATOM     60  C   UNL A   1      43.777  27.532  30.044  1.00  0.00     0.049 A 
ATOM     61  H   UNL A   1      44.378  27.257  32.035  1.00  0.00     0.167 HD
ATOM     62  C   UNL A   1      44.584  26.166  36.349  1.00  0.00     0.037 A 
ATOM     63  C   UNL A   1      44.597  26.701  29.346  1.00  0.00     0.037 A 
ATOM     64  C   UNL A   1      45.728  26.981  36.014  1.00  0.00     0.049 A 
ATOM     65  C   UNL A   1      45.733  26.374  30.240  1.00  0.00     0.074 A 
ATOM     66  C   UNL A   1      46.236  28.198  36.414  1.00  0.00     0.029 A 
ATOM     67  N   UNL A   1      46.263  26.697  34.784  1.00  0.00    -0.354 N 
ATOM     68  N   UNL A   1      46.625  27.250  30.614  1.00  0.00    -0.248 NA
ATOM     69  C   UNL A   1      45.678  25.160  31.044  1.00  0.00     0.031 C 
ATOM     70  C   UNL A   1      46.933  28.724  35.286  1.00  0.00     0.029 A 
ATOM     71  C   UNL A   1      46.888  27.789  34.252  1.00  0.00     0.049 A 
ATOM     72  H   UNL A   1      46.205  25.820  34.342  1.00  0.00     0.167 HD
ATOM     73  C   UNL A   1      46.914  26.910  31.922  1.00  0.00     0.074 A 
ATOM     74  C   UNL A   1      46.446  25.537  32.070  1.00  0.00     0.031 C 
ATOM     75  C   UNL A   1      47.190  27.881  32.839  1.00  0.00     0.037 A 
BRANCH  62  76
ATOM     76  C   UNL A   1      44.705  24.654  36.440  1.00  0.00     0.058 A 
ATOM     77  C   UNL A   1      45.286  24.094  37.596  1.00  0.00     0.135 A 
ATOM     78  C   UNL A   1      44.568  23.769  35.345  1.00  0.00     0.135 A 
ATOM     79  F   UNL A   1      45.494  24.847  38.688  1.00  0.00    -0.206 F 
ATOM     80  C   UNL A   1      45.743  22.774  37.640  1.00  0.00     0.059 A 
ATOM     81  C   UNL A   1      44.966  22.440  35.385  1.00  0.00     0.059 A 
ATOM     82  F   UNL A   1      44.133  24.156  34.142  1.00  0.00    -0.206 F 
ATOM     83  C   UNL A   1      45.580  21.957  36.526  1.00  0.00     0.060 A 
BRANCH  83  84
ATOM     84  S   UNL A   1      46.188  20.265  36.558  1.00  0.00     0.124 S 
ATOM     85  O   UNL A   1      47.600  20.457  36.252  1.00  0.00    -0.237 OA
ATOM     86  O   UNL A   1      45.873  19.863  37.925  1.00  0.00    -0.237 OA
ATOM     87  O   UNL A   1      45.398  19.607  35.521  1.00  0.00    -0.744 OA
ENDBRANCH  83  84
ENDBRANCH  62  76
BRANCH  63  88
ATOM     88  C   UNL A   1      44.364  25.961  28.074  1.00  0.00     0.058 A 
ATOM     89  C   UNL A   1      45.317  25.983  27.035  1.00  0.00     0.135 A 
ATOM     90  C   UNL A   1      43.368  24.970  27.973  1.00  0.00     0.135 A 
ATOM     91  F   UNL A   1      46.307  26.890  27.046  1.00  0.00    -0.206 F 
ATOM     92  C   UNL A   1      45.330  25.035  26.005  1.00  0.00     0.059 A 
ATOM     93  C   UNL A   1      43.357  24.018  26.951  1.00  0.00     0.059 A 
ATOM     94  F   UNL A   1      42.430  24.836  28.922  1.00  0.00    -0.206 F 
ATOM     95  C   UNL A   1      44.361  24.036  25.989  1.00  0.00     0.060 A 
BRANCH  95  96
ATOM     96  S   UNL A   1      44.493  22.685  24.790  1.00  0.00     0.124 S 
ATOM     97  O   UNL A   1      45.181  23.333  23.679  1.00  0.00    -0.237 OA
ATOM     98  O   UNL A   1      45.266  21.692  25.526  1.00  0.00    -0.237 OA
ATOM     99  O   UNL A   1      43.101  22.323  24.534  1.00  0.00    -0.744 OA
ENDBRANCH  95  96
ENDBRANCH  63  88
BRANCH  75 100
ATOM    100  C   UNL A   1      47.748  29.179  32.331  1.00  0.00     0.058 A 
ATOM    101  C   UNL A   1      49.104  29.449  32.084  1.00  0.00     0.135 A 
ATOM    102  C   UNL A   1      46.818  30.175  31.996  1.00  0.00     0.135 A 
ATOM    103  F   UNL A   1      50.045  28.517  32.299  1.00  0.00    -0.206 F 
ATOM    104  C   UNL A   1      49.517  30.676  31.561  1.00  0.00     0.059 A 
ATOM    105  C   UNL A   1      47.204  31.388  31.442  1.00  0.00     0.059 A 
ATOM    106  F   UNL A   1      45.504  29.955  32.167  1.00  0.00    -0.206 F 
ATOM    107  C   UNL A   1      48.557  31.640  31.244  1.00  0.00     0.060 A 
BRANCH 107 108
ATOM    108  S   UNL A   1      49.077  33.208  30.515  1.00  0.00     0.124 S 
ATOM    109  O   UNL A   1      47.831  33.707  29.944  1.00  0.00    -0.237 OA
ATOM    110  O   UNL A   1      49.586  33.940  31.671  1.00  0.00    -0.237 OA
ATOM    111  O   UNL A   1      50.094  32.812  29.543  1.00  0.00    -0.744 OA
ENDBRANCH 107 108
ENDBRANCH  75 100
ENDBRANCH  49  50
ENDBRANCH  42  44
ENDBRANCH  41  42
ENDBRANCH  40  41
ENDBRANCH  39  40
ENDBRANCH  38  39
ENDBRANCH  37  38
ENDBRANCH  36  37
ENDBRANCH   1  36
TORSDOF 27
ENDMDL
MODEL 2
REMARK VINA RESULT:      -8.1      5.478     10.365
REMARK SMILES NS(=O)(=O)c1ccc(-n2nc(C(=O)OCCOCCOCCOCCOC(=O)c3ccc(-c4c5nc(c(-c6c(F)cc(S(=O)(=O)[O-])cc6F)c6ccc([nH]6)c(-c6c(F)cc(S(=O)(=O)[O-])cc6F)c6nc(c(-c7c(F)cc(S(=O)(=O)[O-])cc7F)c7ccc4[nH]7)C=C6)C=C5)cc3)cc2-c2cc3ccccc3s2)cc1
REMARK SMILES IDX 20 1 19 2 18 3 17 4 16 5 15 6 14 7 12 8 13 9 11 10 9 11
REMARK SMILES IDX 10 12 96 13 95 14 8 15 5 16 6 17 107 18 7 19 106 20 2 21
REMARK SMILES IDX 3 22 4 23 1 24 97 27 98 28 105 29 99 30 104 31 100 32 103 33
REMARK SMILES IDX 101 34 102 35 21 36 22 37 23 38 24 39 25 40 26 41 27 42
REMARK SMILES IDX 28 43 29 44 30 45 94 46 31 47 93 48 32 49 33 50 34 51 87 52
REMARK SMILES IDX 35 53 92 54 86 55 88 56 36 57 91 58 85 59 84 60 37 62 71 63
REMARK SMILES IDX 50 64 70 65 51 66 54 67 69 68 89 69 52 70 53 71 68 73 90 74
REMARK SMILES IDX 55 75 38 76 39 77 48 78 40 79 41 80 47 81 49 82 42 83 43 84
REMARK SMILES IDX 44 85 45 86 46 87 72 88 73 89 82 90 74 91 75 92 81 93 83 94
REMARK SMILES IDX 76 95 77 96 78 97 79 98 80 99 56 100 57 101 66 102 58 103
REMARK SMILES IDX 59 104 65 105 67 106 60 107 61 108 62 109 63 110 64 111
REMARK H PARENT 1 25 1 26 88 61 54 72
REMARK Flexibility Score: inf
ROOT
ATOM      1  O   UNL A   1      44.691  35.403  38.240  1.00  0.00    -0.377 OA
ENDROOT
BRANCH   1   2
ATOM      2  C   UNL A   1      43.403  35.871  37.886  1.00  0.00     0.188 C 
BRANCH   2   3
ATOM      3  C   UNL A   1      42.559  34.878  37.051  1.00  0.00     0.188 C 
BRANCH   3   4
ATOM      4  O   UNL A   1      41.138  34.942  36.982  1.00  0.00    -0.376 OA
BRANCH   4   5
ATOM      5  C   UNL A   1      40.336  33.878  36.497  1.00  0.00     0.202 C 
BRANCH   5   6
ATOM      6  C   UNL A   1      39.716  32.839  37.440  1.00  0.00     0.261 C 
BRANCH   6   7
ATOM      7  O   UNL A   1      39.543  31.543  36.884  1.00  0.00    -0.458 OA
BRANCH   7   8
ATOM      8  C   UNL A   1      38.254  31.126  36.708  1.00  0.00     0.358 C 
ATOM      9  O   UNL A   1      37.625  30.451  37.511  1.00  0.00    -0.244 OA
BRANCH   8  10
ATOM     10  C   UNL A   1      37.724  31.647  35.440  1.00  0.00     0.171 A 
ATOM     11  N   UNL A   1      36.468  32.598  34.005  1.00  0.00    -0.231 N 
ATOM     12  N   UNL A   1      36.798  32.618  35.324  1.00  0.00    -0.160 NA
ATOM     13  C   UNL A   1      37.089  31.568  33.341  1.00  0.00     0.085 A 
ATOM     14  C   UNL A   1      38.146  31.231  34.160  1.00  0.00     0.068 A 
BRANCH  11  15
ATOM     15  C   UNL A   1      35.627  33.582  33.473  1.00  0.00     0.065 A 
ATOM     16  C   UNL A   1      33.973  35.546  32.458  1.00  0.00     0.082 A 
ATOM     17  C   UNL A   1      33.417  34.375  32.990  1.00  0.00     0.024 A 
ATOM     18  C   UNL A   1      35.358  35.744  32.434  1.00  0.00     0.024 A 
ATOM     19  C   UNL A   1      34.249  33.377  33.488  1.00  0.00     0.030 A 
ATOM     20  C   UNL A   1      36.193  34.762  32.966  1.00  0.00     0.030 A 
BRANCH  16  21
ATOM     21  S   UNL A   1      32.893  36.795  31.826  1.00  0.00     0.238 S 
ATOM     22  O   UNL A   1      31.846  37.050  32.781  1.00  0.00    -0.207 OA
ATOM     23  O   UNL A   1      32.627  36.513  30.429  1.00  0.00    -0.207 OA
BRANCH  21  24
ATOM     24  N   UNL A   1      33.853  38.173  31.851  1.00  0.00    -0.225 NA
ATOM     25  H   UNL A   1      33.260  38.999  31.937  1.00  0.00     0.137 HD
ATOM     26  H   UNL A   1      34.391  38.229  30.986  1.00  0.00     0.137 HD
ENDBRANCH  21  24
ENDBRANCH  16  21
ENDBRANCH  11  15
BRANCH  13  27
ATOM     27  C   UNL A   1      36.638  30.764  32.230  1.00  0.00     0.054 A 
ATOM     28  C   UNL A   1      35.619  31.075  31.331  1.00  0.00     0.031 A 
ATOM     29  S   UNL A   1      37.945  30.253  31.151  1.00  0.00    -0.134 S 
ATOM     30  C   UNL A   1      36.225  31.931  30.315  1.00  0.00    -0.007 A 
ATOM     31  C   UNL A   1      37.612  31.720  30.264  1.00  0.00     0.035 A 
ATOM     32  C   UNL A   1      35.686  33.000  29.569  1.00  0.00     0.009 A 
ATOM     33  C   UNL A   1      38.492  32.626  29.653  1.00  0.00     0.019 A 
ATOM     34  C   UNL A   1      36.558  33.932  28.990  1.00  0.00     0.001 A 
ATOM     35  C   UNL A   1      37.939  33.772  29.075  1.00  0.00     0.001 A 
ENDBRANCH  13  27
ENDBRANCH   8  10
ENDBRANCH   7   8
ENDBRANCH   6   7
ENDBRANCH   5   6
ENDBRANCH   4   5
ENDBRANCH   3   4
ENDBRANCH   2   3
ENDBRANCH   1   2
BRANCH   1  36
ATOM     36  C   UNL A   1      45.137  34.247  37.528  1.00  0.00     0.188 C 
BRANCH  36  37
ATOM     37  C   UNL A   1      46.053  33.242  38.273  1.00  0.00     0.188 C 
BRANCH  37  38
ATOM     38  O   UNL A   1      45.989  31.905  37.799  1.00  0.00    -0.376 OA
BRANCH  38  39
ATOM     39  C   UNL A   1      45.001  30.983  38.225  1.00  0.00     0.202 C 
BRANCH  39  40
ATOM     40  C   UNL A   1      45.439  29.608  38.717  1.00  0.00     0.261 C 
BRANCH  40  41
ATOM     41  O   UNL A   1      45.260  28.566  37.781  1.00  0.00    -0.460 OA
BRANCH  41  42
ATOM     42  C   UNL A   1      46.398  27.928  37.448  1.00  0.00     0.338 C 
ATOM     43  O   UNL A   1      47.339  27.670  38.176  1.00  0.00    -0.246 OA
BRANCH  42  44
ATOM     44  C   UNL A   1      46.402  27.749  36.000  1.00  0.00     0.060 A 
ATOM     45  C   UNL A   1      47.526  28.221  35.326  1.00  0.00     0.016 A 
ATOM     46  C   UNL A   1      45.189  27.468  35.350  1.00  0.00     0.016 A 
ATOM     47  C   UNL A   1      47.359  28.638  34.029  1.00  0.00     0.010 A 
ATOM     48  C   UNL A   1      45.021  27.904  34.063  1.00  0.00     0.010 A 
ATOM     49  C   UNL A   1      46.084  28.557  33.451  1.00  0.00    -0.014 A 
BRANCH  49  50
ATOM     50  C   UNL A   1      45.942  28.988  32.079  1.00  0.00     0.031 A 
ATOM     51  C   UNL A   1      45.157  30.237  32.026  1.00  0.00     0.074 A 
ATOM     52  C   UNL A   1      46.528  28.360  31.040  1.00  0.00     0.049 A 
ATOM     53  N   UNL A   1      43.911  30.347  31.710  1.00  0.00    -0.248 NA
ATOM     54  C   UNL A   1      45.714  31.440  32.673  1.00  0.00     0.031 C 
ATOM     55  C   UNL A   1      47.504  27.267  31.095  1.00  0.00     0.029 A 
ATOM     56  N   UNL A   1      46.445  28.624  29.707  1.00  0.00    -0.354 N 
ATOM     57  C   UNL A   1      43.651  31.709  31.787  1.00  0.00     0.074 A 
ATOM     58  C   UNL A   1      44.663  32.262  32.643  1.00  0.00     0.031 C 
ATOM     59  C   UNL A   1      48.087  27.127  29.882  1.00  0.00     0.029 A 
ATOM     60  C   UNL A   1      47.437  28.019  28.936  1.00  0.00     0.049 A 
ATOM     61  H   UNL A   1      45.742  29.195  29.319  1.00  0.00     0.167 HD
ATOM     62  C   UNL A   1      42.912  32.295  30.808  1.00  0.00     0.037 A 
ATOM     63  C   UNL A   1      47.716  28.276  27.630  1.00  0.00     0.037 A 
ATOM     64  C   UNL A   1      42.172  31.295  30.075  1.00  0.00     0.049 A 
ATOM     65  C   UNL A   1      46.492  28.875  27.045  1.00  0.00     0.074 A 
ATOM     66  C   UNL A   1      41.161  30.400  30.353  1.00  0.00     0.029 A 
ATOM     67  N   UNL A   1      42.817  30.848  28.951  1.00  0.00    -0.354 N 
ATOM     68  N   UNL A   1      45.381  28.213  26.875  1.00  0.00    -0.248 NA
ATOM     69  C   UNL A   1      46.367  30.326  26.995  1.00  0.00     0.031 C 
ATOM     70  C   UNL A   1      41.359  29.296  29.473  1.00  0.00     0.029 A 
ATOM     71  C   UNL A   1      42.442  29.572  28.639  1.00  0.00     0.049 A 
ATOM     72  H   UNL A   1      43.467  31.379  28.437  1.00  0.00     0.167 HD
ATOM     73  C   UNL A   1      44.387  29.134  27.146  1.00  0.00     0.074 A 
ATOM     74  C   UNL A   1      45.036  30.436  27.040  1.00  0.00     0.031 C 
ATOM     75  C   UNL A   1      43.233  28.739  27.757  1.00  0.00     0.037 A 
BRANCH  62  76
ATOM     76  C   UNL A   1      43.288  33.616  30.159  1.00  0.00     0.058 A 
ATOM     77  C   UNL A   1      42.287  34.599  30.004  1.00  0.00     0.135 A 
ATOM     78  C   UNL A   1      44.472  33.841  29.419  1.00  0.00     0.135 A 
ATOM     79  F   UNL A   1      41.108  34.476  30.635  1.00  0.00    -0.206 F 
ATOM     80  C   UNL A   1      42.435  35.688  29.142  1.00  0.00     0.059 A 
ATOM     81  C   UNL A   1      44.659  34.944  28.598  1.00  0.00     0.059 A 
ATOM     82  F   UNL A   1      45.479  32.964  29.367  1.00  0.00    -0.206 F 
ATOM     83  C   UNL A   1      43.626  35.848  28.441  1.00  0.00     0.060 A 
BRANCH  83  84
ATOM     84  S   UNL A   1      43.819  37.229  27.305  1.00  0.00     0.124 S 
ATOM     85  O   UNL A   1      42.753  36.969  26.346  1.00  0.00    -0.237 OA
ATOM     86  O   UNL A   1      43.624  38.372  28.192  1.00  0.00    -0.237 OA
ATOM     87  O   UNL A   1      45.179  37.059  26.803  1.00  0.00    -0.744 OA
ENDBRANCH  83  84
ENDBRANCH  62  76
BRANCH  63  88
ATOM     88  C   UNL A   1      49.017  28.288  26.906  1.00  0.00     0.058 A 
ATOM     89  C   UNL A   1      49.214  27.501  25.752  1.00  0.00     0.135 A 
ATOM     90  C   UNL A   1      49.975  29.294  27.134  1.00  0.00     0.135 A 
ATOM     91  F   UNL A   1      48.351  26.519  25.448  1.00  0.00    -0.206 F 
ATOM     92  C   UNL A   1      50.246  27.749  24.840  1.00  0.00     0.059 A 
ATOM     93  C   UNL A   1      51.018  29.554  26.242  1.00  0.00     0.059 A 
ATOM     94  F   UNL A   1      49.869  30.122  28.183  1.00  0.00    -0.206 F 
ATOM     95  C   UNL A   1      51.128  28.799  25.079  1.00  0.00     0.060 A 
BRANCH  95  96
ATOM     96  S   UNL A   1      52.331  29.260  23.807  1.00  0.00     0.124 S 
ATOM     97  O   UNL A   1      53.187  28.080  23.757  1.00  0.00    -0.237 OA
ATOM     98  O   UNL A   1      51.482  29.482  22.643  1.00  0.00    -0.237 OA
ATOM     99  O   UNL A   1      52.958  30.462  24.355  1.00  0.00    -0.744 OA
ENDBRANCH  95  96
ENDBRANCH  63  88
BRANCH  75 100
ATOM    100  C   UNL A   1      42.811  27.309  27.589  1.00  0.00     0.058 A 
ATOM    101  C   UNL A   1      43.272  26.223  28.351  1.00  0.00     0.135 A 
ATOM    102  C   UNL A   1      41.805  27.057  26.644  1.00  0.00     0.135 A 
ATOM    103  F   UNL A   1      44.171  26.397  29.331  1.00  0.00    -0.206 F 
ATOM    104  C   UNL A   1      42.776  24.932  28.150  1.00  0.00     0.059 A 
ATOM    105  C   UNL A   1      41.274  25.789  26.452  1.00  0.00     0.059 A 
ATOM    106  F   UNL A   1      41.293  28.065  25.919  1.00  0.00    -0.206 F 
ATOM    107  C   UNL A   1      41.776  24.727  27.197  1.00  0.00     0.060 A 
BRANCH 107 108
ATOM    108  S   UNL A   1      41.090  23.072  26.969  1.00  0.00     0.124 S 
ATOM    109  O   UNL A   1      41.915  22.545  25.888  1.00  0.00    -0.237 OA
ATOM    110  O   UNL A   1      41.294  22.463  28.281  1.00  0.00    -0.237 OA
ATOM    111  O   UNL A   1      39.693  23.327  26.622  1.00  0.00    -0.744 OA
ENDBRANCH 107 108
ENDBRANCH  75 100
ENDBRANCH  49  50
ENDBRANCH  42  44
ENDBRANCH  41  42
ENDBRANCH  40  41
ENDBRANCH  39  40
ENDBRANCH  38  39
ENDBRANCH  37  38
ENDBRANCH  36  37
ENDBRANCH   1  36
TORSDOF 27
ENDMDL
MODEL 3
REMARK VINA RESULT:      -8.1      4.831      9.363
REMARK SMILES NS(=O)(=O)c1ccc(-n2nc(C(=O)OCCOCCOCCOCCOC(=O)c3ccc(-c4c5nc(c(-c6c(F)cc(S(=O)(=O)[O-])cc6F)c6ccc([nH]6)c(-c6c(F)cc(S(=O)(=O)[O-])cc6F)c6nc(c(-c7c(F)cc(S(=O)(=O)[O-])cc7F)c7ccc4[nH]7)C=C6)C=C5)cc3)cc2-c2cc3ccccc3s2)cc1
REMARK SMILES IDX 20 1 19 2 18 3 17 4 16 5 15 6 14 7 12 8 13 9 11 10 9 11
REMARK SMILES IDX 10 12 96 13 95 14 8 15 5 16 6 17 107 18 7 19 106 20 2 21
REMARK SMILES IDX 3 22 4 23 1 24 97 27 98 28 105 29 99 30 104 31 100 32 103 33
REMARK SMILES IDX 101 34 102 35 21 36 22 37 23 38 24 39 25 40 26 41 27 42
REMARK SMILES IDX 28 43 29 44 30 45 94 46 31 47 93 48 32 49 33 50 34 51 87 52
REMARK SMILES IDX 35 53 92 54 86 55 88 56 36 57 91 58 85 59 84 60 37 62 71 63
REMARK SMILES IDX 50 64 70 65 51 66 54 67 69 68 89 69 52 70 53 71 68 73 90 74
REMARK SMILES IDX 55 75 38 76 39 77 48 78 40 79 41 80 47 81 49 82 42 83 43 84
REMARK SMILES IDX 44 85 45 86 46 87 72 88 73 89 82 90 74 91 75 92 81 93 83 94
REMARK SMILES IDX 76 95 77 96 78 97 79 98 80 99 56 100 57 101 66 102 58 103
REMARK SMILES IDX 59 104 65 105 67 106 60 107 61 108 62 109 63 110 64 111
REMARK H PARENT 1 25 1 26 88 61 54 72
REMARK Flexibility Score: inf
ROOT
ATOM      1  O   UNL A   1      42.952  25.380  34.638  1.00  0.00    -0.377 OA
ENDROOT
BRANCH   1   2
ATOM      2  C   UNL A   1      43.451  26.459  35.406  1.00  0.00     0.188 C 
BRANCH   2   3
ATOM      3  C   UNL A   1      43.559  27.802  34.643  1.00  0.00     0.188 C 
BRANCH   3   4
ATOM      4  O   UNL A   1      43.697  27.875  33.227  1.00  0.00    -0.376 OA
BRANCH   4   5
ATOM      5  C   UNL A   1      42.594  27.846  32.338  1.00  0.00     0.202 C 
BRANCH   5   6
ATOM      6  C   UNL A   1      42.755  28.139  30.841  1.00  0.00     0.261 C 
BRANCH   6   7
ATOM      7  O   UNL A   1      41.542  28.353  30.132  1.00  0.00    -0.458 OA
BRANCH   7   8
ATOM      8  C   UNL A   1      41.325  29.620  29.671  1.00  0.00     0.358 C 
ATOM      9  O   UNL A   1      41.905  30.124  28.718  1.00  0.00    -0.244 OA
BRANCH   8  10
ATOM     10  C   UNL A   1      40.263  30.267  30.454  1.00  0.00     0.171 A 
ATOM     11  N   UNL A   1      39.069  30.938  32.086  1.00  0.00    -0.231 N 
ATOM     12  N   UNL A   1      40.339  30.576  31.762  1.00  0.00    -0.160 NA
ATOM     13  C   UNL A   1      38.204  30.752  31.037  1.00  0.00     0.085 A 
ATOM     14  C   UNL A   1      39.026  30.697  29.931  1.00  0.00     0.068 A 
BRANCH  11  15
ATOM     15  C   UNL A   1      38.789  31.472  33.350  1.00  0.00     0.065 A 
ATOM     16  C   UNL A   1      38.197  32.517  35.836  1.00  0.00     0.082 A 
ATOM     17  C   UNL A   1      38.457  33.380  34.763  1.00  0.00     0.024 A 
ATOM     18  C   UNL A   1      38.227  31.127  35.672  1.00  0.00     0.024 A 
ATOM     19  C   UNL A   1      38.770  32.855  33.513  1.00  0.00     0.030 A 
ATOM     20  C   UNL A   1      38.505  30.599  34.411  1.00  0.00     0.030 A 
BRANCH  16  21
ATOM     21  S   UNL A   1      37.806  33.209  37.415  1.00  0.00     0.238 S 
ATOM     22  O   UNL A   1      36.385  33.132  37.633  1.00  0.00    -0.207 OA
ATOM     23  O   UNL A   1      38.558  34.436  37.581  1.00  0.00    -0.207 OA
BRANCH  21  24
ATOM     24  N   UNL A   1      38.473  32.102  38.488  1.00  0.00    -0.225 NA
ATOM     25  H   UNL A   1      38.425  32.476  39.436  1.00  0.00     0.137 HD
ATOM     26  H   UNL A   1      39.448  31.932  38.239  1.00  0.00     0.137 HD
ENDBRANCH  21  24
ENDBRANCH  16  21
ENDBRANCH  11  15
BRANCH  13  27
ATOM     27  C   UNL A   1      36.810  30.375  31.027  1.00  0.00     0.054 A 
ATOM     28  C   UNL A   1      35.740  31.114  31.529  1.00  0.00     0.031 A 
ATOM     29  S   UNL A   1      36.218  29.898  29.429  1.00  0.00    -0.134 S 
ATOM     30  C   UNL A   1      35.373  32.057  30.476  1.00  0.00    -0.007 A 
ATOM     31  C   UNL A   1      35.796  31.581  29.225  1.00  0.00     0.035 A 
ATOM     32  C   UNL A   1      34.865  33.372  30.551  1.00  0.00     0.009 A 
ATOM     33  C   UNL A   1      35.900  32.408  28.097  1.00  0.00     0.019 A 
ATOM     34  C   UNL A   1      35.002  34.217  29.442  1.00  0.00     0.001 A 
ATOM     35  C   UNL A   1      35.557  33.754  28.251  1.00  0.00     0.001 A 
ENDBRANCH  13  27
ENDBRANCH   8  10
ENDBRANCH   7   8
ENDBRANCH   6   7
ENDBRANCH   5   6
ENDBRANCH   4   5
ENDBRANCH   3   4
ENDBRANCH   2   3
ENDBRANCH   1   2
BRANCH   1  36
ATOM     36  C   UNL A   1      42.835  24.138  35.336  1.00  0.00     0.188 C 
BRANCH  36  37
ATOM     37  C   UNL A   1      43.769  22.975  34.913  1.00  0.00     0.188 C 
BRANCH  37  38
ATOM     38  O   UNL A   1      44.939  22.826  35.704  1.00  0.00    -0.376 OA
BRANCH  38  39
ATOM     39  C   UNL A   1      45.105  23.458  36.961  1.00  0.00     0.202 C 
BRANCH  39  40
ATOM     40  C   UNL A   1      46.181  22.942  37.909  1.00  0.00     0.261 C 
BRANCH  40  41
ATOM     41  O   UNL A   1      47.498  23.038  37.408  1.00  0.00    -0.460 OA
BRANCH  41  42
ATOM     42  C   UNL A   1      48.014  24.281  37.463  1.00  0.00     0.338 C 
ATOM     43  O   UNL A   1      47.989  25.049  38.407  1.00  0.00    -0.246 OA
BRANCH  42  44
ATOM     44  C   UNL A   1      48.463  24.637  36.122  1.00  0.00     0.060 A 
ATOM     45  C   UNL A   1      48.477  25.997  35.820  1.00  0.00     0.016 A 
ATOM     46  C   UNL A   1      48.502  23.639  35.134  1.00  0.00     0.016 A 
ATOM     47  C   UNL A   1      48.289  26.357  34.509  1.00  0.00     0.010 A 
ATOM     48  C   UNL A   1      48.293  24.001  33.830  1.00  0.00     0.010 A 
ATOM     49  C   UNL A   1      48.107  25.349  33.549  1.00  0.00    -0.014 A 
BRANCH  49  50
ATOM     50  C   UNL A   1      47.927  25.759  32.175  1.00  0.00     0.031 A 
ATOM     51  C   UNL A   1      49.233  26.112  31.585  1.00  0.00     0.074 A 
ATOM     52  C   UNL A   1      46.739  25.727  31.540  1.00  0.00     0.049 A 
ATOM     53  N   UNL A   1      49.695  27.303  31.401  1.00  0.00    -0.248 NA
ATOM     54  C   UNL A   1      50.254  25.055  31.463  1.00  0.00     0.031 C 
ATOM     55  C   UNL A   1      45.482  25.153  32.031  1.00  0.00     0.029 A 
ATOM     56  N   UNL A   1      46.418  26.122  30.278  1.00  0.00    -0.354 N 
ATOM     57  C   UNL A   1      50.934  27.108  30.805  1.00  0.00     0.074 A 
ATOM     58  C   UNL A   1      51.334  25.770  31.139  1.00  0.00     0.031 C 
ATOM     59  C   UNL A   1      44.614  25.029  31.001  1.00  0.00     0.029 A 
ATOM     60  C   UNL A   1      45.197  25.634  29.814  1.00  0.00     0.049 A 
ATOM     61  H   UNL A   1      46.999  26.703  29.737  1.00  0.00     0.167 HD
ATOM     62  C   UNL A   1      51.292  27.896  29.756  1.00  0.00     0.037 A 
ATOM     63  C   UNL A   1      44.733  25.695  28.537  1.00  0.00     0.037 A 
ATOM     64  C   UNL A   1      50.472  29.085  29.723  1.00  0.00     0.049 A 
ATOM     65  C   UNL A   1      45.466  26.799  27.872  1.00  0.00     0.074 A 
ATOM     66  C   UNL A   1      50.280  30.185  30.530  1.00  0.00     0.029 A 
ATOM     67  N   UNL A   1      49.370  28.969  28.916  1.00  0.00    -0.354 N 
ATOM     68  N   UNL A   1      45.312  28.055  28.190  1.00  0.00    -0.248 NA
ATOM     69  C   UNL A   1      46.669  26.494  27.107  1.00  0.00     0.031 C 
ATOM     70  C   UNL A   1      48.932  30.599  30.316  1.00  0.00     0.029 A 
ATOM     71  C   UNL A   1      48.359  29.785  29.340  1.00  0.00     0.049 A 
ATOM     72  H   UNL A   1      49.314  28.376  28.133  1.00  0.00     0.167 HD
ATOM     73  C   UNL A   1      46.576  28.599  28.067  1.00  0.00     0.074 A 
ATOM     74  C   UNL A   1      47.318  27.654  27.240  1.00  0.00     0.031 C 
ATOM     75  C   UNL A   1      46.988  29.580  28.920  1.00  0.00     0.037 A 
BRANCH  62  76
ATOM     76  C   UNL A   1      51.929  27.354  28.487  1.00  0.00     0.058 A 
ATOM     77  C   UNL A   1      51.266  26.322  27.790  1.00  0.00     0.135 A 
ATOM     78  C   UNL A   1      53.273  27.573  28.104  1.00  0.00     0.135 A 
ATOM     79  F   UNL A   1      49.997  26.003  28.088  1.00  0.00    -0.206 F 
ATOM     80  C   UNL A   1      51.907  25.539  26.827  1.00  0.00     0.059 A 
ATOM     81  C   UNL A   1      53.912  26.842  27.114  1.00  0.00     0.059 A 
ATOM     82  F   UNL A   1      54.078  28.439  28.728  1.00  0.00    -0.206 F 
ATOM     83  C   UNL A   1      53.232  25.807  26.499  1.00  0.00     0.060 A 
BRANCH  83  84
ATOM     84  S   UNL A   1      54.079  24.788  25.282  1.00  0.00     0.124 S 
ATOM     85  O   UNL A   1      53.975  25.615  24.087  1.00  0.00    -0.237 OA
ATOM     86  O   UNL A   1      55.409  24.668  25.870  1.00  0.00    -0.237 OA
ATOM     87  O   UNL A   1      53.292  23.558  25.273  1.00  0.00    -0.744 OA
ENDBRANCH  83  84
ENDBRANCH  62  76
BRANCH  63  88
ATOM     88  C   UNL A   1      43.904  24.729  27.764  1.00  0.00     0.058 A 
ATOM     89  C   UNL A   1      44.460  23.533  27.263  1.00  0.00     0.135 A 
ATOM     90  C   UNL A   1      42.498  24.797  27.771  1.00  0.00     0.135 A 
ATOM     91  F   UNL A   1      45.792  23.373  27.219  1.00  0.00    -0.206 F 
ATOM     92  C   UNL A   1      43.672  22.444  26.872  1.00  0.00     0.059 A 
ATOM     93  C   UNL A   1      41.692  23.726  27.378  1.00  0.00     0.059 A 
ATOM     94  F   UNL A   1      41.862  25.874  28.255  1.00  0.00    -0.206 F 
ATOM     95  C   UNL A   1      42.286  22.540  26.961  1.00  0.00     0.060 A 
BRANCH  95  96
ATOM     96  S   UNL A   1      41.270  21.072  26.661  1.00  0.00     0.124 S 
ATOM     97  O   UNL A   1      40.219  21.602  25.799  1.00  0.00    -0.237 OA
ATOM     98  O   UNL A   1      42.217  20.164  26.025  1.00  0.00    -0.237 OA
ATOM     99  O   UNL A   1      40.839  20.680  28.001  1.00  0.00    -0.744 OA
ENDBRANCH  95  96
ENDBRANCH  63  88
BRANCH  75 100
ATOM    100  C   UNL A   1      45.932  30.441  29.552  1.00  0.00     0.058 A 
ATOM    101  C   UNL A   1      45.439  30.306  30.860  1.00  0.00     0.135 A 
ATOM    102  C   UNL A   1      45.465  31.524  28.791  1.00  0.00     0.135 A 
ATOM    103  F   UNL A   1      45.899  29.348  31.678  1.00  0.00    -0.206 F 
ATOM    104  C   UNL A   1      44.490  31.194  31.373  1.00  0.00     0.059 A 
ATOM    105  C   UNL A   1      44.549  32.438  29.294  1.00  0.00     0.059 A 
ATOM    106  F   UNL A   1      45.937  31.729  27.550  1.00  0.00    -0.206 F 
ATOM    107  C   UNL A   1      44.052  32.257  30.580  1.00  0.00     0.060 A 
BRANCH 107 108
ATOM    108  S   UNL A   1      42.868  33.442  31.254  1.00  0.00     0.124 S 
ATOM    109  O   UNL A   1      42.708  32.968  32.624  1.00  0.00    -0.237 OA
ATOM    110  O   UNL A   1      43.570  34.713  31.097  1.00  0.00    -0.237 OA
ATOM    111  O   UNL A   1      41.696  33.279  30.397  1.00  0.00    -0.744 OA
ENDBRANCH 107 108
ENDBRANCH  75 100
ENDBRANCH  49  50
ENDBRANCH  42  44
ENDBRANCH  41  42
ENDBRANCH  40  41
ENDBRANCH  39  40
ENDBRANCH  38  39
ENDBRANCH  37  38
ENDBRANCH  36  37
ENDBRANCH   1  36
TORSDOF 27
ENDMDL
