MODEL 1
REMARK VINA RESULT:     -10.0      0.000      0.000
REMARK SMILES CCCc1cc2c(cc1Cl)C=C(C(=O)OCCOCCOCCOCCOC(=O)c1ccc(-c3c4nc(c(-c5c(F)cc(S(=O)(=O)[O-])cc5F)c5ccc([nH]5)c(-c5c(F)cc(S(=O)(=O)[O-])cc5F)c5nc(c(-c6c(F)cc(S(=O)(=O)[O-])cc6F)c6ccc3[nH]6)C=C5)C=C4)cc1)[C@@H](C(F)(F)F)O2
REMARK SMILES IDX 22 1 21 2 20 3 19 4 18 5 17 6 16 7 15 8 13 9 14 10 12 11
REMARK SMILES IDX 4 12 5 13 9 14 6 15 8 16 10 17 7 18 101 19 11 20 96 21 3 22
REMARK SMILES IDX 2 23 1 24 97 25 98 26 99 27 100 28 23 29 24 30 25 31 26 32
REMARK SMILES IDX 27 33 28 34 29 35 30 36 31 37 95 38 32 39 94 40 33 41 34 42
REMARK SMILES IDX 35 43 88 44 36 45 93 46 87 47 89 48 37 49 92 50 86 51 85 52
REMARK SMILES IDX 38 54 72 55 51 56 71 57 52 58 55 59 70 60 90 61 53 62 54 63
REMARK SMILES IDX 69 65 91 66 56 67 39 68 40 69 49 70 41 71 42 72 48 73 50 74
REMARK SMILES IDX 43 75 44 76 45 77 46 78 47 79 73 80 74 81 83 82 75 83 76 84
REMARK SMILES IDX 82 85 84 86 77 87 78 88 79 89 80 90 81 91 57 92 58 93 67 94
REMARK SMILES IDX 59 95 60 96 66 97 68 98 61 99 62 100 63 101 64 102 65 103
REMARK H PARENT 89 53 55 64
REMARK Flexibility Score: inf
ROOT
ATOM      1  C   UNL A   1      35.647  22.497  25.818  1.00  0.00     0.188 C 
ENDROOT
BRANCH   1   2
ATOM      2  O   UNL A   1      35.113  21.561  26.754  1.00  0.00    -0.377 OA
BRANCH   2   3
ATOM      3  C   UNL A   1      33.835  21.009  26.502  1.00  0.00     0.188 C 
BRANCH   3   4
ATOM      4  C   UNL A   1      33.712  20.283  25.150  1.00  0.00     0.188 C 
BRANCH   4   5
ATOM      5  O   UNL A   1      32.410  20.361  24.574  1.00  0.00    -0.376 OA
BRANCH   5   6
ATOM      6  C   UNL A   1      32.330  20.810  23.226  1.00  0.00     0.202 C 
BRANCH   6   7
ATOM      7  C   UNL A   1      32.575  22.309  23.008  1.00  0.00     0.261 C 
BRANCH   7   8
ATOM      8  O   UNL A   1      31.670  23.167  23.717  1.00  0.00    -0.460 OA
BRANCH   8   9
ATOM      9  C   UNL A   1      32.205  24.134  24.486  1.00  0.00     0.338 C 
ATOM     10  O   UNL A   1      33.094  24.009  25.310  1.00  0.00    -0.246 OA
BRANCH   9  11
ATOM     11  C   UNL A   1      31.666  25.431  24.026  1.00  0.00     0.087 C 
ATOM     12  C   UNL A   1      28.741  29.176  22.443  1.00  0.00    -0.026 A 
ATOM     13  C   UNL A   1      30.129  28.987  22.550  1.00  0.00     0.052 A 
ATOM     14  C   UNL A   1      27.909  28.274  23.131  1.00  0.00     0.045 A 
ATOM     15  C   UNL A   1      30.656  27.847  23.157  1.00  0.00     0.128 A 
ATOM     16  C   UNL A   1      28.438  27.147  23.768  1.00  0.00     0.032 A 
ATOM     17  Cl  UNL A   1      26.193  28.490  23.202  1.00  0.00    -0.084 Cl
ATOM     18  C   UNL A   1      29.811  26.899  23.723  1.00  0.00     0.019 A 
ATOM     19  O   UNL A   1      32.016  27.737  23.135  1.00  0.00    -0.475 OA
ATOM     20  C   UNL A   1      30.357  25.645  24.209  1.00  0.00     0.027 C 
ATOM     21  C   UNL A   1      32.614  26.448  23.438  1.00  0.00     0.316 C 
BRANCH  12  22
ATOM     22  C   UNL A   1      28.149  30.288  21.600  1.00  0.00     0.037 C 
BRANCH  22  23
ATOM     23  C   UNL A   1      27.900  31.654  22.258  1.00  0.00     0.001 C 
ATOM     24  C   UNL A   1      28.118  31.667  23.767  1.00  0.00     0.004 C 
ENDBRANCH  22  23
ENDBRANCH  12  22
BRANCH  21  25
ATOM     25  C   UNL A   1      33.315  25.918  22.179  1.00  0.00     0.430 C 
ATOM     26  F   UNL A   1      33.815  26.931  21.435  1.00  0.00    -0.167 F 
ATOM     27  F   UNL A   1      34.344  25.098  22.488  1.00  0.00    -0.167 F 
ATOM     28  F   UNL A   1      32.459  25.220  21.396  1.00  0.00    -0.167 F 
ENDBRANCH  21  25
ENDBRANCH   9  11
ENDBRANCH   8   9
ENDBRANCH   7   8
ENDBRANCH   6   7
ENDBRANCH   5   6
ENDBRANCH   4   5
ENDBRANCH   3   4
ENDBRANCH   2   3
ENDBRANCH   1   2
BRANCH   1  29
ATOM     29  C   UNL A   1      37.145  22.524  25.428  1.00  0.00     0.188 C 
BRANCH  29  30
ATOM     30  O   UNL A   1      37.778  21.247  25.418  1.00  0.00    -0.376 OA
BRANCH  30  31
ATOM     31  C   UNL A   1      39.131  21.208  25.850  1.00  0.00     0.202 C 
BRANCH  31  32
ATOM     32  C   UNL A   1      39.722  19.797  25.885  1.00  0.00     0.261 C 
BRANCH  32  33
ATOM     33  O   UNL A   1      40.836  19.627  26.774  1.00  0.00    -0.460 OA
BRANCH  33  34
ATOM     34  C   UNL A   1      42.077  19.629  26.238  1.00  0.00     0.338 C 
ATOM     35  O   UNL A   1      42.589  18.759  25.555  1.00  0.00    -0.246 OA
BRANCH  34  36
ATOM     36  C   UNL A   1      42.637  20.976  26.463  1.00  0.00     0.060 A 
ATOM     37  C   UNL A   1      43.148  21.708  25.388  1.00  0.00     0.016 A 
ATOM     38  C   UNL A   1      42.709  21.479  27.768  1.00  0.00     0.016 A 
ATOM     39  C   UNL A   1      43.721  22.958  25.618  1.00  0.00     0.010 A 
ATOM     40  C   UNL A   1      43.294  22.726  27.997  1.00  0.00     0.010 A 
ATOM     41  C   UNL A   1      43.790  23.479  26.920  1.00  0.00    -0.014 A 
BRANCH  41  42
ATOM     42  C   UNL A   1      44.237  24.875  27.130  1.00  0.00     0.031 A 
ATOM     43  C   UNL A   1      43.300  25.945  27.602  1.00  0.00     0.074 A 
ATOM     44  C   UNL A   1      45.529  25.161  26.882  1.00  0.00     0.049 A 
ATOM     45  N   UNL A   1      43.558  27.202  27.859  1.00  0.00    -0.248 NA
ATOM     46  C   UNL A   1      41.899  25.558  27.814  1.00  0.00     0.031 C 
ATOM     47  C   UNL A   1      46.526  24.193  26.416  1.00  0.00     0.029 A 
ATOM     48  N   UNL A   1      46.225  26.335  26.986  1.00  0.00    -0.354 N 
ATOM     49  C   UNL A   1      42.358  27.758  28.285  1.00  0.00     0.074 A 
ATOM     50  C   UNL A   1      41.363  26.706  28.213  1.00  0.00     0.031 C 
ATOM     51  C   UNL A   1      47.708  24.813  26.283  1.00  0.00     0.029 A 
ATOM     52  C   UNL A   1      47.547  26.222  26.630  1.00  0.00     0.049 A 
ATOM     53  H   UNL A   1      45.817  27.180  27.286  1.00  0.00     0.167 HD
ATOM     54  C   UNL A   1      42.119  29.024  28.709  1.00  0.00     0.037 A 
ATOM     55  C   UNL A   1      48.521  27.149  26.585  1.00  0.00     0.037 A 
ATOM     56  C   UNL A   1      43.115  30.069  28.752  1.00  0.00     0.049 A 
ATOM     57  C   UNL A   1      48.213  28.558  27.002  1.00  0.00     0.074 A 
ATOM     58  C   UNL A   1      42.970  31.379  29.182  1.00  0.00     0.029 A 
ATOM     59  N   UNL A   1      44.435  29.933  28.343  1.00  0.00    -0.354 N 
ATOM     60  N   UNL A   1      47.082  29.060  27.437  1.00  0.00    -0.248 NA
ATOM     61  C   UNL A   1      49.316  29.524  26.930  1.00  0.00     0.031 C 
ATOM     62  C   UNL A   1      44.188  32.043  28.990  1.00  0.00     0.029 A 
ATOM     63  C   UNL A   1      45.107  31.138  28.487  1.00  0.00     0.049 A 
ATOM     64  H   UNL A   1      44.835  29.101  28.001  1.00  0.00     0.167 HD
ATOM     65  C   UNL A   1      47.341  30.398  27.706  1.00  0.00     0.074 A 
ATOM     66  C   UNL A   1      48.741  30.621  27.403  1.00  0.00     0.031 C 
ATOM     67  C   UNL A   1      46.495  31.356  28.162  1.00  0.00     0.037 A 
BRANCH  54  68
ATOM     68  C   UNL A   1      40.726  29.360  29.164  1.00  0.00     0.058 A 
ATOM     69  C   UNL A   1      40.414  29.500  30.525  1.00  0.00     0.135 A 
ATOM     70  C   UNL A   1      39.707  29.617  28.231  1.00  0.00     0.135 A 
ATOM     71  F   UNL A   1      41.347  29.256  31.461  1.00  0.00    -0.206 F 
ATOM     72  C   UNL A   1      39.141  29.868  30.948  1.00  0.00     0.059 A 
ATOM     73  C   UNL A   1      38.432  30.008  28.630  1.00  0.00     0.059 A 
ATOM     74  F   UNL A   1      39.950  29.498  26.916  1.00  0.00    -0.206 F 
ATOM     75  C   UNL A   1      38.156  30.124  29.992  1.00  0.00     0.060 A 
BRANCH  75  76
ATOM     76  S   UNL A   1      36.514  30.620  30.557  1.00  0.00     0.124 S 
ATOM     77  O   UNL A   1      36.823  31.817  31.333  1.00  0.00    -0.237 OA
ATOM     78  O   UNL A   1      35.807  30.843  29.301  1.00  0.00    -0.237 OA
ATOM     79  O   UNL A   1      36.060  29.471  31.334  1.00  0.00    -0.744 OA
ENDBRANCH  75  76
ENDBRANCH  54  68
BRANCH  55  80
ATOM     80  C   UNL A   1      49.884  26.757  26.147  1.00  0.00     0.058 A 
ATOM     81  C   UNL A   1      50.308  26.982  24.831  1.00  0.00     0.135 A 
ATOM     82  C   UNL A   1      50.799  26.184  27.045  1.00  0.00     0.135 A 
ATOM     83  F   UNL A   1      49.466  27.524  23.938  1.00  0.00    -0.206 F 
ATOM     84  C   UNL A   1      51.592  26.649  24.415  1.00  0.00     0.059 A 
ATOM     85  C   UNL A   1      52.096  25.863  26.659  1.00  0.00     0.059 A 
ATOM     86  F   UNL A   1      50.443  25.964  28.320  1.00  0.00    -0.206 F 
ATOM     87  C   UNL A   1      52.480  26.094  25.338  1.00  0.00     0.060 A 
BRANCH  87  88
ATOM     88  S   UNL A   1      54.164  25.723  24.801  1.00  0.00     0.124 S 
ATOM     89  O   UNL A   1      54.208  24.273  24.957  1.00  0.00    -0.237 OA
ATOM     90  O   UNL A   1      54.161  26.218  23.428  1.00  0.00    -0.237 OA
ATOM     91  O   UNL A   1      54.989  26.484  25.733  1.00  0.00    -0.744 OA
ENDBRANCH  87  88
ENDBRANCH  55  80
BRANCH  67  92
ATOM     92  C   UNL A   1      47.069  32.732  28.363  1.00  0.00     0.058 A 
ATOM     93  C   UNL A   1      47.055  33.692  27.339  1.00  0.00     0.135 A 
ATOM     94  C   UNL A   1      47.634  33.099  29.597  1.00  0.00     0.135 A 
ATOM     95  F   UNL A   1      46.534  33.390  26.139  1.00  0.00    -0.206 F 
ATOM     96  C   UNL A   1      47.615  34.953  27.516  1.00  0.00     0.059 A 
ATOM     97  C   UNL A   1      48.175  34.365  29.804  1.00  0.00     0.059 A 
ATOM     98  F   UNL A   1      47.666  32.223  30.614  1.00  0.00    -0.206 F 
ATOM     99  C   UNL A   1      48.177  35.278  28.752  1.00  0.00     0.060 A 
BRANCH  99 100
ATOM    100  S   UNL A   1      48.903  36.917  28.966  1.00  0.00     0.124 S 
ATOM    101  O   UNL A   1      50.165  36.776  28.247  1.00  0.00    -0.237 OA
ATOM    102  O   UNL A   1      47.910  37.784  28.339  1.00  0.00    -0.237 OA
ATOM    103  O   UNL A   1      49.018  37.052  30.415  1.00  0.00    -0.744 OA
ENDBRANCH  99 100
ENDBRANCH  67  92
ENDBRANCH  41  42
ENDBRANCH  34  36
ENDBRANCH  33  34
ENDBRANCH  32  33
ENDBRANCH  31  32
ENDBRANCH  30  31
ENDBRANCH  29  30
ENDBRANCH   1  29
TORSDOF 26
ENDMDL
MODEL 2
REMARK VINA RESULT:      -9.6      1.120      8.000
REMARK SMILES CCCc1cc2c(cc1Cl)C=C(C(=O)OCCOCCOCCOCCOC(=O)c1ccc(-c3c4nc(c(-c5c(F)cc(S(=O)(=O)[O-])cc5F)c5ccc([nH]5)c(-c5c(F)cc(S(=O)(=O)[O-])cc5F)c5nc(c(-c6c(F)cc(S(=O)(=O)[O-])cc6F)c6ccc3[nH]6)C=C5)C=C4)cc1)[C@@H](C(F)(F)F)O2
REMARK SMILES IDX 22 1 21 2 20 3 19 4 18 5 17 6 16 7 15 8 13 9 14 10 12 11
REMARK SMILES IDX 4 12 5 13 9 14 6 15 8 16 10 17 7 18 101 19 11 20 96 21 3 22
REMARK SMILES IDX 2 23 1 24 97 25 98 26 99 27 100 28 23 29 24 30 25 31 26 32
REMARK SMILES IDX 27 33 28 34 29 35 30 36 31 37 95 38 32 39 94 40 33 41 34 42
REMARK SMILES IDX 35 43 88 44 36 45 93 46 87 47 89 48 37 49 92 50 86 51 85 52
REMARK SMILES IDX 38 54 72 55 51 56 71 57 52 58 55 59 70 60 90 61 53 62 54 63
REMARK SMILES IDX 69 65 91 66 56 67 39 68 40 69 49 70 41 71 42 72 48 73 50 74
REMARK SMILES IDX 43 75 44 76 45 77 46 78 47 79 73 80 74 81 83 82 75 83 76 84
REMARK SMILES IDX 82 85 84 86 77 87 78 88 79 89 80 90 81 91 57 92 58 93 67 94
REMARK SMILES IDX 59 95 60 96 66 97 68 98 61 99 62 100 63 101 64 102 65 103
REMARK H PARENT 89 53 55 64
REMARK Flexibility Score: inf
ROOT
ATOM      1  C   UNL A   1      35.197  21.504  25.090  1.00  0.00     0.188 C 
ENDROOT
BRANCH   1   2
ATOM      2  O   UNL A   1      34.626  21.741  26.376  1.00  0.00    -0.377 OA
BRANCH   2   3
ATOM      3  C   UNL A   1      33.286  21.347  26.604  1.00  0.00     0.188 C 
BRANCH   3   4
ATOM      4  C   UNL A   1      32.839  20.119  25.791  1.00  0.00     0.188 C 
BRANCH   4   5
ATOM      5  O   UNL A   1      31.875  20.419  24.784  1.00  0.00    -0.376 OA
BRANCH   5   6
ATOM      6  C   UNL A   1      32.304  20.304  23.431  1.00  0.00     0.202 C 
BRANCH   6   7
ATOM      7  C   UNL A   1      32.183  21.577  22.583  1.00  0.00     0.261 C 
BRANCH   7   8
ATOM      8  O   UNL A   1      32.043  22.786  23.345  1.00  0.00    -0.460 OA
BRANCH   8   9
ATOM      9  C   UNL A   1      32.910  23.783  23.090  1.00  0.00     0.338 C 
ATOM     10  O   UNL A   1      33.953  23.707  22.463  1.00  0.00    -0.246 OA
BRANCH   9  11
ATOM     11  C   UNL A   1      32.292  25.048  23.536  1.00  0.00     0.087 C 
ATOM     12  C   UNL A   1      30.265  29.621  23.805  1.00  0.00    -0.026 A 
ATOM     13  C   UNL A   1      30.733  28.694  24.749  1.00  0.00     0.052 A 
ATOM     14  C   UNL A   1      30.052  29.159  22.493  1.00  0.00     0.045 A 
ATOM     15  C   UNL A   1      31.145  27.418  24.364  1.00  0.00     0.128 A 
ATOM     16  C   UNL A   1      30.435  27.869  22.111  1.00  0.00     0.032 A 
ATOM     17  Cl  UNL A   1      29.335  30.163  21.278  1.00  0.00    -0.084 Cl
ATOM     18  C   UNL A   1      31.044  27.019  23.036  1.00  0.00     0.019 A 
ATOM     19  O   UNL A   1      31.650  26.631  25.358  1.00  0.00    -0.475 OA
ATOM     20  C   UNL A   1      31.620  25.755  22.617  1.00  0.00     0.027 C 
ATOM     21  C   UNL A   1      32.398  25.440  24.990  1.00  0.00     0.316 C 
BRANCH  12  22
ATOM     22  C   UNL A   1      30.023  31.073  24.163  1.00  0.00     0.037 C 
BRANCH  22  23
ATOM     23  C   UNL A   1      28.643  31.682  23.865  1.00  0.00     0.001 C 
ATOM     24  C   UNL A   1      28.695  32.988  23.079  1.00  0.00     0.004 C 
ENDBRANCH  22  23
ENDBRANCH  12  22
BRANCH  21  25
ATOM     25  C   UNL A   1      33.858  25.615  25.431  1.00  0.00     0.430 C 
ATOM     26  F   UNL A   1      34.334  24.485  26.004  1.00  0.00    -0.167 F 
ATOM     27  F   UNL A   1      34.664  25.908  24.387  1.00  0.00    -0.167 F 
ATOM     28  F   UNL A   1      33.983  26.615  26.335  1.00  0.00    -0.167 F 
ENDBRANCH  21  25
ENDBRANCH   9  11
ENDBRANCH   8   9
ENDBRANCH   7   8
ENDBRANCH   6   7
ENDBRANCH   5   6
ENDBRANCH   4   5
ENDBRANCH   3   4
ENDBRANCH   2   3
ENDBRANCH   1   2
BRANCH   1  29
ATOM     29  C   UNL A   1      36.725  21.464  24.850  1.00  0.00     0.188 C 
BRANCH  29  30
ATOM     30  O   UNL A   1      37.396  20.372  25.473  1.00  0.00    -0.376 OA
BRANCH  30  31
ATOM     31  C   UNL A   1      38.416  19.740  24.714  1.00  0.00     0.202 C 
BRANCH  31  32
ATOM     32  C   UNL A   1      39.414  18.952  25.566  1.00  0.00     0.261 C 
BRANCH  32  33
ATOM     33  O   UNL A   1      40.276  19.752  26.388  1.00  0.00    -0.460 OA
BRANCH  33  34
ATOM     34  C   UNL A   1      41.611  19.590  26.248  1.00  0.00     0.338 C 
ATOM     35  O   UNL A   1      42.197  18.598  25.851  1.00  0.00    -0.246 OA
BRANCH  34  36
ATOM     36  C   UNL A   1      42.228  20.911  26.476  1.00  0.00     0.060 A 
ATOM     37  C   UNL A   1      42.551  21.727  25.390  1.00  0.00     0.016 A 
ATOM     38  C   UNL A   1      42.543  21.304  27.783  1.00  0.00     0.016 A 
ATOM     39  C   UNL A   1      43.180  22.952  25.612  1.00  0.00     0.010 A 
ATOM     40  C   UNL A   1      43.184  22.525  28.002  1.00  0.00     0.010 A 
ATOM     41  C   UNL A   1      43.492  23.363  26.918  1.00  0.00    -0.014 A 
BRANCH  41  42
ATOM     42  C   UNL A   1      43.996  24.735  27.155  1.00  0.00     0.031 A 
ATOM     43  C   UNL A   1      45.437  25.096  26.955  1.00  0.00     0.074 A 
ATOM     44  C   UNL A   1      43.110  25.664  27.560  1.00  0.00     0.049 A 
ATOM     45  N   UNL A   1      46.014  26.262  27.094  1.00  0.00    -0.248 NA
ATOM     46  C   UNL A   1      46.344  24.014  26.548  1.00  0.00     0.031 C 
ATOM     47  C   UNL A   1      41.684  25.418  27.787  1.00  0.00     0.029 A 
ATOM     48  N   UNL A   1      43.271  26.993  27.849  1.00  0.00    -0.354 N 
ATOM     49  C   UNL A   1      47.351  26.067  26.770  1.00  0.00     0.074 A 
ATOM     50  C   UNL A   1      47.504  24.657  26.467  1.00  0.00     0.031 C 
ATOM     51  C   UNL A   1      41.099  26.562  28.173  1.00  0.00     0.029 A 
ATOM     52  C   UNL A   1      42.110  27.613  28.242  1.00  0.00     0.049 A 
ATOM     53  H   UNL A   1      44.136  27.459  27.782  1.00  0.00     0.167 HD
ATOM     54  C   UNL A   1      48.349  26.984  26.720  1.00  0.00     0.037 A 
ATOM     55  C   UNL A   1      41.884  28.884  28.619  1.00  0.00     0.037 A 
ATOM     56  C   UNL A   1      48.187  28.380  27.049  1.00  0.00     0.049 A 
ATOM     57  C   UNL A   1      43.021  29.865  28.612  1.00  0.00     0.074 A 
ATOM     58  C   UNL A   1      49.137  29.389  27.011  1.00  0.00     0.029 A 
ATOM     59  N   UNL A   1      47.007  28.967  27.486  1.00  0.00    -0.354 N 
ATOM     60  N   UNL A   1      44.272  29.673  28.269  1.00  0.00    -0.248 NA
ATOM     61  C   UNL A   1      42.713  31.237  29.035  1.00  0.00     0.031 C 
ATOM     62  C   UNL A   1      48.543  30.572  27.468  1.00  0.00     0.029 A 
ATOM     63  C   UNL A   1      47.211  30.315  27.744  1.00  0.00     0.049 A 
ATOM     64  H   UNL A   1      46.151  28.495  27.596  1.00  0.00     0.167 HD
ATOM     65  C   UNL A   1      44.899  30.904  28.420  1.00  0.00     0.074 A 
ATOM     66  C   UNL A   1      43.883  31.837  28.866  1.00  0.00     0.031 C 
ATOM     67  C   UNL A   1      46.199  31.231  28.209  1.00  0.00     0.037 A 
BRANCH  54  68
ATOM     68  C   UNL A   1      49.712  26.514  26.292  1.00  0.00     0.058 A 
ATOM     69  C   UNL A   1      50.174  26.704  24.981  1.00  0.00     0.135 A 
ATOM     70  C   UNL A   1      50.595  25.933  27.218  1.00  0.00     0.135 A 
ATOM     71  F   UNL A   1      49.367  27.246  24.052  1.00  0.00    -0.206 F 
ATOM     72  C   UNL A   1      51.455  26.325  24.596  1.00  0.00     0.059 A 
ATOM     73  C   UNL A   1      51.890  25.566  26.862  1.00  0.00     0.059 A 
ATOM     74  F   UNL A   1      50.206  25.728  28.486  1.00  0.00    -0.206 F 
ATOM     75  C   UNL A   1      52.309  25.758  25.546  1.00  0.00     0.060 A 
BRANCH  75  76
ATOM     76  S   UNL A   1      53.976  25.290  25.035  1.00  0.00     0.124 S 
ATOM     77  O   UNL A   1      54.093  25.979  23.754  1.00  0.00    -0.237 OA
ATOM     78  O   UNL A   1      54.795  25.822  26.119  1.00  0.00    -0.237 OA
ATOM     79  O   UNL A   1      53.912  23.833  24.958  1.00  0.00    -0.744 OA
ENDBRANCH  75  76
ENDBRANCH  54  68
BRANCH  55  80
ATOM     80  C   UNL A   1      40.513  29.298  29.012  1.00  0.00     0.058 A 
ATOM     81  C   UNL A   1      40.188  29.516  30.357  1.00  0.00     0.135 A 
ATOM     82  C   UNL A   1      39.517  29.518  28.048  1.00  0.00     0.135 A 
ATOM     83  F   UNL A   1      41.107  29.315  31.312  1.00  0.00    -0.206 F 
ATOM     84  C   UNL A   1      38.917  29.934  30.737  1.00  0.00     0.059 A 
ATOM     85  C   UNL A   1      38.246  29.958  28.401  1.00  0.00     0.059 A 
ATOM     86  F   UNL A   1      39.788  29.337  26.746  1.00  0.00    -0.206 F 
ATOM     87  C   UNL A   1      37.954  30.157  29.750  1.00  0.00     0.060 A 
BRANCH  87  88
ATOM     88  S   UNL A   1      36.328  30.759  30.252  1.00  0.00     0.124 S 
ATOM     89  O   UNL A   1      36.579  32.187  30.407  1.00  0.00    -0.237 OA
ATOM     90  O   UNL A   1      35.498  30.376  29.113  1.00  0.00    -0.237 OA
ATOM     91  O   UNL A   1      36.064  30.026  31.486  1.00  0.00    -0.744 OA
ENDBRANCH  87  88
ENDBRANCH  55  80
BRANCH  67  92
ATOM     92  C   UNL A   1      46.588  32.663  28.456  1.00  0.00     0.058 A 
ATOM     93  C   UNL A   1      46.464  33.641  27.457  1.00  0.00     0.135 A 
ATOM     94  C   UNL A   1      47.086  33.065  29.707  1.00  0.00     0.135 A 
ATOM     95  F   UNL A   1      46.001  33.308  26.241  1.00  0.00    -0.206 F 
ATOM     96  C   UNL A   1      46.855  34.958  27.674  1.00  0.00     0.059 A 
ATOM     97  C   UNL A   1      47.456  34.384  29.955  1.00  0.00     0.059 A 
ATOM     98  F   UNL A   1      47.217  32.173  30.702  1.00  0.00    -0.206 F 
ATOM     99  C   UNL A   1      47.354  35.319  28.927  1.00  0.00     0.060 A 
BRANCH  99 100
ATOM    100  S   UNL A   1      47.860  37.031  29.195  1.00  0.00     0.124 S 
ATOM    101  O   UNL A   1      46.917  37.459  30.224  1.00  0.00    -0.237 OA
ATOM    102  O   UNL A   1      49.246  36.885  29.627  1.00  0.00    -0.237 OA
ATOM    103  O   UNL A   1      47.681  37.648  27.884  1.00  0.00    -0.744 OA
ENDBRANCH  99 100
ENDBRANCH  67  92
ENDBRANCH  41  42
ENDBRANCH  34  36
ENDBRANCH  33  34
ENDBRANCH  32  33
ENDBRANCH  31  32
ENDBRANCH  30  31
ENDBRANCH  29  30
ENDBRANCH   1  29
TORSDOF 26
ENDMDL
MODEL 3
REMARK VINA RESULT:      -9.5      6.503      8.918
REMARK SMILES CCCc1cc2c(cc1Cl)C=C(C(=O)OCCOCCOCCOCCOC(=O)c1ccc(-c3c4nc(c(-c5c(F)cc(S(=O)(=O)[O-])cc5F)c5ccc([nH]5)c(-c5c(F)cc(S(=O)(=O)[O-])cc5F)c5nc(c(-c6c(F)cc(S(=O)(=O)[O-])cc6F)c6ccc3[nH]6)C=C5)C=C4)cc1)[C@@H](C(F)(F)F)O2
REMARK SMILES IDX 22 1 21 2 20 3 19 4 18 5 17 6 16 7 15 8 13 9 14 10 12 11
REMARK SMILES IDX 4 12 5 13 9 14 6 15 8 16 10 17 7 18 101 19 11 20 96 21 3 22
REMARK SMILES IDX 2 23 1 24 97 25 98 26 99 27 100 28 23 29 24 30 25 31 26 32
REMARK SMILES IDX 27 33 28 34 29 35 30 36 31 37 95 38 32 39 94 40 33 41 34 42
REMARK SMILES IDX 35 43 88 44 36 45 93 46 87 47 89 48 37 49 92 50 86 51 85 52
REMARK SMILES IDX 38 54 72 55 51 56 71 57 52 58 55 59 70 60 90 61 53 62 54 63
REMARK SMILES IDX 69 65 91 66 56 67 39 68 40 69 49 70 41 71 42 72 48 73 50 74
REMARK SMILES IDX 43 75 44 76 45 77 46 78 47 79 73 80 74 81 83 82 75 83 76 84
REMARK SMILES IDX 82 85 84 86 77 87 78 88 79 89 80 90 81 91 57 92 58 93 67 94
REMARK SMILES IDX 59 95 60 96 66 97 68 98 61 99 62 100 63 101 64 102 65 103
REMARK H PARENT 89 53 55 64
REMARK Flexibility Score: inf
ROOT
ATOM      1  C   UNL A   1      35.599  23.342  23.231  1.00  0.00     0.188 C 
ENDROOT
BRANCH   1   2
ATOM      2  O   UNL A   1      34.281  23.856  23.417  1.00  0.00    -0.377 OA
BRANCH   2   3
ATOM      3  C   UNL A   1      33.857  24.939  22.610  1.00  0.00     0.188 C 
BRANCH   3   4
ATOM      4  C   UNL A   1      32.338  24.991  22.366  1.00  0.00     0.188 C 
BRANCH   4   5
ATOM      5  O   UNL A   1      31.920  26.115  21.593  1.00  0.00    -0.376 OA
BRANCH   5   6
ATOM      6  C   UNL A   1      32.410  27.389  21.998  1.00  0.00     0.202 C 
BRANCH   6   7
ATOM      7  C   UNL A   1      31.349  28.388  22.480  1.00  0.00     0.261 C 
BRANCH   7   8
ATOM      8  O   UNL A   1      31.859  29.435  23.318  1.00  0.00    -0.460 OA
BRANCH   8   9
ATOM      9  C   UNL A   1      31.587  29.365  24.634  1.00  0.00     0.338 C 
ATOM     10  O   UNL A   1      30.940  30.160  25.294  1.00  0.00    -0.246 OA
BRANCH   9  11
ATOM     11  C   UNL A   1      32.044  28.047  25.123  1.00  0.00     0.087 C 
ATOM     12  C   UNL A   1      32.357  23.444  27.072  1.00  0.00    -0.026 A 
ATOM     13  C   UNL A   1      33.294  24.416  26.685  1.00  0.00     0.052 A 
ATOM     14  C   UNL A   1      31.032  23.608  26.629  1.00  0.00     0.045 A 
ATOM     15  C   UNL A   1      32.893  25.589  26.046  1.00  0.00     0.128 A 
ATOM     16  C   UNL A   1      30.633  24.770  25.959  1.00  0.00     0.032 A 
ATOM     17  Cl  UNL A   1      29.821  22.403  26.910  1.00  0.00    -0.084 Cl
ATOM     18  C   UNL A   1      31.554  25.792  25.726  1.00  0.00     0.019 A 
ATOM     19  O   UNL A   1      33.882  26.493  25.786  1.00  0.00    -0.475 OA
ATOM     20  C   UNL A   1      31.124  27.077  25.209  1.00  0.00     0.027 C 
ATOM     21  C   UNL A   1      33.507  27.853  25.438  1.00  0.00     0.316 C 
BRANCH  12  22
ATOM     22  C   UNL A   1      32.738  22.274  27.957  1.00  0.00     0.037 C 
BRANCH  22  23
ATOM     23  C   UNL A   1      33.794  21.281  27.444  1.00  0.00     0.001 C 
ATOM     24  C   UNL A   1      33.496  20.716  26.059  1.00  0.00     0.004 C 
ENDBRANCH  22  23
ENDBRANCH  12  22
BRANCH  21  25
ATOM     25  C   UNL A   1      33.985  28.799  26.548  1.00  0.00     0.430 C 
ATOM     26  F   UNL A   1      34.049  30.077  26.107  1.00  0.00    -0.167 F 
ATOM     27  F   UNL A   1      33.154  28.780  27.613  1.00  0.00    -0.167 F 
ATOM     28  F   UNL A   1      35.220  28.458  26.988  1.00  0.00    -0.167 F 
ENDBRANCH  21  25
ENDBRANCH   9  11
ENDBRANCH   8   9
ENDBRANCH   7   8
ENDBRANCH   6   7
ENDBRANCH   5   6
ENDBRANCH   4   5
ENDBRANCH   3   4
ENDBRANCH   2   3
ENDBRANCH   1   2
BRANCH   1  29
ATOM     29  C   UNL A   1      36.276  22.395  24.250  1.00  0.00     0.188 C 
BRANCH  29  30
ATOM     30  O   UNL A   1      37.302  22.999  25.032  1.00  0.00    -0.376 OA
BRANCH  30  31
ATOM     31  C   UNL A   1      37.991  22.150  25.939  1.00  0.00     0.202 C 
BRANCH  31  32
ATOM     32  C   UNL A   1      39.392  22.650  26.302  1.00  0.00     0.261 C 
BRANCH  32  33
ATOM     33  O   UNL A   1      39.446  23.994  26.802  1.00  0.00    -0.460 OA
BRANCH  33  34
ATOM     34  C   UNL A   1      40.651  24.606  26.838  1.00  0.00     0.338 C 
ATOM     35  O   UNL A   1      41.584  24.447  26.069  1.00  0.00    -0.246 OA
BRANCH  34  36
ATOM     36  C   UNL A   1      40.566  25.658  27.870  1.00  0.00     0.060 A 
ATOM     37  C   UNL A   1      39.432  25.751  28.680  1.00  0.00     0.016 A 
ATOM     38  C   UNL A   1      41.602  26.594  27.981  1.00  0.00     0.016 A 
ATOM     39  C   UNL A   1      39.339  26.779  29.618  1.00  0.00     0.010 A 
ATOM     40  C   UNL A   1      41.500  27.630  28.912  1.00  0.00     0.010 A 
ATOM     41  C   UNL A   1      40.375  27.719  29.746  1.00  0.00    -0.014 A 
BRANCH  41  42
ATOM     42  C   UNL A   1      40.346  28.695  30.859  1.00  0.00     0.031 A 
ATOM     43  C   UNL A   1      39.408  29.864  30.864  1.00  0.00     0.074 A 
ATOM     44  C   UNL A   1      41.197  28.499  31.883  1.00  0.00     0.049 A 
ATOM     45  N   UNL A   1      39.250  30.781  31.784  1.00  0.00    -0.248 NA
ATOM     46  C   UNL A   1      38.538  30.024  29.692  1.00  0.00     0.031 C 
ATOM     47  C   UNL A   1      42.155  27.394  31.976  1.00  0.00     0.029 A 
ATOM     48  N   UNL A   1      41.397  29.214  33.034  1.00  0.00    -0.354 N 
ATOM     49  C   UNL A   1      38.246  31.620  31.318  1.00  0.00     0.074 A 
ATOM     50  C   UNL A   1      37.861  31.123  30.011  1.00  0.00     0.031 C 
ATOM     51  C   UNL A   1      42.834  27.500  33.129  1.00  0.00     0.029 A 
ATOM     52  C   UNL A   1      42.378  28.691  33.841  1.00  0.00     0.049 A 
ATOM     53  H   UNL A   1      40.887  30.025  33.261  1.00  0.00     0.167 HD
ATOM     54  C   UNL A   1      37.693  32.695  31.932  1.00  0.00     0.037 A 
ATOM     55  C   UNL A   1      42.860  29.122  35.021  1.00  0.00     0.037 A 
ATOM     56  C   UNL A   1      38.103  33.195  33.223  1.00  0.00     0.049 A 
ATOM     57  C   UNL A   1      42.270  30.350  35.650  1.00  0.00     0.074 A 
ATOM     58  C   UNL A   1      37.590  34.269  33.934  1.00  0.00     0.029 A 
ATOM     59  N   UNL A   1      39.131  32.668  33.994  1.00  0.00    -0.354 N 
ATOM     60  N   UNL A   1      41.296  31.113  35.213  1.00  0.00    -0.248 NA
ATOM     61  C   UNL A   1      42.838  30.772  36.936  1.00  0.00     0.031 C 
ATOM     62  C   UNL A   1      38.335  34.416  35.110  1.00  0.00     0.029 A 
ATOM     63  C   UNL A   1      39.282  33.407  35.159  1.00  0.00     0.049 A 
ATOM     64  H   UNL A   1      39.672  31.883  33.750  1.00  0.00     0.167 HD
ATOM     65  C   UNL A   1      41.124  32.097  36.178  1.00  0.00     0.074 A 
ATOM     66  C   UNL A   1      42.081  31.819  37.231  1.00  0.00     0.031 C 
ATOM     67  C   UNL A   1      40.253  33.137  36.190  1.00  0.00     0.037 A 
BRANCH  54  68
ATOM     68  C   UNL A   1      36.578  33.412  31.221  1.00  0.00     0.058 A 
ATOM     69  C   UNL A   1      36.816  34.168  30.063  1.00  0.00     0.135 A 
ATOM     70  C   UNL A   1      35.249  33.284  31.656  1.00  0.00     0.135 A 
ATOM     71  F   UNL A   1      38.070  34.332  29.609  1.00  0.00    -0.206 F 
ATOM     72  C   UNL A   1      35.781  34.784  29.369  1.00  0.00     0.059 A 
ATOM     73  C   UNL A   1      34.193  33.873  30.965  1.00  0.00     0.059 A 
ATOM     74  F   UNL A   1      34.963  32.573  32.758  1.00  0.00    -0.206 F 
ATOM     75  C   UNL A   1      34.470  34.629  29.825  1.00  0.00     0.060 A 
BRANCH  75  76
ATOM     76  S   UNL A   1      33.135  35.418  28.900  1.00  0.00     0.124 S 
ATOM     77  O   UNL A   1      32.292  35.922  29.980  1.00  0.00    -0.237 OA
ATOM     78  O   UNL A   1      33.848  36.429  28.127  1.00  0.00    -0.237 OA
ATOM     79  O   UNL A   1      32.566  34.323  28.121  1.00  0.00    -0.744 OA
ENDBRANCH  75  76
ENDBRANCH  54  68
BRANCH  55  80
ATOM     80  C   UNL A   1      43.948  28.362  35.687  1.00  0.00     0.058 A 
ATOM     81  C   UNL A   1      45.292  28.654  35.424  1.00  0.00     0.135 A 
ATOM     82  C   UNL A   1      43.663  27.358  36.627  1.00  0.00     0.135 A 
ATOM     83  F   UNL A   1      45.611  29.603  34.532  1.00  0.00    -0.206 F 
ATOM     84  C   UNL A   1      46.321  27.973  36.064  1.00  0.00     0.059 A 
ATOM     85  C   UNL A   1      44.674  26.679  37.297  1.00  0.00     0.059 A 
ATOM     86  F   UNL A   1      42.389  27.056  36.923  1.00  0.00    -0.206 F 
ATOM     87  C   UNL A   1      46.001  26.990  37.003  1.00  0.00     0.060 A 
BRANCH  87  88
ATOM     88  S   UNL A   1      47.347  26.157  37.873  1.00  0.00     0.124 S 
ATOM     89  O   UNL A   1      48.399  26.167  36.863  1.00  0.00    -0.237 OA
ATOM     90  O   UNL A   1      47.555  27.033  39.022  1.00  0.00    -0.237 OA
ATOM     91  O   UNL A   1      46.784  24.847  38.186  1.00  0.00    -0.744 OA
ENDBRANCH  87  88
ENDBRANCH  55  80
BRANCH  67  92
ATOM     92  C   UNL A   1      40.296  34.047  37.388  1.00  0.00     0.058 A 
ATOM     93  C   UNL A   1      41.145  35.163  37.432  1.00  0.00     0.135 A 
ATOM     94  C   UNL A   1      39.474  33.804  38.502  1.00  0.00     0.135 A 
ATOM     95  F   UNL A   1      41.956  35.436  36.397  1.00  0.00    -0.206 F 
ATOM     96  C   UNL A   1      41.208  35.986  38.552  1.00  0.00     0.059 A 
ATOM     97  C   UNL A   1      39.501  34.631  39.622  1.00  0.00     0.059 A 
ATOM     98  F   UNL A   1      38.636  32.756  38.510  1.00  0.00    -0.206 F 
ATOM     99  C   UNL A   1      40.384  35.709  39.645  1.00  0.00     0.060 A 
BRANCH  99 100
ATOM    100  S   UNL A   1      40.479  36.783  41.093  1.00  0.00     0.124 S 
ATOM    101  O   UNL A   1      41.137  37.963  40.541  1.00  0.00    -0.237 OA
ATOM    102  O   UNL A   1      39.074  36.950  41.451  1.00  0.00    -0.237 OA
ATOM    103  O   UNL A   1      41.273  36.007  42.041  1.00  0.00    -0.744 OA
ENDBRANCH  99 100
ENDBRANCH  67  92
ENDBRANCH  41  42
ENDBRANCH  34  36
ENDBRANCH  33  34
ENDBRANCH  32  33
ENDBRANCH  31  32
ENDBRANCH  30  31
ENDBRANCH  29  30
ENDBRANCH   1  29
TORSDOF 26
ENDMDL
