MODEL 1
REMARK VINA RESULT:      -8.9      0.000      0.000
REMARK SMILES CCOC(=O)c1c(-c2cccs2)csc1NC(=O)[C@@H]1CC=CC[C@@H]1C(=O)OCCOCCOCCOCCOC(=O)c1ccc(-c2c3nc(c(-c4c(F)cc(S(=O)(=O)[O-])cc4F)c4ccc([nH]4)c(-c4c(F)cc(S(=O)(=O)[O-])cc4F)c4nc(c(-c5c(F)cc(S(=O)(=O)[O-])cc5F)c5ccc2[nH]5)C=C4)C=C3)cc1
REMARK SMILES IDX 32 1 31 2 30 3 29 4 28 5 27 6 25 7 26 8 24 9 19 10 20 11
REMARK SMILES IDX 21 12 23 13 22 14 17 15 16 16 18 18 15 19 6 20 7 21 13 22
REMARK SMILES IDX 14 23 4 24 5 25 3 26 2 27 1 28 8 29 9 30 12 31 10 32 11 33
REMARK SMILES IDX 33 34 34 35 35 36 36 37 37 38 38 39 39 40 40 41 41 42 42 43
REMARK SMILES IDX 43 44 107 45 44 46 106 47 45 48 46 49 47 50 100 51 48 52
REMARK SMILES IDX 105 53 99 54 101 55 49 56 104 57 98 58 97 59 50 61 84 62
REMARK SMILES IDX 63 63 83 64 64 65 67 66 82 67 102 68 65 69 66 70 81 72
REMARK SMILES IDX 103 73 68 74 51 75 52 76 61 77 53 78 54 79 60 80 62 81 55 82
REMARK SMILES IDX 56 83 57 84 58 85 59 86 85 87 86 88 95 89 87 90 88 91 94 92
REMARK SMILES IDX 96 93 89 94 90 95 91 96 92 97 93 98 69 99 70 100 79 101
REMARK SMILES IDX 71 102 72 103 78 104 80 105 73 106 74 107 75 108 76 109
REMARK SMILES IDX 77 110
REMARK H PARENT 16 17 101 60 67 71
REMARK Flexibility Score: inf
ROOT
ATOM      1  C   UNL A   1      39.383  26.940  28.159  1.00  0.00     0.188 C 
ENDROOT
BRANCH   1   2
ATOM      2  C   UNL A   1      39.779  25.460  28.012  1.00  0.00     0.188 C 
BRANCH   2   3
ATOM      3  O   UNL A   1      38.810  24.456  27.720  1.00  0.00    -0.376 OA
BRANCH   3   4
ATOM      4  C   UNL A   1      38.542  24.082  26.379  1.00  0.00     0.202 C 
BRANCH   4   5
ATOM      5  C   UNL A   1      37.081  24.045  25.915  1.00  0.00     0.261 C 
BRANCH   5   6
ATOM      6  O   UNL A   1      36.277  22.962  26.415  1.00  0.00    -0.463 OA
BRANCH   6   7
ATOM      7  C   UNL A   1      35.010  22.893  25.930  1.00  0.00     0.310 C 
ATOM      8  O   UNL A   1      34.112  23.679  26.218  1.00  0.00    -0.252 OA
BRANCH   7   9
ATOM      9  C   UNL A   1      34.789  21.757  24.924  1.00  0.00     0.116 C 
ATOM     10  C   UNL A   1      33.940  22.063  23.647  1.00  0.00     0.097 C 
ATOM     11  C   UNL A   1      32.454  21.800  23.860  1.00  0.00     0.041 C 
ATOM     12  C   UNL A   1      32.127  20.592  24.687  1.00  0.00    -0.030 C 
ATOM     13  C   UNL A   1      34.415  20.460  25.664  1.00  0.00     0.043 C 
ATOM     14  C   UNL A   1      33.010  19.981  25.481  1.00  0.00    -0.030 C 
BRANCH  10  15
ATOM     15  C   UNL A   1      34.413  23.392  23.033  1.00  0.00     0.229 C 
ATOM     16  N   UNL A   1      33.701  24.477  22.668  1.00  0.00    -0.317 N 
ATOM     17  H   UNL A   1      34.210  24.998  22.006  1.00  0.00     0.170 HD
ATOM     18  O   UNL A   1      35.577  23.440  22.589  1.00  0.00    -0.274 OA
BRANCH  16  19
ATOM     19  C   UNL A   1      32.496  25.098  22.917  1.00  0.00     0.110 A 
ATOM     20  C   UNL A   1      32.315  26.480  22.956  1.00  0.00     0.103 A 
ATOM     21  C   UNL A   1      30.959  26.831  23.301  1.00  0.00     0.019 A 
ATOM     22  C   UNL A   1      30.223  25.715  23.636  1.00  0.00     0.077 A 
ATOM     23  S   UNL A   1      31.127  24.283  23.465  1.00  0.00    -0.125 S 
BRANCH  20  24
ATOM     24  C   UNL A   1      33.426  27.396  22.731  1.00  0.00     0.341 C 
ATOM     25  O   UNL A   1      33.774  27.754  21.610  1.00  0.00    -0.246 OA
BRANCH  24  26
ATOM     26  O   UNL A   1      34.097  27.678  23.879  1.00  0.00    -0.462 OA
BRANCH  26  27
ATOM     27  C   UNL A   1      33.427  27.365  25.106  1.00  0.00     0.230 C 
ATOM     28  C   UNL A   1      34.251  27.806  26.302  1.00  0.00     0.049 C 
ENDBRANCH  26  27
ENDBRANCH  24  26
ENDBRANCH  20  24
BRANCH  21  29
ATOM     29  C   UNL A   1      30.352  28.212  23.316  1.00  0.00     0.036 A 
ATOM     30  C   UNL A   1      29.384  28.649  22.434  1.00  0.00     0.020 A 
ATOM     31  S   UNL A   1      30.807  29.453  24.405  1.00  0.00    -0.144 S 
ATOM     32  C   UNL A   1      28.967  29.988  22.706  1.00  0.00     0.012 A 
ATOM     33  C   UNL A   1      29.668  30.543  23.752  1.00  0.00     0.065 A 
ENDBRANCH  21  29
ENDBRANCH  16  19
ENDBRANCH  10  15
ENDBRANCH   7   9
ENDBRANCH   6   7
ENDBRANCH   5   6
ENDBRANCH   4   5
ENDBRANCH   3   4
ENDBRANCH   2   3
ENDBRANCH   1   2
BRANCH   1  34
ATOM     34  O   UNL A   1      39.936  27.807  27.191  1.00  0.00    -0.377 OA
BRANCH  34  35
ATOM     35  C   UNL A   1      41.311  27.645  26.888  1.00  0.00     0.188 C 
BRANCH  35  36
ATOM     36  C   UNL A   1      41.779  28.099  25.500  1.00  0.00     0.188 C 
BRANCH  36  37
ATOM     37  O   UNL A   1      42.766  27.240  24.925  1.00  0.00    -0.376 OA
BRANCH  37  38
ATOM     38  C   UNL A   1      42.691  25.856  25.246  1.00  0.00     0.202 C 
BRANCH  38  39
ATOM     39  C   UNL A   1      44.049  25.179  25.491  1.00  0.00     0.261 C 
BRANCH  39  40
ATOM     40  O   UNL A   1      44.326  24.827  26.856  1.00  0.00    -0.460 OA
BRANCH  40  41
ATOM     41  C   UNL A   1      45.206  25.606  27.521  1.00  0.00     0.338 C 
ATOM     42  O   UNL A   1      46.416  25.615  27.399  1.00  0.00    -0.246 OA
BRANCH  41  43
ATOM     43  C   UNL A   1      44.447  26.603  28.301  1.00  0.00     0.060 A 
ATOM     44  C   UNL A   1      44.756  27.955  28.120  1.00  0.00     0.016 A 
ATOM     45  C   UNL A   1      43.476  26.207  29.225  1.00  0.00     0.016 A 
ATOM     46  C   UNL A   1      44.150  28.916  28.924  1.00  0.00     0.010 A 
ATOM     47  C   UNL A   1      42.880  27.170  30.043  1.00  0.00     0.010 A 
ATOM     48  C   UNL A   1      43.260  28.519  29.931  1.00  0.00    -0.014 A 
BRANCH  48  49
ATOM     49  C   UNL A   1      42.960  29.474  31.022  1.00  0.00     0.031 A 
ATOM     50  C   UNL A   1      41.689  30.275  30.923  1.00  0.00     0.074 A 
ATOM     51  C   UNL A   1      43.758  29.587  32.098  1.00  0.00     0.049 A 
ATOM     52  N   UNL A   1      41.174  31.127  31.769  1.00  0.00    -0.248 NA
ATOM     53  C   UNL A   1      40.891  30.083  29.700  1.00  0.00     0.031 C 
ATOM     54  C   UNL A   1      45.002  28.852  32.310  1.00  0.00     0.029 A 
ATOM     55  N   UNL A   1      43.629  30.370  33.217  1.00  0.00    -0.354 N 
ATOM     56  C   UNL A   1      39.987  31.560  31.189  1.00  0.00     0.074 A 
ATOM     57  C   UNL A   1      39.883  30.917  29.898  1.00  0.00     0.031 C 
ATOM     58  C   UNL A   1      45.533  29.231  33.486  1.00  0.00     0.029 A 
ATOM     59  C   UNL A   1      44.671  30.239  34.102  1.00  0.00     0.049 A 
ATOM     60  H   UNL A   1      42.863  30.970  33.370  1.00  0.00     0.167 HD
ATOM     61  C   UNL A   1      39.055  32.404  31.693  1.00  0.00     0.037 A 
ATOM     62  C   UNL A   1      44.900  30.869  35.272  1.00  0.00     0.037 A 
ATOM     63  C   UNL A   1      39.176  33.062  32.966  1.00  0.00     0.049 A 
ATOM     64  C   UNL A   1      43.873  31.839  35.799  1.00  0.00     0.074 A 
ATOM     65  C   UNL A   1      38.301  33.948  33.566  1.00  0.00     0.029 A 
ATOM     66  N   UNL A   1      40.249  32.909  33.831  1.00  0.00    -0.354 N 
ATOM     67  N   UNL A   1      42.740  32.219  35.255  1.00  0.00    -0.248 NA
ATOM     68  C   UNL A   1      44.145  32.449  37.107  1.00  0.00     0.031 C 
ATOM     69  C   UNL A   1      38.864  34.362  34.779  1.00  0.00     0.029 A 
ATOM     70  C   UNL A   1      40.067  33.695  34.956  1.00  0.00     0.049 A 
ATOM     71  H   UNL A   1      41.026  32.326  33.670  1.00  0.00     0.167 HD
ATOM     72  C   UNL A   1      42.153  33.094  36.164  1.00  0.00     0.074 A 
ATOM     73  C   UNL A   1      43.053  33.177  37.298  1.00  0.00     0.031 C 
ATOM     74  C   UNL A   1      40.977  33.764  36.073  1.00  0.00     0.037 A 
BRANCH  61  75
ATOM     75  C   UNL A   1      37.848  32.671  30.839  1.00  0.00     0.058 A 
ATOM     76  C   UNL A   1      37.847  33.683  29.863  1.00  0.00     0.135 A 
ATOM     77  C   UNL A   1      36.667  31.936  31.019  1.00  0.00     0.135 A 
ATOM     78  F   UNL A   1      38.944  34.432  29.666  1.00  0.00    -0.206 F 
ATOM     79  C   UNL A   1      36.706  33.983  29.126  1.00  0.00     0.059 A 
ATOM     80  C   UNL A   1      35.522  32.201  30.274  1.00  0.00     0.059 A 
ATOM     81  F   UNL A   1      36.611  30.963  31.942  1.00  0.00    -0.206 F 
ATOM     82  C   UNL A   1      35.545  33.241  29.347  1.00  0.00     0.060 A 
BRANCH  82  83
ATOM     83  S   UNL A   1      34.058  33.665  28.414  1.00  0.00     0.124 S 
ATOM     84  O   UNL A   1      33.654  32.359  27.904  1.00  0.00    -0.237 OA
ATOM     85  O   UNL A   1      33.196  34.240  29.441  1.00  0.00    -0.237 OA
ATOM     86  O   UNL A   1      34.545  34.607  27.411  1.00  0.00    -0.744 OA
ENDBRANCH  82  83
ENDBRANCH  61  75
BRANCH  62  87
ATOM     87  C   UNL A   1      46.154  30.592  36.020  1.00  0.00     0.058 A 
ATOM     88  C   UNL A   1      46.232  29.561  36.966  1.00  0.00     0.135 A 
ATOM     89  C   UNL A   1      47.315  31.342  35.774  1.00  0.00     0.135 A 
ATOM     90  F   UNL A   1      45.146  28.823  37.243  1.00  0.00    -0.206 F 
ATOM     91  C   UNL A   1      47.413  29.283  37.646  1.00  0.00     0.059 A 
ATOM     92  C   UNL A   1      48.513  31.070  36.424  1.00  0.00     0.059 A 
ATOM     93  F   UNL A   1      47.296  32.334  34.869  1.00  0.00    -0.206 F 
ATOM     94  C   UNL A   1      48.552  30.041  37.363  1.00  0.00     0.060 A 
BRANCH  94  95
ATOM     95  S   UNL A   1      50.102  29.626  38.192  1.00  0.00     0.124 S 
ATOM     96  O   UNL A   1      50.887  29.079  37.093  1.00  0.00    -0.237 OA
ATOM     97  O   UNL A   1      50.533  30.924  38.704  1.00  0.00    -0.237 OA
ATOM     98  O   UNL A   1      49.689  28.666  39.213  1.00  0.00    -0.744 OA
ENDBRANCH  94  95
ENDBRANCH  62  87
BRANCH  74  99
ATOM     99  C   UNL A   1      40.578  34.623  37.242  1.00  0.00     0.058 A 
ATOM    100  C   UNL A   1      40.944  35.975  37.324  1.00  0.00     0.135 A 
ATOM    101  C   UNL A   1      39.781  34.094  38.271  1.00  0.00     0.135 A 
ATOM    102  F   UNL A   1      41.706  36.529  36.369  1.00  0.00    -0.206 F 
ATOM    103  C   UNL A   1      40.559  36.766  38.403  1.00  0.00     0.059 A 
ATOM    104  C   UNL A   1      39.363  34.873  39.344  1.00  0.00     0.059 A 
ATOM    105  F   UNL A   1      39.390  32.810  38.232  1.00  0.00    -0.206 F 
ATOM    106  C   UNL A   1      39.771  36.206  39.410  1.00  0.00     0.060 A 
BRANCH 106 107
ATOM    107  S   UNL A   1      39.266  37.244  40.797  1.00  0.00     0.124 S 
ATOM    108  O   UNL A   1      40.545  37.802  41.224  1.00  0.00    -0.237 OA
ATOM    109  O   UNL A   1      38.343  38.183  40.168  1.00  0.00    -0.237 OA
ATOM    110  O   UNL A   1      38.652  36.298  41.723  1.00  0.00    -0.744 OA
ENDBRANCH 106 107
ENDBRANCH  74  99
ENDBRANCH  48  49
ENDBRANCH  41  43
ENDBRANCH  40  41
ENDBRANCH  39  40
ENDBRANCH  38  39
ENDBRANCH  37  38
ENDBRANCH  36  37
ENDBRANCH  35  36
ENDBRANCH  34  35
ENDBRANCH   1  34
TORSDOF 29
ENDMDL
MODEL 2
REMARK VINA RESULT:      -8.8      7.384     12.169
REMARK SMILES CCOC(=O)c1c(-c2cccs2)csc1NC(=O)[C@@H]1CC=CC[C@@H]1C(=O)OCCOCCOCCOCCOC(=O)c1ccc(-c2c3nc(c(-c4c(F)cc(S(=O)(=O)[O-])cc4F)c4ccc([nH]4)c(-c4c(F)cc(S(=O)(=O)[O-])cc4F)c4nc(c(-c5c(F)cc(S(=O)(=O)[O-])cc5F)c5ccc2[nH]5)C=C4)C=C3)cc1
REMARK SMILES IDX 32 1 31 2 30 3 29 4 28 5 27 6 25 7 26 8 24 9 19 10 20 11
REMARK SMILES IDX 21 12 23 13 22 14 17 15 16 16 18 18 15 19 6 20 7 21 13 22
REMARK SMILES IDX 14 23 4 24 5 25 3 26 2 27 1 28 8 29 9 30 12 31 10 32 11 33
REMARK SMILES IDX 33 34 34 35 35 36 36 37 37 38 38 39 39 40 40 41 41 42 42 43
REMARK SMILES IDX 43 44 107 45 44 46 106 47 45 48 46 49 47 50 100 51 48 52
REMARK SMILES IDX 105 53 99 54 101 55 49 56 104 57 98 58 97 59 50 61 84 62
REMARK SMILES IDX 63 63 83 64 64 65 67 66 82 67 102 68 65 69 66 70 81 72
REMARK SMILES IDX 103 73 68 74 51 75 52 76 61 77 53 78 54 79 60 80 62 81 55 82
REMARK SMILES IDX 56 83 57 84 58 85 59 86 85 87 86 88 95 89 87 90 88 91 94 92
REMARK SMILES IDX 96 93 89 94 90 95 91 96 92 97 93 98 69 99 70 100 79 101
REMARK SMILES IDX 71 102 72 103 78 104 80 105 73 106 74 107 75 108 76 109
REMARK SMILES IDX 77 110
REMARK H PARENT 16 17 101 60 67 71
REMARK Flexibility Score: inf
ROOT
ATOM      1  C   UNL A   1      39.729  26.816  27.848  1.00  0.00     0.188 C 
ENDROOT
BRANCH   1   2
ATOM      2  C   UNL A   1      39.699  25.325  28.228  1.00  0.00     0.188 C 
BRANCH   2   3
ATOM      3  O   UNL A   1      38.664  24.460  27.765  1.00  0.00    -0.376 OA
BRANCH   3   4
ATOM      4  C   UNL A   1      38.740  23.873  26.476  1.00  0.00     0.202 C 
BRANCH   4   5
ATOM      5  C   UNL A   1      37.465  23.827  25.625  1.00  0.00     0.261 C 
BRANCH   5   6
ATOM      6  O   UNL A   1      36.810  22.550  25.521  1.00  0.00    -0.463 OA
BRANCH   6   7
ATOM      7  C   UNL A   1      35.456  22.571  25.617  1.00  0.00     0.310 C 
ATOM      8  O   UNL A   1      34.826  23.250  26.423  1.00  0.00    -0.252 OA
BRANCH   7   9
ATOM      9  C   UNL A   1      34.744  21.697  24.578  1.00  0.00     0.116 C 
ATOM     10  C   UNL A   1      33.625  22.355  23.706  1.00  0.00     0.097 C 
ATOM     11  C   UNL A   1      32.247  22.242  24.348  1.00  0.00     0.041 C 
ATOM     12  C   UNL A   1      31.966  20.943  25.043  1.00  0.00    -0.030 C 
ATOM     13  C   UNL A   1      34.378  20.334  25.193  1.00  0.00     0.043 C 
ATOM     14  C   UNL A   1      32.920  20.080  25.406  1.00  0.00    -0.030 C 
BRANCH  10  15
ATOM     15  C   UNL A   1      34.127  23.712  23.182  1.00  0.00     0.229 C 
ATOM     16  N   UNL A   1      33.432  24.805  22.809  1.00  0.00    -0.317 N 
ATOM     17  H   UNL A   1      33.983  25.356  22.206  1.00  0.00     0.170 HD
ATOM     18  O   UNL A   1      35.320  23.786  22.826  1.00  0.00    -0.274 OA
BRANCH  16  19
ATOM     19  C   UNL A   1      32.207  25.407  22.993  1.00  0.00     0.110 A 
ATOM     20  C   UNL A   1      32.016  26.781  23.132  1.00  0.00     0.103 A 
ATOM     21  C   UNL A   1      30.632  27.107  23.374  1.00  0.00     0.019 A 
ATOM     22  C   UNL A   1      29.873  25.968  23.541  1.00  0.00     0.077 A 
ATOM     23  S   UNL A   1      30.796  24.553  23.336  1.00  0.00    -0.125 S 
BRANCH  20  24
ATOM     24  C   UNL A   1      33.139  27.709  23.094  1.00  0.00     0.341 C 
ATOM     25  O   UNL A   1      33.300  28.520  22.187  1.00  0.00    -0.246 OA
BRANCH  24  26
ATOM     26  O   UNL A   1      34.036  27.468  24.086  1.00  0.00    -0.462 OA
BRANCH  26  27
ATOM     27  C   UNL A   1      33.792  28.115  25.341  1.00  0.00     0.230 C 
ATOM     28  C   UNL A   1      33.279  27.125  26.371  1.00  0.00     0.049 C 
ENDBRANCH  26  27
ENDBRANCH  24  26
ENDBRANCH  20  24
BRANCH  21  29
ATOM     29  C   UNL A   1      30.020  28.483  23.449  1.00  0.00     0.036 A 
ATOM     30  C   UNL A   1      30.558  29.539  24.158  1.00  0.00     0.020 A 
ATOM     31  S   UNL A   1      28.543  28.924  22.703  1.00  0.00    -0.144 S 
ATOM     32  C   UNL A   1      29.786  30.733  24.021  1.00  0.00     0.012 A 
ATOM     33  C   UNL A   1      28.659  30.533  23.258  1.00  0.00     0.065 A 
ENDBRANCH  21  29
ENDBRANCH  16  19
ENDBRANCH  10  15
ENDBRANCH   7   9
ENDBRANCH   6   7
ENDBRANCH   5   6
ENDBRANCH   4   5
ENDBRANCH   3   4
ENDBRANCH   2   3
ENDBRANCH   1   2
BRANCH   1  34
ATOM     34  O   UNL A   1      40.679  27.163  26.862  1.00  0.00    -0.377 OA
BRANCH  34  35
ATOM     35  C   UNL A   1      41.812  26.322  26.731  1.00  0.00     0.188 C 
BRANCH  35  36
ATOM     36  C   UNL A   1      42.261  25.973  25.307  1.00  0.00     0.188 C 
BRANCH  36  37
ATOM     37  O   UNL A   1      42.680  24.613  25.162  1.00  0.00    -0.376 OA
BRANCH  37  38
ATOM     38  C   UNL A   1      42.551  23.768  26.299  1.00  0.00     0.202 C 
BRANCH  38  39
ATOM     39  C   UNL A   1      43.485  22.547  26.300  1.00  0.00     0.261 C 
BRANCH  39  40
ATOM     40  O   UNL A   1      44.696  22.695  27.059  1.00  0.00    -0.460 OA
BRANCH  40  41
ATOM     41  C   UNL A   1      45.822  22.964  26.364  1.00  0.00     0.338 C 
ATOM     42  O   UNL A   1      46.440  22.202  25.645  1.00  0.00    -0.246 OA
BRANCH  41  43
ATOM     43  C   UNL A   1      46.093  24.411  26.460  1.00  0.00     0.060 A 
ATOM     44  C   UNL A   1      46.047  25.169  25.285  1.00  0.00     0.016 A 
ATOM     45  C   UNL A   1      46.428  25.002  27.682  1.00  0.00     0.016 A 
ATOM     46  C   UNL A   1      46.416  26.511  25.314  1.00  0.00     0.010 A 
ATOM     47  C   UNL A   1      46.814  26.345  27.707  1.00  0.00     0.010 A 
ATOM     48  C   UNL A   1      46.863  27.083  26.513  1.00  0.00    -0.014 A 
BRANCH  48  49
ATOM     49  C   UNL A   1      47.633  28.347  26.446  1.00  0.00     0.031 A 
ATOM     50  C   UNL A   1      49.120  28.251  26.226  1.00  0.00     0.074 A 
ATOM     51  C   UNL A   1      47.029  29.545  26.517  1.00  0.00     0.049 A 
ATOM     52  N   UNL A   1      50.002  29.202  26.073  1.00  0.00    -0.248 NA
ATOM     53  C   UNL A   1      49.684  26.891  26.170  1.00  0.00     0.031 C 
ATOM     54  C   UNL A   1      45.597  29.760  26.711  1.00  0.00     0.029 A 
ATOM     55  N   UNL A   1      47.555  30.808  26.433  1.00  0.00    -0.354 N 
ATOM     56  C   UNL A   1      51.220  28.558  25.887  1.00  0.00     0.074 A 
ATOM     57  C   UNL A   1      50.973  27.137  25.998  1.00  0.00     0.031 C 
ATOM     58  C   UNL A   1      45.359  31.084  26.745  1.00  0.00     0.029 A 
ATOM     59  C   UNL A   1      46.622  31.804  26.584  1.00  0.00     0.049 A 
ATOM     60  H   UNL A   1      48.512  30.984  26.278  1.00  0.00     0.167 HD
ATOM     61  C   UNL A   1      52.434  29.098  25.629  1.00  0.00     0.037 A 
ATOM     62  C   UNL A   1      46.776  33.143  26.597  1.00  0.00     0.037 A 
ATOM     63  C   UNL A   1      52.680  30.512  25.546  1.00  0.00     0.049 A 
ATOM     64  C   UNL A   1      48.143  33.729  26.350  1.00  0.00     0.074 A 
ATOM     65  C   UNL A   1      53.874  31.169  25.306  1.00  0.00     0.029 A 
ATOM     66  N   UNL A   1      51.710  31.490  25.712  1.00  0.00    -0.354 N 
ATOM     67  N   UNL A   1      49.283  33.110  26.148  1.00  0.00    -0.248 NA
ATOM     68  C   UNL A   1      48.241  35.195  26.313  1.00  0.00     0.031 C 
ATOM     69  C   UNL A   1      53.631  32.546  25.365  1.00  0.00     0.029 A 
ATOM     70  C   UNL A   1      52.278  32.747  25.593  1.00  0.00     0.049 A 
ATOM     71  H   UNL A   1      50.757  31.316  25.888  1.00  0.00     0.167 HD
ATOM     72  C   UNL A   1      50.229  34.108  25.936  1.00  0.00     0.074 A 
ATOM     73  C   UNL A   1      49.523  35.372  26.025  1.00  0.00     0.031 C 
ATOM     74  C   UNL A   1      51.557  33.992  25.687  1.00  0.00     0.037 A 
BRANCH  61  75
ATOM     75  C   UNL A   1      53.580  28.141  25.449  1.00  0.00     0.058 A 
ATOM     76  C   UNL A   1      54.305  27.649  26.548  1.00  0.00     0.135 A 
ATOM     77  C   UNL A   1      53.981  27.738  24.167  1.00  0.00     0.135 A 
ATOM     78  F   UNL A   1      53.979  28.022  27.795  1.00  0.00    -0.206 F 
ATOM     79  C   UNL A   1      55.414  26.826  26.378  1.00  0.00     0.059 A 
ATOM     80  C   UNL A   1      55.070  26.893  23.975  1.00  0.00     0.059 A 
ATOM     81  F   UNL A   1      53.327  28.184  23.083  1.00  0.00    -0.206 F 
ATOM     82  C   UNL A   1      55.793  26.461  25.085  1.00  0.00     0.060 A 
BRANCH  82  83
ATOM     83  S   UNL A   1      57.257  25.425  24.874  1.00  0.00     0.124 S 
ATOM     84  O   UNL A   1      56.711  24.097  25.135  1.00  0.00    -0.237 OA
ATOM     85  O   UNL A   1      57.636  25.695  23.491  1.00  0.00    -0.237 OA
ATOM     86  O   UNL A   1      58.180  25.933  25.884  1.00  0.00    -0.744 OA
ENDBRANCH  82  83
ENDBRANCH  61  75
BRANCH  62  87
ATOM     87  C   UNL A   1      45.598  34.014  26.847  1.00  0.00     0.058 A 
ATOM     88  C   UNL A   1      44.621  34.229  25.864  1.00  0.00     0.135 A 
ATOM     89  C   UNL A   1      45.412  34.626  28.097  1.00  0.00     0.135 A 
ATOM     90  F   UNL A   1      44.759  33.674  24.650  1.00  0.00    -0.206 F 
ATOM     91  C   UNL A   1      43.504  35.021  26.108  1.00  0.00     0.059 A 
ATOM     92  C   UNL A   1      44.293  35.404  28.372  1.00  0.00     0.059 A 
ATOM     93  F   UNL A   1      46.313  34.443  29.076  1.00  0.00    -0.206 F 
ATOM     94  C   UNL A   1      43.346  35.600  27.369  1.00  0.00     0.060 A 
BRANCH  94  95
ATOM     95  S   UNL A   1      41.855  36.564  27.703  1.00  0.00     0.124 S 
ATOM     96  O   UNL A   1      40.812  35.561  27.536  1.00  0.00    -0.237 OA
ATOM     97  O   UNL A   1      42.087  37.024  29.070  1.00  0.00    -0.237 OA
ATOM     98  O   UNL A   1      41.897  37.609  26.684  1.00  0.00    -0.744 OA
ENDBRANCH  94  95
ENDBRANCH  62  87
BRANCH  74  99
ATOM     99  C   UNL A   1      52.332  35.262  25.462  1.00  0.00     0.058 A 
ATOM    100  C   UNL A   1      52.890  35.986  26.527  1.00  0.00     0.135 A 
ATOM    101  C   UNL A   1      52.556  35.734  24.158  1.00  0.00     0.135 A 
ATOM    102  F   UNL A   1      52.705  35.579  27.792  1.00  0.00    -0.206 F 
ATOM    103  C   UNL A   1      53.616  37.152  26.309  1.00  0.00     0.059 A 
ATOM    104  C   UNL A   1      53.302  36.883  23.915  1.00  0.00     0.059 A 
ATOM    105  F   UNL A   1      52.058  35.070  23.103  1.00  0.00    -0.206 F 
ATOM    106  C   UNL A   1      53.815  37.595  24.999  1.00  0.00     0.060 A 
BRANCH 106 107
ATOM    107  S   UNL A   1      54.772  39.102  24.727  1.00  0.00     0.124 S 
ATOM    108  O   UNL A   1      54.359  39.469  23.377  1.00  0.00    -0.237 OA
ATOM    109  O   UNL A   1      54.294  39.975  25.795  1.00  0.00    -0.237 OA
ATOM    110  O   UNL A   1      56.154  38.655  24.863  1.00  0.00    -0.744 OA
ENDBRANCH 106 107
ENDBRANCH  74  99
ENDBRANCH  48  49
ENDBRANCH  41  43
ENDBRANCH  40  41
ENDBRANCH  39  40
ENDBRANCH  38  39
ENDBRANCH  37  38
ENDBRANCH  36  37
ENDBRANCH  35  36
ENDBRANCH  34  35
ENDBRANCH   1  34
TORSDOF 29
ENDMDL
MODEL 3
REMARK VINA RESULT:      -8.5      5.282      8.417
REMARK SMILES CCOC(=O)c1c(-c2cccs2)csc1NC(=O)[C@@H]1CC=CC[C@@H]1C(=O)OCCOCCOCCOCCOC(=O)c1ccc(-c2c3nc(c(-c4c(F)cc(S(=O)(=O)[O-])cc4F)c4ccc([nH]4)c(-c4c(F)cc(S(=O)(=O)[O-])cc4F)c4nc(c(-c5c(F)cc(S(=O)(=O)[O-])cc5F)c5ccc2[nH]5)C=C4)C=C3)cc1
REMARK SMILES IDX 32 1 31 2 30 3 29 4 28 5 27 6 25 7 26 8 24 9 19 10 20 11
REMARK SMILES IDX 21 12 23 13 22 14 17 15 16 16 18 18 15 19 6 20 7 21 13 22
REMARK SMILES IDX 14 23 4 24 5 25 3 26 2 27 1 28 8 29 9 30 12 31 10 32 11 33
REMARK SMILES IDX 33 34 34 35 35 36 36 37 37 38 38 39 39 40 40 41 41 42 42 43
REMARK SMILES IDX 43 44 107 45 44 46 106 47 45 48 46 49 47 50 100 51 48 52
REMARK SMILES IDX 105 53 99 54 101 55 49 56 104 57 98 58 97 59 50 61 84 62
REMARK SMILES IDX 63 63 83 64 64 65 67 66 82 67 102 68 65 69 66 70 81 72
REMARK SMILES IDX 103 73 68 74 51 75 52 76 61 77 53 78 54 79 60 80 62 81 55 82
REMARK SMILES IDX 56 83 57 84 58 85 59 86 85 87 86 88 95 89 87 90 88 91 94 92
REMARK SMILES IDX 96 93 89 94 90 95 91 96 92 97 93 98 69 99 70 100 79 101
REMARK SMILES IDX 71 102 72 103 78 104 80 105 73 106 74 107 75 108 76 109
REMARK SMILES IDX 77 110
REMARK H PARENT 16 17 101 60 67 71
REMARK Flexibility Score: inf
ROOT
ATOM      1  C   UNL A   1      41.180  27.871  26.244  1.00  0.00     0.188 C 
ENDROOT
BRANCH   1   2
ATOM      2  C   UNL A   1      41.291  27.731  27.772  1.00  0.00     0.188 C 
BRANCH   2   3
ATOM      3  O   UNL A   1      41.316  28.874  28.624  1.00  0.00    -0.376 OA
BRANCH   3   4
ATOM      4  C   UNL A   1      40.714  28.830  29.907  1.00  0.00     0.202 C 
BRANCH   4   5
ATOM      5  C   UNL A   1      39.287  29.370  30.058  1.00  0.00     0.261 C 
BRANCH   5   6
ATOM      6  O   UNL A   1      39.120  30.791  29.911  1.00  0.00    -0.463 OA
BRANCH   6   7
ATOM      7  C   UNL A   1      37.863  31.263  30.112  1.00  0.00     0.310 C 
ATOM      8  O   UNL A   1      37.256  31.193  31.177  1.00  0.00    -0.252 OA
BRANCH   7   9
ATOM      9  C   UNL A   1      37.255  31.957  28.887  1.00  0.00     0.116 C 
ATOM     10  C   UNL A   1      36.925  33.481  28.996  1.00  0.00     0.097 C 
ATOM     11  C   UNL A   1      35.510  33.735  29.504  1.00  0.00     0.041 C 
ATOM     12  C   UNL A   1      34.464  32.792  28.990  1.00  0.00    -0.030 C 
ATOM     13  C   UNL A   1      36.137  31.086  28.285  1.00  0.00     0.043 C 
ATOM     14  C   UNL A   1      34.745  31.614  28.427  1.00  0.00    -0.030 C 
BRANCH  10  15
ATOM     15  C   UNL A   1      38.121  34.212  29.631  1.00  0.00     0.229 C 
ATOM     16  N   UNL A   1      38.266  34.713  30.874  1.00  0.00    -0.317 N 
ATOM     17  H   UNL A   1      38.964  35.407  30.870  1.00  0.00     0.170 HD
ATOM     18  O   UNL A   1      39.020  34.617  28.868  1.00  0.00    -0.274 OA
BRANCH  16  19
ATOM     19  C   UNL A   1      37.761  34.573  32.149  1.00  0.00     0.110 A 
ATOM     20  C   UNL A   1      38.453  33.996  33.212  1.00  0.00     0.103 A 
ATOM     21  C   UNL A   1      37.645  33.933  34.405  1.00  0.00     0.019 A 
ATOM     22  C   UNL A   1      36.351  34.336  34.153  1.00  0.00     0.077 A 
ATOM     23  S   UNL A   1      36.145  34.843  32.541  1.00  0.00    -0.125 S 
BRANCH  20  24
ATOM     24  C   UNL A   1      39.806  33.479  33.043  1.00  0.00     0.341 C 
ATOM     25  O   UNL A   1      40.780  34.208  32.885  1.00  0.00    -0.246 OA
BRANCH  24  26
ATOM     26  O   UNL A   1      39.827  32.124  32.942  1.00  0.00    -0.462 OA
BRANCH  26  27
ATOM     27  C   UNL A   1      40.986  31.462  33.464  1.00  0.00     0.230 C 
ATOM     28  C   UNL A   1      40.747  30.994  34.888  1.00  0.00     0.049 C 
ENDBRANCH  26  27
ENDBRANCH  24  26
ENDBRANCH  20  24
BRANCH  21  29
ATOM     29  C   UNL A   1      38.084  33.497  35.780  1.00  0.00     0.036 A 
ATOM     30  C   UNL A   1      37.614  32.373  36.430  1.00  0.00     0.020 A 
ATOM     31  S   UNL A   1      39.197  34.358  36.756  1.00  0.00    -0.144 S 
ATOM     32  C   UNL A   1      38.231  32.184  37.704  1.00  0.00     0.012 A 
ATOM     33  C   UNL A   1      39.109  33.199  38.006  1.00  0.00     0.065 A 
ENDBRANCH  21  29
ENDBRANCH  16  19
ENDBRANCH  10  15
ENDBRANCH   7   9
ENDBRANCH   6   7
ENDBRANCH   5   6
ENDBRANCH   4   5
ENDBRANCH   3   4
ENDBRANCH   2   3
ENDBRANCH   1   2
BRANCH   1  34
ATOM     34  O   UNL A   1      41.082  26.651  25.537  1.00  0.00    -0.377 OA
BRANCH  34  35
ATOM     35  C   UNL A   1      42.033  25.647  25.847  1.00  0.00     0.188 C 
BRANCH  35  36
ATOM     36  C   UNL A   1      43.348  25.664  25.059  1.00  0.00     0.188 C 
BRANCH  36  37
ATOM     37  O   UNL A   1      43.767  24.367  24.627  1.00  0.00    -0.376 OA
BRANCH  37  38
ATOM     38  C   UNL A   1      42.970  23.259  25.027  1.00  0.00     0.202 C 
BRANCH  38  39
ATOM     39  C   UNL A   1      43.755  22.097  25.655  1.00  0.00     0.261 C 
BRANCH  39  40
ATOM     40  O   UNL A   1      44.285  22.346  26.967  1.00  0.00    -0.460 OA
BRANCH  40  41
ATOM     41  C   UNL A   1      45.450  23.025  27.037  1.00  0.00     0.338 C 
ATOM     42  O   UNL A   1      46.463  22.811  26.397  1.00  0.00    -0.246 OA
BRANCH  41  43
ATOM     43  C   UNL A   1      45.246  24.212  27.888  1.00  0.00     0.060 A 
ATOM     44  C   UNL A   1      46.344  25.045  28.131  1.00  0.00     0.016 A 
ATOM     45  C   UNL A   1      44.003  24.477  28.470  1.00  0.00     0.016 A 
ATOM     46  C   UNL A   1      46.222  26.104  29.025  1.00  0.00     0.010 A 
ATOM     47  C   UNL A   1      43.886  25.531  29.380  1.00  0.00     0.010 A 
ATOM     48  C   UNL A   1      45.012  26.308  29.701  1.00  0.00    -0.014 A 
BRANCH  48  49
ATOM     49  C   UNL A   1      45.020  27.142  30.925  1.00  0.00     0.031 A 
ATOM     50  C   UNL A   1      44.824  28.627  30.763  1.00  0.00     0.074 A 
ATOM     51  C   UNL A   1      45.137  26.597  32.147  1.00  0.00     0.049 A 
ATOM     52  N   UNL A   1      44.734  29.559  31.675  1.00  0.00    -0.248 NA
ATOM     53  C   UNL A   1      44.714  29.123  29.380  1.00  0.00     0.031 C 
ATOM     54  C   UNL A   1      45.315  25.174  32.426  1.00  0.00     0.029 A 
ATOM     55  N   UNL A   1      45.124  27.189  33.385  1.00  0.00    -0.354 N 
ATOM     56  C   UNL A   1      44.541  30.747  30.978  1.00  0.00     0.074 A 
ATOM     57  C   UNL A   1      44.579  30.426  29.569  1.00  0.00     0.031 C 
ATOM     58  C   UNL A   1      45.407  25.003  33.757  1.00  0.00     0.029 A 
ATOM     59  C   UNL A   1      45.305  26.303  34.419  1.00  0.00     0.049 A 
ATOM     60  H   UNL A   1      44.996  28.155  33.519  1.00  0.00     0.167 HD
ATOM     61  C   UNL A   1      44.332  31.991  31.467  1.00  0.00     0.037 A 
ATOM     62  C   UNL A   1      45.385  26.523  35.747  1.00  0.00     0.037 A 
ATOM     63  C   UNL A   1      44.321  32.310  32.869  1.00  0.00     0.049 A 
ATOM     64  C   UNL A   1      45.193  27.923  36.273  1.00  0.00     0.074 A 
ATOM     65  C   UNL A   1      44.136  33.539  33.475  1.00  0.00     0.029 A 
ATOM     66  N   UNL A   1      44.516  31.387  33.887  1.00  0.00    -0.354 N 
ATOM     67  N   UNL A   1      44.982  29.035  35.606  1.00  0.00    -0.248 NA
ATOM     68  C   UNL A   1      45.228  28.095  37.731  1.00  0.00     0.031 C 
ATOM     69  C   UNL A   1      44.256  33.365  34.859  1.00  0.00     0.029 A 
ATOM     70  C   UNL A   1      44.468  32.019  35.117  1.00  0.00     0.049 A 
ATOM     71  H   UNL A   1      44.665  30.422  33.753  1.00  0.00     0.167 HD
ATOM     72  C   UNL A   1      44.837  30.034  36.563  1.00  0.00     0.074 A 
ATOM     73  C   UNL A   1      44.972  29.391  37.856  1.00  0.00     0.031 C 
ATOM     74  C   UNL A   1      44.608  31.360  36.392  1.00  0.00     0.037 A 
BRANCH  61  75
ATOM     75  C   UNL A   1      44.128  33.091  30.463  1.00  0.00     0.058 A 
ATOM     76  C   UNL A   1      42.854  33.394  29.953  1.00  0.00     0.135 A 
ATOM     77  C   UNL A   1      45.220  33.827  29.976  1.00  0.00     0.135 A 
ATOM     78  F   UNL A   1      41.779  32.704  30.366  1.00  0.00    -0.206 F 
ATOM     79  C   UNL A   1      42.676  34.358  28.966  1.00  0.00     0.059 A 
ATOM     80  C   UNL A   1      45.060  34.814  29.009  1.00  0.00     0.059 A 
ATOM     81  F   UNL A   1      46.459  33.573  30.425  1.00  0.00    -0.206 F 
ATOM     82  C   UNL A   1      43.788  35.056  28.493  1.00  0.00     0.060 A 
BRANCH  82  83
ATOM     83  S   UNL A   1      43.551  36.277  27.185  1.00  0.00     0.124 S 
ATOM     84  O   UNL A   1      42.947  37.381  27.924  1.00  0.00    -0.237 OA
ATOM     85  O   UNL A   1      44.914  36.500  26.712  1.00  0.00    -0.237 OA
ATOM     86  O   UNL A   1      42.668  35.596  26.242  1.00  0.00    -0.744 OA
ENDBRANCH  82  83
ENDBRANCH  61  75
BRANCH  62  87
ATOM     87  C   UNL A   1      45.654  25.385  36.663  1.00  0.00     0.058 A 
ATOM     88  C   UNL A   1      46.962  24.969  36.953  1.00  0.00     0.135 A 
ATOM     89  C   UNL A   1      44.599  24.709  37.296  1.00  0.00     0.135 A 
ATOM     90  F   UNL A   1      48.004  25.578  36.365  1.00  0.00    -0.206 F 
ATOM     91  C   UNL A   1      47.215  23.922  37.833  1.00  0.00     0.059 A 
ATOM     92  C   UNL A   1      44.827  23.675  38.196  1.00  0.00     0.059 A 
ATOM     93  F   UNL A   1      43.328  25.076  37.061  1.00  0.00    -0.206 F 
ATOM     94  C   UNL A   1      46.140  23.285  38.455  1.00  0.00     0.060 A 
BRANCH  94  95
ATOM     95  S   UNL A   1      46.479  21.977  39.655  1.00  0.00     0.124 S 
ATOM     96  O   UNL A   1      45.529  22.296  40.714  1.00  0.00    -0.237 OA
ATOM     97  O   UNL A   1      46.195  20.771  38.882  1.00  0.00    -0.237 OA
ATOM     98  O   UNL A   1      47.887  22.183  39.985  1.00  0.00    -0.744 OA
ENDBRANCH  94  95
ENDBRANCH  62  87
BRANCH  74  99
ATOM     99  C   UNL A   1      44.459  32.202  37.629  1.00  0.00     0.058 A 
ATOM    100  C   UNL A   1      45.557  32.840  38.226  1.00  0.00     0.135 A 
ATOM    101  C   UNL A   1      43.191  32.408  38.199  1.00  0.00     0.135 A 
ATOM    102  F   UNL A   1      46.790  32.676  37.723  1.00  0.00    -0.206 F 
ATOM    103  C   UNL A   1      45.408  33.628  39.363  1.00  0.00     0.059 A 
ATOM    104  C   UNL A   1      43.015  33.213  39.319  1.00  0.00     0.059 A 
ATOM    105  F   UNL A   1      42.105  31.833  37.657  1.00  0.00    -0.206 F 
ATOM    106  C   UNL A   1      44.133  33.807  39.905  1.00  0.00     0.060 A 
BRANCH 106 107
ATOM    107  S   UNL A   1      43.950  34.843  41.372  1.00  0.00     0.124 S 
ATOM    108  O   UNL A   1      43.363  36.052  40.803  1.00  0.00    -0.237 OA
ATOM    109  O   UNL A   1      43.064  34.043  42.212  1.00  0.00    -0.237 OA
ATOM    110  O   UNL A   1      45.317  34.978  41.864  1.00  0.00    -0.744 OA
ENDBRANCH 106 107
ENDBRANCH  74  99
ENDBRANCH  48  49
ENDBRANCH  41  43
ENDBRANCH  40  41
ENDBRANCH  39  40
ENDBRANCH  38  39
ENDBRANCH  37  38
ENDBRANCH  36  37
ENDBRANCH  35  36
ENDBRANCH  34  35
ENDBRANCH   1  34
TORSDOF 29
ENDMDL
