MODEL 1
REMARK VINA RESULT:      -9.8      0.000      0.000
REMARK SMILES C[C@@H](C(=O)OCCOCCOCCOCCOC(=O)c1ccc(-c2c3nc(c(-c4c(F)cc(S(=O)(=O)[O-])cc4F)c4ccc([nH]4)c(-c4c(F)cc(S(=O)(=O)[O-])cc4F)c4nc(c(-c5c(F)cc(S(=O)(=O)[O-])cc5F)c5ccc2[nH]5)C=C4)C=C3)cc1)c1ccc(C[C@H]2CCCC2=O)cc1I
REMARK SMILES IDX 11 1 10 2 9 3 8 4 7 5 6 6 5 7 3 8 4 9 2 10 1 11 86 12 87 13
REMARK SMILES IDX 98 14 88 15 97 16 99 17 89 18 90 19 91 20 92 21 95 22 93 23
REMARK SMILES IDX 94 24 96 25 12 26 13 27 14 28 15 29 16 30 17 31 18 32 19 33
REMARK SMILES IDX 20 34 21 35 85 36 22 37 84 38 23 39 24 40 25 41 78 42 26 43
REMARK SMILES IDX 83 44 77 45 79 46 27 47 82 48 76 49 75 50 28 52 62 53 41 54
REMARK SMILES IDX 61 55 42 56 45 57 60 58 80 59 43 60 44 61 59 63 81 64 46 65
REMARK SMILES IDX 29 66 30 67 39 68 31 69 32 70 38 71 40 72 33 73 34 74 35 75
REMARK SMILES IDX 36 76 37 77 63 78 64 79 73 80 65 81 66 82 72 83 74 84 67 85
REMARK SMILES IDX 68 86 69 87 70 88 71 89 47 90 48 91 57 92 49 93 50 94 56 95
REMARK SMILES IDX 58 96 51 97 52 98 53 99 54 100 55 101
REMARK H PARENT 79 51 45 62
REMARK Flexibility Score: inf
ROOT
ATOM      1  O   UNL A   1      36.317  18.677  24.216  1.00  0.00    -0.377 OA
ENDROOT
BRANCH   1   2
ATOM      2  C   UNL A   1      35.312  17.869  24.795  1.00  0.00     0.188 C 
BRANCH   2   3
ATOM      3  C   UNL A   1      34.110  17.565  23.888  1.00  0.00     0.188 C 
BRANCH   3   4
ATOM      4  O   UNL A   1      32.827  18.040  24.250  1.00  0.00    -0.376 OA
BRANCH   4   5
ATOM      5  C   UNL A   1      32.655  18.925  25.350  1.00  0.00     0.202 C 
BRANCH   5   6
ATOM      6  C   UNL A   1      32.680  20.467  25.263  1.00  0.00     0.261 C 
BRANCH   6   7
ATOM      7  O   UNL A   1      31.437  21.129  25.513  1.00  0.00    -0.463 OA
BRANCH   7   8
ATOM      8  C   UNL A   1      31.449  22.474  25.686  1.00  0.00     0.313 C 
ATOM      9  O   UNL A   1      30.472  23.200  25.534  1.00  0.00    -0.252 OA
BRANCH   8  10
ATOM     10  C   UNL A   1      32.808  22.985  26.210  1.00  0.00     0.127 C 
ATOM     11  C   UNL A   1      32.893  22.681  27.713  1.00  0.00     0.025 C 
BRANCH  10  12
ATOM     12  C   UNL A   1      33.220  24.372  25.651  1.00  0.00    -0.021 A 
ATOM     13  C   UNL A   1      32.912  25.503  26.454  1.00  0.00     0.006 A 
ATOM     14  C   UNL A   1      33.750  24.670  24.377  1.00  0.00     0.017 A 
ATOM     15  C   UNL A   1      33.091  26.824  26.032  1.00  0.00     0.004 A 
ATOM     16  C   UNL A   1      33.882  26.012  23.937  1.00  0.00     0.018 A 
ATOM     17  I   UNL A   1      34.360  23.290  22.909  1.00  0.00    -0.044 I 
ATOM     18  C   UNL A   1      33.504  27.093  24.736  1.00  0.00    -0.046 A 
BRANCH  18  19
ATOM     19  C   UNL A   1      33.454  28.498  24.188  1.00  0.00     0.047 C 
BRANCH  19  20
ATOM     20  C   UNL A   1      32.243  28.813  23.289  1.00  0.00     0.060 C 
ATOM     21  C   UNL A   1      31.734  27.675  22.398  1.00  0.00     0.012 C 
ATOM     22  C   UNL A   1      31.004  29.162  24.081  1.00  0.00     0.136 C 
ATOM     23  C   UNL A   1      30.568  27.027  23.138  1.00  0.00     0.009 C 
ATOM     24  C   UNL A   1      29.902  28.145  23.926  1.00  0.00     0.076 C 
ATOM     25  O   UNL A   1      30.902  30.170  24.771  1.00  0.00    -0.299 OA
ENDBRANCH  19  20
ENDBRANCH  18  19
ENDBRANCH  10  12
ENDBRANCH   8  10
ENDBRANCH   7   8
ENDBRANCH   6   7
ENDBRANCH   5   6
ENDBRANCH   4   5
ENDBRANCH   3   4
ENDBRANCH   2   3
ENDBRANCH   1   2
BRANCH   1  26
ATOM     26  C   UNL A   1      36.921  19.690  25.012  1.00  0.00     0.188 C 
BRANCH  26  27
ATOM     27  C   UNL A   1      36.189  21.020  25.291  1.00  0.00     0.188 C 
BRANCH  27  28
ATOM     28  O   UNL A   1      36.966  22.012  25.946  1.00  0.00    -0.376 OA
BRANCH  28  29
ATOM     29  C   UNL A   1      38.328  22.163  25.577  1.00  0.00     0.202 C 
BRANCH  29  30
ATOM     30  C   UNL A   1      39.233  22.988  26.507  1.00  0.00     0.261 C 
BRANCH  30  31
ATOM     31  O   UNL A   1      39.106  24.416  26.421  1.00  0.00    -0.460 OA
BRANCH  31  32
ATOM     32  C   UNL A   1      40.235  25.145  26.308  1.00  0.00     0.338 C 
ATOM     33  O   UNL A   1      40.953  25.241  25.325  1.00  0.00    -0.246 OA
BRANCH  32  34
ATOM     34  C   UNL A   1      40.357  25.981  27.521  1.00  0.00     0.060 A 
ATOM     35  C   UNL A   1      39.377  25.880  28.517  1.00  0.00     0.016 A 
ATOM     36  C   UNL A   1      41.434  26.856  27.675  1.00  0.00     0.016 A 
ATOM     37  C   UNL A   1      39.447  26.689  29.651  1.00  0.00     0.010 A 
ATOM     38  C   UNL A   1      41.492  27.681  28.802  1.00  0.00     0.010 A 
ATOM     39  C   UNL A   1      40.478  27.628  29.776  1.00  0.00    -0.014 A 
BRANCH  39  40
ATOM     40  C   UNL A   1      40.385  28.690  30.808  1.00  0.00     0.031 A 
ATOM     41  C   UNL A   1      41.299  28.602  32.002  1.00  0.00     0.074 A 
ATOM     42  C   UNL A   1      39.530  29.722  30.684  1.00  0.00     0.049 A 
ATOM     43  N   UNL A   1      41.360  29.368  33.060  1.00  0.00    -0.248 NA
ATOM     44  C   UNL A   1      42.270  27.496  32.002  1.00  0.00     0.031 C 
ATOM     45  C   UNL A   1      38.629  29.942  29.555  1.00  0.00     0.029 A 
ATOM     46  N   UNL A   1      39.276  30.774  31.529  1.00  0.00    -0.354 N 
ATOM     47  C   UNL A   1      42.371  28.834  33.853  1.00  0.00     0.074 A 
ATOM     48  C   UNL A   1      42.869  27.659  33.172  1.00  0.00     0.031 C 
ATOM     49  C   UNL A   1      37.904  31.051  29.787  1.00  0.00     0.029 A 
ATOM     50  C   UNL A   1      38.264  31.598  31.095  1.00  0.00     0.049 A 
ATOM     51  H   UNL A   1      39.769  30.923  32.367  1.00  0.00     0.167 HD
ATOM     52  C   UNL A   1      42.847  29.286  35.037  1.00  0.00     0.037 A 
ATOM     53  C   UNL A   1      37.679  32.653  31.698  1.00  0.00     0.037 A 
ATOM     54  C   UNL A   1      42.341  30.453  35.712  1.00  0.00     0.049 A 
ATOM     55  C   UNL A   1      38.172  33.095  33.054  1.00  0.00     0.074 A 
ATOM     56  C   UNL A   1      42.759  31.000  36.912  1.00  0.00     0.029 A 
ATOM     57  N   UNL A   1      41.301  31.248  35.252  1.00  0.00    -0.354 N 
ATOM     58  N   UNL A   1      39.139  32.592  33.786  1.00  0.00    -0.248 NA
ATOM     59  C   UNL A   1      37.498  34.250  33.665  1.00  0.00     0.031 C 
ATOM     60  C   UNL A   1      41.935  32.090  37.207  1.00  0.00     0.029 A 
ATOM     61  C   UNL A   1      41.047  32.265  36.157  1.00  0.00     0.049 A 
ATOM     62  H   UNL A   1      40.816  31.109  34.406  1.00  0.00     0.167 HD
ATOM     63  C   UNL A   1      39.209  33.389  34.927  1.00  0.00     0.074 A 
ATOM     64  C   UNL A   1      38.196  34.412  34.781  1.00  0.00     0.031 C 
ATOM     65  C   UNL A   1      40.039  33.284  35.995  1.00  0.00     0.037 A 
BRANCH  52  66
ATOM     66  C   UNL A   1      43.953  28.502  35.690  1.00  0.00     0.058 A 
ATOM     67  C   UNL A   1      45.306  28.793  35.457  1.00  0.00     0.135 A 
ATOM     68  C   UNL A   1      43.653  27.462  36.585  1.00  0.00     0.135 A 
ATOM     69  F   UNL A   1      45.652  29.762  34.595  1.00  0.00    -0.206 F 
ATOM     70  C   UNL A   1      46.323  28.066  36.069  1.00  0.00     0.059 A 
ATOM     71  C   UNL A   1      44.652  26.743  37.233  1.00  0.00     0.059 A 
ATOM     72  F   UNL A   1      42.376  27.137  36.841  1.00  0.00    -0.206 F 
ATOM     73  C   UNL A   1      45.985  27.044  36.959  1.00  0.00     0.060 A 
BRANCH  73  74
ATOM     74  S   UNL A   1      47.316  26.117  37.751  1.00  0.00     0.124 S 
ATOM     75  O   UNL A   1      46.881  26.114  39.144  1.00  0.00    -0.237 OA
ATOM     76  O   UNL A   1      47.249  24.831  37.063  1.00  0.00    -0.237 OA
ATOM     77  O   UNL A   1      48.504  26.916  37.467  1.00  0.00    -0.744 OA
ENDBRANCH  73  74
ENDBRANCH  52  66
BRANCH  53  78
ATOM     78  C   UNL A   1      36.543  33.353  31.037  1.00  0.00     0.058 A 
ATOM     79  C   UNL A   1      36.746  34.183  29.924  1.00  0.00     0.135 A 
ATOM     80  C   UNL A   1      35.229  33.212  31.513  1.00  0.00     0.135 A 
ATOM     81  F   UNL A   1      37.983  34.364  29.438  1.00  0.00    -0.206 F 
ATOM     82  C   UNL A   1      35.691  34.858  29.316  1.00  0.00     0.059 A 
ATOM     83  C   UNL A   1      34.156  33.853  30.903  1.00  0.00     0.059 A 
ATOM     84  F   UNL A   1      34.978  32.426  32.572  1.00  0.00    -0.206 F 
ATOM     85  C   UNL A   1      34.398  34.682  29.810  1.00  0.00     0.060 A 
BRANCH  85  86
ATOM     86  S   UNL A   1      33.032  35.523  28.980  1.00  0.00     0.124 S 
ATOM     87  O   UNL A   1      33.727  36.602  28.288  1.00  0.00    -0.237 OA
ATOM     88  O   UNL A   1      32.493  34.464  28.134  1.00  0.00    -0.237 OA
ATOM     89  O   UNL A   1      32.171  35.934  30.085  1.00  0.00    -0.744 OA
ENDBRANCH  85  86
ENDBRANCH  53  78
BRANCH  65  90
ATOM     90  C   UNL A   1      39.925  34.328  37.076  1.00  0.00     0.058 A 
ATOM     91  C   UNL A   1      40.511  35.598  36.950  1.00  0.00     0.135 A 
ATOM     92  C   UNL A   1      39.164  34.072  38.229  1.00  0.00     0.135 A 
ATOM     93  F   UNL A   1      41.251  35.897  35.872  1.00  0.00    -0.206 F 
ATOM     94  C   UNL A   1      40.367  36.566  37.940  1.00  0.00     0.059 A 
ATOM     95  C   UNL A   1      38.980  35.036  39.215  1.00  0.00     0.059 A 
ATOM     96  F   UNL A   1      38.570  32.879  38.396  1.00  0.00    -0.206 F 
ATOM     97  C   UNL A   1      39.596  36.276  39.069  1.00  0.00     0.060 A 
BRANCH  97  98
ATOM     98  S   UNL A   1      39.392  37.554  40.327  1.00  0.00     0.124 S 
ATOM     99  O   UNL A   1      40.769  37.991  40.531  1.00  0.00    -0.237 OA
ATOM    100  O   UNL A   1      38.514  38.511  39.660  1.00  0.00    -0.237 OA
ATOM    101  O   UNL A   1      38.789  36.836  41.447  1.00  0.00    -0.744 OA
ENDBRANCH  97  98
ENDBRANCH  65  90
ENDBRANCH  39  40
ENDBRANCH  32  34
ENDBRANCH  31  32
ENDBRANCH  30  31
ENDBRANCH  29  30
ENDBRANCH  28  29
ENDBRANCH  27  28
ENDBRANCH  26  27
ENDBRANCH   1  26
TORSDOF 26
ENDMDL
MODEL 2
REMARK VINA RESULT:      -8.6      5.705      9.800
REMARK SMILES C[C@@H](C(=O)OCCOCCOCCOCCOC(=O)c1ccc(-c2c3nc(c(-c4c(F)cc(S(=O)(=O)[O-])cc4F)c4ccc([nH]4)c(-c4c(F)cc(S(=O)(=O)[O-])cc4F)c4nc(c(-c5c(F)cc(S(=O)(=O)[O-])cc5F)c5ccc2[nH]5)C=C4)C=C3)cc1)c1ccc(C[C@H]2CCCC2=O)cc1I
REMARK SMILES IDX 11 1 10 2 9 3 8 4 7 5 6 6 5 7 3 8 4 9 2 10 1 11 86 12 87 13
REMARK SMILES IDX 98 14 88 15 97 16 99 17 89 18 90 19 91 20 92 21 95 22 93 23
REMARK SMILES IDX 94 24 96 25 12 26 13 27 14 28 15 29 16 30 17 31 18 32 19 33
REMARK SMILES IDX 20 34 21 35 85 36 22 37 84 38 23 39 24 40 25 41 78 42 26 43
REMARK SMILES IDX 83 44 77 45 79 46 27 47 82 48 76 49 75 50 28 52 62 53 41 54
REMARK SMILES IDX 61 55 42 56 45 57 60 58 80 59 43 60 44 61 59 63 81 64 46 65
REMARK SMILES IDX 29 66 30 67 39 68 31 69 32 70 38 71 40 72 33 73 34 74 35 75
REMARK SMILES IDX 36 76 37 77 63 78 64 79 73 80 65 81 66 82 72 83 74 84 67 85
REMARK SMILES IDX 68 86 69 87 70 88 71 89 47 90 48 91 57 92 49 93 50 94 56 95
REMARK SMILES IDX 58 96 51 97 52 98 53 99 54 100 55 101
REMARK H PARENT 79 51 45 62
REMARK Flexibility Score: inf
ROOT
ATOM      1  O   UNL A   1      34.919  19.137  24.649  1.00  0.00    -0.377 OA
ENDROOT
BRANCH   1   2
ATOM      2  C   UNL A   1      33.739  19.436  25.366  1.00  0.00     0.188 C 
BRANCH   2   3
ATOM      3  C   UNL A   1      32.432  19.297  24.568  1.00  0.00     0.188 C 
BRANCH   3   4
ATOM      4  O   UNL A   1      31.877  20.435  23.938  1.00  0.00    -0.376 OA
BRANCH   4   5
ATOM      5  C   UNL A   1      32.538  21.695  23.978  1.00  0.00     0.202 C 
BRANCH   5   6
ATOM      6  C   UNL A   1      33.684  22.127  23.038  1.00  0.00     0.261 C 
BRANCH   6   7
ATOM      7  O   UNL A   1      34.452  23.256  23.465  1.00  0.00    -0.463 OA
BRANCH   7   8
ATOM      8  C   UNL A   1      34.085  24.485  23.026  1.00  0.00     0.313 C 
ATOM      9  O   UNL A   1      33.659  24.719  21.900  1.00  0.00    -0.252 OA
BRANCH   8  10
ATOM     10  C   UNL A   1      34.154  25.550  24.141  1.00  0.00     0.127 C 
ATOM     11  C   UNL A   1      34.469  24.842  25.468  1.00  0.00     0.025 C 
BRANCH  10  12
ATOM     12  C   UNL A   1      33.040  26.627  24.057  1.00  0.00    -0.021 A 
ATOM     13  C   UNL A   1      33.377  27.848  23.414  1.00  0.00     0.006 A 
ATOM     14  C   UNL A   1      31.762  26.599  24.656  1.00  0.00     0.017 A 
ATOM     15  C   UNL A   1      32.535  28.963  23.379  1.00  0.00     0.004 A 
ATOM     16  C   UNL A   1      30.934  27.750  24.660  1.00  0.00     0.018 A 
ATOM     17  I   UNL A   1      30.878  24.982  25.673  1.00  0.00    -0.044 I 
ATOM     18  C   UNL A   1      31.335  28.952  24.072  1.00  0.00    -0.046 A 
BRANCH  18  19
ATOM     19  C   UNL A   1      30.542  30.223  24.259  1.00  0.00     0.047 C 
BRANCH  19  20
ATOM     20  C   UNL A   1      29.608  30.595  23.093  1.00  0.00     0.060 C 
ATOM     21  C   UNL A   1      28.573  29.544  22.678  1.00  0.00     0.012 C 
ATOM     22  C   UNL A   1      28.730  31.785  23.405  1.00  0.00     0.136 C 
ATOM     23  C   UNL A   1      27.268  29.914  23.376  1.00  0.00     0.009 C 
ATOM     24  C   UNL A   1      27.266  31.432  23.477  1.00  0.00     0.076 C 
ATOM     25  O   UNL A   1      29.161  32.920  23.575  1.00  0.00    -0.299 OA
ENDBRANCH  19  20
ENDBRANCH  18  19
ENDBRANCH  10  12
ENDBRANCH   8  10
ENDBRANCH   7   8
ENDBRANCH   6   7
ENDBRANCH   5   6
ENDBRANCH   4   5
ENDBRANCH   3   4
ENDBRANCH   2   3
ENDBRANCH   1   2
BRANCH   1  26
ATOM     26  C   UNL A   1      36.102  19.868  24.947  1.00  0.00     0.188 C 
BRANCH  26  27
ATOM     27  C   UNL A   1      36.029  21.265  25.601  1.00  0.00     0.188 C 
BRANCH  27  28
ATOM     28  O   UNL A   1      37.268  21.783  26.061  1.00  0.00    -0.376 OA
BRANCH  28  29
ATOM     29  C   UNL A   1      38.459  21.381  25.405  1.00  0.00     0.202 C 
BRANCH  29  30
ATOM     30  C   UNL A   1      39.761  21.379  26.224  1.00  0.00     0.261 C 
BRANCH  30  31
ATOM     31  O   UNL A   1      40.639  22.500  26.032  1.00  0.00    -0.460 OA
BRANCH  31  32
ATOM     32  C   UNL A   1      41.965  22.262  25.979  1.00  0.00     0.338 C 
ATOM     33  O   UNL A   1      42.583  21.748  25.060  1.00  0.00    -0.246 OA
BRANCH  32  34
ATOM     34  C   UNL A   1      42.590  22.916  27.148  1.00  0.00     0.060 A 
ATOM     35  C   UNL A   1      41.773  23.583  28.070  1.00  0.00     0.016 A 
ATOM     36  C   UNL A   1      43.973  22.868  27.333  1.00  0.00     0.016 A 
ATOM     37  C   UNL A   1      42.343  24.244  29.158  1.00  0.00     0.010 A 
ATOM     38  C   UNL A   1      44.544  23.550  28.412  1.00  0.00     0.010 A 
ATOM     39  C   UNL A   1      43.735  24.272  29.307  1.00  0.00    -0.014 A 
BRANCH  39  40
ATOM     40  C   UNL A   1      44.353  25.220  30.267  1.00  0.00     0.031 A 
ATOM     41  C   UNL A   1      44.561  26.644  29.824  1.00  0.00     0.074 A 
ATOM     42  C   UNL A   1      44.702  24.840  31.510  1.00  0.00     0.049 A 
ATOM     43  N   UNL A   1      45.136  27.635  30.453  1.00  0.00    -0.248 NA
ATOM     44  C   UNL A   1      44.056  26.993  28.485  1.00  0.00     0.031 C 
ATOM     45  C   UNL A   1      44.510  23.504  32.070  1.00  0.00     0.029 A 
ATOM     46  N   UNL A   1      45.304  25.546  32.521  1.00  0.00    -0.354 N 
ATOM     47  C   UNL A   1      45.067  28.722  29.588  1.00  0.00     0.074 A 
ATOM     48  C   UNL A   1      44.428  28.260  28.376  1.00  0.00     0.031 C 
ATOM     49  C   UNL A   1      45.005  23.481  33.320  1.00  0.00     0.029 A 
ATOM     50  C   UNL A   1      45.579  24.789  33.635  1.00  0.00     0.049 A 
ATOM     51  H   UNL A   1      45.521  26.504  32.454  1.00  0.00     0.167 HD
ATOM     52  C   UNL A   1      45.488  29.993  29.789  1.00  0.00     0.037 A 
ATOM     53  C   UNL A   1      46.243  25.109  34.765  1.00  0.00     0.037 A 
ATOM     54  C   UNL A   1      46.130  30.445  30.996  1.00  0.00     0.049 A 
ATOM     55  C   UNL A   1      46.775  26.510  34.937  1.00  0.00     0.074 A 
ATOM     56  C   UNL A   1      46.589  31.713  31.303  1.00  0.00     0.029 A 
ATOM     57  N   UNL A   1      46.411  29.642  32.093  1.00  0.00    -0.354 N 
ATOM     58  N   UNL A   1      46.689  27.534  34.119  1.00  0.00    -0.248 NA
ATOM     59  C   UNL A   1      47.490  26.803  36.188  1.00  0.00     0.031 C 
ATOM     60  C   UNL A   1      47.200  31.665  32.560  1.00  0.00     0.029 A 
ATOM     61  C   UNL A   1      47.061  30.383  33.067  1.00  0.00     0.049 A 
ATOM     62  H   UNL A   1      46.182  28.688  32.168  1.00  0.00     0.167 HD
ATOM     63  C   UNL A   1      47.310  28.597  34.770  1.00  0.00     0.074 A 
ATOM     64  C   UNL A   1      47.756  28.096  36.053  1.00  0.00     0.031 C 
ATOM     65  C   UNL A   1      47.491  29.873  34.345  1.00  0.00     0.037 A 
BRANCH  52  66
ATOM     66  C   UNL A   1      45.294  30.978  28.668  1.00  0.00     0.058 A 
ATOM     67  C   UNL A   1      46.251  31.148  27.656  1.00  0.00     0.135 A 
ATOM     68  C   UNL A   1      44.117  31.741  28.589  1.00  0.00     0.135 A 
ATOM     69  F   UNL A   1      47.404  30.461  27.691  1.00  0.00    -0.206 F 
ATOM     70  C   UNL A   1      46.062  32.057  26.619  1.00  0.00     0.059 A 
ATOM     71  C   UNL A   1      43.892  32.632  27.545  1.00  0.00     0.059 A 
ATOM     72  F   UNL A   1      43.170  31.623  29.532  1.00  0.00    -0.206 F 
ATOM     73  C   UNL A   1      44.876  32.793  26.571  1.00  0.00     0.060 A 
BRANCH  73  74
ATOM     74  S   UNL A   1      44.642  33.961  25.216  1.00  0.00     0.124 S 
ATOM     75  O   UNL A   1      45.989  34.503  25.061  1.00  0.00    -0.237 OA
ATOM     76  O   UNL A   1      44.181  33.094  24.136  1.00  0.00    -0.237 OA
ATOM     77  O   UNL A   1      43.647  34.893  25.736  1.00  0.00    -0.744 OA
ENDBRANCH  73  74
ENDBRANCH  52  66
BRANCH  53  78
ATOM     78  C   UNL A   1      46.466  24.077  35.816  1.00  0.00     0.058 A 
ATOM     79  C   UNL A   1      45.578  23.927  36.891  1.00  0.00     0.135 A 
ATOM     80  C   UNL A   1      47.580  23.223  35.767  1.00  0.00     0.135 A 
ATOM     81  F   UNL A   1      44.506  24.727  36.993  1.00  0.00    -0.206 F 
ATOM     82  C   UNL A   1      45.793  22.980  37.888  1.00  0.00     0.059 A 
ATOM     83  C   UNL A   1      47.799  22.248  36.735  1.00  0.00     0.059 A 
ATOM     84  F   UNL A   1      48.458  23.319  34.757  1.00  0.00    -0.206 F 
ATOM     85  C   UNL A   1      46.905  22.141  37.799  1.00  0.00     0.060 A 
BRANCH  85  86
ATOM     86  S   UNL A   1      47.144  20.881  39.070  1.00  0.00     0.124 S 
ATOM     87  O   UNL A   1      45.773  20.461  39.331  1.00  0.00    -0.237 OA
ATOM     88  O   UNL A   1      47.990  19.912  38.383  1.00  0.00    -0.237 OA
ATOM     89  O   UNL A   1      47.795  21.616  40.151  1.00  0.00    -0.744 OA
ENDBRANCH  85  86
ENDBRANCH  53  78
BRANCH  65  90
ATOM     90  C   UNL A   1      48.162  30.837  35.289  1.00  0.00     0.058 A 
ATOM     91  C   UNL A   1      47.433  31.601  36.215  1.00  0.00     0.135 A 
ATOM     92  C   UNL A   1      49.562  30.951  35.309  1.00  0.00     0.135 A 
ATOM     93  F   UNL A   1      46.093  31.535  36.240  1.00  0.00    -0.206 F 
ATOM     94  C   UNL A   1      48.067  32.461  37.108  1.00  0.00     0.059 A 
ATOM     95  C   UNL A   1      50.218  31.780  36.213  1.00  0.00     0.059 A 
ATOM     96  F   UNL A   1      50.310  30.234  34.454  1.00  0.00    -0.206 F 
ATOM     97  C   UNL A   1      49.461  32.541  37.101  1.00  0.00     0.060 A 
BRANCH  97  98
ATOM     98  S   UNL A   1      50.270  33.636  38.286  1.00  0.00     0.124 S 
ATOM     99  O   UNL A   1      50.264  34.905  37.568  1.00  0.00    -0.237 OA
ATOM    100  O   UNL A   1      49.380  33.557  39.441  1.00  0.00    -0.237 OA
ATOM    101  O   UNL A   1      51.583  33.027  38.472  1.00  0.00    -0.744 OA
ENDBRANCH  97  98
ENDBRANCH  65  90
ENDBRANCH  39  40
ENDBRANCH  32  34
ENDBRANCH  31  32
ENDBRANCH  30  31
ENDBRANCH  29  30
ENDBRANCH  28  29
ENDBRANCH  27  28
ENDBRANCH  26  27
ENDBRANCH   1  26
TORSDOF 26
ENDMDL
MODEL 3
REMARK VINA RESULT:      -8.4      5.357      6.477
REMARK SMILES C[C@@H](C(=O)OCCOCCOCCOCCOC(=O)c1ccc(-c2c3nc(c(-c4c(F)cc(S(=O)(=O)[O-])cc4F)c4ccc([nH]4)c(-c4c(F)cc(S(=O)(=O)[O-])cc4F)c4nc(c(-c5c(F)cc(S(=O)(=O)[O-])cc5F)c5ccc2[nH]5)C=C4)C=C3)cc1)c1ccc(C[C@H]2CCCC2=O)cc1I
REMARK SMILES IDX 11 1 10 2 9 3 8 4 7 5 6 6 5 7 3 8 4 9 2 10 1 11 86 12 87 13
REMARK SMILES IDX 98 14 88 15 97 16 99 17 89 18 90 19 91 20 92 21 95 22 93 23
REMARK SMILES IDX 94 24 96 25 12 26 13 27 14 28 15 29 16 30 17 31 18 32 19 33
REMARK SMILES IDX 20 34 21 35 85 36 22 37 84 38 23 39 24 40 25 41 78 42 26 43
REMARK SMILES IDX 83 44 77 45 79 46 27 47 82 48 76 49 75 50 28 52 62 53 41 54
REMARK SMILES IDX 61 55 42 56 45 57 60 58 80 59 43 60 44 61 59 63 81 64 46 65
REMARK SMILES IDX 29 66 30 67 39 68 31 69 32 70 38 71 40 72 33 73 34 74 35 75
REMARK SMILES IDX 36 76 37 77 63 78 64 79 73 80 65 81 66 82 72 83 74 84 67 85
REMARK SMILES IDX 68 86 69 87 70 88 71 89 47 90 48 91 57 92 49 93 50 94 56 95
REMARK SMILES IDX 58 96 51 97 52 98 53 99 54 100 55 101
REMARK H PARENT 79 51 45 62
REMARK Flexibility Score: inf
ROOT
ATOM      1  O   UNL A   1      34.934  19.913  24.582  1.00  0.00    -0.377 OA
ENDROOT
BRANCH   1   2
ATOM      2  C   UNL A   1      33.602  19.844  25.049  1.00  0.00     0.188 C 
BRANCH   2   3
ATOM      3  C   UNL A   1      32.519  19.932  23.963  1.00  0.00     0.188 C 
BRANCH   3   4
ATOM      4  O   UNL A   1      32.203  21.189  23.395  1.00  0.00    -0.376 OA
BRANCH   4   5
ATOM      5  C   UNL A   1      32.377  22.393  24.132  1.00  0.00     0.202 C 
BRANCH   5   6
ATOM      6  C   UNL A   1      31.426  22.904  25.236  1.00  0.00     0.261 C 
BRANCH   6   7
ATOM      7  O   UNL A   1      30.568  23.989  24.871  1.00  0.00    -0.463 OA
BRANCH   7   8
ATOM      8  C   UNL A   1      30.154  24.837  25.844  1.00  0.00     0.313 C 
ATOM      9  O   UNL A   1      29.802  24.485  26.965  1.00  0.00    -0.252 OA
BRANCH   8  10
ATOM     10  C   UNL A   1      30.284  26.317  25.426  1.00  0.00     0.127 C 
ATOM     11  C   UNL A   1      29.634  26.489  24.044  1.00  0.00     0.025 C 
BRANCH  10  12
ATOM     12  C   UNL A   1      31.667  26.944  25.740  1.00  0.00    -0.021 A 
ATOM     13  C   UNL A   1      31.811  27.580  27.003  1.00  0.00     0.006 A 
ATOM     14  C   UNL A   1      32.773  27.080  24.874  1.00  0.00     0.017 A 
ATOM     15  C   UNL A   1      32.943  28.309  27.378  1.00  0.00     0.004 A 
ATOM     16  C   UNL A   1      33.897  27.862  25.242  1.00  0.00     0.018 A 
ATOM     17  I   UNL A   1      32.970  26.269  22.941  1.00  0.00    -0.044 I 
ATOM     18  C   UNL A   1      33.967  28.525  26.469  1.00  0.00    -0.046 A 
BRANCH  18  19
ATOM     19  C   UNL A   1      35.066  29.516  26.768  1.00  0.00     0.047 C 
BRANCH  19  20
ATOM     20  C   UNL A   1      34.996  30.180  28.156  1.00  0.00     0.060 C 
ATOM     21  C   UNL A   1      36.260  30.102  29.019  1.00  0.00     0.012 C 
ATOM     22  C   UNL A   1      34.767  31.672  28.078  1.00  0.00     0.136 C 
ATOM     23  C   UNL A   1      37.008  31.416  28.819  1.00  0.00     0.009 C 
ATOM     24  C   UNL A   1      35.939  32.473  28.584  1.00  0.00     0.076 C 
ATOM     25  O   UNL A   1      33.733  32.178  27.656  1.00  0.00    -0.299 OA
ENDBRANCH  19  20
ENDBRANCH  18  19
ENDBRANCH  10  12
ENDBRANCH   8  10
ENDBRANCH   7   8
ENDBRANCH   6   7
ENDBRANCH   5   6
ENDBRANCH   4   5
ENDBRANCH   3   4
ENDBRANCH   2   3
ENDBRANCH   1   2
BRANCH   1  26
ATOM     26  C   UNL A   1      35.835  20.809  25.220  1.00  0.00     0.188 C 
BRANCH  26  27
ATOM     27  C   UNL A   1      35.518  22.317  25.319  1.00  0.00     0.188 C 
BRANCH  27  28
ATOM     28  O   UNL A   1      36.290  23.037  26.269  1.00  0.00    -0.376 OA
BRANCH  28  29
ATOM     29  C   UNL A   1      37.652  23.303  25.976  1.00  0.00     0.202 C 
BRANCH  29  30
ATOM     30  C   UNL A   1      38.267  24.593  26.544  1.00  0.00     0.261 C 
BRANCH  30  31
ATOM     31  O   UNL A   1      39.626  24.872  26.174  1.00  0.00    -0.460 OA
BRANCH  31  32
ATOM     32  C   UNL A   1      40.601  24.519  27.037  1.00  0.00     0.338 C 
ATOM     33  O   UNL A   1      40.962  23.387  27.315  1.00  0.00    -0.246 OA
BRANCH  32  34
ATOM     34  C   UNL A   1      41.308  25.750  27.448  1.00  0.00     0.060 A 
ATOM     35  C   UNL A   1      42.072  25.735  28.622  1.00  0.00     0.016 A 
ATOM     36  C   UNL A   1      41.218  26.912  26.678  1.00  0.00     0.016 A 
ATOM     37  C   UNL A   1      42.714  26.896  29.054  1.00  0.00     0.010 A 
ATOM     38  C   UNL A   1      41.843  28.080  27.123  1.00  0.00     0.010 A 
ATOM     39  C   UNL A   1      42.562  28.087  28.332  1.00  0.00    -0.014 A 
BRANCH  39  40
ATOM     40  C   UNL A   1      42.973  29.375  28.944  1.00  0.00     0.031 A 
ATOM     41  C   UNL A   1      44.417  29.786  28.830  1.00  0.00     0.074 A 
ATOM     42  C   UNL A   1      42.088  30.176  29.564  1.00  0.00     0.049 A 
ATOM     43  N   UNL A   1      45.028  30.826  29.334  1.00  0.00    -0.248 NA
ATOM     44  C   UNL A   1      45.291  28.896  28.046  1.00  0.00     0.031 C 
ATOM     45  C   UNL A   1      40.658  29.911  29.699  1.00  0.00     0.029 A 
ATOM     46  N   UNL A   1      42.271  31.374  30.209  1.00  0.00    -0.354 N 
ATOM     47  C   UNL A   1      46.355  30.715  28.933  1.00  0.00     0.074 A 
ATOM     48  C   UNL A   1      46.468  29.487  28.176  1.00  0.00     0.031 C 
ATOM     49  C   UNL A   1      40.094  30.909  30.403  1.00  0.00     0.029 A 
ATOM     50  C   UNL A   1      41.130  31.864  30.799  1.00  0.00     0.049 A 
ATOM     51  H   UNL A   1      43.139  31.838  30.248  1.00  0.00     0.167 HD
ATOM     52  C   UNL A   1      47.385  31.563  29.166  1.00  0.00     0.037 A 
ATOM     53  C   UNL A   1      40.949  32.942  31.588  1.00  0.00     0.037 A 
ATOM     54  C   UNL A   1      47.266  32.780  29.926  1.00  0.00     0.049 A 
ATOM     55  C   UNL A   1      42.127  33.833  31.902  1.00  0.00     0.074 A 
ATOM     56  C   UNL A   1      48.246  33.713  30.214  1.00  0.00     0.029 A 
ATOM     57  N   UNL A   1      46.098  33.230  30.526  1.00  0.00    -0.354 N 
ATOM     58  N   UNL A   1      43.373  33.726  31.504  1.00  0.00    -0.248 NA
ATOM     59  C   UNL A   1      41.872  34.994  32.767  1.00  0.00     0.031 C 
ATOM     60  C   UNL A   1      47.687  34.695  31.036  1.00  0.00     0.029 A 
ATOM     61  C   UNL A   1      46.340  34.413  31.204  1.00  0.00     0.049 A 
ATOM     62  H   UNL A   1      45.226  32.775  30.476  1.00  0.00     0.167 HD
ATOM     63  C   UNL A   1      44.042  34.822  32.044  1.00  0.00     0.074 A 
ATOM     64  C   UNL A   1      43.060  35.584  32.786  1.00  0.00     0.031 C 
ATOM     65  C   UNL A   1      45.350  35.167  31.932  1.00  0.00     0.037 A 
BRANCH  52  66
ATOM     66  C   UNL A   1      48.735  31.189  28.616  1.00  0.00     0.058 A 
ATOM     67  C   UNL A   1      49.628  30.376  29.330  1.00  0.00     0.135 A 
ATOM     68  C   UNL A   1      49.128  31.628  27.340  1.00  0.00     0.135 A 
ATOM     69  F   UNL A   1      49.314  29.945  30.562  1.00  0.00    -0.206 F 
ATOM     70  C   UNL A   1      50.872  30.030  28.812  1.00  0.00     0.059 A 
ATOM     71  C   UNL A   1      50.353  31.269  26.789  1.00  0.00     0.059 A 
ATOM     72  F   UNL A   1      48.316  32.412  26.615  1.00  0.00    -0.206 F 
ATOM     73  C   UNL A   1      51.225  30.480  27.538  1.00  0.00     0.060 A 
BRANCH  73  74
ATOM     74  S   UNL A   1      52.838  30.015  26.877  1.00  0.00     0.124 S 
ATOM     75  O   UNL A   1      52.854  30.739  25.609  1.00  0.00    -0.237 OA
ATOM     76  O   UNL A   1      53.749  30.515  27.903  1.00  0.00    -0.237 OA
ATOM     77  O   UNL A   1      52.757  28.562  26.768  1.00  0.00    -0.744 OA
ENDBRANCH  73  74
ENDBRANCH  52  66
BRANCH  53  78
ATOM     78  C   UNL A   1      39.605  33.230  32.162  1.00  0.00     0.058 A 
ATOM     79  C   UNL A   1      39.224  32.729  33.416  1.00  0.00     0.135 A 
ATOM     80  C   UNL A   1      38.668  34.006  31.459  1.00  0.00     0.135 A 
ATOM     81  F   UNL A   1      40.076  31.971  34.122  1.00  0.00    -0.206 F 
ATOM     82  C   UNL A   1      37.962  32.976  33.947  1.00  0.00     0.059 A 
ATOM     83  C   UNL A   1      37.412  34.290  31.982  1.00  0.00     0.059 A 
ATOM     84  F   UNL A   1      38.982  34.513  30.257  1.00  0.00    -0.206 F 
ATOM     85  C   UNL A   1      37.063  33.763  33.224  1.00  0.00     0.060 A 
BRANCH  85  86
ATOM     86  S   UNL A   1      35.447  34.118  33.947  1.00  0.00     0.124 S 
ATOM     87  O   UNL A   1      34.576  33.253  33.160  1.00  0.00    -0.237 OA
ATOM     88  O   UNL A   1      35.645  33.728  35.339  1.00  0.00    -0.237 OA
ATOM     89  O   UNL A   1      35.285  35.551  33.720  1.00  0.00    -0.744 OA
ENDBRANCH  85  86
ENDBRANCH  53  78
BRANCH  65  90
ATOM     90  C   UNL A   1      45.795  36.449  32.589  1.00  0.00     0.058 A 
ATOM     91  C   UNL A   1      45.722  37.686  31.930  1.00  0.00     0.135 A 
ATOM     92  C   UNL A   1      46.242  36.444  33.921  1.00  0.00     0.135 A 
ATOM     93  F   UNL A   1      45.305  37.751  30.656  1.00  0.00    -0.206 F 
ATOM     94  C   UNL A   1      46.102  38.869  32.560  1.00  0.00     0.059 A 
ATOM     95  C   UNL A   1      46.596  37.616  34.580  1.00  0.00     0.059 A 
ATOM     96  F   UNL A   1      46.319  35.289  34.603  1.00  0.00    -0.206 F 
ATOM     97  C   UNL A   1      46.535  38.824  33.887  1.00  0.00     0.060 A 
BRANCH  97  98
ATOM     98  S   UNL A   1      46.991  40.368  34.701  1.00  0.00     0.124 S 
ATOM     99  O   UNL A   1      48.254  40.687  34.043  1.00  0.00    -0.237 OA
ATOM    100  O   UNL A   1      45.867  41.239  34.370  1.00  0.00    -0.237 OA
ATOM    101  O   UNL A   1      47.095  39.995  36.108  1.00  0.00    -0.744 OA
ENDBRANCH  97  98
ENDBRANCH  65  90
ENDBRANCH  39  40
ENDBRANCH  32  34
ENDBRANCH  31  32
ENDBRANCH  30  31
ENDBRANCH  29  30
ENDBRANCH  28  29
ENDBRANCH  27  28
ENDBRANCH  26  27
ENDBRANCH   1  26
TORSDOF 26
ENDMDL
