MODEL 1
REMARK VINA RESULT:      -9.7      0.000      0.000
REMARK SMILES Cc1cccc(CN(C)c2nc(C)c(C(=O)OCCOCCOCCOCCOC(=O)c3ccc(-c4c5nc(c(-c6c(F)cc(S(=O)(=O)[O-])cc6F)c6ccc([nH]6)c(-c6c(F)cc(S(=O)(=O)[O-])cc6F)c6nc(c(-c7c(F)cc(S(=O)(=O)[O-])cc7F)c7ccc4[nH]7)C=C6)C=C5)cc3)s2)n1
REMARK SMILES IDX 23 1 22 2 21 3 20 4 19 5 18 6 17 7 15 8 16 9 14 10 10 11
REMARK SMILES IDX 11 12 98 13 12 14 13 15 8 16 9 17 7 18 6 19 1 20 2 21 3 22
REMARK SMILES IDX 99 23 4 24 5 25 24 26 25 27 26 28 27 29 28 30 29 31 30 32
REMARK SMILES IDX 31 33 32 34 33 35 97 36 34 37 96 38 35 39 36 40 37 41 90 42
REMARK SMILES IDX 38 43 95 44 89 45 91 46 39 47 94 48 88 49 87 50 40 52 74 53
REMARK SMILES IDX 53 54 73 55 54 56 57 57 72 58 92 59 55 60 56 61 71 63 93 64
REMARK SMILES IDX 58 65 41 66 42 67 51 68 43 69 44 70 50 71 52 72 45 73 46 74
REMARK SMILES IDX 47 75 48 76 49 77 75 78 76 79 85 80 77 81 78 82 84 83 86 84
REMARK SMILES IDX 79 85 80 86 81 87 82 88 83 89 59 90 60 91 69 92 61 93 62 94
REMARK SMILES IDX 68 95 70 96 63 97 64 98 65 99 66 100 67 101
REMARK H PARENT 91 51 57 62
REMARK Flexibility Score: inf
ROOT
ATOM      1  O   UNL A   1      34.970  29.887  27.612  1.00  0.00    -0.377 OA
ENDROOT
BRANCH   1   2
ATOM      2  C   UNL A   1      34.139  29.138  26.740  1.00  0.00     0.188 C 
BRANCH   2   3
ATOM      3  C   UNL A   1      33.122  30.023  25.998  1.00  0.00     0.188 C 
BRANCH   3   4
ATOM      4  O   UNL A   1      31.782  29.542  26.093  1.00  0.00    -0.376 OA
BRANCH   4   5
ATOM      5  C   UNL A   1      31.468  28.373  25.340  1.00  0.00     0.202 C 
BRANCH   5   6
ATOM      6  C   UNL A   1      32.021  28.298  23.908  1.00  0.00     0.261 C 
BRANCH   6   7
ATOM      7  O   UNL A   1      32.955  27.230  23.676  1.00  0.00    -0.459 OA
BRANCH   7   8
ATOM      8  C   UNL A   1      32.526  26.138  23.000  1.00  0.00     0.350 C 
ATOM      9  O   UNL A   1      32.165  26.161  21.828  1.00  0.00    -0.245 OA
BRANCH   8  10
ATOM     10  C   UNL A   1      32.711  24.962  23.820  1.00  0.00     0.137 A 
ATOM     11  C   UNL A   1      33.700  23.014  24.919  1.00  0.00     0.186 A 
ATOM     12  N   UNL A   1      32.525  23.286  25.439  1.00  0.00    -0.225 NA
ATOM     13  S   UNL A   1      34.156  24.059  23.630  1.00  0.00    -0.089 S 
ATOM     14  C   UNL A   1      31.954  24.405  24.840  1.00  0.00     0.065 A 
ATOM     15  C   UNL A   1      30.622  24.834  25.355  1.00  0.00     0.069 C 
BRANCH  11  16
ATOM     16  N   UNL A   1      34.461  21.947  25.290  1.00  0.00    -0.345 N 
ATOM     17  C   UNL A   1      35.727  21.790  24.603  1.00  0.00     0.146 C 
BRANCH  16  18
ATOM     18  C   UNL A   1      33.794  20.722  25.748  1.00  0.00     0.174 C 
BRANCH  18  19
ATOM     19  C   UNL A   1      33.400  19.783  24.619  1.00  0.00     0.060 A 
ATOM     20  C   UNL A   1      34.106  16.276  23.789  1.00  0.00     0.067 C 
ATOM     21  C   UNL A   1      33.548  17.661  23.671  1.00  0.00     0.038 A 
ATOM     22  C   UNL A   1      32.605  17.983  22.704  1.00  0.00     0.023 A 
ATOM     23  N   UNL A   1      33.979  18.554  24.590  1.00  0.00    -0.256 NA
ATOM     24  C   UNL A   1      32.073  19.269  22.692  1.00  0.00     0.004 A 
ATOM     25  C   UNL A   1      32.467  20.182  23.664  1.00  0.00     0.026 A 
ENDBRANCH  18  19
ENDBRANCH  16  18
ENDBRANCH  11  16
ENDBRANCH   8  10
ENDBRANCH   7   8
ENDBRANCH   6   7
ENDBRANCH   5   6
ENDBRANCH   4   5
ENDBRANCH   3   4
ENDBRANCH   2   3
ENDBRANCH   1   2
BRANCH   1  26
ATOM     26  C   UNL A   1      34.405  31.053  28.208  1.00  0.00     0.188 C 
BRANCH  26  27
ATOM     27  C   UNL A   1      35.080  32.427  28.018  1.00  0.00     0.188 C 
BRANCH  27  28
ATOM     28  O   UNL A   1      34.392  33.502  28.665  1.00  0.00    -0.376 OA
BRANCH  28  29
ATOM     29  C   UNL A   1      35.104  34.170  29.701  1.00  0.00     0.202 C 
BRANCH  29  30
ATOM     30  C   UNL A   1      35.470  33.262  30.882  1.00  0.00     0.261 C 
BRANCH  30  31
ATOM     31  O   UNL A   1      36.827  32.792  30.873  1.00  0.00    -0.460 OA
BRANCH  31  32
ATOM     32  C   UNL A   1      37.089  31.697  31.620  1.00  0.00     0.338 C 
ATOM     33  O   UNL A   1      36.467  31.309  32.593  1.00  0.00    -0.246 OA
BRANCH  32  34
ATOM     34  C   UNL A   1      38.157  30.925  30.956  1.00  0.00     0.060 A 
ATOM     35  C   UNL A   1      39.082  30.250  31.759  1.00  0.00     0.016 A 
ATOM     36  C   UNL A   1      38.266  30.898  29.562  1.00  0.00     0.016 A 
ATOM     37  C   UNL A   1      40.162  29.595  31.168  1.00  0.00     0.010 A 
ATOM     38  C   UNL A   1      39.354  30.251  28.973  1.00  0.00     0.010 A 
ATOM     39  C   UNL A   1      40.329  29.637  29.777  1.00  0.00    -0.014 A 
BRANCH  39  40
ATOM     40  C   UNL A   1      41.624  29.215  29.193  1.00  0.00     0.031 A 
ATOM     41  C   UNL A   1      42.732  30.229  29.104  1.00  0.00     0.074 A 
ATOM     42  C   UNL A   1      41.826  27.949  28.789  1.00  0.00     0.049 A 
ATOM     43  N   UNL A   1      43.961  30.081  28.685  1.00  0.00    -0.248 NA
ATOM     44  C   UNL A   1      42.409  31.595  29.551  1.00  0.00     0.031 C 
ATOM     45  C   UNL A   1      40.833  26.877  28.836  1.00  0.00     0.029 A 
ATOM     46  N   UNL A   1      42.943  27.354  28.261  1.00  0.00    -0.354 N 
ATOM     47  C   UNL A   1      44.560  31.328  28.824  1.00  0.00     0.074 A 
ATOM     48  C   UNL A   1      43.550  32.231  29.330  1.00  0.00     0.031 C 
ATOM     49  C   UNL A   1      41.386  25.751  28.349  1.00  0.00     0.029 A 
ATOM     50  C   UNL A   1      42.766  26.028  27.949  1.00  0.00     0.049 A 
ATOM     51  H   UNL A   1      43.791  27.831  28.117  1.00  0.00     0.167 HD
ATOM     52  C   UNL A   1      45.841  31.686  28.569  1.00  0.00     0.037 A 
ATOM     53  C   UNL A   1      43.621  25.142  27.402  1.00  0.00     0.037 A 
ATOM     54  C   UNL A   1      46.841  30.789  28.056  1.00  0.00     0.049 A 
ATOM     55  C   UNL A   1      45.031  25.573  27.088  1.00  0.00     0.074 A 
ATOM     56  C   UNL A   1      48.171  31.051  27.776  1.00  0.00     0.029 A 
ATOM     57  N   UNL A   1      46.619  29.458  27.736  1.00  0.00    -0.354 N 
ATOM     58  N   UNL A   1      45.596  26.744  27.266  1.00  0.00    -0.248 NA
ATOM     59  C   UNL A   1      45.922  24.558  26.509  1.00  0.00     0.031 C 
ATOM     60  C   UNL A   1      48.743  29.886  27.251  1.00  0.00     0.029 A 
ATOM     61  C   UNL A   1      47.782  28.889  27.244  1.00  0.00     0.049 A 
ATOM     62  H   UNL A   1      45.761  28.987  27.843  1.00  0.00     0.167 HD
ATOM     63  C   UNL A   1      46.915  26.598  26.846  1.00  0.00     0.074 A 
ATOM     64  C   UNL A   1      47.066  25.223  26.415  1.00  0.00     0.031 C 
ATOM     65  C   UNL A   1      47.913  27.516  26.822  1.00  0.00     0.037 A 
BRANCH  52  66
ATOM     66  C   UNL A   1      46.220  33.115  28.831  1.00  0.00     0.058 A 
ATOM     67  C   UNL A   1      46.011  34.116  27.869  1.00  0.00     0.135 A 
ATOM     68  C   UNL A   1      46.786  33.492  30.058  1.00  0.00     0.135 A 
ATOM     69  F   UNL A   1      45.493  33.806  26.670  1.00  0.00    -0.206 F 
ATOM     70  C   UNL A   1      46.375  35.438  28.106  1.00  0.00     0.059 A 
ATOM     71  C   UNL A   1      47.137  34.811  30.326  1.00  0.00     0.059 A 
ATOM     72  F   UNL A   1      47.012  32.570  31.009  1.00  0.00    -0.206 F 
ATOM     73  C   UNL A   1      46.940  35.775  29.337  1.00  0.00     0.060 A 
BRANCH  73  74
ATOM     74  S   UNL A   1      47.412  37.493  29.631  1.00  0.00     0.124 S 
ATOM     75  O   UNL A   1      46.145  38.184  29.406  1.00  0.00    -0.237 OA
ATOM     76  O   UNL A   1      47.878  37.458  31.013  1.00  0.00    -0.237 OA
ATOM     77  O   UNL A   1      48.446  37.736  28.630  1.00  0.00    -0.744 OA
ENDBRANCH  73  74
ENDBRANCH  52  66
BRANCH  53  78
ATOM     78  C   UNL A   1      43.175  23.751  27.126  1.00  0.00     0.058 A 
ATOM     79  C   UNL A   1      42.918  23.318  25.817  1.00  0.00     0.135 A 
ATOM     80  C   UNL A   1      42.996  22.830  28.168  1.00  0.00     0.135 A 
ATOM     81  F   UNL A   1      43.066  24.167  24.789  1.00  0.00    -0.206 F 
ATOM     82  C   UNL A   1      42.483  22.024  25.551  1.00  0.00     0.059 A 
ATOM     83  C   UNL A   1      42.583  21.524  27.925  1.00  0.00     0.059 A 
ATOM     84  F   UNL A   1      43.238  23.193  29.437  1.00  0.00    -0.206 F 
ATOM     85  C   UNL A   1      42.319  21.133  26.613  1.00  0.00     0.060 A 
BRANCH  85  86
ATOM     86  S   UNL A   1      41.804  19.439  26.255  1.00  0.00     0.124 S 
ATOM     87  O   UNL A   1      42.208  18.746  27.473  1.00  0.00    -0.237 OA
ATOM     88  O   UNL A   1      40.366  19.590  26.053  1.00  0.00    -0.237 OA
ATOM     89  O   UNL A   1      42.565  19.106  25.055  1.00  0.00    -0.744 OA
ENDBRANCH  85  86
ENDBRANCH  53  78
BRANCH  65  90
ATOM     90  C   UNL A   1      49.262  27.058  26.342  1.00  0.00     0.058 A 
ATOM     91  C   UNL A   1      50.210  26.510  27.219  1.00  0.00     0.135 A 
ATOM     92  C   UNL A   1      49.594  27.136  24.979  1.00  0.00     0.135 A 
ATOM     93  F   UNL A   1      49.941  26.415  28.530  1.00  0.00    -0.206 F 
ATOM     94  C   UNL A   1      51.455  26.085  26.768  1.00  0.00     0.059 A 
ATOM     95  C   UNL A   1      50.824  26.693  24.503  1.00  0.00     0.059 A 
ATOM     96  F   UNL A   1      48.717  27.637  24.095  1.00  0.00    -0.206 F 
ATOM     97  C   UNL A   1      51.755  26.185  25.408  1.00  0.00     0.060 A 
BRANCH  97  98
ATOM     98  S   UNL A   1      53.369  25.619  24.829  1.00  0.00     0.124 S 
ATOM     99  O   UNL A   1      54.268  26.526  25.536  1.00  0.00    -0.237 OA
ATOM    100  O   UNL A   1      53.395  24.229  25.273  1.00  0.00    -0.237 OA
ATOM    101  O   UNL A   1      53.295  25.808  23.383  1.00  0.00    -0.744 OA
ENDBRANCH  97  98
ENDBRANCH  65  90
ENDBRANCH  39  40
ENDBRANCH  32  34
ENDBRANCH  31  32
ENDBRANCH  30  31
ENDBRANCH  29  30
ENDBRANCH  28  29
ENDBRANCH  27  28
ENDBRANCH  26  27
ENDBRANCH   1  26
TORSDOF 26
ENDMDL
MODEL 2
REMARK VINA RESULT:      -9.5      6.022      8.226
REMARK SMILES Cc1cccc(CN(C)c2nc(C)c(C(=O)OCCOCCOCCOCCOC(=O)c3ccc(-c4c5nc(c(-c6c(F)cc(S(=O)(=O)[O-])cc6F)c6ccc([nH]6)c(-c6c(F)cc(S(=O)(=O)[O-])cc6F)c6nc(c(-c7c(F)cc(S(=O)(=O)[O-])cc7F)c7ccc4[nH]7)C=C6)C=C5)cc3)s2)n1
REMARK SMILES IDX 23 1 22 2 21 3 20 4 19 5 18 6 17 7 15 8 16 9 14 10 10 11
REMARK SMILES IDX 11 12 98 13 12 14 13 15 8 16 9 17 7 18 6 19 1 20 2 21 3 22
REMARK SMILES IDX 99 23 4 24 5 25 24 26 25 27 26 28 27 29 28 30 29 31 30 32
REMARK SMILES IDX 31 33 32 34 33 35 97 36 34 37 96 38 35 39 36 40 37 41 90 42
REMARK SMILES IDX 38 43 95 44 89 45 91 46 39 47 94 48 88 49 87 50 40 52 74 53
REMARK SMILES IDX 53 54 73 55 54 56 57 57 72 58 92 59 55 60 56 61 71 63 93 64
REMARK SMILES IDX 58 65 41 66 42 67 51 68 43 69 44 70 50 71 52 72 45 73 46 74
REMARK SMILES IDX 47 75 48 76 49 77 75 78 76 79 85 80 77 81 78 82 84 83 86 84
REMARK SMILES IDX 79 85 80 86 81 87 82 88 83 89 59 90 60 91 69 92 61 93 62 94
REMARK SMILES IDX 68 95 70 96 63 97 64 98 65 99 66 100 67 101
REMARK H PARENT 91 51 57 62
REMARK Flexibility Score: inf
ROOT
ATOM      1  O   UNL A   1      35.630  30.334  27.470  1.00  0.00    -0.377 OA
ENDROOT
BRANCH   1   2
ATOM      2  C   UNL A   1      34.629  29.469  26.958  1.00  0.00     0.188 C 
BRANCH   2   3
ATOM      3  C   UNL A   1      33.320  30.212  26.641  1.00  0.00     0.188 C 
BRANCH   3   4
ATOM      4  O   UNL A   1      32.473  29.500  25.740  1.00  0.00    -0.376 OA
BRANCH   4   5
ATOM      5  C   UNL A   1      33.105  28.891  24.616  1.00  0.00     0.202 C 
BRANCH   5   6
ATOM      6  C   UNL A   1      32.827  27.397  24.386  1.00  0.00     0.261 C 
BRANCH   6   7
ATOM      7  O   UNL A   1      33.957  26.636  23.926  1.00  0.00    -0.459 OA
BRANCH   7   8
ATOM      8  C   UNL A   1      33.781  25.793  22.881  1.00  0.00     0.350 C 
ATOM      9  O   UNL A   1      33.780  26.154  21.708  1.00  0.00    -0.245 OA
BRANCH   8  10
ATOM     10  C   UNL A   1      33.752  24.431  23.362  1.00  0.00     0.137 A 
ATOM     11  C   UNL A   1      33.271  22.043  23.587  1.00  0.00     0.186 A 
ATOM     12  N   UNL A   1      34.214  22.401  24.427  1.00  0.00    -0.225 NA
ATOM     13  S   UNL A   1      32.649  23.336  22.637  1.00  0.00    -0.089 S 
ATOM     14  C   UNL A   1      34.517  23.754  24.301  1.00  0.00     0.065 A 
ATOM     15  C   UNL A   1      35.591  24.285  25.188  1.00  0.00     0.069 C 
BRANCH  11  16
ATOM     16  N   UNL A   1      32.752  20.786  23.526  1.00  0.00    -0.345 N 
ATOM     17  C   UNL A   1      31.920  20.489  22.377  1.00  0.00     0.146 C 
BRANCH  16  18
ATOM     18  C   UNL A   1      32.439  20.083  24.776  1.00  0.00     0.174 C 
BRANCH  18  19
ATOM     19  C   UNL A   1      33.130  18.736  24.908  1.00  0.00     0.060 A 
ATOM     20  C   UNL A   1      32.054  15.338  25.794  1.00  0.00     0.067 C 
ATOM     21  C   UNL A   1      32.956  16.466  25.400  1.00  0.00     0.038 A 
ATOM     22  C   UNL A   1      34.271  16.240  25.013  1.00  0.00     0.023 A 
ATOM     23  N   UNL A   1      32.400  17.697  25.395  1.00  0.00    -0.256 NA
ATOM     24  C   UNL A   1      35.038  17.322  24.589  1.00  0.00     0.004 A 
ATOM     25  C   UNL A   1      34.462  18.587  24.527  1.00  0.00     0.026 A 
ENDBRANCH  18  19
ENDBRANCH  16  18
ENDBRANCH  11  16
ENDBRANCH   8  10
ENDBRANCH   7   8
ENDBRANCH   6   7
ENDBRANCH   5   6
ENDBRANCH   4   5
ENDBRANCH   3   4
ENDBRANCH   2   3
ENDBRANCH   1   2
BRANCH   1  26
ATOM     26  C   UNL A   1      35.460  30.809  28.804  1.00  0.00     0.188 C 
BRANCH  26  27
ATOM     27  C   UNL A   1      35.110  32.289  29.063  1.00  0.00     0.188 C 
BRANCH  27  28
ATOM     28  O   UNL A   1      35.113  33.097  27.882  1.00  0.00    -0.376 OA
BRANCH  28  29
ATOM     29  C   UNL A   1      34.533  34.392  28.006  1.00  0.00     0.202 C 
BRANCH  29  30
ATOM     30  C   UNL A   1      33.436  34.476  29.075  1.00  0.00     0.261 C 
BRANCH  30  31
ATOM     31  O   UNL A   1      33.654  35.486  30.072  1.00  0.00    -0.460 OA
BRANCH  31  32
ATOM     32  C   UNL A   1      33.253  35.187  31.327  1.00  0.00     0.338 C 
ATOM     33  O   UNL A   1      32.117  35.235  31.764  1.00  0.00    -0.246 OA
BRANCH  32  34
ATOM     34  C   UNL A   1      34.398  34.607  32.056  1.00  0.00     0.060 A 
ATOM     35  C   UNL A   1      35.608  35.308  32.054  1.00  0.00     0.016 A 
ATOM     36  C   UNL A   1      34.289  33.371  32.701  1.00  0.00     0.016 A 
ATOM     37  C   UNL A   1      36.736  34.742  32.645  1.00  0.00     0.010 A 
ATOM     38  C   UNL A   1      35.423  32.801  33.283  1.00  0.00     0.010 A 
ATOM     39  C   UNL A   1      36.659  33.465  33.216  1.00  0.00    -0.014 A 
BRANCH  39  40
ATOM     40  C   UNL A   1      37.912  32.750  33.557  1.00  0.00     0.031 A 
ATOM     41  C   UNL A   1      38.610  33.107  34.843  1.00  0.00     0.074 A 
ATOM     42  C   UNL A   1      38.398  31.779  32.766  1.00  0.00     0.049 A 
ATOM     43  N   UNL A   1      39.683  32.584  35.376  1.00  0.00    -0.248 NA
ATOM     44  C   UNL A   1      38.016  34.199  35.632  1.00  0.00     0.031 C 
ATOM     45  C   UNL A   1      37.803  31.339  31.504  1.00  0.00     0.029 A 
ATOM     46  N   UNL A   1      39.505  30.984  32.914  1.00  0.00    -0.354 N 
ATOM     47  C   UNL A   1      39.887  33.275  36.565  1.00  0.00     0.074 A 
ATOM     48  C   UNL A   1      38.852  34.280  36.656  1.00  0.00     0.031 C 
ATOM     49  C   UNL A   1      38.560  30.353  30.988  1.00  0.00     0.029 A 
ATOM     50  C   UNL A   1      39.692  30.101  31.879  1.00  0.00     0.049 A 
ATOM     51  H   UNL A   1      40.110  31.041  33.688  1.00  0.00     0.167 HD
ATOM     52  C   UNL A   1      40.843  33.080  37.505  1.00  0.00     0.037 A 
ATOM     53  C   UNL A   1      40.669  29.194  31.675  1.00  0.00     0.037 A 
ATOM     54  C   UNL A   1      41.879  32.088  37.407  1.00  0.00     0.049 A 
ATOM     55  C   UNL A   1      41.746  29.023  32.716  1.00  0.00     0.074 A 
ATOM     56  C   UNL A   1      42.886  31.802  38.311  1.00  0.00     0.029 A 
ATOM     57  N   UNL A   1      42.046  31.223  36.335  1.00  0.00    -0.354 N 
ATOM     58  N   UNL A   1      41.902  29.653  33.856  1.00  0.00    -0.248 NA
ATOM     59  C   UNL A   1      42.774  28.007  32.446  1.00  0.00     0.031 C 
ATOM     60  C   UNL A   1      43.685  30.789  37.769  1.00  0.00     0.029 A 
ATOM     61  C   UNL A   1      43.151  30.416  36.546  1.00  0.00     0.049 A 
ATOM     62  H   UNL A   1      41.465  31.190  35.542  1.00  0.00     0.167 HD
ATOM     63  C   UNL A   1      43.028  29.093  34.451  1.00  0.00     0.074 A 
ATOM     64  C   UNL A   1      43.508  28.065  33.549  1.00  0.00     0.031 C 
ATOM     65  C   UNL A   1      43.612  29.396  35.637  1.00  0.00     0.037 A 
BRANCH  52  66
ATOM     66  C   UNL A   1      40.813  33.975  38.711  1.00  0.00     0.058 A 
ATOM     67  C   UNL A   1      40.013  33.675  39.825  1.00  0.00     0.135 A 
ATOM     68  C   UNL A   1      41.599  35.135  38.760  1.00  0.00     0.135 A 
ATOM     69  F   UNL A   1      39.225  32.589  39.821  1.00  0.00    -0.206 F 
ATOM     70  C   UNL A   1      39.975  34.511  40.937  1.00  0.00     0.059 A 
ATOM     71  C   UNL A   1      41.595  35.974  39.871  1.00  0.00     0.059 A 
ATOM     72  F   UNL A   1      42.377  35.469  37.717  1.00  0.00    -0.206 F 
ATOM     73  C   UNL A   1      40.767  35.660  40.949  1.00  0.00     0.060 A 
BRANCH  73  74
ATOM     74  S   UNL A   1      40.706  36.738  42.395  1.00  0.00     0.124 S 
ATOM     75  O   UNL A   1      42.010  37.390  42.327  1.00  0.00    -0.237 OA
ATOM     76  O   UNL A   1      39.556  37.589  42.103  1.00  0.00    -0.237 OA
ATOM     77  O   UNL A   1      40.527  35.806  43.504  1.00  0.00    -0.744 OA
ENDBRANCH  73  74
ENDBRANCH  52  66
BRANCH  53  78
ATOM     78  C   UNL A   1      40.670  28.368  30.441  1.00  0.00     0.058 A 
ATOM     79  C   UNL A   1      39.750  27.324  30.266  1.00  0.00     0.135 A 
ATOM     80  C   UNL A   1      41.594  28.605  29.412  1.00  0.00     0.135 A 
ATOM     81  F   UNL A   1      38.854  27.052  31.226  1.00  0.00    -0.206 F 
ATOM     82  C   UNL A   1      39.755  26.534  29.121  1.00  0.00     0.059 A 
ATOM     83  C   UNL A   1      41.605  27.843  28.249  1.00  0.00     0.059 A 
ATOM     84  F   UNL A   1      42.489  29.599  29.528  1.00  0.00    -0.206 F 
ATOM     85  C   UNL A   1      40.686  26.802  28.117  1.00  0.00     0.060 A 
BRANCH  85  86
ATOM     86  S   UNL A   1      40.653  25.804  26.611  1.00  0.00     0.124 S 
ATOM     87  O   UNL A   1      40.947  26.804  25.591  1.00  0.00    -0.237 OA
ATOM     88  O   UNL A   1      41.703  24.824  26.867  1.00  0.00    -0.237 OA
ATOM     89  O   UNL A   1      39.296  25.267  26.598  1.00  0.00    -0.744 OA
ENDBRANCH  85  86
ENDBRANCH  53  78
BRANCH  65  90
ATOM     90  C   UNL A   1      44.814  28.589  36.041  1.00  0.00     0.058 A 
ATOM     91  C   UNL A   1      46.119  29.011  35.741  1.00  0.00     0.135 A 
ATOM     92  C   UNL A   1      44.659  27.398  36.767  1.00  0.00     0.135 A 
ATOM     93  F   UNL A   1      46.321  30.141  35.047  1.00  0.00    -0.206 F 
ATOM     94  C   UNL A   1      47.228  28.261  36.119  1.00  0.00     0.059 A 
ATOM     95  C   UNL A   1      45.755  26.645  37.178  1.00  0.00     0.059 A 
ATOM     96  F   UNL A   1      43.433  26.958  37.093  1.00  0.00    -0.206 F 
ATOM     97  C   UNL A   1      47.036  27.076  36.834  1.00  0.00     0.060 A 
BRANCH  97  98
ATOM     98  S   UNL A   1      48.481  26.116  37.332  1.00  0.00     0.124 S 
ATOM     99  O   UNL A   1      47.932  25.296  38.406  1.00  0.00    -0.237 OA
ATOM    100  O   UNL A   1      48.827  25.405  36.104  1.00  0.00    -0.237 OA
ATOM    101  O   UNL A   1      49.438  27.138  37.747  1.00  0.00    -0.744 OA
ENDBRANCH  97  98
ENDBRANCH  65  90
ENDBRANCH  39  40
ENDBRANCH  32  34
ENDBRANCH  31  32
ENDBRANCH  30  31
ENDBRANCH  29  30
ENDBRANCH  28  29
ENDBRANCH  27  28
ENDBRANCH  26  27
ENDBRANCH   1  26
TORSDOF 26
ENDMDL
MODEL 3
REMARK VINA RESULT:      -8.8      6.048      8.179
REMARK SMILES Cc1cccc(CN(C)c2nc(C)c(C(=O)OCCOCCOCCOCCOC(=O)c3ccc(-c4c5nc(c(-c6c(F)cc(S(=O)(=O)[O-])cc6F)c6ccc([nH]6)c(-c6c(F)cc(S(=O)(=O)[O-])cc6F)c6nc(c(-c7c(F)cc(S(=O)(=O)[O-])cc7F)c7ccc4[nH]7)C=C6)C=C5)cc3)s2)n1
REMARK SMILES IDX 23 1 22 2 21 3 20 4 19 5 18 6 17 7 15 8 16 9 14 10 10 11
REMARK SMILES IDX 11 12 98 13 12 14 13 15 8 16 9 17 7 18 6 19 1 20 2 21 3 22
REMARK SMILES IDX 99 23 4 24 5 25 24 26 25 27 26 28 27 29 28 30 29 31 30 32
REMARK SMILES IDX 31 33 32 34 33 35 97 36 34 37 96 38 35 39 36 40 37 41 90 42
REMARK SMILES IDX 38 43 95 44 89 45 91 46 39 47 94 48 88 49 87 50 40 52 74 53
REMARK SMILES IDX 53 54 73 55 54 56 57 57 72 58 92 59 55 60 56 61 71 63 93 64
REMARK SMILES IDX 58 65 41 66 42 67 51 68 43 69 44 70 50 71 52 72 45 73 46 74
REMARK SMILES IDX 47 75 48 76 49 77 75 78 76 79 85 80 77 81 78 82 84 83 86 84
REMARK SMILES IDX 79 85 80 86 81 87 82 88 83 89 59 90 60 91 69 92 61 93 62 94
REMARK SMILES IDX 68 95 70 96 63 97 64 98 65 99 66 100 67 101
REMARK H PARENT 91 51 57 62
REMARK Flexibility Score: inf
ROOT
ATOM      1  O   UNL A   1      35.473  30.405  27.480  1.00  0.00    -0.377 OA
ENDROOT
BRANCH   1   2
ATOM      2  C   UNL A   1      34.224  29.885  27.052  1.00  0.00     0.188 C 
BRANCH   2   3
ATOM      3  C   UNL A   1      33.072  30.883  27.262  1.00  0.00     0.188 C 
BRANCH   3   4
ATOM      4  O   UNL A   1      31.824  30.416  26.750  1.00  0.00    -0.376 OA
BRANCH   4   5
ATOM      5  C   UNL A   1      31.784  30.095  25.361  1.00  0.00     0.202 C 
BRANCH   5   6
ATOM      6  C   UNL A   1      31.232  28.710  24.983  1.00  0.00     0.261 C 
BRANCH   6   7
ATOM      7  O   UNL A   1      31.549  28.279  23.649  1.00  0.00    -0.459 OA
BRANCH   7   8
ATOM      8  C   UNL A   1      30.754  27.347  23.070  1.00  0.00     0.350 C 
ATOM      9  O   UNL A   1      29.824  27.617  22.317  1.00  0.00    -0.245 OA
BRANCH   8  10
ATOM     10  C   UNL A   1      31.271  26.028  23.361  1.00  0.00     0.137 A 
ATOM     11  C   UNL A   1      31.618  23.826  24.366  1.00  0.00     0.186 A 
ATOM     12  N   UNL A   1      32.321  23.942  23.262  1.00  0.00    -0.225 NA
ATOM     13  S   UNL A   1      30.723  25.236  24.780  1.00  0.00    -0.089 S 
ATOM     14  C   UNL A   1      32.121  25.182  22.664  1.00  0.00     0.065 A 
ATOM     15  C   UNL A   1      32.849  25.435  21.387  1.00  0.00     0.069 C 
BRANCH  11  16
ATOM     16  N   UNL A   1      31.658  22.731  25.174  1.00  0.00    -0.345 N 
ATOM     17  C   UNL A   1      30.575  22.596  26.128  1.00  0.00     0.146 C 
BRANCH  16  18
ATOM     18  C   UNL A   1      32.961  22.179  25.563  1.00  0.00     0.174 C 
BRANCH  18  19
ATOM     19  C   UNL A   1      33.253  20.817  24.954  1.00  0.00     0.060 A 
ATOM     20  C   UNL A   1      36.155  18.567  24.887  1.00  0.00     0.067 C 
ATOM     21  C   UNL A   1      34.776  19.087  24.621  1.00  0.00     0.038 A 
ATOM     22  C   UNL A   1      33.806  18.293  24.024  1.00  0.00     0.023 A 
ATOM     23  N   UNL A   1      34.525  20.346  25.040  1.00  0.00    -0.256 NA
ATOM     24  C   UNL A   1      32.523  18.810  23.868  1.00  0.00     0.004 A 
ATOM     25  C   UNL A   1      32.236  20.085  24.344  1.00  0.00     0.026 A 
ENDBRANCH  18  19
ENDBRANCH  16  18
ENDBRANCH  11  16
ENDBRANCH   8  10
ENDBRANCH   7   8
ENDBRANCH   6   7
ENDBRANCH   5   6
ENDBRANCH   4   5
ENDBRANCH   3   4
ENDBRANCH   2   3
ENDBRANCH   1   2
BRANCH   1  26
ATOM     26  C   UNL A   1      35.539  30.928  28.806  1.00  0.00     0.188 C 
BRANCH  26  27
ATOM     27  C   UNL A   1      35.693  32.446  29.035  1.00  0.00     0.188 C 
BRANCH  27  28
ATOM     28  O   UNL A   1      35.500  33.230  27.854  1.00  0.00    -0.376 OA
BRANCH  28  29
ATOM     29  C   UNL A   1      34.458  34.199  27.906  1.00  0.00     0.202 C 
BRANCH  29  30
ATOM     30  C   UNL A   1      33.611  34.125  29.184  1.00  0.00     0.261 C 
BRANCH  30  31
ATOM     31  O   UNL A   1      33.619  35.325  29.973  1.00  0.00    -0.460 OA
BRANCH  31  32
ATOM     32  C   UNL A   1      33.267  35.193  31.270  1.00  0.00     0.338 C 
ATOM     33  O   UNL A   1      32.158  35.359  31.748  1.00  0.00    -0.246 OA
BRANCH  32  34
ATOM     34  C   UNL A   1      34.413  34.630  32.009  1.00  0.00     0.060 A 
ATOM     35  C   UNL A   1      35.655  35.260  31.884  1.00  0.00     0.016 A 
ATOM     36  C   UNL A   1      34.271  33.475  32.784  1.00  0.00     0.016 A 
ATOM     37  C   UNL A   1      36.779  34.696  32.486  1.00  0.00     0.010 A 
ATOM     38  C   UNL A   1      35.401  32.906  33.378  1.00  0.00     0.010 A 
ATOM     39  C   UNL A   1      36.665  33.491  33.192  1.00  0.00    -0.014 A 
BRANCH  39  40
ATOM     40  C   UNL A   1      37.894  32.748  33.556  1.00  0.00     0.031 A 
ATOM     41  C   UNL A   1      38.601  33.119  34.832  1.00  0.00     0.074 A 
ATOM     42  C   UNL A   1      38.350  31.740  32.793  1.00  0.00     0.049 A 
ATOM     43  N   UNL A   1      39.657  32.578  35.382  1.00  0.00    -0.248 NA
ATOM     44  C   UNL A   1      38.040  34.251  35.589  1.00  0.00     0.031 C 
ATOM     45  C   UNL A   1      37.744  31.284  31.543  1.00  0.00     0.029 A 
ATOM     46  N   UNL A   1      39.432  30.915  32.966  1.00  0.00    -0.354 N 
ATOM     47  C   UNL A   1      39.880  33.296  36.552  1.00  0.00     0.074 A 
ATOM     48  C   UNL A   1      38.876  34.335  36.612  1.00  0.00     0.031 C 
ATOM     49  C   UNL A   1      38.470  30.260  31.057  1.00  0.00     0.029 A 
ATOM     50  C   UNL A   1      39.593  29.998  31.957  1.00  0.00     0.049 A 
ATOM     51  H   UNL A   1      40.037  30.976  33.740  1.00  0.00     0.167 HD
ATOM     52  C   UNL A   1      40.828  33.098  37.499  1.00  0.00     0.037 A 
ATOM     53  C   UNL A   1      40.542  29.056  31.781  1.00  0.00     0.037 A 
ATOM     54  C   UNL A   1      41.833  32.071  37.432  1.00  0.00     0.049 A 
ATOM     55  C   UNL A   1      41.611  28.881  32.828  1.00  0.00     0.074 A 
ATOM     56  C   UNL A   1      42.830  31.780  38.346  1.00  0.00     0.029 A 
ATOM     57  N   UNL A   1      41.974  31.172  36.385  1.00  0.00    -0.354 N 
ATOM     58  N   UNL A   1      41.785  29.538  33.951  1.00  0.00    -0.248 NA
ATOM     59  C   UNL A   1      42.607  27.826  32.590  1.00  0.00     0.031 C 
ATOM     60  C   UNL A   1      43.598  30.728  37.834  1.00  0.00     0.029 A 
ATOM     61  C   UNL A   1      43.053  30.337  36.621  1.00  0.00     0.049 A 
ATOM     62  H   UNL A   1      41.394  31.135  35.591  1.00  0.00     0.167 HD
ATOM     63  C   UNL A   1      42.892  28.960  34.564  1.00  0.00     0.074 A 
ATOM     64  C   UNL A   1      43.341  27.893  33.692  1.00  0.00     0.031 C 
ATOM     65  C   UNL A   1      43.484  29.278  35.742  1.00  0.00     0.037 A 
BRANCH  52  66
ATOM     66  C   UNL A   1      40.824  34.027  38.679  1.00  0.00     0.058 A 
ATOM     67  C   UNL A   1      41.578  35.211  38.683  1.00  0.00     0.135 A 
ATOM     68  C   UNL A   1      40.051  33.738  39.814  1.00  0.00     0.135 A 
ATOM     69  F   UNL A   1      42.352  35.523  37.632  1.00  0.00    -0.206 F 
ATOM     70  C   UNL A   1      41.585  36.065  39.782  1.00  0.00     0.059 A 
ATOM     71  C   UNL A   1      40.024  34.588  40.915  1.00  0.00     0.059 A 
ATOM     72  F   UNL A   1      39.317  32.614  39.863  1.00  0.00    -0.206 F 
ATOM     73  C   UNL A   1      40.807  35.742  40.895  1.00  0.00     0.060 A 
BRANCH  73  74
ATOM     74  S   UNL A   1      40.828  36.855  42.316  1.00  0.00     0.124 S 
ATOM     75  O   UNL A   1      41.362  38.076  41.720  1.00  0.00    -0.237 OA
ATOM     76  O   UNL A   1      39.421  36.900  42.699  1.00  0.00    -0.237 OA
ATOM     77  O   UNL A   1      41.711  36.179  43.262  1.00  0.00    -0.744 OA
ENDBRANCH  73  74
ENDBRANCH  52  66
BRANCH  53  78
ATOM     78  C   UNL A   1      40.519  28.195  30.570  1.00  0.00     0.058 A 
ATOM     79  C   UNL A   1      41.478  28.341  29.558  1.00  0.00     0.135 A 
ATOM     80  C   UNL A   1      39.533  27.211  30.402  1.00  0.00     0.135 A 
ATOM     81  F   UNL A   1      42.434  29.275  29.669  1.00  0.00    -0.206 F 
ATOM     82  C   UNL A   1      41.453  27.551  28.413  1.00  0.00     0.059 A 
ATOM     83  C   UNL A   1      39.500  26.395  29.277  1.00  0.00     0.059 A 
ATOM     84  F   UNL A   1      38.598  27.027  31.348  1.00  0.00    -0.206 F 
ATOM     85  C   UNL A   1      40.460  26.579  28.281  1.00  0.00     0.060 A 
BRANCH  85  86
ATOM     86  S   UNL A   1      40.465  25.523  26.816  1.00  0.00     0.124 S 
ATOM     87  O   UNL A   1      39.104  25.000  26.828  1.00  0.00    -0.237 OA
ATOM     88  O   UNL A   1      40.776  26.473  25.753  1.00  0.00    -0.237 OA
ATOM     89  O   UNL A   1      41.518  24.555  27.107  1.00  0.00    -0.744 OA
ENDBRANCH  85  86
ENDBRANCH  53  78
BRANCH  65  90
ATOM     90  C   UNL A   1      44.660  28.447  36.171  1.00  0.00     0.058 A 
ATOM     91  C   UNL A   1      44.499  27.279  36.934  1.00  0.00     0.135 A 
ATOM     92  C   UNL A   1      45.962  28.804  35.784  1.00  0.00     0.135 A 
ATOM     93  F   UNL A   1      43.276  26.896  37.331  1.00  0.00    -0.206 F 
ATOM     94  C   UNL A   1      45.591  26.513  37.326  1.00  0.00     0.059 A 
ATOM     95  C   UNL A   1      47.066  28.039  36.144  1.00  0.00     0.059 A 
ATOM     96  F   UNL A   1      46.169  29.904  35.042  1.00  0.00    -0.206 F 
ATOM     97  C   UNL A   1      46.872  26.903  36.930  1.00  0.00     0.060 A 
BRANCH  97  98
ATOM     98  S   UNL A   1      48.283  25.895  37.433  1.00  0.00     0.124 S 
ATOM     99  O   UNL A   1      49.344  26.434  36.588  1.00  0.00    -0.237 OA
ATOM    100  O   UNL A   1      48.394  26.193  38.858  1.00  0.00    -0.237 OA
ATOM    101  O   UNL A   1      47.856  24.535  37.115  1.00  0.00    -0.744 OA
ENDBRANCH  97  98
ENDBRANCH  65  90
ENDBRANCH  39  40
ENDBRANCH  32  34
ENDBRANCH  31  32
ENDBRANCH  30  31
ENDBRANCH  29  30
ENDBRANCH  28  29
ENDBRANCH  27  28
ENDBRANCH  26  27
ENDBRANCH   1  26
TORSDOF 26
ENDMDL
