MODEL 1
REMARK VINA RESULT:      -8.8      0.000      0.000
REMARK SMILES CS(=O)(=O)Nc1cc(NS(C)(=O)=O)cc(C(=O)OCCOCCOCCOCCOC(=O)c2ccc(-c3c4nc(c(-c5c(F)cc(S(=O)(=O)[O-])cc5F)c5ccc([nH]5)c(-c5c(F)cc(S(=O)(=O)[O-])cc5F)c5nc(c(-c6c(F)cc(S(=O)(=O)[O-])cc6F)c6ccc3[nH]6)C=C5)C=C4)cc2)c1
REMARK SMILES IDX 25 1 24 2 23 3 22 4 21 5 20 6 19 7 18 8 16 9 17 10 15 11
REMARK SMILES IDX 6 12 7 13 99 14 8 15 14 16 5 17 2 19 1 20 3 21 4 22 9 23
REMARK SMILES IDX 10 25 11 26 12 27 13 28 26 29 27 30 28 31 29 32 30 33 31 34
REMARK SMILES IDX 32 35 33 36 34 37 98 38 35 39 97 40 36 41 37 42 38 43 91 44
REMARK SMILES IDX 39 45 96 46 90 47 92 48 40 49 95 50 89 51 88 52 41 54 75 55
REMARK SMILES IDX 54 56 74 57 55 58 58 59 73 60 93 61 56 62 57 63 72 65 94 66
REMARK SMILES IDX 59 67 42 68 43 69 52 70 44 71 45 72 51 73 53 74 46 75 47 76
REMARK SMILES IDX 48 77 49 78 50 79 76 80 77 81 86 82 78 83 79 84 85 85 87 86
REMARK SMILES IDX 80 87 81 88 82 89 83 90 84 91 60 92 61 93 70 94 62 95 63 96
REMARK SMILES IDX 69 97 71 98 64 99 65 100 66 101 67 102 68 103
REMARK H PARENT 5 18 9 24 92 53 58 64
REMARK Flexibility Score: inf
ROOT
ATOM      1  C   UNL A   1      35.663  23.055  24.973  1.00  0.00     0.188 C 
ENDROOT
BRANCH   1   2
ATOM      2  O   UNL A   1      34.624  23.826  24.376  1.00  0.00    -0.377 OA
BRANCH   2   3
ATOM      3  C   UNL A   1      34.642  25.218  24.616  1.00  0.00     0.188 C 
BRANCH   3   4
ATOM      4  C   UNL A   1      33.578  25.991  23.813  1.00  0.00     0.188 C 
BRANCH   4   5
ATOM      5  O   UNL A   1      32.576  25.294  23.098  1.00  0.00    -0.376 OA
BRANCH   5   6
ATOM      6  C   UNL A   1      32.788  24.645  21.852  1.00  0.00     0.202 C 
BRANCH   6   7
ATOM      7  C   UNL A   1      32.889  23.130  21.608  1.00  0.00     0.261 C 
BRANCH   7   8
ATOM      8  O   UNL A   1      31.758  22.333  21.929  1.00  0.00    -0.460 OA
BRANCH   8   9
ATOM      9  C   UNL A   1      31.929  20.998  21.931  1.00  0.00     0.338 C 
ATOM     10  O   UNL A   1      31.788  20.225  21.002  1.00  0.00    -0.246 OA
BRANCH   9  11
ATOM     11  C   UNL A   1      32.510  20.632  23.242  1.00  0.00     0.064 A 
ATOM     12  C   UNL A   1      33.894  19.207  24.599  1.00  0.00     0.051 A 
ATOM     13  C   UNL A   1      33.541  19.946  25.736  1.00  0.00     0.053 A 
ATOM     14  C   UNL A   1      33.308  19.501  23.377  1.00  0.00     0.042 A 
ATOM     15  C   UNL A   1      32.621  20.996  25.639  1.00  0.00     0.051 A 
ATOM     16  C   UNL A   1      32.163  21.376  24.371  1.00  0.00     0.042 A 
BRANCH  12  17
ATOM     17  N   UNL A   1      34.761  18.075  24.691  1.00  0.00    -0.284 N 
ATOM     18  H   UNL A   1      35.731  18.211  24.790  1.00  0.00     0.180 HD
BRANCH  17  19
ATOM     19  S   UNL A   1      34.138  16.504  24.631  1.00  0.00     0.229 S 
ATOM     20  C   UNL A   1      32.508  16.517  25.373  1.00  0.00     0.183 C 
ATOM     21  O   UNL A   1      35.010  15.698  25.458  1.00  0.00    -0.207 OA
ATOM     22  O   UNL A   1      33.979  16.199  23.224  1.00  0.00    -0.207 OA
ENDBRANCH  17  19
ENDBRANCH  12  17
BRANCH  15  23
ATOM     23  N   UNL A   1      32.101  21.782  26.719  1.00  0.00    -0.284 N 
ATOM     24  H   UNL A   1      32.408  21.558  27.627  1.00  0.00     0.180 HD
BRANCH  23  25
ATOM     25  S   UNL A   1      31.013  23.056  26.575  1.00  0.00     0.229 S 
ATOM     26  C   UNL A   1      32.115  24.412  26.890  1.00  0.00     0.183 C 
ATOM     27  O   UNL A   1      30.641  23.111  25.174  1.00  0.00    -0.207 OA
ATOM     28  O   UNL A   1      30.027  23.052  27.625  1.00  0.00    -0.207 OA
ENDBRANCH  23  25
ENDBRANCH  15  23
ENDBRANCH   9  11
ENDBRANCH   8   9
ENDBRANCH   7   8
ENDBRANCH   6   7
ENDBRANCH   5   6
ENDBRANCH   4   5
ENDBRANCH   3   4
ENDBRANCH   2   3
ENDBRANCH   1   2
BRANCH   1  29
ATOM     29  C   UNL A   1      36.903  23.763  25.567  1.00  0.00     0.188 C 
BRANCH  29  30
ATOM     30  O   UNL A   1      37.925  22.881  26.019  1.00  0.00    -0.376 OA
BRANCH  30  31
ATOM     31  C   UNL A   1      37.940  21.550  25.529  1.00  0.00     0.202 C 
BRANCH  31  32
ATOM     32  C   UNL A   1      39.234  20.754  25.751  1.00  0.00     0.261 C 
BRANCH  32  33
ATOM     33  O   UNL A   1      40.402  21.535  26.036  1.00  0.00    -0.460 OA
BRANCH  33  34
ATOM     34  C   UNL A   1      40.854  21.519  27.310  1.00  0.00     0.338 C 
ATOM     35  O   UNL A   1      41.177  20.542  27.958  1.00  0.00    -0.246 OA
BRANCH  34  36
ATOM     36  C   UNL A   1      41.081  22.918  27.722  1.00  0.00     0.060 A 
ATOM     37  C   UNL A   1      40.406  23.939  27.044  1.00  0.00     0.016 A 
ATOM     38  C   UNL A   1      41.952  23.220  28.772  1.00  0.00     0.016 A 
ATOM     39  C   UNL A   1      40.635  25.272  27.385  1.00  0.00     0.010 A 
ATOM     40  C   UNL A   1      42.193  24.557  29.102  1.00  0.00     0.010 A 
ATOM     41  C   UNL A   1      41.565  25.589  28.384  1.00  0.00    -0.014 A 
BRANCH  41  42
ATOM     42  C   UNL A   1      42.028  26.992  28.529  1.00  0.00     0.031 A 
ATOM     43  C   UNL A   1      43.426  27.331  28.088  1.00  0.00     0.074 A 
ATOM     44  C   UNL A   1      41.214  27.952  29.003  1.00  0.00     0.049 A 
ATOM     45  N   UNL A   1      44.052  28.478  28.119  1.00  0.00    -0.248 NA
ATOM     46  C   UNL A   1      44.225  26.223  27.539  1.00  0.00     0.031 C 
ATOM     47  C   UNL A   1      39.830  27.755  29.427  1.00  0.00     0.029 A 
ATOM     48  N   UNL A   1      41.442  29.290  29.206  1.00  0.00    -0.354 N 
ATOM     49  C   UNL A   1      45.317  28.231  27.597  1.00  0.00     0.074 A 
ATOM     50  C   UNL A   1      45.383  26.818  27.295  1.00  0.00     0.031 C 
ATOM     51  C   UNL A   1      39.332  28.932  29.846  1.00  0.00     0.029 A 
ATOM     52  C   UNL A   1      40.369  29.957  29.748  1.00  0.00     0.049 A 
ATOM     53  H   UNL A   1      42.294  29.731  28.984  1.00  0.00     0.167 HD
ATOM     54  C   UNL A   1      46.330  29.104  27.376  1.00  0.00     0.037 A 
ATOM     55  C   UNL A   1      40.248  31.244  30.135  1.00  0.00     0.037 A 
ATOM     56  C   UNL A   1      46.262  30.508  27.689  1.00  0.00     0.049 A 
ATOM     57  C   UNL A   1      41.413  32.183  29.949  1.00  0.00     0.074 A 
ATOM     58  C   UNL A   1      47.228  31.480  27.495  1.00  0.00     0.029 A 
ATOM     59  N   UNL A   1      45.173  31.139  28.272  1.00  0.00    -0.354 N 
ATOM     60  N   UNL A   1      42.595  31.944  29.429  1.00  0.00    -0.248 NA
ATOM     61  C   UNL A   1      41.226  33.570  30.396  1.00  0.00     0.031 C 
ATOM     62  C   UNL A   1      46.746  32.686  28.015  1.00  0.00     0.029 A 
ATOM     63  C   UNL A   1      45.453  32.481  28.472  1.00  0.00     0.049 A 
ATOM     64  H   UNL A   1      44.325  30.698  28.510  1.00  0.00     0.167 HD
ATOM     65  C   UNL A   1      43.279  33.157  29.460  1.00  0.00     0.074 A 
ATOM     66  C   UNL A   1      42.372  34.129  30.034  1.00  0.00     0.031 C 
ATOM     67  C   UNL A   1      44.541  33.441  29.047  1.00  0.00     0.037 A 
BRANCH  54  68
ATOM     68  C   UNL A   1      47.607  28.553  26.800  1.00  0.00     0.058 A 
ATOM     69  C   UNL A   1      47.785  28.385  25.417  1.00  0.00     0.135 A 
ATOM     70  C   UNL A   1      48.672  28.199  27.642  1.00  0.00     0.135 A 
ATOM     71  F   UNL A   1      46.793  28.688  24.564  1.00  0.00    -0.206 F 
ATOM     72  C   UNL A   1      48.960  27.855  24.894  1.00  0.00     0.059 A 
ATOM     73  C   UNL A   1      49.868  27.697  27.139  1.00  0.00     0.059 A 
ATOM     74  F   UNL A   1      48.556  28.335  28.973  1.00  0.00    -0.206 F 
ATOM     75  C   UNL A   1      49.996  27.512  25.763  1.00  0.00     0.060 A 
BRANCH  75  76
ATOM     76  S   UNL A   1      51.511  26.819  25.068  1.00  0.00     0.124 S 
ATOM     77  O   UNL A   1      52.441  27.934  25.229  1.00  0.00    -0.237 OA
ATOM     78  O   UNL A   1      51.750  25.666  25.931  1.00  0.00    -0.237 OA
ATOM     79  O   UNL A   1      51.142  26.504  23.692  1.00  0.00    -0.744 OA
ENDBRANCH  75  76
ENDBRANCH  54  68
BRANCH  55  80
ATOM     80  C   UNL A   1      38.974  31.723  30.737  1.00  0.00     0.058 A 
ATOM     81  C   UNL A   1      38.750  31.650  32.120  1.00  0.00     0.135 A 
ATOM     82  C   UNL A   1      37.951  32.262  29.939  1.00  0.00     0.135 A 
ATOM     83  F   UNL A   1      39.689  31.128  32.924  1.00  0.00    -0.206 F 
ATOM     84  C   UNL A   1      37.559  32.086  32.691  1.00  0.00     0.059 A 
ATOM     85  C   UNL A   1      36.763  32.732  30.490  1.00  0.00     0.059 A 
ATOM     86  F   UNL A   1      38.115  32.359  28.610  1.00  0.00    -0.206 F 
ATOM     87  C   UNL A   1      36.573  32.633  31.868  1.00  0.00     0.060 A 
BRANCH  87  88
ATOM     88  S   UNL A   1      35.060  33.259  32.629  1.00  0.00     0.124 S 
ATOM     89  O   UNL A   1      35.095  34.665  32.244  1.00  0.00    -0.237 OA
ATOM     90  O   UNL A   1      34.035  32.445  31.982  1.00  0.00    -0.237 OA
ATOM     91  O   UNL A   1      35.260  32.987  34.049  1.00  0.00    -0.744 OA
ENDBRANCH  87  88
ENDBRANCH  55  80
BRANCH  67  92
ATOM     92  C   UNL A   1      45.006  34.869  29.167  1.00  0.00     0.058 A 
ATOM     93  C   UNL A   1      44.794  35.809  28.145  1.00  0.00     0.135 A 
ATOM     94  C   UNL A   1      45.647  35.312  30.337  1.00  0.00     0.135 A 
ATOM     95  F   UNL A   1      44.190  35.443  27.003  1.00  0.00    -0.206 F 
ATOM     96  C   UNL A   1      45.236  37.124  28.262  1.00  0.00     0.059 A 
ATOM     97  C   UNL A   1      46.065  36.630  30.489  1.00  0.00     0.059 A 
ATOM     98  F   UNL A   1      45.863  34.462  31.353  1.00  0.00    -0.206 F 
ATOM     99  C   UNL A   1      45.872  37.525  29.438  1.00  0.00     0.060 A 
BRANCH  99 100
ATOM    100  S   UNL A   1      46.435  39.234  29.581  1.00  0.00     0.124 S 
ATOM    101  O   UNL A   1      46.833  39.527  28.208  1.00  0.00    -0.237 OA
ATOM    102  O   UNL A   1      45.236  39.919  30.053  1.00  0.00    -0.237 OA
ATOM    103  O   UNL A   1      47.526  39.155  30.548  1.00  0.00    -0.744 OA
ENDBRANCH  99 100
ENDBRANCH  67  92
ENDBRANCH  41  42
ENDBRANCH  34  36
ENDBRANCH  33  34
ENDBRANCH  32  33
ENDBRANCH  31  32
ENDBRANCH  30  31
ENDBRANCH  29  30
ENDBRANCH   1  29
TORSDOF 27
ENDMDL
MODEL 2
REMARK VINA RESULT:      -8.7      2.098      4.446
REMARK SMILES CS(=O)(=O)Nc1cc(NS(C)(=O)=O)cc(C(=O)OCCOCCOCCOCCOC(=O)c2ccc(-c3c4nc(c(-c5c(F)cc(S(=O)(=O)[O-])cc5F)c5ccc([nH]5)c(-c5c(F)cc(S(=O)(=O)[O-])cc5F)c5nc(c(-c6c(F)cc(S(=O)(=O)[O-])cc6F)c6ccc3[nH]6)C=C5)C=C4)cc2)c1
REMARK SMILES IDX 25 1 24 2 23 3 22 4 21 5 20 6 19 7 18 8 16 9 17 10 15 11
REMARK SMILES IDX 6 12 7 13 99 14 8 15 14 16 5 17 2 19 1 20 3 21 4 22 9 23
REMARK SMILES IDX 10 25 11 26 12 27 13 28 26 29 27 30 28 31 29 32 30 33 31 34
REMARK SMILES IDX 32 35 33 36 34 37 98 38 35 39 97 40 36 41 37 42 38 43 91 44
REMARK SMILES IDX 39 45 96 46 90 47 92 48 40 49 95 50 89 51 88 52 41 54 75 55
REMARK SMILES IDX 54 56 74 57 55 58 58 59 73 60 93 61 56 62 57 63 72 65 94 66
REMARK SMILES IDX 59 67 42 68 43 69 52 70 44 71 45 72 51 73 53 74 46 75 47 76
REMARK SMILES IDX 48 77 49 78 50 79 76 80 77 81 86 82 78 83 79 84 85 85 87 86
REMARK SMILES IDX 80 87 81 88 82 89 83 90 84 91 60 92 61 93 70 94 62 95 63 96
REMARK SMILES IDX 69 97 71 98 64 99 65 100 66 101 67 102 68 103
REMARK H PARENT 5 18 9 24 92 53 58 64
REMARK Flexibility Score: inf
ROOT
ATOM      1  C   UNL A   1      35.773  21.332  25.610  1.00  0.00     0.188 C 
ENDROOT
BRANCH   1   2
ATOM      2  O   UNL A   1      34.686  21.246  24.691  1.00  0.00    -0.377 OA
BRANCH   2   3
ATOM      3  C   UNL A   1      33.873  20.094  24.769  1.00  0.00     0.188 C 
BRANCH   3   4
ATOM      4  C   UNL A   1      32.395  20.366  24.427  1.00  0.00     0.188 C 
BRANCH   4   5
ATOM      5  O   UNL A   1      31.859  21.669  24.556  1.00  0.00    -0.376 OA
BRANCH   5   6
ATOM      6  C   UNL A   1      31.251  22.169  25.738  1.00  0.00     0.202 C 
BRANCH   6   7
ATOM      7  C   UNL A   1      31.333  23.606  26.280  1.00  0.00     0.261 C 
BRANCH   7   8
ATOM      8  O   UNL A   1      30.926  24.660  25.419  1.00  0.00    -0.460 OA
BRANCH   8   9
ATOM      9  C   UNL A   1      30.924  25.904  25.931  1.00  0.00     0.338 C 
ATOM     10  O   UNL A   1      30.290  26.320  26.883  1.00  0.00    -0.246 OA
BRANCH   9  11
ATOM     11  C   UNL A   1      31.989  26.664  25.240  1.00  0.00     0.064 A 
ATOM     12  C   UNL A   1      33.473  28.553  25.112  1.00  0.00     0.051 A 
ATOM     13  C   UNL A   1      33.958  28.090  23.881  1.00  0.00     0.053 A 
ATOM     14  C   UNL A   1      32.433  27.884  25.738  1.00  0.00     0.042 A 
ATOM     15  C   UNL A   1      33.414  26.942  23.295  1.00  0.00     0.051 A 
ATOM     16  C   UNL A   1      32.476  26.196  24.018  1.00  0.00     0.042 A 
BRANCH  12  17
ATOM     17  N   UNL A   1      33.950  29.773  25.685  1.00  0.00    -0.284 N 
ATOM     18  H   UNL A   1      34.060  30.568  25.116  1.00  0.00     0.180 HD
BRANCH  17  19
ATOM     19  S   UNL A   1      34.328  29.863  27.331  1.00  0.00     0.229 S 
ATOM     20  C   UNL A   1      34.221  31.576  27.840  1.00  0.00     0.183 C 
ATOM     21  O   UNL A   1      35.706  29.437  27.447  1.00  0.00    -0.207 OA
ATOM     22  O   UNL A   1      33.280  29.134  28.014  1.00  0.00    -0.207 OA
ENDBRANCH  17  19
ENDBRANCH  12  17
BRANCH  15  23
ATOM     23  N   UNL A   1      33.744  26.398  22.010  1.00  0.00    -0.284 N 
ATOM     24  H   UNL A   1      34.597  26.681  21.608  1.00  0.00     0.180 HD
BRANCH  23  25
ATOM     25  S   UNL A   1      32.804  25.318  21.128  1.00  0.00     0.229 S 
ATOM     26  C   UNL A   1      31.197  25.988  21.474  1.00  0.00     0.183 C 
ATOM     27  O   UNL A   1      33.095  25.579  19.731  1.00  0.00    -0.207 OA
ATOM     28  O   UNL A   1      32.842  23.988  21.679  1.00  0.00    -0.207 OA
ENDBRANCH  23  25
ENDBRANCH  15  23
ENDBRANCH   9  11
ENDBRANCH   8   9
ENDBRANCH   7   8
ENDBRANCH   6   7
ENDBRANCH   5   6
ENDBRANCH   4   5
ENDBRANCH   3   4
ENDBRANCH   2   3
ENDBRANCH   1   2
BRANCH   1  29
ATOM     29  C   UNL A   1      36.878  22.392  25.397  1.00  0.00     0.188 C 
BRANCH  29  30
ATOM     30  O   UNL A   1      38.194  21.940  25.697  1.00  0.00    -0.376 OA
BRANCH  30  31
ATOM     31  C   UNL A   1      38.467  20.550  25.632  1.00  0.00     0.202 C 
BRANCH  31  32
ATOM     32  C   UNL A   1      39.939  20.134  25.765  1.00  0.00     0.261 C 
BRANCH  32  33
ATOM     33  O   UNL A   1      40.851  21.183  26.117  1.00  0.00    -0.460 OA
BRANCH  33  34
ATOM     34  C   UNL A   1      41.306  21.197  27.390  1.00  0.00     0.338 C 
ATOM     35  O   UNL A   1      41.658  20.237  28.050  1.00  0.00    -0.246 OA
BRANCH  34  36
ATOM     36  C   UNL A   1      41.498  22.607  27.782  1.00  0.00     0.060 A 
ATOM     37  C   UNL A   1      40.912  23.610  27.000  1.00  0.00     0.016 A 
ATOM     38  C   UNL A   1      42.247  22.938  28.914  1.00  0.00     0.016 A 
ATOM     39  C   UNL A   1      41.112  24.951  27.324  1.00  0.00     0.010 A 
ATOM     40  C   UNL A   1      42.460  24.283  29.228  1.00  0.00     0.010 A 
ATOM     41  C   UNL A   1      41.926  25.295  28.412  1.00  0.00    -0.014 A 
BRANCH  41  42
ATOM     42  C   UNL A   1      42.381  26.700  28.566  1.00  0.00     0.031 A 
ATOM     43  C   UNL A   1      43.791  27.040  28.164  1.00  0.00     0.074 A 
ATOM     44  C   UNL A   1      41.552  27.659  29.012  1.00  0.00     0.049 A 
ATOM     45  N   UNL A   1      44.413  28.189  28.209  1.00  0.00    -0.248 NA
ATOM     46  C   UNL A   1      44.608  25.932  27.643  1.00  0.00     0.031 C 
ATOM     47  C   UNL A   1      40.156  27.460  29.396  1.00  0.00     0.029 A 
ATOM     48  N   UNL A   1      41.770  28.999  29.217  1.00  0.00    -0.354 N 
ATOM     49  C   UNL A   1      45.693  27.943  27.725  1.00  0.00     0.074 A 
ATOM     50  C   UNL A   1      45.771  26.529  27.431  1.00  0.00     0.031 C 
ATOM     51  C   UNL A   1      39.643  28.638  29.796  1.00  0.00     0.029 A 
ATOM     52  C   UNL A   1      40.680  29.665  29.724  1.00  0.00     0.049 A 
ATOM     53  H   UNL A   1      42.628  29.441  29.018  1.00  0.00     0.167 HD
ATOM     54  C   UNL A   1      46.710  28.818  27.532  1.00  0.00     0.037 A 
ATOM     55  C   UNL A   1      40.545  30.953  30.103  1.00  0.00     0.037 A 
ATOM     56  C   UNL A   1      46.630  30.222  27.837  1.00  0.00     0.049 A 
ATOM     57  C   UNL A   1      41.713  31.894  29.948  1.00  0.00     0.074 A 
ATOM     58  C   UNL A   1      47.599  31.196  27.667  1.00  0.00     0.029 A 
ATOM     59  N   UNL A   1      45.522  30.853  28.386  1.00  0.00    -0.354 N 
ATOM     60  N   UNL A   1      42.910  31.656  29.463  1.00  0.00    -0.248 NA
ATOM     61  C   UNL A   1      41.510  33.283  30.384  1.00  0.00     0.031 C 
ATOM     62  C   UNL A   1      47.099  32.403  28.169  1.00  0.00     0.029 A 
ATOM     63  C   UNL A   1      45.794  32.197  28.588  1.00  0.00     0.049 A 
ATOM     64  H   UNL A   1      44.670  30.411  28.600  1.00  0.00     0.167 HD
ATOM     65  C   UNL A   1      43.591  32.871  29.510  1.00  0.00     0.074 A 
ATOM     66  C   UNL A   1      42.665  33.843  30.054  1.00  0.00     0.031 C 
ATOM     67  C   UNL A   1      44.863  33.156  29.133  1.00  0.00     0.037 A 
BRANCH  54  68
ATOM     68  C   UNL A   1      48.005  28.268  26.994  1.00  0.00     0.058 A 
ATOM     69  C   UNL A   1      49.087  27.960  27.835  1.00  0.00     0.135 A 
ATOM     70  C   UNL A   1      48.161  28.035  25.619  1.00  0.00     0.135 A 
ATOM     71  F   UNL A   1      49.001  28.182  29.157  1.00  0.00    -0.206 F 
ATOM     72  C   UNL A   1      50.287  27.474  27.328  1.00  0.00     0.059 A 
ATOM     73  C   UNL A   1      49.341  27.518  25.093  1.00  0.00     0.059 A 
ATOM     74  F   UNL A   1      47.160  28.314  24.768  1.00  0.00    -0.206 F 
ATOM     75  C   UNL A   1      50.406  27.257  25.954  1.00  0.00     0.060 A 
BRANCH  75  76
ATOM     76  S   UNL A   1      51.972  26.631  25.312  1.00  0.00     0.124 S 
ATOM     77  O   UNL A   1      51.569  26.133  24.000  1.00  0.00    -0.237 OA
ATOM     78  O   UNL A   1      52.806  27.828  25.306  1.00  0.00    -0.237 OA
ATOM     79  O   UNL A   1      52.353  25.608  26.281  1.00  0.00    -0.744 OA
ENDBRANCH  75  76
ENDBRANCH  54  68
BRANCH  55  80
ATOM     80  C   UNL A   1      39.253  31.431  30.665  1.00  0.00     0.058 A 
ATOM     81  C   UNL A   1      39.075  31.587  32.048  1.00  0.00     0.135 A 
ATOM     82  C   UNL A   1      38.166  31.740  29.830  1.00  0.00     0.135 A 
ATOM     83  F   UNL A   1      40.076  31.290  32.891  1.00  0.00    -0.206 F 
ATOM     84  C   UNL A   1      37.868  32.024  32.585  1.00  0.00     0.059 A 
ATOM     85  C   UNL A   1      36.959  32.206  30.340  1.00  0.00     0.059 A 
ATOM     86  F   UNL A   1      38.285  31.613  28.499  1.00  0.00    -0.206 F 
ATOM     87  C   UNL A   1      36.817  32.339  31.721  1.00  0.00     0.060 A 
BRANCH  87  88
ATOM     88  S   UNL A   1      35.279  32.971  32.425  1.00  0.00     0.124 S 
ATOM     89  O   UNL A   1      34.279  32.238  31.657  1.00  0.00    -0.237 OA
ATOM     90  O   UNL A   1      35.410  32.594  33.829  1.00  0.00    -0.237 OA
ATOM     91  O   UNL A   1      35.352  34.405  32.161  1.00  0.00    -0.744 OA
ENDBRANCH  87  88
ENDBRANCH  55  80
BRANCH  67  92
ATOM     92  C   UNL A   1      45.321  34.586  29.261  1.00  0.00     0.058 A 
ATOM     93  C   UNL A   1      45.977  35.058  30.409  1.00  0.00     0.135 A 
ATOM     94  C   UNL A   1      45.128  35.492  28.203  1.00  0.00     0.135 A 
ATOM     95  F   UNL A   1      46.187  34.239  31.453  1.00  0.00    -0.206 F 
ATOM     96  C   UNL A   1      46.388  36.383  30.521  1.00  0.00     0.059 A 
ATOM     97  C   UNL A   1      45.562  36.811  28.279  1.00  0.00     0.059 A 
ATOM     98  F   UNL A   1      44.520  35.093  27.074  1.00  0.00    -0.206 F 
ATOM     99  C   UNL A   1      46.174  37.253  29.450  1.00  0.00     0.060 A 
BRANCH  99 100
ATOM    100  S   UNL A   1      46.717  38.968  29.604  1.00  0.00     0.124 S 
ATOM    101  O   UNL A   1      48.143  38.851  29.315  1.00  0.00    -0.237 OA
ATOM    102  O   UNL A   1      45.917  39.642  28.585  1.00  0.00    -0.237 OA
ATOM    103  O   UNL A   1      46.381  39.310  30.983  1.00  0.00    -0.744 OA
ENDBRANCH  99 100
ENDBRANCH  67  92
ENDBRANCH  41  42
ENDBRANCH  34  36
ENDBRANCH  33  34
ENDBRANCH  32  33
ENDBRANCH  31  32
ENDBRANCH  30  31
ENDBRANCH  29  30
ENDBRANCH   1  29
TORSDOF 27
ENDMDL
MODEL 3
REMARK VINA RESULT:      -8.4      6.223     13.175
REMARK SMILES CS(=O)(=O)Nc1cc(NS(C)(=O)=O)cc(C(=O)OCCOCCOCCOCCOC(=O)c2ccc(-c3c4nc(c(-c5c(F)cc(S(=O)(=O)[O-])cc5F)c5ccc([nH]5)c(-c5c(F)cc(S(=O)(=O)[O-])cc5F)c5nc(c(-c6c(F)cc(S(=O)(=O)[O-])cc6F)c6ccc3[nH]6)C=C5)C=C4)cc2)c1
REMARK SMILES IDX 25 1 24 2 23 3 22 4 21 5 20 6 19 7 18 8 16 9 17 10 15 11
REMARK SMILES IDX 6 12 7 13 99 14 8 15 14 16 5 17 2 19 1 20 3 21 4 22 9 23
REMARK SMILES IDX 10 25 11 26 12 27 13 28 26 29 27 30 28 31 29 32 30 33 31 34
REMARK SMILES IDX 32 35 33 36 34 37 98 38 35 39 97 40 36 41 37 42 38 43 91 44
REMARK SMILES IDX 39 45 96 46 90 47 92 48 40 49 95 50 89 51 88 52 41 54 75 55
REMARK SMILES IDX 54 56 74 57 55 58 58 59 73 60 93 61 56 62 57 63 72 65 94 66
REMARK SMILES IDX 59 67 42 68 43 69 52 70 44 71 45 72 51 73 53 74 46 75 47 76
REMARK SMILES IDX 48 77 49 78 50 79 76 80 77 81 86 82 78 83 79 84 85 85 87 86
REMARK SMILES IDX 80 87 81 88 82 89 83 90 84 91 60 92 61 93 70 94 62 95 63 96
REMARK SMILES IDX 69 97 71 98 64 99 65 100 66 101 67 102 68 103
REMARK H PARENT 5 18 9 24 92 53 58 64
REMARK Flexibility Score: inf
ROOT
ATOM      1  C   UNL A   1      44.897  25.295  27.469  1.00  0.00     0.188 C 
ENDROOT
BRANCH   1   2
ATOM      2  O   UNL A   1      45.904  26.186  26.997  1.00  0.00    -0.377 OA
BRANCH   2   3
ATOM      3  C   UNL A   1      45.546  27.547  26.873  1.00  0.00     0.188 C 
BRANCH   3   4
ATOM      4  C   UNL A   1      45.977  28.173  25.533  1.00  0.00     0.188 C 
BRANCH   4   5
ATOM      5  O   UNL A   1      46.491  29.490  25.492  1.00  0.00    -0.376 OA
BRANCH   5   6
ATOM      6  C   UNL A   1      46.647  30.323  26.631  1.00  0.00     0.202 C 
BRANCH   6   7
ATOM      7  C   UNL A   1      46.742  31.859  26.645  1.00  0.00     0.261 C 
BRANCH   7   8
ATOM      8  O   UNL A   1      45.824  32.583  25.838  1.00  0.00    -0.460 OA
BRANCH   8   9
ATOM      9  C   UNL A   1      44.537  32.591  26.230  1.00  0.00     0.338 C 
ATOM     10  O   UNL A   1      43.693  31.733  26.044  1.00  0.00    -0.246 OA
BRANCH   9  11
ATOM     11  C   UNL A   1      44.353  33.768  27.107  1.00  0.00     0.064 A 
ATOM     12  C   UNL A   1      43.696  34.735  29.210  1.00  0.00     0.051 A 
ATOM     13  C   UNL A   1      43.973  36.014  28.709  1.00  0.00     0.053 A 
ATOM     14  C   UNL A   1      43.804  33.631  28.378  1.00  0.00     0.042 A 
ATOM     15  C   UNL A   1      44.384  36.179  27.382  1.00  0.00     0.051 A 
ATOM     16  C   UNL A   1      44.638  35.040  26.608  1.00  0.00     0.042 A 
BRANCH  12  17
ATOM     17  N   UNL A   1      43.188  34.551  30.533  1.00  0.00    -0.284 N 
ATOM     18  H   UNL A   1      43.476  35.157  31.253  1.00  0.00     0.180 HD
BRANCH  17  19
ATOM     19  S   UNL A   1      42.099  33.302  30.874  1.00  0.00     0.229 S 
ATOM     20  C   UNL A   1      42.974  31.745  30.755  1.00  0.00     0.183 C 
ATOM     21  O   UNL A   1      41.102  33.348  29.828  1.00  0.00    -0.207 OA
ATOM     22  O   UNL A   1      41.715  33.486  32.258  1.00  0.00    -0.207 OA
ENDBRANCH  17  19
ENDBRANCH  12  17
BRANCH  15  23
ATOM     23  N   UNL A   1      44.620  37.422  26.706  1.00  0.00    -0.284 N 
ATOM     24  H   UNL A   1      43.894  37.772  26.142  1.00  0.00     0.180 HD
BRANCH  23  25
ATOM     25  S   UNL A   1      46.029  38.336  26.794  1.00  0.00     0.229 S 
ATOM     26  C   UNL A   1      45.342  39.865  27.379  1.00  0.00     0.183 C 
ATOM     27  O   UNL A   1      46.812  37.767  27.873  1.00  0.00    -0.207 OA
ATOM     28  O   UNL A   1      46.593  38.591  25.493  1.00  0.00    -0.207 OA
ENDBRANCH  23  25
ENDBRANCH  15  23
ENDBRANCH   9  11
ENDBRANCH   8   9
ENDBRANCH   7   8
ENDBRANCH   6   7
ENDBRANCH   5   6
ENDBRANCH   4   5
ENDBRANCH   3   4
ENDBRANCH   2   3
ENDBRANCH   1   2
BRANCH   1  29
ATOM     29  C   UNL A   1      44.787  23.873  26.871  1.00  0.00     0.188 C 
BRANCH  29  30
ATOM     30  O   UNL A   1      44.191  23.820  25.580  1.00  0.00    -0.376 OA
BRANCH  30  31
ATOM     31  C   UNL A   1      42.872  24.316  25.420  1.00  0.00     0.202 C 
BRANCH  31  32
ATOM     32  C   UNL A   1      42.731  25.833  25.224  1.00  0.00     0.261 C 
BRANCH  32  33
ATOM     33  O   UNL A   1      41.391  26.341  25.264  1.00  0.00    -0.460 OA
BRANCH  33  34
ATOM     34  C   UNL A   1      40.551  25.783  26.164  1.00  0.00     0.338 C 
ATOM     35  O   UNL A   1      39.886  24.775  26.015  1.00  0.00    -0.246 OA
BRANCH  34  36
ATOM     36  C   UNL A   1      40.728  26.496  27.445  1.00  0.00     0.060 A 
ATOM     37  C   UNL A   1      39.920  26.140  28.531  1.00  0.00     0.016 A 
ATOM     38  C   UNL A   1      41.686  27.505  27.574  1.00  0.00     0.016 A 
ATOM     39  C   UNL A   1      40.037  26.826  29.740  1.00  0.00     0.010 A 
ATOM     40  C   UNL A   1      41.791  28.202  28.780  1.00  0.00     0.010 A 
ATOM     41  C   UNL A   1      40.940  27.891  29.855  1.00  0.00    -0.014 A 
BRANCH  41  42
ATOM     42  C   UNL A   1      40.845  28.803  31.023  1.00  0.00     0.031 A 
ATOM     43  C   UNL A   1      39.797  29.883  31.001  1.00  0.00     0.074 A 
ATOM     44  C   UNL A   1      41.640  28.651  32.096  1.00  0.00     0.049 A 
ATOM     45  N   UNL A   1      39.524  30.795  31.897  1.00  0.00    -0.248 NA
ATOM     46  C   UNL A   1      38.942  29.940  29.804  1.00  0.00     0.031 C 
ATOM     47  C   UNL A   1      42.666  27.622  32.251  1.00  0.00     0.029 A 
ATOM     48  N   UNL A   1      41.707  29.372  33.263  1.00  0.00    -0.354 N 
ATOM     49  C   UNL A   1      38.471  31.536  31.372  1.00  0.00     0.074 A 
ATOM     50  C   UNL A   1      38.180  30.991  30.063  1.00  0.00     0.031 C 
ATOM     51  C   UNL A   1      43.264  27.780  33.445  1.00  0.00     0.029 A 
ATOM     52  C   UNL A   1      42.686  28.938  34.125  1.00  0.00     0.049 A 
ATOM     53  H   UNL A   1      41.108  30.128  33.463  1.00  0.00     0.167 HD
ATOM     54  C   UNL A   1      37.797  32.568  31.934  1.00  0.00     0.037 A 
ATOM     55  C   UNL A   1      43.078  29.432  35.317  1.00  0.00     0.037 A 
ATOM     56  C   UNL A   1      38.098  33.113  33.232  1.00  0.00     0.049 A 
ATOM     57  C   UNL A   1      42.362  30.629  35.891  1.00  0.00     0.074 A 
ATOM     58  C   UNL A   1      37.468  34.150  33.897  1.00  0.00     0.029 A 
ATOM     59  N   UNL A   1      39.122  32.672  34.059  1.00  0.00    -0.354 N 
ATOM     60  N   UNL A   1      41.349  31.303  35.398  1.00  0.00    -0.248 NA
ATOM     61  C   UNL A   1      42.839  31.128  37.189  1.00  0.00     0.031 C 
ATOM     62  C   UNL A   1      38.149  34.376  35.099  1.00  0.00     0.029 A 
ATOM     63  C   UNL A   1      39.160  33.435  35.215  1.00  0.00     0.049 A 
ATOM     64  H   UNL A   1      39.731  31.927  33.855  1.00  0.00     0.167 HD
ATOM     65  C   UNL A   1      41.050  32.286  36.340  1.00  0.00     0.074 A 
ATOM     66  C   UNL A   1      41.978  32.106  37.436  1.00  0.00     0.031 C 
ATOM     67  C   UNL A   1      40.092  33.247  36.301  1.00  0.00     0.037 A 
BRANCH  54  68
ATOM     68  C   UNL A   1      36.690  33.194  31.127  1.00  0.00     0.058 A 
ATOM     69  C   UNL A   1      36.953  34.015  30.018  1.00  0.00     0.135 A 
ATOM     70  C   UNL A   1      35.347  32.961  31.462  1.00  0.00     0.135 A 
ATOM     71  F   UNL A   1      38.218  34.290  29.663  1.00  0.00    -0.206 F 
ATOM     72  C   UNL A   1      35.924  34.607  29.292  1.00  0.00     0.059 A 
ATOM     73  C   UNL A   1      34.302  33.516  30.730  1.00  0.00     0.059 A 
ATOM     74  F   UNL A   1      35.038  32.187  32.515  1.00  0.00    -0.206 F 
ATOM     75  C   UNL A   1      34.601  34.353  29.656  1.00  0.00     0.060 A 
BRANCH  75  76
ATOM     76  S   UNL A   1      33.280  35.135  28.707  1.00  0.00     0.124 S 
ATOM     77  O   UNL A   1      32.469  35.723  29.769  1.00  0.00    -0.237 OA
ATOM     78  O   UNL A   1      34.014  36.080  27.873  1.00  0.00    -0.237 OA
ATOM     79  O   UNL A   1      32.666  34.018  27.995  1.00  0.00    -0.744 OA
ENDBRANCH  75  76
ENDBRANCH  54  68
BRANCH  55  80
ATOM     80  C   UNL A   1      44.206  28.796  36.051  1.00  0.00     0.058 A 
ATOM     81  C   UNL A   1      43.990  27.714  36.919  1.00  0.00     0.135 A 
ATOM     82  C   UNL A   1      45.523  29.259  35.903  1.00  0.00     0.135 A 
ATOM     83  F   UNL A   1      42.748  27.244  37.108  1.00  0.00    -0.206 F 
ATOM     84  C   UNL A   1      45.036  27.118  37.616  1.00  0.00     0.059 A 
ATOM     85  C   UNL A   1      46.590  28.661  36.567  1.00  0.00     0.059 A 
ATOM     86  F   UNL A   1      45.786  30.288  35.081  1.00  0.00    -0.206 F 
ATOM     87  C   UNL A   1      46.335  27.595  37.428  1.00  0.00     0.060 A 
BRANCH  87  88
ATOM     88  S   UNL A   1      47.692  26.768  38.286  1.00  0.00     0.124 S 
ATOM     89  O   UNL A   1      48.856  27.357  37.635  1.00  0.00    -0.237 OA
ATOM     90  O   UNL A   1      47.464  27.169  39.671  1.00  0.00    -0.237 OA
ATOM     91  O   UNL A   1      47.458  25.356  38.005  1.00  0.00    -0.744 OA
ENDBRANCH  87  88
ENDBRANCH  55  80
BRANCH  67  92
ATOM     92  C   UNL A   1      39.972  34.157  37.496  1.00  0.00     0.058 A 
ATOM     93  C   UNL A   1      40.651  35.384  37.568  1.00  0.00     0.135 A 
ATOM     94  C   UNL A   1      39.139  33.810  38.573  1.00  0.00     0.135 A 
ATOM     95  F   UNL A   1      41.464  35.767  36.570  1.00  0.00    -0.206 F 
ATOM     96  C   UNL A   1      40.542  36.213  38.681  1.00  0.00     0.059 A 
ATOM     97  C   UNL A   1      38.986  34.640  39.679  1.00  0.00     0.059 A 
ATOM     98  F   UNL A   1      38.452  32.656  38.553  1.00  0.00    -0.206 F 
ATOM     99  C   UNL A   1      39.707  35.831  39.733  1.00  0.00     0.060 A 
BRANCH  99 100
ATOM    100  S   UNL A   1      39.567  36.918  41.167  1.00  0.00     0.124 S 
ATOM    101  O   UNL A   1      38.763  36.105  42.074  1.00  0.00    -0.237 OA
ATOM    102  O   UNL A   1      40.962  37.107  41.553  1.00  0.00    -0.237 OA
ATOM    103  O   UNL A   1      38.905  38.104  40.634  1.00  0.00    -0.744 OA
ENDBRANCH  99 100
ENDBRANCH  67  92
ENDBRANCH  41  42
ENDBRANCH  34  36
ENDBRANCH  33  34
ENDBRANCH  32  33
ENDBRANCH  31  32
ENDBRANCH  30  31
ENDBRANCH  29  30
ENDBRANCH   1  29
TORSDOF 27
ENDMDL
