MODEL 1
REMARK VINA RESULT:      -9.8      0.000      0.000
REMARK SMILES O=C(OCCOCCOCCOCCOC(=O)[C@@H]1CC=CC[C@@H]1C(=O)Nc1ccc(Br)cc1Cl)c1ccc(-c2c3nc(c(-c4c(F)cc(S(=O)(=O)[O-])cc4F)c4ccc([nH]4)c(-c4c(F)cc(S(=O)(=O)[O-])cc4F)c4nc(c(-c5c(F)cc(S(=O)(=O)[O-])cc5F)c5ccc2[nH]5)C=C4)C=C3)cc1
REMARK SMILES IDX 8 1 7 2 6 3 5 4 4 5 3 6 2 7 1 8 35 9 36 10 100 11 37 12
REMARK SMILES IDX 99 13 38 14 39 15 40 16 93 17 41 18 98 19 92 20 94 21 42 22
REMARK SMILES IDX 97 23 91 24 90 25 43 27 77 28 56 29 76 30 57 31 60 32 75 33
REMARK SMILES IDX 95 34 58 35 59 36 74 38 96 39 61 40 44 41 45 42 54 43 46 44
REMARK SMILES IDX 47 45 53 46 55 47 48 48 49 49 50 50 51 51 52 52 78 53 79 54
REMARK SMILES IDX 88 55 80 56 81 57 87 58 89 59 82 60 83 61 84 62 85 63 86 64
REMARK SMILES IDX 62 65 63 66 72 67 64 68 65 69 71 70 73 71 66 72 67 73 68 74
REMARK SMILES IDX 69 75 70 76 9 77 10 78 11 79 12 80 13 81 14 82 15 83 16 84
REMARK SMILES IDX 17 85 18 86 19 87 23 88 20 89 22 90 21 91 24 92 25 93 26 94
REMARK SMILES IDX 27 96 28 97 33 98 29 99 32 100 34 101 30 102 31 103
REMARK H PARENT 94 26 60 37 26 95
REMARK Flexibility Score: inf
ROOT
ATOM      1  C   UNL A   1      36.034  32.907  29.741  1.00  0.00     0.188 C 
ENDROOT
BRANCH   1   2
ATOM      2  C   UNL A   1      36.333  33.879  30.879  1.00  0.00     0.188 C 
BRANCH   2   3
ATOM      3  O   UNL A   1      35.613  33.474  32.039  1.00  0.00    -0.376 OA
BRANCH   3   4
ATOM      4  C   UNL A   1      35.363  32.080  32.144  1.00  0.00     0.202 C 
BRANCH   4   5
ATOM      5  C   UNL A   1      36.505  31.355  32.856  1.00  0.00     0.261 C 
BRANCH   5   6
ATOM      6  O   UNL A   1      36.676  30.025  32.328  1.00  0.00    -0.460 OA
BRANCH   6   7
ATOM      7  C   UNL A   1      37.049  29.595  31.101  1.00  0.00     0.338 C 
ATOM      8  O   UNL A   1      36.171  29.112  30.385  1.00  0.00    -0.246 OA
BRANCH   7   9
ATOM      9  C   UNL A   1      38.448  29.619  30.547  1.00  0.00     0.060 A 
ATOM     10  C   UNL A   1      38.806  29.745  29.204  1.00  0.00     0.016 A 
ATOM     11  C   UNL A   1      39.496  29.549  31.490  1.00  0.00     0.016 A 
ATOM     12  C   UNL A   1      40.138  29.755  28.800  1.00  0.00     0.010 A 
ATOM     13  C   UNL A   1      40.840  29.556  31.095  1.00  0.00     0.010 A 
ATOM     14  C   UNL A   1      41.158  29.623  29.738  1.00  0.00    -0.014 A 
BRANCH  14  15
ATOM     15  C   UNL A   1      42.505  29.309  29.227  1.00  0.00     0.031 A 
ATOM     16  C   UNL A   1      42.737  27.910  28.731  1.00  0.00     0.074 A 
ATOM     17  C   UNL A   1      43.411  30.286  29.046  1.00  0.00     0.049 A 
ATOM     18  N   UNL A   1      43.796  27.391  28.173  1.00  0.00    -0.248 NA
ATOM     19  C   UNL A   1      41.602  26.974  28.850  1.00  0.00     0.031 C 
ATOM     20  C   UNL A   1      43.212  31.696  29.387  1.00  0.00     0.029 A 
ATOM     21  N   UNL A   1      44.667  30.246  28.500  1.00  0.00    -0.354 N 
ATOM     22  C   UNL A   1      43.452  26.080  27.865  1.00  0.00     0.074 A 
ATOM     23  C   UNL A   1      42.097  25.870  28.317  1.00  0.00     0.031 C 
ATOM     24  C   UNL A   1      44.313  32.388  29.042  1.00  0.00     0.029 A 
ATOM     25  C   UNL A   1      45.303  31.466  28.494  1.00  0.00     0.049 A 
ATOM     26  H   UNL A   1      45.075  29.424  28.145  1.00  0.00     0.167 HD
ATOM     27  C   UNL A   1      44.202  25.139  27.249  1.00  0.00     0.037 A 
ATOM     28  C   UNL A   1      46.556  31.780  28.111  1.00  0.00     0.037 A 
ATOM     29  C   UNL A   1      45.561  25.365  26.842  1.00  0.00     0.049 A 
ATOM     30  C   UNL A   1      47.418  30.678  27.543  1.00  0.00     0.074 A 
ATOM     31  C   UNL A   1      46.468  24.467  26.313  1.00  0.00     0.029 A 
ATOM     32  N   UNL A   1      46.208  26.592  26.928  1.00  0.00    -0.354 N 
ATOM     33  N   UNL A   1      47.107  29.422  27.316  1.00  0.00    -0.248 NA
ATOM     34  C   UNL A   1      48.797  31.029  27.182  1.00  0.00     0.031 C 
ATOM     35  C   UNL A   1      47.677  25.144  26.113  1.00  0.00     0.029 A 
ATOM     36  C   UNL A   1      47.507  26.473  26.471  1.00  0.00     0.049 A 
ATOM     37  H   UNL A   1      45.800  27.422  27.265  1.00  0.00     0.167 HD
ATOM     38  C   UNL A   1      48.247  28.836  26.776  1.00  0.00     0.074 A 
ATOM     39  C   UNL A   1      49.244  29.885  26.683  1.00  0.00     0.031 C 
ATOM     40  C   UNL A   1      48.462  27.551  26.397  1.00  0.00     0.037 A 
BRANCH  27  41
ATOM     41  C   UNL A   1      43.578  23.789  27.045  1.00  0.00     0.058 A 
ATOM     42  C   UNL A   1      42.968  23.434  25.831  1.00  0.00     0.135 A 
ATOM     43  C   UNL A   1      43.560  22.848  28.087  1.00  0.00     0.135 A 
ATOM     44  F   UNL A   1      42.922  24.311  24.815  1.00  0.00    -0.206 F 
ATOM     45  C   UNL A   1      42.346  22.199  25.663  1.00  0.00     0.059 A 
ATOM     46  C   UNL A   1      42.963  21.599  27.934  1.00  0.00     0.059 A 
ATOM     47  F   UNL A   1      44.111  23.144  29.274  1.00  0.00    -0.206 F 
ATOM     48  C   UNL A   1      42.348  21.290  26.723  1.00  0.00     0.060 A 
BRANCH  48  49
ATOM     49  S   UNL A   1      41.530  19.696  26.492  1.00  0.00     0.124 S 
ATOM     50  O   UNL A   1      40.137  20.103  26.331  1.00  0.00    -0.237 OA
ATOM     51  O   UNL A   1      42.182  19.183  25.291  1.00  0.00    -0.237 OA
ATOM     52  O   UNL A   1      41.834  18.976  27.724  1.00  0.00    -0.744 OA
ENDBRANCH  48  49
ENDBRANCH  27  41
BRANCH  28  53
ATOM     53  C   UNL A   1      47.091  33.158  28.307  1.00  0.00     0.058 A 
ATOM     54  C   UNL A   1      47.037  34.129  27.295  1.00  0.00     0.135 A 
ATOM     55  C   UNL A   1      47.714  33.518  29.514  1.00  0.00     0.135 A 
ATOM     56  F   UNL A   1      46.461  33.840  26.118  1.00  0.00    -0.206 F 
ATOM     57  C   UNL A   1      47.607  35.390  27.458  1.00  0.00     0.059 A 
ATOM     58  C   UNL A   1      48.264  34.780  29.713  1.00  0.00     0.059 A 
ATOM     59  F   UNL A   1      47.792  32.635  30.522  1.00  0.00    -0.206 F 
ATOM     60  C   UNL A   1      48.224  35.705  28.670  1.00  0.00     0.060 A 
BRANCH  60  61
ATOM     61  S   UNL A   1      48.965  37.339  28.880  1.00  0.00     0.124 S 
ATOM     62  O   UNL A   1      48.366  37.773  30.139  1.00  0.00    -0.237 OA
ATOM     63  O   UNL A   1      50.390  37.030  28.924  1.00  0.00    -0.237 OA
ATOM     64  O   UNL A   1      48.524  38.062  27.691  1.00  0.00    -0.744 OA
ENDBRANCH  60  61
ENDBRANCH  28  53
BRANCH  40  65
ATOM     65  C   UNL A   1      49.816  27.228  25.833  1.00  0.00     0.058 A 
ATOM     66  C   UNL A   1      50.084  27.339  24.462  1.00  0.00     0.135 A 
ATOM     67  C   UNL A   1      50.866  26.847  26.684  1.00  0.00     0.135 A 
ATOM     68  F   UNL A   1      49.111  27.697  23.609  1.00  0.00    -0.206 F 
ATOM     69  C   UNL A   1      51.342  27.050  23.945  1.00  0.00     0.059 A 
ATOM     70  C   UNL A   1      52.139  26.583  26.194  1.00  0.00     0.059 A 
ATOM     71  F   UNL A   1      50.662  26.744  28.007  1.00  0.00    -0.206 F 
ATOM     72  C   UNL A   1      52.362  26.672  24.819  1.00  0.00     0.060 A 
BRANCH  72  73
ATOM     73  S   UNL A   1      53.996  26.319  24.141  1.00  0.00     0.124 S 
ATOM     74  O   UNL A   1      54.761  27.470  24.609  1.00  0.00    -0.237 OA
ATOM     75  O   UNL A   1      54.325  25.042  24.767  1.00  0.00    -0.237 OA
ATOM     76  O   UNL A   1      53.761  26.262  22.702  1.00  0.00    -0.744 OA
ENDBRANCH  72  73
ENDBRANCH  40  65
ENDBRANCH  14  15
ENDBRANCH   7   9
ENDBRANCH   6   7
ENDBRANCH   5   6
ENDBRANCH   4   5
ENDBRANCH   3   4
ENDBRANCH   2   3
ENDBRANCH   1   2
BRANCH   1  77
ATOM     77  O   UNL A   1      34.991  33.401  28.897  1.00  0.00    -0.377 OA
BRANCH  77  78
ATOM     78  C   UNL A   1      34.062  32.370  28.525  1.00  0.00     0.188 C 
BRANCH  78  79
ATOM     79  C   UNL A   1      34.714  31.216  27.759  1.00  0.00     0.188 C 
BRANCH  79  80
ATOM     80  O   UNL A   1      33.888  30.065  27.594  1.00  0.00    -0.376 OA
BRANCH  80  81
ATOM     81  C   UNL A   1      33.830  29.493  26.285  1.00  0.00     0.202 C 
BRANCH  81  82
ATOM     82  C   UNL A   1      33.608  27.975  26.226  1.00  0.00     0.261 C 
BRANCH  82  83
ATOM     83  O   UNL A   1      32.455  27.564  26.994  1.00  0.00    -0.463 OA
BRANCH  83  84
ATOM     84  C   UNL A   1      31.561  26.812  26.314  1.00  0.00     0.310 C 
ATOM     85  O   UNL A   1      30.654  26.184  26.852  1.00  0.00    -0.252 OA
BRANCH  84  86
ATOM     86  C   UNL A   1      31.670  26.960  24.804  1.00  0.00     0.116 C 
ATOM     87  C   UNL A   1      30.495  27.790  24.264  1.00  0.00     0.043 C 
ATOM     88  C   UNL A   1      32.117  25.794  23.894  1.00  0.00     0.097 C 
ATOM     89  C   UNL A   1      30.387  27.816  22.770  1.00  0.00    -0.030 C 
ATOM     90  C   UNL A   1      32.434  26.425  22.500  1.00  0.00     0.041 C 
ATOM     91  C   UNL A   1      31.276  27.219  21.966  1.00  0.00    -0.030 C 
BRANCH  88  92
ATOM     92  C   UNL A   1      31.413  24.431  23.622  1.00  0.00     0.228 C 
ATOM     93  O   UNL A   1      30.180  24.407  23.455  1.00  0.00    -0.274 OA
ATOM     94  N   UNL A   1      32.028  23.281  23.246  1.00  0.00    -0.324 N 
ATOM     95  H   UNL A   1      31.495  22.719  22.639  1.00  0.00     0.169 HD
BRANCH  94  96
ATOM     96  C   UNL A   1      33.273  22.751  23.564  1.00  0.00     0.060 A 
ATOM     97  C   UNL A   1      34.376  23.268  22.888  1.00  0.00     0.029 A 
ATOM     98  C   UNL A   1      33.461  21.685  24.444  1.00  0.00     0.065 A 
ATOM     99  C   UNL A   1      35.665  22.935  23.294  1.00  0.00     0.018 A 
ATOM    100  C   UNL A   1      34.745  21.360  24.880  1.00  0.00     0.038 A 
ATOM    101  Cl  UNL A   1      32.160  20.603  24.819  1.00  0.00    -0.082 Cl
ATOM    102  C   UNL A   1      35.839  22.034  24.341  1.00  0.00     0.019 A 
ATOM    103  Br  UNL A   1      37.572  21.714  25.015  1.00  0.00    -0.051 Br
ENDBRANCH  94  96
ENDBRANCH  88  92
ENDBRANCH  84  86
ENDBRANCH  83  84
ENDBRANCH  82  83
ENDBRANCH  81  82
ENDBRANCH  80  81
ENDBRANCH  79  80
ENDBRANCH  78  79
ENDBRANCH  77  78
ENDBRANCH   1  77
TORSDOF 25
ENDMDL
MODEL 2
REMARK VINA RESULT:      -9.8      1.757      3.019
REMARK SMILES O=C(OCCOCCOCCOCCOC(=O)[C@@H]1CC=CC[C@@H]1C(=O)Nc1ccc(Br)cc1Cl)c1ccc(-c2c3nc(c(-c4c(F)cc(S(=O)(=O)[O-])cc4F)c4ccc([nH]4)c(-c4c(F)cc(S(=O)(=O)[O-])cc4F)c4nc(c(-c5c(F)cc(S(=O)(=O)[O-])cc5F)c5ccc2[nH]5)C=C4)C=C3)cc1
REMARK SMILES IDX 8 1 7 2 6 3 5 4 4 5 3 6 2 7 1 8 35 9 36 10 100 11 37 12
REMARK SMILES IDX 99 13 38 14 39 15 40 16 93 17 41 18 98 19 92 20 94 21 42 22
REMARK SMILES IDX 97 23 91 24 90 25 43 27 77 28 56 29 76 30 57 31 60 32 75 33
REMARK SMILES IDX 95 34 58 35 59 36 74 38 96 39 61 40 44 41 45 42 54 43 46 44
REMARK SMILES IDX 47 45 53 46 55 47 48 48 49 49 50 50 51 51 52 52 78 53 79 54
REMARK SMILES IDX 88 55 80 56 81 57 87 58 89 59 82 60 83 61 84 62 85 63 86 64
REMARK SMILES IDX 62 65 63 66 72 67 64 68 65 69 71 70 73 71 66 72 67 73 68 74
REMARK SMILES IDX 69 75 70 76 9 77 10 78 11 79 12 80 13 81 14 82 15 83 16 84
REMARK SMILES IDX 17 85 18 86 19 87 23 88 20 89 22 90 21 91 24 92 25 93 26 94
REMARK SMILES IDX 27 96 28 97 33 98 29 99 32 100 34 101 30 102 31 103
REMARK H PARENT 94 26 60 37 26 95
REMARK Flexibility Score: inf
ROOT
ATOM      1  C   UNL A   1      35.923  33.055  29.593  1.00  0.00     0.188 C 
ENDROOT
BRANCH   1   2
ATOM      2  C   UNL A   1      36.352  33.979  30.728  1.00  0.00     0.188 C 
BRANCH   2   3
ATOM      3  O   UNL A   1      35.545  33.718  31.872  1.00  0.00    -0.376 OA
BRANCH   3   4
ATOM      4  C   UNL A   1      35.303  32.346  32.145  1.00  0.00     0.202 C 
BRANCH   4   5
ATOM      5  C   UNL A   1      36.470  31.709  32.900  1.00  0.00     0.261 C 
BRANCH   5   6
ATOM      6  O   UNL A   1      36.665  30.343  32.484  1.00  0.00    -0.460 OA
BRANCH   6   7
ATOM      7  C   UNL A   1      37.024  29.818  31.291  1.00  0.00     0.338 C 
ATOM      8  O   UNL A   1      36.143  29.260  30.635  1.00  0.00    -0.246 OA
BRANCH   7   9
ATOM      9  C   UNL A   1      38.411  29.822  30.709  1.00  0.00     0.060 A 
ATOM     10  C   UNL A   1      38.743  29.887  29.355  1.00  0.00     0.016 A 
ATOM     11  C   UNL A   1      39.478  29.799  31.633  1.00  0.00     0.016 A 
ATOM     12  C   UNL A   1      40.067  29.883  28.925  1.00  0.00     0.010 A 
ATOM     13  C   UNL A   1      40.815  29.792  31.212  1.00  0.00     0.010 A 
ATOM     14  C   UNL A   1      41.106  29.798  29.847  1.00  0.00    -0.014 A 
BRANCH  14  15
ATOM     15  C   UNL A   1      42.444  29.465  29.325  1.00  0.00     0.031 A 
ATOM     16  C   UNL A   1      42.654  28.062  28.829  1.00  0.00     0.074 A 
ATOM     17  C   UNL A   1      43.361  30.430  29.134  1.00  0.00     0.049 A 
ATOM     18  N   UNL A   1      43.701  27.529  28.263  1.00  0.00    -0.248 NA
ATOM     19  C   UNL A   1      41.507  27.142  28.960  1.00  0.00     0.031 C 
ATOM     20  C   UNL A   1      43.184  31.843  29.473  1.00  0.00     0.029 A 
ATOM     21  N   UNL A   1      44.611  30.373  28.577  1.00  0.00    -0.354 N 
ATOM     22  C   UNL A   1      43.337  26.222  27.961  1.00  0.00     0.074 A 
ATOM     23  C   UNL A   1      41.983  26.030  28.425  1.00  0.00     0.031 C 
ATOM     24  C   UNL A   1      44.290  32.520  29.117  1.00  0.00     0.029 A 
ATOM     25  C   UNL A   1      45.263  31.584  28.563  1.00  0.00     0.049 A 
ATOM     26  H   UNL A   1      45.005  29.545  28.220  1.00  0.00     0.167 HD
ATOM     27  C   UNL A   1      44.069  25.270  27.340  1.00  0.00     0.037 A 
ATOM     28  C   UNL A   1      46.517  31.881  28.168  1.00  0.00     0.037 A 
ATOM     29  C   UNL A   1      45.427  25.477  26.920  1.00  0.00     0.049 A 
ATOM     30  C   UNL A   1      47.359  30.767  27.595  1.00  0.00     0.074 A 
ATOM     31  C   UNL A   1      46.317  24.567  26.385  1.00  0.00     0.029 A 
ATOM     32  N   UNL A   1      46.090  26.696  26.999  1.00  0.00    -0.354 N 
ATOM     33  N   UNL A   1      47.030  29.515  27.373  1.00  0.00    -0.248 NA
ATOM     34  C   UNL A   1      48.739  31.100  27.221  1.00  0.00     0.031 C 
ATOM     35  C   UNL A   1      47.533  25.227  26.173  1.00  0.00     0.029 A 
ATOM     36  C   UNL A   1      47.383  26.560  26.530  1.00  0.00     0.049 A 
ATOM     37  H   UNL A   1      45.697  27.532  27.337  1.00  0.00     0.167 HD
ATOM     38  C   UNL A   1      48.157  28.914  26.823  1.00  0.00     0.074 A 
ATOM     39  C   UNL A   1      49.166  29.949  26.720  1.00  0.00     0.031 C 
ATOM     40  C   UNL A   1      48.352  27.624  26.446  1.00  0.00     0.037 A 
BRANCH  27  41
ATOM     41  C   UNL A   1      43.425  23.928  27.144  1.00  0.00     0.058 A 
ATOM     42  C   UNL A   1      43.305  23.007  28.197  1.00  0.00     0.135 A 
ATOM     43  C   UNL A   1      42.952  23.543  25.880  1.00  0.00     0.135 A 
ATOM     44  F   UNL A   1      43.777  23.309  29.417  1.00  0.00    -0.206 F 
ATOM     45  C   UNL A   1      42.753  21.744  28.000  1.00  0.00     0.059 A 
ATOM     46  C   UNL A   1      42.377  22.293  25.664  1.00  0.00     0.059 A 
ATOM     47  F   UNL A   1      43.061  24.378  24.835  1.00  0.00    -0.206 F 
ATOM     48  C   UNL A   1      42.293  21.396  26.727  1.00  0.00     0.060 A 
BRANCH  48  49
ATOM     49  S   UNL A   1      41.588  19.751  26.486  1.00  0.00     0.124 S 
ATOM     50  O   UNL A   1      42.027  19.065  27.696  1.00  0.00    -0.237 OA
ATOM     51  O   UNL A   1      40.159  20.036  26.402  1.00  0.00    -0.237 OA
ATOM     52  O   UNL A   1      42.207  19.295  25.246  1.00  0.00    -0.744 OA
ENDBRANCH  48  49
ENDBRANCH  27  41
BRANCH  28  53
ATOM     53  C   UNL A   1      47.071  33.253  28.356  1.00  0.00     0.058 A 
ATOM     54  C   UNL A   1      47.084  34.200  27.321  1.00  0.00     0.135 A 
ATOM     55  C   UNL A   1      47.646  33.629  29.582  1.00  0.00     0.135 A 
ATOM     56  F   UNL A   1      46.556  33.894  26.126  1.00  0.00    -0.206 F 
ATOM     57  C   UNL A   1      47.673  35.453  27.481  1.00  0.00     0.059 A 
ATOM     58  C   UNL A   1      48.213  34.884  29.778  1.00  0.00     0.059 A 
ATOM     59  F   UNL A   1      47.659  32.769  30.613  1.00  0.00    -0.206 F 
ATOM     60  C   UNL A   1      48.241  35.784  28.713  1.00  0.00     0.060 A 
BRANCH  60  61
ATOM     61  S   UNL A   1      49.005  37.407  28.919  1.00  0.00     0.124 S 
ATOM     62  O   UNL A   1      48.838  37.631  30.352  1.00  0.00    -0.237 OA
ATOM     63  O   UNL A   1      50.371  37.166  28.466  1.00  0.00    -0.237 OA
ATOM     64  O   UNL A   1      48.207  38.267  28.050  1.00  0.00    -0.744 OA
ENDBRANCH  60  61
ENDBRANCH  28  53
BRANCH  40  65
ATOM     65  C   UNL A   1      49.697  27.283  25.870  1.00  0.00     0.058 A 
ATOM     66  C   UNL A   1      50.744  26.819  26.680  1.00  0.00     0.135 A 
ATOM     67  C   UNL A   1      49.922  27.378  24.488  1.00  0.00     0.135 A 
ATOM     68  F   UNL A   1      50.577  26.713  28.008  1.00  0.00    -0.206 F 
ATOM     69  C   UNL A   1      51.983  26.492  26.142  1.00  0.00     0.059 A 
ATOM     70  C   UNL A   1      51.143  27.028  23.925  1.00  0.00     0.059 A 
ATOM     71  F   UNL A   1      48.944  27.800  23.671  1.00  0.00    -0.206 F 
ATOM     72  C   UNL A   1      52.173  26.602  24.764  1.00  0.00     0.060 A 
BRANCH  72  73
ATOM     73  S   UNL A   1      53.779  26.157  24.073  1.00  0.00     0.124 S 
ATOM     74  O   UNL A   1      54.555  27.363  24.340  1.00  0.00    -0.237 OA
ATOM     75  O   UNL A   1      54.143  24.981  24.859  1.00  0.00    -0.237 OA
ATOM     76  O   UNL A   1      53.483  25.896  22.667  1.00  0.00    -0.744 OA
ENDBRANCH  72  73
ENDBRANCH  40  65
ENDBRANCH  14  15
ENDBRANCH   7   9
ENDBRANCH   6   7
ENDBRANCH   5   6
ENDBRANCH   4   5
ENDBRANCH   3   4
ENDBRANCH   2   3
ENDBRANCH   1   2
BRANCH   1  77
ATOM     77  O   UNL A   1      35.071  33.733  28.665  1.00  0.00    -0.377 OA
BRANCH  77  78
ATOM     78  C   UNL A   1      34.237  32.822  27.932  1.00  0.00     0.188 C 
BRANCH  78  79
ATOM     79  C   UNL A   1      34.565  31.352  28.201  1.00  0.00     0.188 C 
BRANCH  79  80
ATOM     80  O   UNL A   1      34.022  30.434  27.254  1.00  0.00    -0.376 OA
BRANCH  80  81
ATOM     81  C   UNL A   1      34.111  29.044  27.574  1.00  0.00     0.202 C 
BRANCH  81  82
ATOM     82  C   UNL A   1      33.271  28.099  26.704  1.00  0.00     0.261 C 
BRANCH  82  83
ATOM     83  O   UNL A   1      33.597  28.216  25.302  1.00  0.00    -0.463 OA
BRANCH  83  84
ATOM     84  C   UNL A   1      33.638  27.044  24.630  1.00  0.00     0.310 C 
ATOM     85  O   UNL A   1      33.960  26.949  23.449  1.00  0.00    -0.252 OA
BRANCH  84  86
ATOM     86  C   UNL A   1      33.422  25.829  25.520  1.00  0.00     0.116 C 
ATOM     87  C   UNL A   1      34.649  24.905  25.467  1.00  0.00     0.043 C 
ATOM     88  C   UNL A   1      32.061  25.101  25.601  1.00  0.00     0.097 C 
ATOM     89  C   UNL A   1      34.457  23.578  26.135  1.00  0.00    -0.030 C 
ATOM     90  C   UNL A   1      32.144  24.160  26.846  1.00  0.00     0.041 C 
ATOM     91  C   UNL A   1      33.333  23.245  26.781  1.00  0.00    -0.030 C 
BRANCH  88  92
ATOM     92  C   UNL A   1      31.295  24.317  24.494  1.00  0.00     0.228 C 
ATOM     93  O   UNL A   1      31.496  23.096  24.366  1.00  0.00    -0.274 OA
ATOM     94  N   UNL A   1      30.195  24.754  23.829  1.00  0.00    -0.324 N 
ATOM     95  H   UNL A   1      29.557  24.042  23.595  1.00  0.00     0.169 HD
BRANCH  94  96
ATOM     96  C   UNL A   1      29.805  26.023  23.418  1.00  0.00     0.060 A 
ATOM     97  C   UNL A   1      28.555  26.472  23.838  1.00  0.00     0.029 A 
ATOM     98  C   UNL A   1      30.550  26.820  22.548  1.00  0.00     0.065 A 
ATOM     99  C   UNL A   1      28.184  27.799  23.638  1.00  0.00     0.018 A 
ATOM    100  C   UNL A   1      30.206  28.158  22.363  1.00  0.00     0.038 A 
ATOM    101  Cl  UNL A   1      31.749  26.121  21.510  1.00  0.00    -0.082 Cl
ATOM    102  C   UNL A   1      29.050  28.654  22.962  1.00  0.00     0.019 A 
ATOM    103  Br  UNL A   1      28.637  30.492  22.843  1.00  0.00    -0.051 Br
ENDBRANCH  94  96
ENDBRANCH  88  92
ENDBRANCH  84  86
ENDBRANCH  83  84
ENDBRANCH  82  83
ENDBRANCH  81  82
ENDBRANCH  80  81
ENDBRANCH  79  80
ENDBRANCH  78  79
ENDBRANCH  77  78
ENDBRANCH   1  77
TORSDOF 25
ENDMDL
MODEL 3
REMARK VINA RESULT:      -9.8      1.197      8.100
REMARK SMILES O=C(OCCOCCOCCOCCOC(=O)[C@@H]1CC=CC[C@@H]1C(=O)Nc1ccc(Br)cc1Cl)c1ccc(-c2c3nc(c(-c4c(F)cc(S(=O)(=O)[O-])cc4F)c4ccc([nH]4)c(-c4c(F)cc(S(=O)(=O)[O-])cc4F)c4nc(c(-c5c(F)cc(S(=O)(=O)[O-])cc5F)c5ccc2[nH]5)C=C4)C=C3)cc1
REMARK SMILES IDX 8 1 7 2 6 3 5 4 4 5 3 6 2 7 1 8 35 9 36 10 100 11 37 12
REMARK SMILES IDX 99 13 38 14 39 15 40 16 93 17 41 18 98 19 92 20 94 21 42 22
REMARK SMILES IDX 97 23 91 24 90 25 43 27 77 28 56 29 76 30 57 31 60 32 75 33
REMARK SMILES IDX 95 34 58 35 59 36 74 38 96 39 61 40 44 41 45 42 54 43 46 44
REMARK SMILES IDX 47 45 53 46 55 47 48 48 49 49 50 50 51 51 52 52 78 53 79 54
REMARK SMILES IDX 88 55 80 56 81 57 87 58 89 59 82 60 83 61 84 62 85 63 86 64
REMARK SMILES IDX 62 65 63 66 72 67 64 68 65 69 71 70 73 71 66 72 67 73 68 74
REMARK SMILES IDX 69 75 70 76 9 77 10 78 11 79 12 80 13 81 14 82 15 83 16 84
REMARK SMILES IDX 17 85 18 86 19 87 23 88 20 89 22 90 21 91 24 92 25 93 26 94
REMARK SMILES IDX 27 96 28 97 33 98 29 99 32 100 34 101 30 102 31 103
REMARK H PARENT 94 26 60 37 26 95
REMARK Flexibility Score: inf
ROOT
ATOM      1  C   UNL A   1      35.671  33.795  30.268  1.00  0.00     0.188 C 
ENDROOT
BRANCH   1   2
ATOM      2  C   UNL A   1      35.837  34.473  31.625  1.00  0.00     0.188 C 
BRANCH   2   3
ATOM      3  O   UNL A   1      34.822  34.006  32.508  1.00  0.00    -0.376 OA
BRANCH   3   4
ATOM      4  C   UNL A   1      34.920  32.638  32.876  1.00  0.00     0.202 C 
BRANCH   4   5
ATOM      5  C   UNL A   1      36.362  32.243  33.195  1.00  0.00     0.261 C 
BRANCH   5   6
ATOM      6  O   UNL A   1      36.609  30.869  32.835  1.00  0.00    -0.460 OA
BRANCH   6   7
ATOM      7  C   UNL A   1      36.863  30.294  31.637  1.00  0.00     0.338 C 
ATOM      8  O   UNL A   1      35.900  29.835  31.021  1.00  0.00    -0.246 OA
BRANCH   7   9
ATOM      9  C   UNL A   1      38.219  30.132  31.009  1.00  0.00     0.060 A 
ATOM     10  C   UNL A   1      38.515  30.191  29.646  1.00  0.00     0.016 A 
ATOM     11  C   UNL A   1      39.302  29.943  31.894  1.00  0.00     0.016 A 
ATOM     12  C   UNL A   1      39.813  30.025  29.171  1.00  0.00     0.010 A 
ATOM     13  C   UNL A   1      40.612  29.772  31.428  1.00  0.00     0.010 A 
ATOM     14  C   UNL A   1      40.859  29.778  30.054  1.00  0.00    -0.014 A 
BRANCH  14  15
ATOM     15  C   UNL A   1      42.125  29.287  29.479  1.00  0.00     0.031 A 
ATOM     16  C   UNL A   1      43.306  30.213  29.538  1.00  0.00     0.074 A 
ATOM     17  C   UNL A   1      42.248  28.003  29.098  1.00  0.00     0.049 A 
ATOM     18  N   UNL A   1      44.541  30.009  29.172  1.00  0.00    -0.248 NA
ATOM     19  C   UNL A   1      43.067  31.546  30.125  1.00  0.00     0.031 C 
ATOM     20  C   UNL A   1      41.176  27.006  29.130  1.00  0.00     0.029 A 
ATOM     21  N   UNL A   1      43.336  27.311  28.638  1.00  0.00    -0.354 N 
ATOM     22  C   UNL A   1      45.224  31.176  29.494  1.00  0.00     0.074 A 
ATOM     23  C   UNL A   1      44.268  32.095  30.063  1.00  0.00     0.031 C 
ATOM     24  C   UNL A   1      41.664  25.827  28.706  1.00  0.00     0.029 A 
ATOM     25  C   UNL A   1      43.065  25.996  28.337  1.00  0.00     0.049 A 
ATOM     26  H   UNL A   1      44.228  27.714  28.535  1.00  0.00     0.167 HD
ATOM     27  C   UNL A   1      46.539  31.448  29.336  1.00  0.00     0.037 A 
ATOM     28  C   UNL A   1      43.866  25.055  27.798  1.00  0.00     0.037 A 
ATOM     29  C   UNL A   1      47.462  30.528  28.733  1.00  0.00     0.049 A 
ATOM     30  C   UNL A   1      45.301  25.427  27.512  1.00  0.00     0.074 A 
ATOM     31  C   UNL A   1      48.791  30.719  28.410  1.00  0.00     0.029 A 
ATOM     32  N   UNL A   1      47.137  29.230  28.358  1.00  0.00    -0.354 N 
ATOM     33  N   UNL A   1      45.924  26.558  27.759  1.00  0.00    -0.248 NA
ATOM     34  C   UNL A   1      46.140  24.405  26.876  1.00  0.00     0.031 C 
ATOM     35  C   UNL A   1      49.261  29.547  27.805  1.00  0.00     0.029 A 
ATOM     36  C   UNL A   1      48.237  28.611  27.797  1.00  0.00     0.049 A 
ATOM     37  H   UNL A   1      46.252  28.813  28.476  1.00  0.00     0.167 HD
ATOM     38  C   UNL A   1      47.231  26.378  27.318  1.00  0.00     0.074 A 
ATOM     39  C   UNL A   1      47.314  25.020  26.817  1.00  0.00     0.031 C 
ATOM     40  C   UNL A   1      48.269  27.252  27.314  1.00  0.00     0.037 A 
BRANCH  27  41
ATOM     41  C   UNL A   1      47.016  32.805  29.768  1.00  0.00     0.058 A 
ATOM     42  C   UNL A   1      47.509  33.036  31.062  1.00  0.00     0.135 A 
ATOM     43  C   UNL A   1      46.949  33.897  28.888  1.00  0.00     0.135 A 
ATOM     44  F   UNL A   1      47.558  32.035  31.956  1.00  0.00    -0.206 F 
ATOM     45  C   UNL A   1      47.903  34.306  31.475  1.00  0.00     0.059 A 
ATOM     46  C   UNL A   1      47.357  35.172  29.272  1.00  0.00     0.059 A 
ATOM     47  F   UNL A   1      46.466  33.735  27.647  1.00  0.00    -0.206 F 
ATOM     48  C   UNL A   1      47.821  35.368  30.572  1.00  0.00     0.060 A 
BRANCH  48  49
ATOM     49  S   UNL A   1      48.328  37.011  31.125  1.00  0.00     0.124 S 
ATOM     50  O   UNL A   1      48.999  36.701  32.383  1.00  0.00    -0.237 OA
ATOM     51  O   UNL A   1      49.194  37.452  30.037  1.00  0.00    -0.237 OA
ATOM     52  O   UNL A   1      47.065  37.732  31.249  1.00  0.00    -0.744 OA
ENDBRANCH  48  49
ENDBRANCH  27  41
BRANCH  28  53
ATOM     53  C   UNL A   1      43.327  23.713  27.435  1.00  0.00     0.058 A 
ATOM     54  C   UNL A   1      43.068  22.728  28.401  1.00  0.00     0.135 A 
ATOM     55  C   UNL A   1      43.101  23.373  26.090  1.00  0.00     0.135 A 
ATOM     56  F   UNL A   1      43.273  22.993  29.700  1.00  0.00    -0.206 F 
ATOM     57  C   UNL A   1      42.638  21.450  28.047  1.00  0.00     0.059 A 
ATOM     58  C   UNL A   1      42.643  22.114  25.714  1.00  0.00     0.059 A 
ATOM     59  F   UNL A   1      43.325  24.274  25.121  1.00  0.00    -0.206 F 
ATOM     60  C   UNL A   1      42.434  21.151  26.699  1.00  0.00     0.060 A 
BRANCH  60  61
ATOM     61  S   UNL A   1      41.878  19.494  26.243  1.00  0.00     0.124 S 
ATOM     62  O   UNL A   1      42.605  19.274  24.996  1.00  0.00    -0.237 OA
ATOM     63  O   UNL A   1      42.314  18.696  27.384  1.00  0.00    -0.237 OA
ATOM     64  O   UNL A   1      40.433  19.649  26.111  1.00  0.00    -0.744 OA
ENDBRANCH  60  61
ENDBRANCH  28  53
BRANCH  40  65
ATOM     65  C   UNL A   1      49.577  26.749  26.772  1.00  0.00     0.058 A 
ATOM     66  C   UNL A   1      50.547  26.181  27.609  1.00  0.00     0.135 A 
ATOM     67  C   UNL A   1      49.838  26.796  25.394  1.00  0.00     0.135 A 
ATOM     68  F   UNL A   1      50.344  26.117  28.935  1.00  0.00    -0.206 F 
ATOM     69  C   UNL A   1      51.751  25.706  27.102  1.00  0.00     0.059 A 
ATOM     70  C   UNL A   1      51.021  26.299  24.861  1.00  0.00     0.059 A 
ATOM     71  F   UNL A   1      48.932  27.315  24.550  1.00  0.00    -0.206 F 
ATOM     72  C   UNL A   1      51.979  25.771  25.727  1.00  0.00     0.060 A 
BRANCH  72  73
ATOM     73  S   UNL A   1      53.536  25.133  25.076  1.00  0.00     0.124 S 
ATOM     74  O   UNL A   1      53.505  25.632  23.705  1.00  0.00    -0.237 OA
ATOM     75  O   UNL A   1      54.521  25.755  25.956  1.00  0.00    -0.237 OA
ATOM     76  O   UNL A   1      53.398  23.687  25.224  1.00  0.00    -0.744 OA
ENDBRANCH  72  73
ENDBRANCH  40  65
ENDBRANCH  14  15
ENDBRANCH   7   9
ENDBRANCH   6   7
ENDBRANCH   5   6
ENDBRANCH   4   5
ENDBRANCH   3   4
ENDBRANCH   2   3
ENDBRANCH   1   2
BRANCH   1  77
ATOM     77  O   UNL A   1      34.916  34.612  29.369  1.00  0.00    -0.377 OA
BRANCH  77  78
ATOM     78  C   UNL A   1      34.165  33.828  28.428  1.00  0.00     0.188 C 
BRANCH  78  79
ATOM     79  C   UNL A   1      34.334  32.320  28.626  1.00  0.00     0.188 C 
BRANCH  79  80
ATOM     80  O   UNL A   1      34.702  31.600  27.452  1.00  0.00    -0.376 OA
BRANCH  80  81
ATOM     81  C   UNL A   1      35.271  30.301  27.640  1.00  0.00     0.202 C 
BRANCH  81  82
ATOM     82  C   UNL A   1      34.523  29.138  26.974  1.00  0.00     0.261 C 
BRANCH  82  83
ATOM     83  O   UNL A   1      33.458  29.598  26.113  1.00  0.00    -0.463 OA
BRANCH  83  84
ATOM     84  C   UNL A   1      32.364  28.804  26.093  1.00  0.00     0.310 C 
ATOM     85  O   UNL A   1      31.610  28.663  27.052  1.00  0.00    -0.252 OA
BRANCH  84  86
ATOM     86  C   UNL A   1      32.050  28.242  24.715  1.00  0.00     0.116 C 
ATOM     87  C   UNL A   1      30.691  28.766  24.223  1.00  0.00     0.043 C 
ATOM     88  C   UNL A   1      32.358  26.776  24.336  1.00  0.00     0.097 C 
ATOM     89  C   UNL A   1      30.187  28.108  22.975  1.00  0.00    -0.030 C 
ATOM     90  C   UNL A   1      32.223  26.690  22.781  1.00  0.00     0.041 C 
ATOM     91  C   UNL A   1      30.887  27.184  22.305  1.00  0.00    -0.030 C 
BRANCH  88  92
ATOM     92  C   UNL A   1      31.756  25.460  24.914  1.00  0.00     0.228 C 
ATOM     93  O   UNL A   1      30.570  25.450  25.290  1.00  0.00    -0.274 OA
ATOM     94  N   UNL A   1      32.291  24.220  24.785  1.00  0.00    -0.324 N 
ATOM     95  H   UNL A   1      31.623  23.499  24.711  1.00  0.00     0.169 HD
BRANCH  94  96
ATOM     96  C   UNL A   1      33.608  23.779  24.739  1.00  0.00     0.060 A 
ATOM     97  C   UNL A   1      34.412  24.059  25.842  1.00  0.00     0.029 A 
ATOM     98  C   UNL A   1      34.180  23.158  23.628  1.00  0.00     0.065 A 
ATOM     99  C   UNL A   1      35.672  23.477  25.955  1.00  0.00     0.018 A 
ATOM    100  C   UNL A   1      35.429  22.547  23.738  1.00  0.00     0.038 A 
ATOM    101  Cl  UNL A   1      33.482  23.339  22.052  1.00  0.00    -0.082 Cl
ATOM    102  C   UNL A   1      36.141  22.663  24.929  1.00  0.00     0.019 A 
ATOM    103  Br  UNL A   1      37.766  21.729  25.152  1.00  0.00    -0.051 Br
ENDBRANCH  94  96
ENDBRANCH  88  92
ENDBRANCH  84  86
ENDBRANCH  83  84
ENDBRANCH  82  83
ENDBRANCH  81  82
ENDBRANCH  80  81
ENDBRANCH  79  80
ENDBRANCH  78  79
ENDBRANCH  77  78
ENDBRANCH   1  77
TORSDOF 25
ENDMDL
