MODEL 1
REMARK VINA RESULT:      -9.2      0.000      0.000
REMARK SMILES CC[C@H]1CCCC[C@@H]1C1(C(=O)OCCOCCOCCOCCOC(=O)c2ccc(-c3c4nc(c(-c5c(F)cc(S(=O)(=O)[O-])cc5F)c5ccc([nH]5)c(-c5c(F)cc(S(=O)(=O)[O-])cc5F)c5nc(c(-c6c(F)cc(S(=O)(=O)[O-])cc6F)c6ccc3[nH]6)C=C5)C=C4)cc2)CC1
REMARK SMILES IDX 19 1 18 2 17 3 16 4 15 5 14 6 13 7 12 8 10 9 11 10 9 11
REMARK SMILES IDX 93 12 94 13 8 14 3 15 4 16 5 17 7 18 6 19 2 20 1 21 20 22
REMARK SMILES IDX 21 23 22 24 23 25 24 26 25 27 26 28 27 29 28 30 92 31 29 32
REMARK SMILES IDX 91 33 30 34 31 35 32 36 85 37 33 38 90 39 84 40 86 41 34 42
REMARK SMILES IDX 89 43 83 44 82 45 35 47 69 48 48 49 68 50 49 51 52 52 67 53
REMARK SMILES IDX 87 54 50 55 51 56 66 58 88 59 53 60 36 61 37 62 46 63 38 64
REMARK SMILES IDX 39 65 45 66 47 67 40 68 41 69 42 70 43 71 44 72 70 73 71 74
REMARK SMILES IDX 80 75 72 76 73 77 79 78 81 79 74 80 75 81 76 82 77 83 78 84
REMARK SMILES IDX 54 85 55 86 64 87 56 88 57 89 63 90 65 91 58 92 59 93 60 94
REMARK SMILES IDX 61 95 62 96
REMARK H PARENT 86 46 52 57
REMARK Flexibility Score: inf
ROOT
ATOM      1  C   UNL A   1      32.670  28.923  26.039  1.00  0.00     0.188 C 
ENDROOT
BRANCH   1   2
ATOM      2  O   UNL A   1      32.947  29.120  24.663  1.00  0.00    -0.377 OA
BRANCH   2   3
ATOM      3  C   UNL A   1      32.049  28.485  23.778  1.00  0.00     0.188 C 
BRANCH   3   4
ATOM      4  C   UNL A   1      32.160  26.947  23.898  1.00  0.00     0.188 C 
BRANCH   4   5
ATOM      5  O   UNL A   1      30.880  26.336  24.008  1.00  0.00    -0.376 OA
BRANCH   5   6
ATOM      6  C   UNL A   1      30.880  25.073  24.667  1.00  0.00     0.202 C 
BRANCH   6   7
ATOM      7  C   UNL A   1      30.449  25.037  26.145  1.00  0.00     0.261 C 
BRANCH   7   8
ATOM      8  O   UNL A   1      31.190  24.143  27.008  1.00  0.00    -0.463 OA
BRANCH   8   9
ATOM      9  C   UNL A   1      31.631  22.942  26.568  1.00  0.00     0.312 C 
ATOM     10  O   UNL A   1      30.933  22.052  26.109  1.00  0.00    -0.252 OA
BRANCH   9  11
ATOM     11  C   UNL A   1      33.171  22.827  26.625  1.00  0.00     0.071 C 
ATOM     12  C   UNL A   1      33.649  21.478  27.182  1.00  0.00     0.020 C 
ATOM     13  C   UNL A   1      33.849  22.710  27.995  1.00  0.00     0.020 C 
BRANCH  11  14
ATOM     14  C   UNL A   1      33.948  23.541  25.462  1.00  0.00     0.009 C 
ATOM     15  C   UNL A   1      34.221  22.721  24.172  1.00  0.00    -0.007 C 
ATOM     16  C   UNL A   1      35.546  21.931  24.261  1.00  0.00     0.004 C 
ATOM     17  C   UNL A   1      36.753  22.803  24.587  1.00  0.00     0.000 C 
ATOM     18  C   UNL A   1      35.215  24.322  25.872  1.00  0.00     0.005 C 
ATOM     19  C   UNL A   1      36.534  23.564  25.880  1.00  0.00     0.000 C 
BRANCH  15  20
ATOM     20  C   UNL A   1      34.197  23.701  22.965  1.00  0.00     0.000 C 
ATOM     21  C   UNL A   1      33.219  23.333  21.862  1.00  0.00     0.004 C 
ENDBRANCH  15  20
ENDBRANCH  11  14
ENDBRANCH   9  11
ENDBRANCH   8   9
ENDBRANCH   7   8
ENDBRANCH   6   7
ENDBRANCH   5   6
ENDBRANCH   4   5
ENDBRANCH   3   4
ENDBRANCH   2   3
ENDBRANCH   1   2
BRANCH   1  22
ATOM     22  C   UNL A   1      33.829  28.869  27.067  1.00  0.00     0.188 C 
BRANCH  22  23
ATOM     23  O   UNL A   1      34.694  30.008  27.047  1.00  0.00    -0.376 OA
BRANCH  23  24
ATOM     24  C   UNL A   1      34.283  31.209  27.676  1.00  0.00     0.202 C 
BRANCH  24  25
ATOM     25  C   UNL A   1      35.042  31.593  28.953  1.00  0.00     0.261 C 
BRANCH  25  26
ATOM     26  O   UNL A   1      35.974  30.620  29.433  1.00  0.00    -0.460 OA
BRANCH  26  27
ATOM     27  C   UNL A   1      36.910  31.042  30.322  1.00  0.00     0.338 C 
ATOM     28  O   UNL A   1      36.718  31.552  31.395  1.00  0.00    -0.246 OA
BRANCH  27  29
ATOM     29  C   UNL A   1      38.210  30.526  29.826  1.00  0.00     0.060 A 
ATOM     30  C   UNL A   1      39.225  30.280  30.759  1.00  0.00     0.016 A 
ATOM     31  C   UNL A   1      38.371  30.166  28.484  1.00  0.00     0.016 A 
ATOM     32  C   UNL A   1      40.407  29.665  30.351  1.00  0.00     0.010 A 
ATOM     33  C   UNL A   1      39.573  29.591  28.068  1.00  0.00     0.010 A 
ATOM     34  C   UNL A   1      40.602  29.363  28.998  1.00  0.00    -0.014 A 
BRANCH  34  35
ATOM     35  C   UNL A   1      41.972  29.078  28.520  1.00  0.00     0.031 A 
ATOM     36  C   UNL A   1      42.272  27.662  28.117  1.00  0.00     0.074 A 
ATOM     37  C   UNL A   1      42.910  30.035  28.426  1.00  0.00     0.049 A 
ATOM     38  N   UNL A   1      43.384  27.138  27.680  1.00  0.00    -0.248 NA
ATOM     39  C   UNL A   1      41.155  26.708  28.227  1.00  0.00     0.031 C 
ATOM     40  C   UNL A   1      42.719  31.446  28.756  1.00  0.00     0.029 A 
ATOM     41  N   UNL A   1      44.221  29.953  28.030  1.00  0.00    -0.354 N 
ATOM     42  C   UNL A   1      43.102  25.796  27.460  1.00  0.00     0.074 A 
ATOM     43  C   UNL A   1      41.727  25.578  27.847  1.00  0.00     0.031 C 
ATOM     44  C   UNL A   1      43.883  32.095  28.570  1.00  0.00     0.029 A 
ATOM     45  C   UNL A   1      44.903  31.141  28.134  1.00  0.00     0.049 A 
ATOM     46  H   UNL A   1      44.634  29.121  27.703  1.00  0.00     0.167 HD
ATOM     47  C   UNL A   1      43.915  24.830  26.973  1.00  0.00     0.037 A 
ATOM     48  C   UNL A   1      46.206  31.414  27.921  1.00  0.00     0.037 A 
ATOM     49  C   UNL A   1      45.291  25.052  26.626  1.00  0.00     0.049 A 
ATOM     50  C   UNL A   1      47.120  30.311  27.450  1.00  0.00     0.074 A 
ATOM     51  C   UNL A   1      46.209  24.149  26.124  1.00  0.00     0.029 A 
ATOM     52  N   UNL A   1      45.956  26.264  26.768  1.00  0.00    -0.354 N 
ATOM     53  N   UNL A   1      46.838  29.050  27.212  1.00  0.00    -0.248 NA
ATOM     54  C   UNL A   1      48.526  30.665  27.213  1.00  0.00     0.031 C 
ATOM     55  C   UNL A   1      47.443  24.799  26.017  1.00  0.00     0.029 A 
ATOM     56  C   UNL A   1      47.280  26.124  26.392  1.00  0.00     0.049 A 
ATOM     57  H   UNL A   1      45.545  27.099  27.089  1.00  0.00     0.167 HD
ATOM     58  C   UNL A   1      48.024  28.467  26.775  1.00  0.00     0.074 A 
ATOM     59  C   UNL A   1      49.024  29.516  26.774  1.00  0.00     0.031 C 
ATOM     60  C   UNL A   1      48.263  27.183  26.403  1.00  0.00     0.037 A 
BRANCH  47  61
ATOM     61  C   UNL A   1      43.331  23.451  26.848  1.00  0.00     0.058 A 
ATOM     62  C   UNL A   1      43.130  22.626  27.967  1.00  0.00     0.135 A 
ATOM     63  C   UNL A   1      43.010  22.929  25.585  1.00  0.00     0.135 A 
ATOM     64  F   UNL A   1      43.444  23.065  29.197  1.00  0.00    -0.206 F 
ATOM     65  C   UNL A   1      42.680  21.316  27.834  1.00  0.00     0.059 A 
ATOM     66  C   UNL A   1      42.528  21.634  25.431  1.00  0.00     0.059 A 
ATOM     67  F   UNL A   1      43.190  23.672  24.481  1.00  0.00    -0.206 F 
ATOM     68  C   UNL A   1      42.389  20.826  26.560  1.00  0.00     0.060 A 
BRANCH  68  69
ATOM     69  S   UNL A   1      41.847  19.114  26.397  1.00  0.00     0.124 S 
ATOM     70  O   UNL A   1      40.442  19.287  26.041  1.00  0.00    -0.237 OA
ATOM     71  O   UNL A   1      42.713  18.611  25.335  1.00  0.00    -0.237 OA
ATOM     72  O   UNL A   1      42.094  18.551  27.721  1.00  0.00    -0.744 OA
ENDBRANCH  68  69
ENDBRANCH  47  61
BRANCH  48  73
ATOM     73  C   UNL A   1      46.716  32.789  28.168  1.00  0.00     0.058 A 
ATOM     74  C   UNL A   1      47.267  33.154  29.405  1.00  0.00     0.135 A 
ATOM     75  C   UNL A   1      46.700  33.757  27.151  1.00  0.00     0.135 A 
ATOM     76  F   UNL A   1      47.289  32.273  30.416  1.00  0.00    -0.206 F 
ATOM     77  C   UNL A   1      47.795  34.424  29.622  1.00  0.00     0.059 A 
ATOM     78  C   UNL A   1      47.244  35.025  27.335  1.00  0.00     0.059 A 
ATOM     79  F   UNL A   1      46.185  33.459  25.947  1.00  0.00    -0.206 F 
ATOM     80  C   UNL A   1      47.791  35.349  28.576  1.00  0.00     0.060 A 
BRANCH  80  81
ATOM     81  S   UNL A   1      48.567  36.959  28.838  1.00  0.00     0.124 S 
ATOM     82  O   UNL A   1      49.981  36.607  28.859  1.00  0.00    -0.237 OA
ATOM     83  O   UNL A   1      48.114  37.709  27.671  1.00  0.00    -0.237 OA
ATOM     84  O   UNL A   1      48.007  37.400  30.113  1.00  0.00    -0.744 OA
ENDBRANCH  80  81
ENDBRANCH  48  73
BRANCH  60  85
ATOM     85  C   UNL A   1      49.651  26.838  25.935  1.00  0.00     0.058 A 
ATOM     86  C   UNL A   1      50.073  27.084  24.619  1.00  0.00     0.135 A 
ATOM     87  C   UNL A   1      50.594  26.321  26.839  1.00  0.00     0.135 A 
ATOM     88  F   UNL A   1      49.212  27.576  23.714  1.00  0.00    -0.206 F 
ATOM     89  C   UNL A   1      51.375  26.809  24.210  1.00  0.00     0.059 A 
ATOM     90  C   UNL A   1      51.908  26.067  26.460  1.00  0.00     0.059 A 
ATOM     91  F   UNL A   1      50.249  26.080  28.114  1.00  0.00    -0.206 F 
ATOM     92  C   UNL A   1      52.286  26.304  25.139  1.00  0.00     0.060 A 
BRANCH  92  93
ATOM     93  S   UNL A   1      53.981  25.986  24.605  1.00  0.00     0.124 S 
ATOM     94  O   UNL A   1      53.888  26.235  23.169  1.00  0.00    -0.237 OA
ATOM     95  O   UNL A   1      54.739  26.970  25.371  1.00  0.00    -0.237 OA
ATOM     96  O   UNL A   1      54.204  24.595  24.986  1.00  0.00    -0.744 OA
ENDBRANCH  92  93
ENDBRANCH  60  85
ENDBRANCH  34  35
ENDBRANCH  27  29
ENDBRANCH  26  27
ENDBRANCH  25  26
ENDBRANCH  24  25
ENDBRANCH  23  24
ENDBRANCH  22  23
ENDBRANCH   1  22
TORSDOF 25
ENDMDL
MODEL 2
REMARK VINA RESULT:      -8.7      6.451     11.906
REMARK SMILES CC[C@H]1CCCC[C@@H]1C1(C(=O)OCCOCCOCCOCCOC(=O)c2ccc(-c3c4nc(c(-c5c(F)cc(S(=O)(=O)[O-])cc5F)c5ccc([nH]5)c(-c5c(F)cc(S(=O)(=O)[O-])cc5F)c5nc(c(-c6c(F)cc(S(=O)(=O)[O-])cc6F)c6ccc3[nH]6)C=C5)C=C4)cc2)CC1
REMARK SMILES IDX 19 1 18 2 17 3 16 4 15 5 14 6 13 7 12 8 10 9 11 10 9 11
REMARK SMILES IDX 93 12 94 13 8 14 3 15 4 16 5 17 7 18 6 19 2 20 1 21 20 22
REMARK SMILES IDX 21 23 22 24 23 25 24 26 25 27 26 28 27 29 28 30 92 31 29 32
REMARK SMILES IDX 91 33 30 34 31 35 32 36 85 37 33 38 90 39 84 40 86 41 34 42
REMARK SMILES IDX 89 43 83 44 82 45 35 47 69 48 48 49 68 50 49 51 52 52 67 53
REMARK SMILES IDX 87 54 50 55 51 56 66 58 88 59 53 60 36 61 37 62 46 63 38 64
REMARK SMILES IDX 39 65 45 66 47 67 40 68 41 69 42 70 43 71 44 72 70 73 71 74
REMARK SMILES IDX 80 75 72 76 73 77 79 78 81 79 74 80 75 81 76 82 77 83 78 84
REMARK SMILES IDX 54 85 55 86 64 87 56 88 57 89 63 90 65 91 58 92 59 93 60 94
REMARK SMILES IDX 61 95 62 96
REMARK H PARENT 86 46 52 57
REMARK Flexibility Score: inf
ROOT
ATOM      1  C   UNL A   1      40.342  25.970  27.330  1.00  0.00     0.188 C 
ENDROOT
BRANCH   1   2
ATOM      2  O   UNL A   1      40.691  24.632  27.641  1.00  0.00    -0.377 OA
BRANCH   2   3
ATOM      3  C   UNL A   1      39.863  23.650  27.056  1.00  0.00     0.188 C 
BRANCH   3   4
ATOM      4  C   UNL A   1      38.453  24.220  26.775  1.00  0.00     0.188 C 
BRANCH   4   5
ATOM      5  O   UNL A   1      37.835  23.570  25.671  1.00  0.00    -0.376 OA
BRANCH   5   6
ATOM      6  C   UNL A   1      38.011  22.156  25.642  1.00  0.00     0.202 C 
BRANCH   6   7
ATOM      7  C   UNL A   1      37.237  21.361  24.574  1.00  0.00     0.261 C 
BRANCH   7   8
ATOM      8  O   UNL A   1      35.871  21.770  24.334  1.00  0.00    -0.463 OA
BRANCH   8   9
ATOM      9  C   UNL A   1      35.576  22.789  23.493  1.00  0.00     0.312 C 
ATOM     10  O   UNL A   1      36.293  23.200  22.594  1.00  0.00    -0.252 OA
BRANCH   9  11
ATOM     11  C   UNL A   1      34.156  23.351  23.730  1.00  0.00     0.071 C 
ATOM     12  C   UNL A   1      33.121  22.791  22.743  1.00  0.00     0.020 C 
ATOM     13  C   UNL A   1      33.520  24.223  22.640  1.00  0.00     0.020 C 
BRANCH  11  14
ATOM     14  C   UNL A   1      33.777  23.628  25.228  1.00  0.00     0.009 C 
ATOM     15  C   UNL A   1      32.517  22.917  25.792  1.00  0.00    -0.007 C 
ATOM     16  C   UNL A   1      31.234  23.745  25.556  1.00  0.00     0.004 C 
ATOM     17  C   UNL A   1      31.318  25.166  26.103  1.00  0.00     0.000 C 
ATOM     18  C   UNL A   1      33.795  25.108  25.669  1.00  0.00     0.005 C 
ATOM     19  C   UNL A   1      32.506  25.901  25.514  1.00  0.00     0.000 C 
BRANCH  15  20
ATOM     20  C   UNL A   1      32.764  22.626  27.300  1.00  0.00     0.000 C 
ATOM     21  C   UNL A   1      34.107  21.994  27.618  1.00  0.00     0.004 C 
ENDBRANCH  15  20
ENDBRANCH  11  14
ENDBRANCH   9  11
ENDBRANCH   8   9
ENDBRANCH   7   8
ENDBRANCH   6   7
ENDBRANCH   5   6
ENDBRANCH   4   5
ENDBRANCH   3   4
ENDBRANCH   2   3
ENDBRANCH   1   2
BRANCH   1  22
ATOM     22  C   UNL A   1      41.169  26.770  26.291  1.00  0.00     0.188 C 
BRANCH  22  23
ATOM     23  O   UNL A   1      41.631  25.998  25.179  1.00  0.00    -0.376 OA
BRANCH  23  24
ATOM     24  C   UNL A   1      43.022  25.844  24.966  1.00  0.00     0.202 C 
BRANCH  24  25
ATOM     25  C   UNL A   1      43.637  24.530  25.468  1.00  0.00     0.261 C 
BRANCH  25  26
ATOM     26  O   UNL A   1      43.994  24.505  26.853  1.00  0.00    -0.460 OA
BRANCH  26  27
ATOM     27  C   UNL A   1      44.968  25.359  27.259  1.00  0.00     0.338 C 
ATOM     28  O   UNL A   1      46.079  25.463  26.811  1.00  0.00    -0.246 OA
BRANCH  27  29
ATOM     29  C   UNL A   1      44.316  26.309  28.194  1.00  0.00     0.060 A 
ATOM     30  C   UNL A   1      44.441  27.681  27.939  1.00  0.00     0.016 A 
ATOM     31  C   UNL A   1      43.488  25.847  29.222  1.00  0.00     0.016 A 
ATOM     32  C   UNL A   1      43.729  28.597  28.711  1.00  0.00     0.010 A 
ATOM     33  C   UNL A   1      42.811  26.767  30.023  1.00  0.00     0.010 A 
ATOM     34  C   UNL A   1      42.950  28.145  29.783  1.00  0.00    -0.014 A 
BRANCH  34  35
ATOM     35  C   UNL A   1      42.521  29.116  30.813  1.00  0.00     0.031 A 
ATOM     36  C   UNL A   1      43.361  29.205  32.055  1.00  0.00     0.074 A 
ATOM     37  C   UNL A   1      41.445  29.902  30.650  1.00  0.00     0.049 A 
ATOM     38  N   UNL A   1      43.207  29.954  33.113  1.00  0.00    -0.248 NA
ATOM     39  C   UNL A   1      44.539  28.322  32.105  1.00  0.00     0.031 C 
ATOM     40  C   UNL A   1      40.579  29.923  29.473  1.00  0.00     0.029 A 
ATOM     41  N   UNL A   1      40.893  30.832  31.495  1.00  0.00    -0.354 N 
ATOM     42  C   UNL A   1      44.268  29.634  33.952  1.00  0.00     0.074 A 
ATOM     43  C   UNL A   1      45.035  28.599  33.298  1.00  0.00     0.031 C 
ATOM     44  C   UNL A   1      39.588  30.810  29.682  1.00  0.00     0.029 A 
ATOM     45  C   UNL A   1      39.736  31.395  31.014  1.00  0.00     0.049 A 
ATOM     46  H   UNL A   1      41.288  31.073  32.364  1.00  0.00     0.167 HD
ATOM     47  C   UNL A   1      44.578  30.162  35.159  1.00  0.00     0.037 A 
ATOM     48  C   UNL A   1      38.888  32.266  31.597  1.00  0.00     0.037 A 
ATOM     49  C   UNL A   1      43.786  31.165  35.814  1.00  0.00     0.049 A 
ATOM     50  C   UNL A   1      39.205  32.790  32.975  1.00  0.00     0.074 A 
ATOM     51  C   UNL A   1      44.004  31.771  37.037  1.00  0.00     0.029 A 
ATOM     52  N   UNL A   1      42.606  31.695  35.308  1.00  0.00    -0.354 N 
ATOM     53  N   UNL A   1      40.229  32.508  33.750  1.00  0.00    -0.248 NA
ATOM     54  C   UNL A   1      38.260  33.752  33.558  1.00  0.00     0.031 C 
ATOM     55  C   UNL A   1      42.926  32.625  37.296  1.00  0.00     0.029 A 
ATOM     56  C   UNL A   1      42.068  32.599  36.207  1.00  0.00     0.049 A 
ATOM     57  H   UNL A   1      42.210  31.461  34.437  1.00  0.00     0.167 HD
ATOM     58  C   UNL A   1      40.063  33.275  34.899  1.00  0.00     0.074 A 
ATOM     59  C   UNL A   1      38.845  34.039  34.714  1.00  0.00     0.031 C 
ATOM     60  C   UNL A   1      40.849  33.347  36.004  1.00  0.00     0.037 A 
BRANCH  47  61
ATOM     61  C   UNL A   1      45.795  29.610  35.847  1.00  0.00     0.058 A 
ATOM     62  C   UNL A   1      47.086  30.086  35.567  1.00  0.00     0.135 A 
ATOM     63  C   UNL A   1      45.671  28.557  36.768  1.00  0.00     0.135 A 
ATOM     64  F   UNL A   1      47.265  31.074  34.675  1.00  0.00    -0.206 F 
ATOM     65  C   UNL A   1      48.215  29.504  36.137  1.00  0.00     0.059 A 
ATOM     66  C   UNL A   1      46.783  27.983  37.375  1.00  0.00     0.059 A 
ATOM     67  F   UNL A   1      44.460  28.058  37.066  1.00  0.00    -0.206 F 
ATOM     68  C   UNL A   1      48.053  28.447  37.034  1.00  0.00     0.060 A 
BRANCH  68  69
ATOM     69  S   UNL A   1      49.526  27.675  37.733  1.00  0.00     0.124 S 
ATOM     70  O   UNL A   1      49.162  27.582  39.144  1.00  0.00    -0.237 OA
ATOM     71  O   UNL A   1      49.589  26.409  37.009  1.00  0.00    -0.237 OA
ATOM     72  O   UNL A   1      50.589  28.625  37.420  1.00  0.00    -0.744 OA
ENDBRANCH  68  69
ENDBRANCH  47  61
BRANCH  48  73
ATOM     73  C   UNL A   1      37.654  32.680  30.878  1.00  0.00     0.058 A 
ATOM     74  C   UNL A   1      37.673  33.706  29.922  1.00  0.00     0.135 A 
ATOM     75  C   UNL A   1      36.433  32.023  31.104  1.00  0.00     0.135 A 
ATOM     76  F   UNL A   1      38.809  34.378  29.682  1.00  0.00    -0.206 F 
ATOM     77  C   UNL A   1      36.531  34.059  29.208  1.00  0.00     0.059 A 
ATOM     78  C   UNL A   1      35.284  32.341  30.386  1.00  0.00     0.059 A 
ATOM     79  F   UNL A   1      36.361  31.032  32.007  1.00  0.00    -0.206 F 
ATOM     80  C   UNL A   1      35.344  33.361  29.438  1.00  0.00     0.060 A 
BRANCH  80  81
ATOM     81  S   UNL A   1      33.894  33.762  28.436  1.00  0.00     0.124 S 
ATOM     82  O   UNL A   1      34.458  34.676  27.451  1.00  0.00    -0.237 OA
ATOM     83  O   UNL A   1      33.498  32.449  27.936  1.00  0.00    -0.237 OA
ATOM     84  O   UNL A   1      32.974  34.360  29.399  1.00  0.00    -0.744 OA
ENDBRANCH  80  81
ENDBRANCH  48  73
BRANCH  60  85
ATOM     85  C   UNL A   1      40.438  34.301  37.093  1.00  0.00     0.058 A 
ATOM     86  C   UNL A   1      40.821  35.651  37.079  1.00  0.00     0.135 A 
ATOM     87  C   UNL A   1      39.589  33.872  38.127  1.00  0.00     0.135 A 
ATOM     88  F   UNL A   1      41.633  36.114  36.115  1.00  0.00    -0.206 F 
ATOM     89  C   UNL A   1      40.394  36.538  38.064  1.00  0.00     0.059 A 
ATOM     90  C   UNL A   1      39.126  34.747  39.104  1.00  0.00     0.059 A 
ATOM     91  F   UNL A   1      39.180  32.594  38.180  1.00  0.00    -0.206 F 
ATOM     92  C   UNL A   1      39.543  36.077  39.070  1.00  0.00     0.060 A 
BRANCH  92  93
ATOM     93  S   UNL A   1      38.966  37.245  40.319  1.00  0.00     0.124 S 
ATOM     94  O   UNL A   1      40.185  37.476  41.090  1.00  0.00    -0.237 OA
ATOM     95  O   UNL A   1      38.507  38.368  39.509  1.00  0.00    -0.237 OA
ATOM     96  O   UNL A   1      37.915  36.509  41.015  1.00  0.00    -0.744 OA
ENDBRANCH  92  93
ENDBRANCH  60  85
ENDBRANCH  34  35
ENDBRANCH  27  29
ENDBRANCH  26  27
ENDBRANCH  25  26
ENDBRANCH  24  25
ENDBRANCH  23  24
ENDBRANCH  22  23
ENDBRANCH   1  22
TORSDOF 25
ENDMDL
MODEL 3
REMARK VINA RESULT:      -8.1      6.688     14.324
REMARK SMILES CC[C@H]1CCCC[C@@H]1C1(C(=O)OCCOCCOCCOCCOC(=O)c2ccc(-c3c4nc(c(-c5c(F)cc(S(=O)(=O)[O-])cc5F)c5ccc([nH]5)c(-c5c(F)cc(S(=O)(=O)[O-])cc5F)c5nc(c(-c6c(F)cc(S(=O)(=O)[O-])cc6F)c6ccc3[nH]6)C=C5)C=C4)cc2)CC1
REMARK SMILES IDX 19 1 18 2 17 3 16 4 15 5 14 6 13 7 12 8 10 9 11 10 9 11
REMARK SMILES IDX 93 12 94 13 8 14 3 15 4 16 5 17 7 18 6 19 2 20 1 21 20 22
REMARK SMILES IDX 21 23 22 24 23 25 24 26 25 27 26 28 27 29 28 30 92 31 29 32
REMARK SMILES IDX 91 33 30 34 31 35 32 36 85 37 33 38 90 39 84 40 86 41 34 42
REMARK SMILES IDX 89 43 83 44 82 45 35 47 69 48 48 49 68 50 49 51 52 52 67 53
REMARK SMILES IDX 87 54 50 55 51 56 66 58 88 59 53 60 36 61 37 62 46 63 38 64
REMARK SMILES IDX 39 65 45 66 47 67 40 68 41 69 42 70 43 71 44 72 70 73 71 74
REMARK SMILES IDX 80 75 72 76 73 77 79 78 81 79 74 80 75 81 76 82 77 83 78 84
REMARK SMILES IDX 54 85 55 86 64 87 56 88 57 89 63 90 65 91 58 92 59 93 60 94
REMARK SMILES IDX 61 95 62 96
REMARK H PARENT 86 46 52 57
REMARK Flexibility Score: inf
ROOT
ATOM      1  C   UNL A   1      43.791  24.356  29.596  1.00  0.00     0.188 C 
ENDROOT
BRANCH   1   2
ATOM      2  O   UNL A   1      44.399  25.108  28.559  1.00  0.00    -0.377 OA
BRANCH   2   3
ATOM      3  C   UNL A   1      45.786  25.318  28.713  1.00  0.00     0.188 C 
BRANCH   3   4
ATOM      4  C   UNL A   1      46.452  25.595  27.345  1.00  0.00     0.188 C 
BRANCH   4   5
ATOM      5  O   UNL A   1      45.498  25.600  26.289  1.00  0.00    -0.376 OA
BRANCH   5   6
ATOM      6  C   UNL A   1      46.033  25.294  25.005  1.00  0.00     0.202 C 
BRANCH   6   7
ATOM      7  C   UNL A   1      47.552  25.453  24.806  1.00  0.00     0.261 C 
BRANCH   7   8
ATOM      8  O   UNL A   1      47.985  25.885  23.495  1.00  0.00    -0.463 OA
BRANCH   8   9
ATOM      9  C   UNL A   1      48.696  27.024  23.326  1.00  0.00     0.312 C 
ATOM     10  O   UNL A   1      48.930  27.852  24.192  1.00  0.00    -0.252 OA
BRANCH   9  11
ATOM     11  C   UNL A   1      49.278  27.145  21.900  1.00  0.00     0.071 C 
ATOM     12  C   UNL A   1      48.260  27.683  20.883  1.00  0.00     0.020 C 
ATOM     13  C   UNL A   1      48.694  26.261  20.791  1.00  0.00     0.020 C 
BRANCH  11  14
ATOM     14  C   UNL A   1      50.793  27.549  21.818  1.00  0.00     0.009 C 
ATOM     15  C   UNL A   1      51.138  29.060  21.910  1.00  0.00    -0.007 C 
ATOM     16  C   UNL A   1      51.120  29.742  20.524  1.00  0.00     0.004 C 
ATOM     17  C   UNL A   1      52.024  29.064  19.501  1.00  0.00     0.000 C 
ATOM     18  C   UNL A   1      51.611  26.886  20.688  1.00  0.00     0.005 C 
ATOM     19  C   UNL A   1      51.661  27.600  19.346  1.00  0.00     0.000 C 
BRANCH  15  20
ATOM     20  C   UNL A   1      52.516  29.196  22.617  1.00  0.00     0.000 C 
ATOM     21  C   UNL A   1      52.454  29.261  24.133  1.00  0.00     0.004 C 
ENDBRANCH  15  20
ENDBRANCH  11  14
ENDBRANCH   9  11
ENDBRANCH   8   9
ENDBRANCH   7   8
ENDBRANCH   6   7
ENDBRANCH   5   6
ENDBRANCH   4   5
ENDBRANCH   3   4
ENDBRANCH   2   3
ENDBRANCH   1   2
BRANCH   1  22
ATOM     22  C   UNL A   1      43.382  22.881  29.352  1.00  0.00     0.188 C 
BRANCH  22  23
ATOM     23  O   UNL A   1      43.450  22.463  27.986  1.00  0.00    -0.376 OA
BRANCH  23  24
ATOM     24  C   UNL A   1      42.254  22.283  27.250  1.00  0.00     0.202 C 
BRANCH  24  25
ATOM     25  C   UNL A   1      42.045  23.234  26.064  1.00  0.00     0.261 C 
BRANCH  25  26
ATOM     26  O   UNL A   1      41.255  24.395  26.335  1.00  0.00    -0.460 OA
BRANCH  26  27
ATOM     27  C   UNL A   1      41.825  25.604  26.097  1.00  0.00     0.338 C 
ATOM     28  O   UNL A   1      42.325  25.986  25.072  1.00  0.00    -0.246 OA
BRANCH  27  29
ATOM     29  C   UNL A   1      41.489  26.453  27.268  1.00  0.00     0.060 A 
ATOM     30  C   UNL A   1      42.048  27.736  27.339  1.00  0.00     0.016 A 
ATOM     31  C   UNL A   1      40.536  26.037  28.202  1.00  0.00     0.016 A 
ATOM     32  C   UNL A   1      41.648  28.611  28.346  1.00  0.00     0.010 A 
ATOM     33  C   UNL A   1      40.169  26.899  29.237  1.00  0.00     0.010 A 
ATOM     34  C   UNL A   1      40.743  28.179  29.323  1.00  0.00    -0.014 A 
BRANCH  34  35
ATOM     35  C   UNL A   1      40.623  28.953  30.577  1.00  0.00     0.031 A 
ATOM     36  C   UNL A   1      39.562  30.017  30.621  1.00  0.00     0.074 A 
ATOM     37  C   UNL A   1      41.405  28.716  31.643  1.00  0.00     0.049 A 
ATOM     38  N   UNL A   1      39.253  30.846  31.580  1.00  0.00    -0.248 NA
ATOM     39  C   UNL A   1      38.741  30.162  29.407  1.00  0.00     0.031 C 
ATOM     40  C   UNL A   1      42.440  27.688  31.723  1.00  0.00     0.029 A 
ATOM     41  N   UNL A   1      41.450  29.340  32.864  1.00  0.00    -0.354 N 
ATOM     42  C   UNL A   1      38.200  31.607  31.088  1.00  0.00     0.074 A 
ATOM     43  C   UNL A   1      37.950  31.169  29.734  1.00  0.00     0.031 C 
ATOM     44  C   UNL A   1      43.037  27.768  32.927  1.00  0.00     0.029 A 
ATOM     45  C   UNL A   1      42.441  28.866  33.688  1.00  0.00     0.049 A 
ATOM     46  H   UNL A   1      40.830  30.058  33.125  1.00  0.00     0.167 HD
ATOM     47  C   UNL A   1      37.499  32.582  31.712  1.00  0.00     0.037 A 
ATOM     48  C   UNL A   1      42.833  29.290  34.906  1.00  0.00     0.037 A 
ATOM     49  C   UNL A   1      37.781  33.034  33.046  1.00  0.00     0.049 A 
ATOM     50  C   UNL A   1      42.092  30.430  35.561  1.00  0.00     0.074 A 
ATOM     51  C   UNL A   1      37.138  34.013  33.778  1.00  0.00     0.029 A 
ATOM     52  N   UNL A   1      38.811  32.548  33.842  1.00  0.00    -0.354 N 
ATOM     53  N   UNL A   1      41.074  31.124  35.102  1.00  0.00    -0.248 NA
ATOM     54  C   UNL A   1      42.544  30.841  36.897  1.00  0.00     0.031 C 
ATOM     55  C   UNL A   1      37.814  34.160  34.994  1.00  0.00     0.029 A 
ATOM     56  C   UNL A   1      38.840  33.229  35.047  1.00  0.00     0.049 A 
ATOM     57  H   UNL A   1      39.429  31.825  33.587  1.00  0.00     0.167 HD
ATOM     58  C   UNL A   1      40.751  32.036  36.102  1.00  0.00     0.074 A 
ATOM     59  C   UNL A   1      41.675  31.799  37.193  1.00  0.00     0.031 C 
ATOM     60  C   UNL A   1      39.774  32.980  36.120  1.00  0.00     0.037 A 
BRANCH  47  61
ATOM     61  C   UNL A   1      36.405  33.243  30.921  1.00  0.00     0.058 A 
ATOM     62  C   UNL A   1      36.681  34.050  29.804  1.00  0.00     0.135 A 
ATOM     63  C   UNL A   1      35.064  33.105  31.313  1.00  0.00     0.135 A 
ATOM     64  F   UNL A   1      37.948  34.238  29.401  1.00  0.00    -0.206 F 
ATOM     65  C   UNL A   1      35.672  34.736  29.136  1.00  0.00     0.059 A 
ATOM     66  C   UNL A   1      34.036  33.756  30.639  1.00  0.00     0.059 A 
ATOM     67  F   UNL A   1      34.745  32.352  32.378  1.00  0.00    -0.206 F 
ATOM     68  C   UNL A   1      34.352  34.589  29.567  1.00  0.00     0.060 A 
BRANCH  68  69
ATOM     69  S   UNL A   1      33.059  35.517  28.718  1.00  0.00     0.124 S 
ATOM     70  O   UNL A   1      33.835  36.573  28.074  1.00  0.00    -0.237 OA
ATOM     71  O   UNL A   1      32.489  34.514  27.825  1.00  0.00    -0.237 OA
ATOM     72  O   UNL A   1      32.186  35.954  29.803  1.00  0.00    -0.744 OA
ENDBRANCH  68  69
ENDBRANCH  47  61
BRANCH  48  73
ATOM     73  C   UNL A   1      43.993  28.639  35.572  1.00  0.00     0.058 A 
ATOM     74  C   UNL A   1      45.302  29.105  35.382  1.00  0.00     0.135 A 
ATOM     75  C   UNL A   1      43.807  27.558  36.449  1.00  0.00     0.135 A 
ATOM     76  F   UNL A   1      45.537  30.123  34.539  1.00  0.00    -0.206 F 
ATOM     77  C   UNL A   1      46.384  28.532  36.045  1.00  0.00     0.059 A 
ATOM     78  C   UNL A   1      44.868  26.985  37.142  1.00  0.00     0.059 A 
ATOM     79  F   UNL A   1      42.574  27.075  36.666  1.00  0.00    -0.206 F 
ATOM     80  C   UNL A   1      46.155  27.480  36.935  1.00  0.00     0.060 A 
BRANCH  80  81
ATOM     81  S   UNL A   1      47.552  26.810  37.864  1.00  0.00     0.124 S 
ATOM     82  O   UNL A   1      48.681  27.459  37.209  1.00  0.00    -0.237 OA
ATOM     83  O   UNL A   1      47.257  27.258  39.221  1.00  0.00    -0.237 OA
ATOM     84  O   UNL A   1      47.440  25.370  37.649  1.00  0.00    -0.744 OA
ENDBRANCH  80  81
ENDBRANCH  48  73
BRANCH  60  85
ATOM     85  C   UNL A   1      39.631  33.813  37.365  1.00  0.00     0.058 A 
ATOM     86  C   UNL A   1      38.815  33.414  38.435  1.00  0.00     0.135 A 
ATOM     87  C   UNL A   1      40.378  34.993  37.516  1.00  0.00     0.135 A 
ATOM     88  F   UNL A   1      38.078  32.295  38.342  1.00  0.00    -0.206 F 
ATOM     89  C   UNL A   1      38.728  34.166  39.603  1.00  0.00     0.059 A 
ATOM     90  C   UNL A   1      40.330  35.744  38.686  1.00  0.00     0.059 A 
ATOM     91  F   UNL A   1      41.185  35.414  36.530  1.00  0.00    -0.206 F 
ATOM     92  C   UNL A   1      39.493  35.328  39.720  1.00  0.00     0.060 A 
BRANCH  92  93
ATOM     93  S   UNL A   1      39.400  36.275  41.254  1.00  0.00     0.124 S 
ATOM     94  O   UNL A   1      38.432  35.496  42.022  1.00  0.00    -0.237 OA
ATOM     95  O   UNL A   1      40.777  36.226  41.735  1.00  0.00    -0.237 OA
ATOM     96  O   UNL A   1      38.940  37.589  40.817  1.00  0.00    -0.744 OA
ENDBRANCH  92  93
ENDBRANCH  60  85
ENDBRANCH  34  35
ENDBRANCH  27  29
ENDBRANCH  26  27
ENDBRANCH  25  26
ENDBRANCH  24  25
ENDBRANCH  23  24
ENDBRANCH  22  23
ENDBRANCH   1  22
TORSDOF 25
ENDMDL
