MODEL 1
REMARK VINA RESULT:      -8.4      0.000      0.000
REMARK SMILES C[C@@H](Oc1ccc(/C=N/NC(=O)c2ccc(I)c(O)c2)cc1)C(=O)OCCOCCOCCOCCOC(=O)c1ccc(-c2c3nc(c(-c4c(F)cc(S(=O)(=O)[O-])cc4F)c4ccc([nH]4)c(-c4c(F)cc(S(=O)(=O)[O-])cc4F)c4nc(c(-c5c(F)cc(S(=O)(=O)[O-])cc5F)c5ccc2[nH]5)C=C4)C=C3)cc1
REMARK SMILES IDX 29 1 28 2 27 3 26 4 25 5 23 6 24 7 2 8 1 9 3 10 4 11 5 12
REMARK SMILES IDX 22 13 6 14 21 15 7 16 8 17 9 18 10 19 11 20 12 22 13 23
REMARK SMILES IDX 14 24 20 25 15 26 18 27 16 28 17 29 19 30 30 32 31 33 32 34
REMARK SMILES IDX 33 35 34 36 35 37 36 38 37 39 38 40 39 41 40 42 41 43 105 44
REMARK SMILES IDX 42 45 104 46 43 47 44 48 45 49 98 50 46 51 103 52 97 53
REMARK SMILES IDX 99 54 47 55 102 56 96 57 95 58 48 60 82 61 61 62 81 63 62 64
REMARK SMILES IDX 65 65 80 66 100 67 63 68 64 69 79 71 101 72 66 73 49 74
REMARK SMILES IDX 50 75 59 76 51 77 52 78 58 79 60 80 53 81 54 82 55 83 56 84
REMARK SMILES IDX 57 85 83 86 84 87 93 88 85 89 86 90 92 91 94 92 87 93 88 94
REMARK SMILES IDX 89 95 90 96 91 97 67 98 68 99 77 100 69 101 70 102 76 103
REMARK SMILES IDX 78 104 71 105 72 106 73 107 74 108 75 109
REMARK H PARENT 10 21 19 31 99 59 65 70
REMARK Flexibility Score: inf
ROOT
ATOM      1  C   UNL A   1      43.100  34.055  32.607  1.00  0.00     0.188 C 
ENDROOT
BRANCH   1   2
ATOM      2  O   UNL A   1      44.149  34.003  33.558  1.00  0.00    -0.376 OA
BRANCH   2   3
ATOM      3  C   UNL A   1      43.891  34.046  34.958  1.00  0.00     0.202 C 
BRANCH   3   4
ATOM      4  C   UNL A   1      42.824  33.186  35.658  1.00  0.00     0.261 C 
BRANCH   4   5
ATOM      5  O   UNL A   1      43.082  31.775  35.730  1.00  0.00    -0.461 OA
BRANCH   5   6
ATOM      6  C   UNL A   1      42.008  30.983  35.958  1.00  0.00     0.347 C 
ATOM      7  O   UNL A   1      41.833  30.340  36.992  1.00  0.00    -0.248 OA
BRANCH   6   8
ATOM      8  C   UNL A   1      41.002  30.938  34.811  1.00  0.00     0.279 C 
ATOM      9  C   UNL A   1      41.319  30.082  33.588  1.00  0.00     0.066 C 
BRANCH   8  10
ATOM     10  O   UNL A   1      39.776  30.499  35.425  1.00  0.00    -0.479 OA
BRANCH  10  11
ATOM     11  C   UNL A   1      38.807  31.455  35.366  1.00  0.00     0.120 A 
ATOM     12  C   UNL A   1      38.789  32.431  36.362  1.00  0.00     0.047 A 
ATOM     13  C   UNL A   1      37.824  31.424  34.381  1.00  0.00     0.047 A 
ATOM     14  C   UNL A   1      37.785  33.400  36.355  1.00  0.00     0.013 A 
ATOM     15  C   UNL A   1      36.887  32.438  34.313  1.00  0.00     0.013 A 
ATOM     16  C   UNL A   1      36.854  33.401  35.316  1.00  0.00    -0.005 A 
BRANCH  16  17
ATOM     17  C   UNL A   1      35.714  34.315  35.287  1.00  0.00     0.141 C 
ATOM     18  N   UNL A   1      35.327  34.836  34.169  1.00  0.00    -0.180 NA
BRANCH  18  19
ATOM     19  N   UNL A   1      34.419  35.851  34.233  1.00  0.00    -0.243 N 
ATOM     20  C   UNL A   1      33.614  36.376  33.234  1.00  0.00     0.271 C 
ATOM     21  H   UNL A   1      34.321  36.274  35.117  1.00  0.00     0.194 HD
ATOM     22  O   UNL A   1      32.907  37.359  33.456  1.00  0.00    -0.267 OA
BRANCH  20  23
ATOM     23  C   UNL A   1      33.585  35.782  31.875  1.00  0.00     0.045 A 
ATOM     24  C   UNL A   1      34.127  34.500  31.714  1.00  0.00     0.015 A 
ATOM     25  C   UNL A   1      33.031  36.452  30.776  1.00  0.00     0.061 A 
ATOM     26  C   UNL A   1      34.055  33.857  30.475  1.00  0.00     0.019 A 
ATOM     27  C   UNL A   1      32.949  35.799  29.543  1.00  0.00     0.129 A 
ATOM     28  C   UNL A   1      33.449  34.500  29.393  1.00  0.00     0.055 A 
ATOM     29  I   UNL A   1      33.276  33.446  27.595  1.00  0.00    -0.040 I 
BRANCH  27  30
ATOM     30  O   UNL A   1      32.316  36.411  28.496  1.00  0.00    -0.507 OA
ATOM     31  H   UNL A   1      32.276  37.346  28.455  1.00  0.00     0.293 HD
ENDBRANCH  27  30
ENDBRANCH  20  23
ENDBRANCH  18  19
ENDBRANCH  16  17
ENDBRANCH  10  11
ENDBRANCH   8  10
ENDBRANCH   6   8
ENDBRANCH   5   6
ENDBRANCH   4   5
ENDBRANCH   3   4
ENDBRANCH   2   3
ENDBRANCH   1   2
BRANCH   1  32
ATOM     32  C   UNL A   1      41.992  35.103  32.743  1.00  0.00     0.188 C 
BRANCH  32  33
ATOM     33  O   UNL A   1      40.766  34.593  33.220  1.00  0.00    -0.377 OA
BRANCH  33  34
ATOM     34  C   UNL A   1      40.029  33.659  32.447  1.00  0.00     0.188 C 
BRANCH  34  35
ATOM     35  C   UNL A   1      39.950  33.847  30.926  1.00  0.00     0.188 C 
BRANCH  35  36
ATOM     36  O   UNL A   1      39.036  34.853  30.515  1.00  0.00    -0.376 OA
BRANCH  36  37
ATOM     37  C   UNL A   1      37.676  34.496  30.312  1.00  0.00     0.202 C 
BRANCH  37  38
ATOM     38  C   UNL A   1      37.242  33.056  30.638  1.00  0.00     0.261 C 
BRANCH  38  39
ATOM     39  O   UNL A   1      37.067  32.159  29.525  1.00  0.00    -0.460 OA
BRANCH  39  40
ATOM     40  C   UNL A   1      36.999  30.835  29.765  1.00  0.00     0.338 C 
ATOM     41  O   UNL A   1      36.007  30.197  30.081  1.00  0.00    -0.246 OA
BRANCH  40  42
ATOM     42  C   UNL A   1      38.294  30.236  29.382  1.00  0.00     0.060 A 
ATOM     43  C   UNL A   1      39.324  30.179  30.329  1.00  0.00     0.016 A 
ATOM     44  C   UNL A   1      38.496  29.743  28.091  1.00  0.00     0.016 A 
ATOM     45  C   UNL A   1      40.570  29.657  29.979  1.00  0.00     0.010 A 
ATOM     46  C   UNL A   1      39.753  29.241  27.736  1.00  0.00     0.010 A 
ATOM     47  C   UNL A   1      40.806  29.223  28.668  1.00  0.00    -0.014 A 
BRANCH  47  48
ATOM     48  C   UNL A   1      42.189  28.909  28.230  1.00  0.00     0.031 A 
ATOM     49  C   UNL A   1      42.514  27.494  27.829  1.00  0.00     0.074 A 
ATOM     50  C   UNL A   1      43.135  29.864  28.168  1.00  0.00     0.049 A 
ATOM     51  N   UNL A   1      43.659  26.973  27.475  1.00  0.00    -0.248 NA
ATOM     52  C   UNL A   1      41.393  26.538  27.828  1.00  0.00     0.031 C 
ATOM     53  C   UNL A   1      42.932  31.277  28.486  1.00  0.00     0.029 A 
ATOM     54  N   UNL A   1      44.463  29.783  27.828  1.00  0.00    -0.354 N 
ATOM     55  C   UNL A   1      43.403  25.630  27.221  1.00  0.00     0.074 A 
ATOM     56  C   UNL A   1      41.998  25.410  27.483  1.00  0.00     0.031 C 
ATOM     57  C   UNL A   1      44.100  31.927  28.343  1.00  0.00     0.029 A 
ATOM     58  C   UNL A   1      45.141  30.973  27.962  1.00  0.00     0.049 A 
ATOM     59  H   UNL A   1      44.890  28.953  27.518  1.00  0.00     0.167 HD
ATOM     60  C   UNL A   1      44.262  24.671  26.803  1.00  0.00     0.037 A 
ATOM     61  C   UNL A   1      46.454  31.251  27.825  1.00  0.00     0.037 A 
ATOM     62  C   UNL A   1      45.659  24.899  26.541  1.00  0.00     0.049 A 
ATOM     63  C   UNL A   1      47.403  30.147  27.431  1.00  0.00     0.074 A 
ATOM     64  C   UNL A   1      46.607  23.996  26.090  1.00  0.00     0.029 A 
ATOM     65  N   UNL A   1      46.313  26.110  26.713  1.00  0.00    -0.354 N 
ATOM     66  N   UNL A   1      47.144  28.886  27.167  1.00  0.00    -0.248 NA
ATOM     67  C   UNL A   1      48.826  30.499  27.314  1.00  0.00     0.031 C 
ATOM     68  C   UNL A   1      47.845  24.644  26.051  1.00  0.00     0.029 A 
ATOM     69  C   UNL A   1      47.658  25.969  26.410  1.00  0.00     0.049 A 
ATOM     70  H   UNL A   1      45.886  26.947  27.008  1.00  0.00     0.167 HD
ATOM     71  C   UNL A   1      48.363  28.309  26.822  1.00  0.00     0.074 A 
ATOM     72  C   UNL A   1      49.357  29.358  26.898  1.00  0.00     0.031 C 
ATOM     73  C   UNL A   1      48.636  27.026  26.477  1.00  0.00     0.037 A 
BRANCH  60  74
ATOM     74  C   UNL A   1      43.730  23.275  26.628  1.00  0.00     0.058 A 
ATOM     75  C   UNL A   1      43.663  22.658  25.369  1.00  0.00     0.135 A 
ATOM     76  C   UNL A   1      43.349  22.518  27.748  1.00  0.00     0.135 A 
ATOM     77  F   UNL A   1      43.994  23.341  24.261  1.00  0.00    -0.206 F 
ATOM     78  C   UNL A   1      43.228  21.344  25.226  1.00  0.00     0.059 A 
ATOM     79  C   UNL A   1      42.938  21.193  27.632  1.00  0.00     0.059 A 
ATOM     80  F   UNL A   1      43.388  23.060  28.975  1.00  0.00    -0.206 F 
ATOM     81  C   UNL A   1      42.875  20.618  26.364  1.00  0.00     0.060 A 
BRANCH  81  82
ATOM     82  S   UNL A   1      42.350  18.902  26.163  1.00  0.00     0.124 S 
ATOM     83  O   UNL A   1      42.437  18.407  27.533  1.00  0.00    -0.237 OA
ATOM     84  O   UNL A   1      41.001  19.052  25.627  1.00  0.00    -0.237 OA
ATOM     85  O   UNL A   1      43.332  18.351  25.234  1.00  0.00    -0.744 OA
ENDBRANCH  81  82
ENDBRANCH  60  74
BRANCH  61  86
ATOM     86  C   UNL A   1      46.964  32.625  28.093  1.00  0.00     0.058 A 
ATOM     87  C   UNL A   1      47.483  32.978  29.348  1.00  0.00     0.135 A 
ATOM     88  C   UNL A   1      46.909  33.624  27.108  1.00  0.00     0.135 A 
ATOM     89  F   UNL A   1      47.547  32.065  30.329  1.00  0.00    -0.206 F 
ATOM     90  C   UNL A   1      47.904  34.275  29.625  1.00  0.00     0.059 A 
ATOM     91  C   UNL A   1      47.355  34.919  27.351  1.00  0.00     0.059 A 
ATOM     92  F   UNL A   1      46.429  33.340  25.888  1.00  0.00    -0.206 F 
ATOM     93  C   UNL A   1      47.835  35.240  28.619  1.00  0.00     0.060 A 
BRANCH  93  94
ATOM     94  S   UNL A   1      48.408  36.914  28.981  1.00  0.00     0.124 S 
ATOM     95  O   UNL A   1      49.752  36.893  28.417  1.00  0.00    -0.237 OA
ATOM     96  O   UNL A   1      47.430  37.731  28.272  1.00  0.00    -0.237 OA
ATOM     97  O   UNL A   1      48.335  36.985  30.437  1.00  0.00    -0.744 OA
ENDBRANCH  93  94
ENDBRANCH  61  86
BRANCH  73  98
ATOM     98  C   UNL A   1      50.057  26.687  26.108  1.00  0.00     0.058 A 
ATOM     99  C   UNL A   1      50.497  26.682  24.776  1.00  0.00     0.135 A 
ATOM    100  C   UNL A   1      51.005  26.416  27.109  1.00  0.00     0.135 A 
ATOM    101  F   UNL A   1      49.635  26.929  23.777  1.00  0.00    -0.206 F 
ATOM    102  C   UNL A   1      51.819  26.394  24.447  1.00  0.00     0.059 A 
ATOM    103  C   UNL A   1      52.338  26.160  26.807  1.00  0.00     0.059 A 
ATOM    104  F   UNL A   1      50.642  26.420  28.403  1.00  0.00    -0.206 F 
ATOM    105  C   UNL A   1      52.732  26.137  25.471  1.00  0.00     0.060 A 
BRANCH 105 106
ATOM    106  S   UNL A   1      54.450  25.796  25.031  1.00  0.00     0.124 S 
ATOM    107  O   UNL A   1      55.170  26.578  26.031  1.00  0.00    -0.237 OA
ATOM    108  O   UNL A   1      54.529  24.346  25.184  1.00  0.00    -0.237 OA
ATOM    109  O   UNL A   1      54.555  26.283  23.660  1.00  0.00    -0.744 OA
ENDBRANCH 105 106
ENDBRANCH  73  98
ENDBRANCH  47  48
ENDBRANCH  40  42
ENDBRANCH  39  40
ENDBRANCH  38  39
ENDBRANCH  37  38
ENDBRANCH  36  37
ENDBRANCH  35  36
ENDBRANCH  34  35
ENDBRANCH  33  34
ENDBRANCH  32  33
ENDBRANCH   1  32
TORSDOF 29
ENDMDL
MODEL 2
REMARK VINA RESULT:      -8.1      4.515      7.993
REMARK SMILES C[C@@H](Oc1ccc(/C=N/NC(=O)c2ccc(I)c(O)c2)cc1)C(=O)OCCOCCOCCOCCOC(=O)c1ccc(-c2c3nc(c(-c4c(F)cc(S(=O)(=O)[O-])cc4F)c4ccc([nH]4)c(-c4c(F)cc(S(=O)(=O)[O-])cc4F)c4nc(c(-c5c(F)cc(S(=O)(=O)[O-])cc5F)c5ccc2[nH]5)C=C4)C=C3)cc1
REMARK SMILES IDX 29 1 28 2 27 3 26 4 25 5 23 6 24 7 2 8 1 9 3 10 4 11 5 12
REMARK SMILES IDX 22 13 6 14 21 15 7 16 8 17 9 18 10 19 11 20 12 22 13 23
REMARK SMILES IDX 14 24 20 25 15 26 18 27 16 28 17 29 19 30 30 32 31 33 32 34
REMARK SMILES IDX 33 35 34 36 35 37 36 38 37 39 38 40 39 41 40 42 41 43 105 44
REMARK SMILES IDX 42 45 104 46 43 47 44 48 45 49 98 50 46 51 103 52 97 53
REMARK SMILES IDX 99 54 47 55 102 56 96 57 95 58 48 60 82 61 61 62 81 63 62 64
REMARK SMILES IDX 65 65 80 66 100 67 63 68 64 69 79 71 101 72 66 73 49 74
REMARK SMILES IDX 50 75 59 76 51 77 52 78 58 79 60 80 53 81 54 82 55 83 56 84
REMARK SMILES IDX 57 85 83 86 84 87 93 88 85 89 86 90 92 91 94 92 87 93 88 94
REMARK SMILES IDX 89 95 90 96 91 97 67 98 68 99 77 100 69 101 70 102 76 103
REMARK SMILES IDX 78 104 71 105 72 106 73 107 74 108 75 109
REMARK H PARENT 10 21 19 31 99 59 65 70
REMARK Flexibility Score: inf
ROOT
ATOM      1  C   UNL A   1      41.303  33.380  35.158  1.00  0.00     0.188 C 
ENDROOT
BRANCH   1   2
ATOM      2  O   UNL A   1      42.111  32.571  34.322  1.00  0.00    -0.376 OA
BRANCH   2   3
ATOM      3  C   UNL A   1      43.499  32.386  34.578  1.00  0.00     0.202 C 
BRANCH   3   4
ATOM      4  C   UNL A   1      44.059  31.817  35.894  1.00  0.00     0.261 C 
BRANCH   4   5
ATOM      5  O   UNL A   1      44.240  30.394  35.953  1.00  0.00    -0.461 OA
BRANCH   5   6
ATOM      6  C   UNL A   1      43.115  29.653  36.090  1.00  0.00     0.347 C 
ATOM      7  O   UNL A   1      42.271  29.837  36.965  1.00  0.00    -0.248 OA
BRANCH   6   8
ATOM      8  C   UNL A   1      42.963  28.542  35.056  1.00  0.00     0.279 C 
ATOM      9  C   UNL A   1      42.380  28.884  33.688  1.00  0.00     0.066 C 
BRANCH   8  10
ATOM     10  O   UNL A   1      44.290  28.001  34.912  1.00  0.00    -0.479 OA
BRANCH  10  11
ATOM     11  C   UNL A   1      44.276  26.643  34.794  1.00  0.00     0.120 A 
ATOM     12  C   UNL A   1      44.318  26.096  33.512  1.00  0.00     0.047 A 
ATOM     13  C   UNL A   1      44.160  25.825  35.914  1.00  0.00     0.047 A 
ATOM     14  C   UNL A   1      44.264  24.711  33.354  1.00  0.00     0.013 A 
ATOM     15  C   UNL A   1      44.205  24.451  35.769  1.00  0.00     0.013 A 
ATOM     16  C   UNL A   1      44.226  23.903  34.490  1.00  0.00    -0.005 A 
BRANCH  16  17
ATOM     17  C   UNL A   1      44.067  22.452  34.415  1.00  0.00     0.141 C 
ATOM     18  N   UNL A   1      44.741  21.682  35.204  1.00  0.00    -0.180 NA
BRANCH  18  19
ATOM     19  N   UNL A   1      44.730  20.346  34.934  1.00  0.00    -0.243 N 
ATOM     20  C   UNL A   1      45.539  19.339  35.438  1.00  0.00     0.271 C 
ATOM     21  H   UNL A   1      44.048  20.053  34.287  1.00  0.00     0.194 HD
ATOM     22  O   UNL A   1      45.441  18.189  35.013  1.00  0.00    -0.267 OA
BRANCH  20  23
ATOM     23  C   UNL A   1      46.550  19.616  36.489  1.00  0.00     0.045 A 
ATOM     24  C   UNL A   1      47.751  20.221  36.094  1.00  0.00     0.015 A 
ATOM     25  C   UNL A   1      46.331  19.307  37.838  1.00  0.00     0.061 A 
ATOM     26  C   UNL A   1      48.704  20.579  37.050  1.00  0.00     0.019 A 
ATOM     27  C   UNL A   1      47.282  19.680  38.792  1.00  0.00     0.129 A 
ATOM     28  C   UNL A   1      48.462  20.325  38.402  1.00  0.00     0.055 A 
ATOM     29  I   UNL A   1      49.878  20.981  39.795  1.00  0.00    -0.040 I 
BRANCH  27  30
ATOM     30  O   UNL A   1      47.025  19.473  40.119  1.00  0.00    -0.507 OA
ATOM     31  H   UNL A   1      47.402  18.737  40.559  1.00  0.00     0.293 HD
ENDBRANCH  27  30
ENDBRANCH  20  23
ENDBRANCH  18  19
ENDBRANCH  16  17
ENDBRANCH  10  11
ENDBRANCH   8  10
ENDBRANCH   6   8
ENDBRANCH   5   6
ENDBRANCH   4   5
ENDBRANCH   3   4
ENDBRANCH   2   3
ENDBRANCH   1   2
BRANCH   1  32
ATOM     32  C   UNL A   1      40.725  34.695  34.628  1.00  0.00     0.188 C 
BRANCH  32  33
ATOM     33  O   UNL A   1      39.360  34.630  34.278  1.00  0.00    -0.377 OA
BRANCH  33  34
ATOM     34  C   UNL A   1      38.918  33.725  33.278  1.00  0.00     0.188 C 
BRANCH  34  35
ATOM     35  C   UNL A   1      37.410  33.532  33.062  1.00  0.00     0.188 C 
BRANCH  35  36
ATOM     36  O   UNL A   1      36.905  34.181  31.905  1.00  0.00    -0.376 OA
BRANCH  36  37
ATOM     37  C   UNL A   1      36.956  33.494  30.662  1.00  0.00     0.202 C 
BRANCH  37  38
ATOM     38  C   UNL A   1      35.769  32.596  30.273  1.00  0.00     0.261 C 
BRANCH  38  39
ATOM     39  O   UNL A   1      36.050  31.201  30.054  1.00  0.00    -0.460 OA
BRANCH  39  40
ATOM     40  C   UNL A   1      36.701  30.514  31.012  1.00  0.00     0.338 C 
ATOM     41  O   UNL A   1      36.274  30.209  32.115  1.00  0.00    -0.246 OA
BRANCH  40  42
ATOM     42  C   UNL A   1      37.959  30.003  30.429  1.00  0.00     0.060 A 
ATOM     43  C   UNL A   1      38.938  29.475  31.281  1.00  0.00     0.016 A 
ATOM     44  C   UNL A   1      38.178  30.055  29.051  1.00  0.00     0.016 A 
ATOM     45  C   UNL A   1      40.152  29.025  30.759  1.00  0.00     0.010 A 
ATOM     46  C   UNL A   1      39.404  29.625  28.533  1.00  0.00     0.010 A 
ATOM     47  C   UNL A   1      40.409  29.136  29.387  1.00  0.00    -0.014 A 
BRANCH  47  48
ATOM     48  C   UNL A   1      41.781  28.899  28.870  1.00  0.00     0.031 A 
ATOM     49  C   UNL A   1      42.130  27.526  28.359  1.00  0.00     0.074 A 
ATOM     50  C   UNL A   1      42.694  29.886  28.835  1.00  0.00     0.049 A 
ATOM     51  N   UNL A   1      43.274  27.069  27.922  1.00  0.00    -0.248 NA
ATOM     52  C   UNL A   1      41.040  26.535  28.338  1.00  0.00     0.031 C 
ATOM     53  C   UNL A   1      42.462  31.267  29.258  1.00  0.00     0.029 A 
ATOM     54  N   UNL A   1      44.007  29.873  28.435  1.00  0.00    -0.354 N 
ATOM     55  C   UNL A   1      43.048  25.739  27.586  1.00  0.00     0.074 A 
ATOM     56  C   UNL A   1      41.663  25.455  27.890  1.00  0.00     0.031 C 
ATOM     57  C   UNL A   1      43.603  31.964  29.113  1.00  0.00     0.029 A 
ATOM     58  C   UNL A   1      44.654  31.073  28.623  1.00  0.00     0.049 A 
ATOM     59  H   UNL A   1      44.445  29.080  28.050  1.00  0.00     0.167 HD
ATOM     60  C   UNL A   1      43.916  24.839  27.066  1.00  0.00     0.037 A 
ATOM     61  C   UNL A   1      45.951  31.403  28.451  1.00  0.00     0.037 A 
ATOM     62  C   UNL A   1      45.293  25.131  26.762  1.00  0.00     0.049 A 
ATOM     63  C   UNL A   1      46.915  30.360  27.941  1.00  0.00     0.074 A 
ATOM     64  C   UNL A   1      46.247  24.292  26.210  1.00  0.00     0.029 A 
ATOM     65  N   UNL A   1      45.917  26.348  26.990  1.00  0.00    -0.354 N 
ATOM     66  N   UNL A   1      46.682  29.113  27.601  1.00  0.00    -0.248 NA
ATOM     67  C   UNL A   1      48.320  30.767  27.789  1.00  0.00     0.031 C 
ATOM     68  C   UNL A   1      47.462  24.983  26.164  1.00  0.00     0.029 A 
ATOM     69  C   UNL A   1      47.250  26.273  26.622  1.00  0.00     0.049 A 
ATOM     70  H   UNL A   1      45.478  27.148  27.360  1.00  0.00     0.167 HD
ATOM     71  C   UNL A   1      47.902  28.601  27.166  1.00  0.00     0.074 A 
ATOM     72  C   UNL A   1      48.866  29.676  27.272  1.00  0.00     0.031 C 
ATOM     73  C   UNL A   1      48.198  27.355  26.721  1.00  0.00     0.037 A 
BRANCH  60  74
ATOM     74  C   UNL A   1      43.419  23.441  26.817  1.00  0.00     0.058 A 
ATOM     75  C   UNL A   1      43.250  22.933  25.519  1.00  0.00     0.135 A 
ATOM     76  C   UNL A   1      43.179  22.574  27.895  1.00  0.00     0.135 A 
ATOM     77  F   UNL A   1      43.446  23.724  24.452  1.00  0.00    -0.206 F 
ATOM     78  C   UNL A   1      42.850  21.618  25.300  1.00  0.00     0.059 A 
ATOM     79  C   UNL A   1      42.806  21.247  27.699  1.00  0.00     0.059 A 
ATOM     80  F   UNL A   1      43.319  23.009  29.157  1.00  0.00    -0.206 F 
ATOM     81  C   UNL A   1      42.638  20.782  26.396  1.00  0.00     0.060 A 
BRANCH  81  82
ATOM     82  S   UNL A   1      42.157  19.068  26.091  1.00  0.00     0.124 S 
ATOM     83  O   UNL A   1      42.573  18.422  27.332  1.00  0.00    -0.237 OA
ATOM     84  O   UNL A   1      40.716  19.183  25.888  1.00  0.00    -0.237 OA
ATOM     85  O   UNL A   1      42.927  18.703  24.906  1.00  0.00    -0.744 OA
ENDBRANCH  81  82
ENDBRANCH  60  74
BRANCH  61  86
ATOM     86  C   UNL A   1      46.431  32.772  28.792  1.00  0.00     0.058 A 
ATOM     87  C   UNL A   1      46.836  33.099  30.095  1.00  0.00     0.135 A 
ATOM     88  C   UNL A   1      46.459  33.792  27.827  1.00  0.00     0.135 A 
ATOM     89  F   UNL A   1      46.816  32.165  31.058  1.00  0.00    -0.206 F 
ATOM     90  C   UNL A   1      47.226  34.391  30.436  1.00  0.00     0.059 A 
ATOM     91  C   UNL A   1      46.877  35.083  28.136  1.00  0.00     0.059 A 
ATOM     92  F   UNL A   1      46.089  33.533  26.563  1.00  0.00    -0.206 F 
ATOM     93  C   UNL A   1      47.243  35.376  29.448  1.00  0.00     0.060 A 
BRANCH  93  94
ATOM     94  S   UNL A   1      47.775  37.043  29.895  1.00  0.00     0.124 S 
ATOM     95  O   UNL A   1      49.067  36.781  30.518  1.00  0.00    -0.237 OA
ATOM     96  O   UNL A   1      47.815  37.709  28.598  1.00  0.00    -0.237 OA
ATOM     97  O   UNL A   1      46.721  37.501  30.795  1.00  0.00    -0.744 OA
ENDBRANCH  93  94
ENDBRANCH  61  86
BRANCH  73  98
ATOM     98  C   UNL A   1      49.611  27.090  26.270  1.00  0.00     0.058 A 
ATOM     99  C   UNL A   1      50.607  26.661  27.160  1.00  0.00     0.135 A 
ATOM    100  C   UNL A   1      49.958  27.215  24.914  1.00  0.00     0.135 A 
ATOM    101  F   UNL A   1      50.334  26.529  28.468  1.00  0.00    -0.206 F 
ATOM    102  C   UNL A   1      51.903  26.393  26.729  1.00  0.00     0.059 A 
ATOM    103  C   UNL A   1      51.237  26.918  24.454  1.00  0.00     0.059 A 
ATOM    104  F   UNL A   1      49.041  27.609  24.014  1.00  0.00    -0.206 F 
ATOM    105  C   UNL A   1      52.207  26.521  25.372  1.00  0.00     0.060 A 
BRANCH 105 106
ATOM    106  S   UNL A   1      53.883  26.139  24.822  1.00  0.00     0.124 S 
ATOM    107  O   UNL A   1      53.988  26.949  23.613  1.00  0.00    -0.237 OA
ATOM    108  O   UNL A   1      54.692  26.583  25.954  1.00  0.00    -0.237 OA
ATOM    109  O   UNL A   1      53.853  24.696  24.609  1.00  0.00    -0.744 OA
ENDBRANCH 105 106
ENDBRANCH  73  98
ENDBRANCH  47  48
ENDBRANCH  40  42
ENDBRANCH  39  40
ENDBRANCH  38  39
ENDBRANCH  37  38
ENDBRANCH  36  37
ENDBRANCH  35  36
ENDBRANCH  34  35
ENDBRANCH  33  34
ENDBRANCH  32  33
ENDBRANCH   1  32
TORSDOF 29
ENDMDL
MODEL 3
REMARK VINA RESULT:      -7.2      3.978      7.480
REMARK SMILES C[C@@H](Oc1ccc(/C=N/NC(=O)c2ccc(I)c(O)c2)cc1)C(=O)OCCOCCOCCOCCOC(=O)c1ccc(-c2c3nc(c(-c4c(F)cc(S(=O)(=O)[O-])cc4F)c4ccc([nH]4)c(-c4c(F)cc(S(=O)(=O)[O-])cc4F)c4nc(c(-c5c(F)cc(S(=O)(=O)[O-])cc5F)c5ccc2[nH]5)C=C4)C=C3)cc1
REMARK SMILES IDX 29 1 28 2 27 3 26 4 25 5 23 6 24 7 2 8 1 9 3 10 4 11 5 12
REMARK SMILES IDX 22 13 6 14 21 15 7 16 8 17 9 18 10 19 11 20 12 22 13 23
REMARK SMILES IDX 14 24 20 25 15 26 18 27 16 28 17 29 19 30 30 32 31 33 32 34
REMARK SMILES IDX 33 35 34 36 35 37 36 38 37 39 38 40 39 41 40 42 41 43 105 44
REMARK SMILES IDX 42 45 104 46 43 47 44 48 45 49 98 50 46 51 103 52 97 53
REMARK SMILES IDX 99 54 47 55 102 56 96 57 95 58 48 60 82 61 61 62 81 63 62 64
REMARK SMILES IDX 65 65 80 66 100 67 63 68 64 69 79 71 101 72 66 73 49 74
REMARK SMILES IDX 50 75 59 76 51 77 52 78 58 79 60 80 53 81 54 82 55 83 56 84
REMARK SMILES IDX 57 85 83 86 84 87 93 88 85 89 86 90 92 91 94 92 87 93 88 94
REMARK SMILES IDX 89 95 90 96 91 97 67 98 68 99 77 100 69 101 70 102 76 103
REMARK SMILES IDX 78 104 71 105 72 106 73 107 74 108 75 109
REMARK H PARENT 10 21 19 31 99 59 65 70
REMARK Flexibility Score: inf
ROOT
ATOM      1  C   UNL A   1      41.086  34.426  35.188  1.00  0.00     0.188 C 
ENDROOT
BRANCH   1   2
ATOM      2  O   UNL A   1      41.933  34.098  34.101  1.00  0.00    -0.376 OA
BRANCH   2   3
ATOM      3  C   UNL A   1      43.311  34.456  34.094  1.00  0.00     0.202 C 
BRANCH   3   4
ATOM      4  C   UNL A   1      44.302  34.069  35.205  1.00  0.00     0.261 C 
BRANCH   4   5
ATOM      5  O   UNL A   1      44.753  32.706  35.218  1.00  0.00    -0.461 OA
BRANCH   5   6
ATOM      6  C   UNL A   1      43.800  31.763  35.408  1.00  0.00     0.347 C 
ATOM      7  O   UNL A   1      43.110  31.674  36.423  1.00  0.00    -0.248 OA
BRANCH   6   8
ATOM      8  C   UNL A   1      43.637  30.788  34.245  1.00  0.00     0.279 C 
ATOM      9  C   UNL A   1      42.360  30.844  33.412  1.00  0.00     0.066 C 
BRANCH   8  10
ATOM     10  O   UNL A   1      44.788  31.027  33.412  1.00  0.00    -0.479 OA
BRANCH  10  11
ATOM     11  C   UNL A   1      45.573  29.919  33.300  1.00  0.00     0.120 A 
ATOM     12  C   UNL A   1      46.956  30.093  33.308  1.00  0.00     0.047 A 
ATOM     13  C   UNL A   1      45.015  28.657  33.117  1.00  0.00     0.047 A 
ATOM     14  C   UNL A   1      47.789  28.984  33.153  1.00  0.00     0.013 A 
ATOM     15  C   UNL A   1      45.834  27.545  33.062  1.00  0.00     0.013 A 
ATOM     16  C   UNL A   1      47.215  27.718  33.050  1.00  0.00    -0.005 A 
BRANCH  16  17
ATOM     17  C   UNL A   1      48.006  26.518  32.785  1.00  0.00     0.141 C 
ATOM     18  N   UNL A   1      47.910  25.490  33.562  1.00  0.00    -0.180 NA
BRANCH  18  19
ATOM     19  N   UNL A   1      48.833  24.499  33.407  1.00  0.00    -0.243 N 
ATOM     20  C   UNL A   1      49.153  23.453  34.258  1.00  0.00     0.271 C 
ATOM     21  H   UNL A   1      49.347  24.531  32.568  1.00  0.00     0.194 HD
ATOM     22  O   UNL A   1      50.082  22.693  33.989  1.00  0.00    -0.267 OA
BRANCH  20  23
ATOM     23  C   UNL A   1      48.398  23.224  35.516  1.00  0.00     0.045 A 
ATOM     24  C   UNL A   1      48.572  24.147  36.556  1.00  0.00     0.015 A 
ATOM     25  C   UNL A   1      47.526  22.140  35.679  1.00  0.00     0.061 A 
ATOM     26  C   UNL A   1      47.827  24.028  37.732  1.00  0.00     0.019 A 
ATOM     27  C   UNL A   1      46.773  22.034  36.852  1.00  0.00     0.129 A 
ATOM     28  C   UNL A   1      46.914  22.981  37.873  1.00  0.00     0.055 A 
ATOM     29  I   UNL A   1      45.751  22.918  39.611  1.00  0.00    -0.040 I 
BRANCH  27  30
ATOM     30  O   UNL A   1      45.846  21.036  36.970  1.00  0.00    -0.507 OA
ATOM     31  H   UNL A   1      45.569  20.752  37.819  1.00  0.00     0.293 HD
ENDBRANCH  27  30
ENDBRANCH  20  23
ENDBRANCH  18  19
ENDBRANCH  16  17
ENDBRANCH  10  11
ENDBRANCH   8  10
ENDBRANCH   6   8
ENDBRANCH   5   6
ENDBRANCH   4   5
ENDBRANCH   3   4
ENDBRANCH   2   3
ENDBRANCH   1   2
BRANCH   1  32
ATOM     32  C   UNL A   1      40.185  35.661  35.115  1.00  0.00     0.188 C 
BRANCH  32  33
ATOM     33  O   UNL A   1      38.830  35.376  34.840  1.00  0.00    -0.377 OA
BRANCH  33  34
ATOM     34  C   UNL A   1      38.481  34.508  33.774  1.00  0.00     0.188 C 
BRANCH  34  35
ATOM     35  C   UNL A   1      37.001  34.174  33.539  1.00  0.00     0.188 C 
BRANCH  35  36
ATOM     36  O   UNL A   1      36.490  34.656  32.306  1.00  0.00    -0.376 OA
BRANCH  36  37
ATOM     37  C   UNL A   1      36.614  33.838  31.151  1.00  0.00     0.202 C 
BRANCH  37  38
ATOM     38  C   UNL A   1      35.534  32.774  30.888  1.00  0.00     0.261 C 
BRANCH  38  39
ATOM     39  O   UNL A   1      35.981  31.416  30.723  1.00  0.00    -0.460 OA
BRANCH  39  40
ATOM     40  C   UNL A   1      36.779  30.877  31.666  1.00  0.00     0.338 C 
ATOM     41  O   UNL A   1      36.496  30.671  32.836  1.00  0.00    -0.246 OA
BRANCH  40  42
ATOM     42  C   UNL A   1      38.000  30.381  30.998  1.00  0.00     0.060 A 
ATOM     43  C   UNL A   1      38.914  29.615  31.733  1.00  0.00     0.016 A 
ATOM     44  C   UNL A   1      38.250  30.680  29.656  1.00  0.00     0.016 A 
ATOM     45  C   UNL A   1      40.095  29.171  31.137  1.00  0.00     0.010 A 
ATOM     46  C   UNL A   1      39.445  30.253  29.068  1.00  0.00     0.010 A 
ATOM     47  C   UNL A   1      40.388  29.522  29.812  1.00  0.00    -0.014 A 
BRANCH  47  48
ATOM     48  C   UNL A   1      41.744  29.271  29.263  1.00  0.00     0.031 A 
ATOM     49  C   UNL A   1      42.062  27.898  28.731  1.00  0.00     0.074 A 
ATOM     50  C   UNL A   1      42.670  30.245  29.218  1.00  0.00     0.049 A 
ATOM     51  N   UNL A   1      43.190  27.430  28.264  1.00  0.00    -0.248 NA
ATOM     52  C   UNL A   1      40.958  26.923  28.725  1.00  0.00     0.031 C 
ATOM     53  C   UNL A   1      42.468  31.625  29.659  1.00  0.00     0.029 A 
ATOM     54  N   UNL A   1      43.974  30.218  28.788  1.00  0.00    -0.354 N 
ATOM     55  C   UNL A   1      42.937  26.106  27.920  1.00  0.00     0.074 A 
ATOM     56  C   UNL A   1      41.555  25.839  28.253  1.00  0.00     0.031 C 
ATOM     57  C   UNL A   1      43.615  32.307  29.495  1.00  0.00     0.029 A 
ATOM     58  C   UNL A   1      44.642  31.406  28.973  1.00  0.00     0.049 A 
ATOM     59  H   UNL A   1      44.392  29.423  28.385  1.00  0.00     0.167 HD
ATOM     60  C   UNL A   1      43.780  25.199  27.372  1.00  0.00     0.037 A 
ATOM     61  C   UNL A   1      45.939  31.720  28.775  1.00  0.00     0.037 A 
ATOM     62  C   UNL A   1      45.154  25.474  27.041  1.00  0.00     0.049 A 
ATOM     63  C   UNL A   1      46.877  30.668  28.234  1.00  0.00     0.074 A 
ATOM     64  C   UNL A   1      46.083  24.628  26.459  1.00  0.00     0.029 A 
ATOM     65  N   UNL A   1      45.800  26.680  27.267  1.00  0.00    -0.354 N 
ATOM     66  N   UNL A   1      46.619  29.428  27.887  1.00  0.00    -0.248 NA
ATOM     67  C   UNL A   1      48.284  31.057  28.055  1.00  0.00     0.031 C 
ATOM     68  C   UNL A   1      47.306  25.302  26.393  1.00  0.00     0.029 A 
ATOM     69  C   UNL A   1      47.124  26.590  26.869  1.00  0.00     0.049 A 
ATOM     70  H   UNL A   1      45.381  27.483  27.654  1.00  0.00     0.167 HD
ATOM     71  C   UNL A   1      47.821  28.903  27.420  1.00  0.00     0.074 A 
ATOM     72  C   UNL A   1      48.803  29.963  27.516  1.00  0.00     0.031 C 
ATOM     73  C   UNL A   1      48.089  27.658  26.957  1.00  0.00     0.037 A 
BRANCH  60  74
ATOM     74  C   UNL A   1      43.258  23.812  27.120  1.00  0.00     0.058 A 
ATOM     75  C   UNL A   1      42.761  23.420  25.867  1.00  0.00     0.135 A 
ATOM     76  C   UNL A   1      43.324  22.837  28.130  1.00  0.00     0.135 A 
ATOM     77  F   UNL A   1      42.656  24.316  24.872  1.00  0.00    -0.206 F 
ATOM     78  C   UNL A   1      42.338  22.116  25.627  1.00  0.00     0.059 A 
ATOM     79  C   UNL A   1      42.934  21.520  27.905  1.00  0.00     0.059 A 
ATOM     80  F   UNL A   1      43.784  23.158  29.350  1.00  0.00    -0.206 F 
ATOM     81  C   UNL A   1      42.436  21.172  26.650  1.00  0.00     0.060 A 
BRANCH  81  82
ATOM     82  S   UNL A   1      41.920  19.476  26.309  1.00  0.00     0.124 S 
ATOM     83  O   UNL A   1      40.488  19.647  26.082  1.00  0.00    -0.237 OA
ATOM     84  O   UNL A   1      42.713  19.142  25.131  1.00  0.00    -0.237 OA
ATOM     85  O   UNL A   1      42.279  18.758  27.528  1.00  0.00    -0.744 OA
ENDBRANCH  81  82
ENDBRANCH  60  74
BRANCH  61  86
ATOM     86  C   UNL A   1      46.447  33.078  29.119  1.00  0.00     0.058 A 
ATOM     87  C   UNL A   1      46.997  33.353  30.380  1.00  0.00     0.135 A 
ATOM     88  C   UNL A   1      46.357  34.138  28.203  1.00  0.00     0.135 A 
ATOM     89  F   UNL A   1      47.094  32.378  31.297  1.00  0.00    -0.206 F 
ATOM     90  C   UNL A   1      47.415  34.633  30.730  1.00  0.00     0.059 A 
ATOM     91  C   UNL A   1      46.799  35.420  28.519  1.00  0.00     0.059 A 
ATOM     92  F   UNL A   1      45.845  33.931  26.980  1.00  0.00    -0.206 F 
ATOM     93  C   UNL A   1      47.312  35.661  29.792  1.00  0.00     0.060 A 
BRANCH  93  94
ATOM     94  S   UNL A   1      47.881  37.313  30.248  1.00  0.00     0.124 S 
ATOM     95  O   UNL A   1      47.681  37.304  31.692  1.00  0.00    -0.237 OA
ATOM     96  O   UNL A   1      49.268  37.293  29.795  1.00  0.00    -0.237 OA
ATOM     97  O   UNL A   1      46.995  38.193  29.493  1.00  0.00    -0.744 OA
ENDBRANCH  93  94
ENDBRANCH  61  86
BRANCH  73  98
ATOM     98  C   UNL A   1      49.488  27.377  26.472  1.00  0.00     0.058 A 
ATOM     99  C   UNL A   1      50.518  27.008  27.349  1.00  0.00     0.135 A 
ATOM    100  C   UNL A   1      49.786  27.425  25.099  1.00  0.00     0.135 A 
ATOM    101  F   UNL A   1      50.292  26.950  28.671  1.00  0.00    -0.206 F 
ATOM    102  C   UNL A   1      51.801  26.724  26.888  1.00  0.00     0.059 A 
ATOM    103  C   UNL A   1      51.051  27.112  24.612  1.00  0.00     0.059 A 
ATOM    104  F   UNL A   1      48.834  27.760  24.212  1.00  0.00    -0.206 F 
ATOM    105  C   UNL A   1      52.055  26.776  25.516  1.00  0.00     0.060 A 
BRANCH 105 106
ATOM    106  S   UNL A   1      53.715  26.374  24.930  1.00  0.00     0.124 S 
ATOM    107  O   UNL A   1      53.453  25.224  24.071  1.00  0.00    -0.237 OA
ATOM    108  O   UNL A   1      54.108  27.602  24.242  1.00  0.00    -0.237 OA
ATOM    109  O   UNL A   1      54.451  26.087  26.156  1.00  0.00    -0.744 OA
ENDBRANCH 105 106
ENDBRANCH  73  98
ENDBRANCH  47  48
ENDBRANCH  40  42
ENDBRANCH  39  40
ENDBRANCH  38  39
ENDBRANCH  37  38
ENDBRANCH  36  37
ENDBRANCH  35  36
ENDBRANCH  34  35
ENDBRANCH  33  34
ENDBRANCH  32  33
ENDBRANCH   1  32
TORSDOF 29
ENDMDL
