MODEL 1
REMARK VINA RESULT:      -9.6      0.000      0.000
REMARK SMILES O=C(C[C@@H](c1ccccc1)[NH+]1CCCCC1)OCCOCCOCCOCCOC(=O)c1ccc(-c2c3nc(c(-c4c(F)cc(S(=O)(=O)[O-])cc4F)c4ccc([nH]4)c(-c4c(F)cc(S(=O)(=O)[O-])cc4F)c4nc(c(-c5c(F)cc(S(=O)(=O)[O-])cc5F)c5ccc2[nH]5)C=C4)C=C3)cc1
REMARK SMILES IDX 24 1 23 2 22 3 21 4 20 5 19 6 18 7 17 8 2 9 1 10 3 11 4 12
REMARK SMILES IDX 5 13 6 14 10 15 7 16 9 17 8 18 11 19 12 20 16 21 13 23 15 24
REMARK SMILES IDX 14 25 25 26 26 27 27 28 28 29 29 30 30 31 31 32 32 33 33 34
REMARK SMILES IDX 97 35 34 36 96 37 35 38 36 39 37 40 90 41 38 42 95 43 89 44
REMARK SMILES IDX 91 45 39 46 94 47 88 48 87 49 40 51 74 52 53 53 73 54 54 55
REMARK SMILES IDX 57 56 72 57 92 58 55 59 56 60 71 62 93 63 58 64 41 65 42 66
REMARK SMILES IDX 51 67 43 68 44 69 50 70 52 71 45 72 46 73 47 74 48 75 49 76
REMARK SMILES IDX 75 77 76 78 85 79 77 80 78 81 84 82 86 83 79 84 80 85 81 86
REMARK SMILES IDX 82 87 83 88 59 89 60 90 69 91 61 92 62 93 68 94 70 95 63 96
REMARK SMILES IDX 64 97 65 98 66 99 67 100
REMARK H PARENT 11 22 91 50 57 61
REMARK Flexibility Score: inf
ROOT
ATOM      1  C   UNL A   1      34.791  21.494  25.454  1.00  0.00     0.188 C 
ENDROOT
BRANCH   1   2
ATOM      2  O   UNL A   1      33.709  20.880  24.770  1.00  0.00    -0.377 OA
BRANCH   2   3
ATOM      3  C   UNL A   1      32.410  21.338  25.112  1.00  0.00     0.188 C 
BRANCH   3   4
ATOM      4  C   UNL A   1      32.088  22.690  24.492  1.00  0.00     0.188 C 
BRANCH   4   5
ATOM      5  O   UNL A   1      32.182  22.776  23.073  1.00  0.00    -0.376 OA
BRANCH   5   6
ATOM      6  C   UNL A   1      32.944  23.811  22.470  1.00  0.00     0.202 C 
BRANCH   6   7
ATOM      7  C   UNL A   1      32.447  25.250  22.568  1.00  0.00     0.261 C 
BRANCH   7   8
ATOM      8  O   UNL A   1      33.286  26.217  21.940  1.00  0.00    -0.463 OA
BRANCH   8   9
ATOM      9  C   UNL A   1      32.961  27.512  22.182  1.00  0.00     0.312 C 
ATOM     10  O   UNL A   1      33.781  28.413  22.053  1.00  0.00    -0.252 OA
BRANCH   9  11
ATOM     11  C   UNL A   1      31.629  27.704  22.859  1.00  0.00     0.192 C 
BRANCH  11  12
ATOM     12  C   UNL A   1      31.452  29.103  23.449  1.00  0.00     0.226 C 
BRANCH  12  13
ATOM     13  C   UNL A   1      30.124  29.781  23.088  1.00  0.00     0.010 A 
ATOM     14  C   UNL A   1      29.485  29.485  21.875  1.00  0.00     0.010 A 
ATOM     15  C   UNL A   1      29.510  30.729  23.925  1.00  0.00     0.010 A 
ATOM     16  C   UNL A   1      28.273  30.097  21.533  1.00  0.00     0.001 A 
ATOM     17  C   UNL A   1      28.294  31.333  23.594  1.00  0.00     0.001 A 
ATOM     18  C   UNL A   1      27.672  31.012  22.396  1.00  0.00     0.000 A 
ENDBRANCH  12  13
BRANCH  12  19
ATOM     19  N   UNL A   1      31.728  28.958  24.907  1.00  0.00    -0.328 N 
ATOM     20  C   UNL A   1      31.318  27.651  25.410  1.00  0.00     0.262 C 
ATOM     21  C   UNL A   1      33.055  29.387  25.359  1.00  0.00     0.262 C 
ATOM     22  H   UNL A   1      31.127  29.652  25.351  1.00  0.00     0.348 HD
ATOM     23  C   UNL A   1      31.465  27.562  26.929  1.00  0.00     0.062 C 
ATOM     24  C   UNL A   1      33.259  29.270  26.867  1.00  0.00     0.062 C 
ATOM     25  C   UNL A   1      32.891  27.878  27.352  1.00  0.00     0.012 C 
ENDBRANCH  12  19
ENDBRANCH  11  12
ENDBRANCH   9  11
ENDBRANCH   8   9
ENDBRANCH   7   8
ENDBRANCH   6   7
ENDBRANCH   5   6
ENDBRANCH   4   5
ENDBRANCH   3   4
ENDBRANCH   2   3
ENDBRANCH   1   2
BRANCH   1  26
ATOM     26  C   UNL A   1      36.201  20.925  25.162  1.00  0.00     0.188 C 
BRANCH  26  27
ATOM     27  O   UNL A   1      37.281  21.759  24.752  1.00  0.00    -0.376 OA
BRANCH  27  28
ATOM     28  C   UNL A   1      38.217  22.205  25.714  1.00  0.00     0.202 C 
BRANCH  28  29
ATOM     29  C   UNL A   1      38.309  23.726  25.907  1.00  0.00     0.261 C 
BRANCH  29  30
ATOM     30  O   UNL A   1      39.256  24.151  26.901  1.00  0.00    -0.460 OA
BRANCH  30  31
ATOM     31  C   UNL A   1      40.074  25.178  26.555  1.00  0.00     0.338 C 
ATOM     32  O   UNL A   1      40.454  25.457  25.429  1.00  0.00    -0.246 OA
BRANCH  31  33
ATOM     33  C   UNL A   1      40.288  26.064  27.736  1.00  0.00     0.060 A 
ATOM     34  C   UNL A   1      39.367  25.996  28.796  1.00  0.00     0.016 A 
ATOM     35  C   UNL A   1      41.397  26.909  27.838  1.00  0.00     0.016 A 
ATOM     36  C   UNL A   1      39.527  26.792  29.934  1.00  0.00     0.010 A 
ATOM     37  C   UNL A   1      41.545  27.726  28.965  1.00  0.00     0.010 A 
ATOM     38  C   UNL A   1      40.588  27.703  29.997  1.00  0.00    -0.014 A 
BRANCH  38  39
ATOM     39  C   UNL A   1      40.537  28.850  30.942  1.00  0.00     0.031 A 
ATOM     40  C   UNL A   1      41.418  28.764  32.158  1.00  0.00     0.074 A 
ATOM     41  C   UNL A   1      39.712  29.900  30.781  1.00  0.00     0.049 A 
ATOM     42  N   UNL A   1      41.440  29.511  33.230  1.00  0.00    -0.248 NA
ATOM     43  C   UNL A   1      42.398  27.663  32.169  1.00  0.00     0.031 C 
ATOM     44  C   UNL A   1      38.845  30.132  29.629  1.00  0.00     0.029 A 
ATOM     45  N   UNL A   1      39.450  30.955  31.622  1.00  0.00    -0.354 N 
ATOM     46  C   UNL A   1      42.407  28.949  34.055  1.00  0.00     0.074 A 
ATOM     47  C   UNL A   1      42.941  27.797  33.366  1.00  0.00     0.031 C 
ATOM     48  C   UNL A   1      38.113  31.238  29.855  1.00  0.00     0.029 A 
ATOM     49  C   UNL A   1      38.430  31.766  31.184  1.00  0.00     0.049 A 
ATOM     50  H   UNL A   1      39.945  31.115  32.457  1.00  0.00     0.167 HD
ATOM     51  C   UNL A   1      42.811  29.348  35.283  1.00  0.00     0.037 A 
ATOM     52  C   UNL A   1      37.794  32.784  31.804  1.00  0.00     0.037 A 
ATOM     53  C   UNL A   1      42.271  30.488  35.971  1.00  0.00     0.049 A 
ATOM     54  C   UNL A   1      38.217  33.191  33.195  1.00  0.00     0.074 A 
ATOM     55  C   UNL A   1      42.622  30.991  37.210  1.00  0.00     0.029 A 
ATOM     56  N   UNL A   1      41.250  31.291  35.484  1.00  0.00    -0.354 N 
ATOM     57  N   UNL A   1      39.145  32.668  33.961  1.00  0.00    -0.248 NA
ATOM     58  C   UNL A   1      37.506  34.323  33.808  1.00  0.00     0.031 C 
ATOM     59  C   UNL A   1      41.779  32.069  37.495  1.00  0.00     0.029 A 
ATOM     60  C   UNL A   1      40.941  32.273  36.408  1.00  0.00     0.049 A 
ATOM     61  H   UNL A   1      40.810  31.179  34.611  1.00  0.00     0.167 HD
ATOM     62  C   UNL A   1      39.148  33.422  35.132  1.00  0.00     0.074 A 
ATOM     63  C   UNL A   1      38.128  34.437  34.975  1.00  0.00     0.031 C 
ATOM     64  C   UNL A   1      39.930  33.288  36.232  1.00  0.00     0.037 A 
BRANCH  51  65
ATOM     65  C   UNL A   1      43.841  28.498  35.971  1.00  0.00     0.058 A 
ATOM     66  C   UNL A   1      43.488  27.405  36.778  1.00  0.00     0.135 A 
ATOM     67  C   UNL A   1      45.204  28.813  35.852  1.00  0.00     0.135 A 
ATOM     68  F   UNL A   1      42.196  27.077  36.945  1.00  0.00    -0.206 F 
ATOM     69  C   UNL A   1      44.445  26.688  37.488  1.00  0.00     0.059 A 
ATOM     70  C   UNL A   1      46.181  28.090  36.528  1.00  0.00     0.059 A 
ATOM     71  F   UNL A   1      45.597  29.851  35.097  1.00  0.00    -0.206 F 
ATOM     72  C   UNL A   1      45.789  27.045  37.364  1.00  0.00     0.060 A 
BRANCH  72  73
ATOM     73  S   UNL A   1      47.018  26.138  38.324  1.00  0.00     0.124 S 
ATOM     74  O   UNL A   1      46.669  26.534  39.686  1.00  0.00    -0.237 OA
ATOM     75  O   UNL A   1      46.727  24.750  37.975  1.00  0.00    -0.237 OA
ATOM     76  O   UNL A   1      48.288  26.654  37.826  1.00  0.00    -0.744 OA
ENDBRANCH  72  73
ENDBRANCH  51  65
BRANCH  52  77
ATOM     77  C   UNL A   1      36.664  33.467  31.118  1.00  0.00     0.058 A 
ATOM     78  C   UNL A   1      36.882  34.314  30.022  1.00  0.00     0.135 A 
ATOM     79  C   UNL A   1      35.336  33.248  31.520  1.00  0.00     0.135 A 
ATOM     80  F   UNL A   1      38.133  34.572  29.612  1.00  0.00    -0.206 F 
ATOM     81  C   UNL A   1      35.824  34.908  29.338  1.00  0.00     0.059 A 
ATOM     82  C   UNL A   1      34.261  33.812  30.839  1.00  0.00     0.059 A 
ATOM     83  F   UNL A   1      35.073  32.444  32.562  1.00  0.00    -0.206 F 
ATOM     84  C   UNL A   1      34.516  34.638  29.746  1.00  0.00     0.060 A 
BRANCH  84  85
ATOM     85  S   UNL A   1      33.151  35.321  28.779  1.00  0.00     0.124 S 
ATOM     86  O   UNL A   1      33.840  36.297  27.943  1.00  0.00    -0.237 OA
ATOM     87  O   UNL A   1      32.642  34.137  28.094  1.00  0.00    -0.237 OA
ATOM     88  O   UNL A   1      32.264  35.875  29.798  1.00  0.00    -0.744 OA
ENDBRANCH  84  85
ENDBRANCH  52  77
BRANCH  64  89
ATOM     89  C   UNL A   1      39.765  34.285  37.348  1.00  0.00     0.058 A 
ATOM     90  C   UNL A   1      38.984  34.008  38.480  1.00  0.00     0.135 A 
ATOM     91  C   UNL A   1      40.492  35.487  37.330  1.00  0.00     0.135 A 
ATOM     92  F   UNL A   1      38.266  32.876  38.546  1.00  0.00    -0.206 F 
ATOM     93  C   UNL A   1      38.929  34.890  39.556  1.00  0.00     0.059 A 
ATOM     94  C   UNL A   1      40.471  36.370  38.405  1.00  0.00     0.059 A 
ATOM     95  F   UNL A   1      41.264  35.794  36.275  1.00  0.00    -0.206 F 
ATOM     96  C   UNL A   1      39.683  36.064  39.513  1.00  0.00     0.060 A 
BRANCH  96  97
ATOM     97  S   UNL A   1      39.660  37.165  40.945  1.00  0.00     0.124 S 
ATOM     98  O   UNL A   1      38.885  38.292  40.436  1.00  0.00    -0.237 OA
ATOM     99  O   UNL A   1      39.000  36.347  41.957  1.00  0.00    -0.237 OA
ATOM    100  O   UNL A   1      41.074  37.435  41.189  1.00  0.00    -0.744 OA
ENDBRANCH  96  97
ENDBRANCH  64  89
ENDBRANCH  38  39
ENDBRANCH  31  33
ENDBRANCH  30  31
ENDBRANCH  29  30
ENDBRANCH  28  29
ENDBRANCH  27  28
ENDBRANCH  26  27
ENDBRANCH   1  26
TORSDOF 26
ENDMDL
MODEL 2
REMARK VINA RESULT:      -8.9      4.554      7.854
REMARK SMILES O=C(C[C@@H](c1ccccc1)[NH+]1CCCCC1)OCCOCCOCCOCCOC(=O)c1ccc(-c2c3nc(c(-c4c(F)cc(S(=O)(=O)[O-])cc4F)c4ccc([nH]4)c(-c4c(F)cc(S(=O)(=O)[O-])cc4F)c4nc(c(-c5c(F)cc(S(=O)(=O)[O-])cc5F)c5ccc2[nH]5)C=C4)C=C3)cc1
REMARK SMILES IDX 24 1 23 2 22 3 21 4 20 5 19 6 18 7 17 8 2 9 1 10 3 11 4 12
REMARK SMILES IDX 5 13 6 14 10 15 7 16 9 17 8 18 11 19 12 20 16 21 13 23 15 24
REMARK SMILES IDX 14 25 25 26 26 27 27 28 28 29 29 30 30 31 31 32 32 33 33 34
REMARK SMILES IDX 97 35 34 36 96 37 35 38 36 39 37 40 90 41 38 42 95 43 89 44
REMARK SMILES IDX 91 45 39 46 94 47 88 48 87 49 40 51 74 52 53 53 73 54 54 55
REMARK SMILES IDX 57 56 72 57 92 58 55 59 56 60 71 62 93 63 58 64 41 65 42 66
REMARK SMILES IDX 51 67 43 68 44 69 50 70 52 71 45 72 46 73 47 74 48 75 49 76
REMARK SMILES IDX 75 77 76 78 85 79 77 80 78 81 84 82 86 83 79 84 80 85 81 86
REMARK SMILES IDX 82 87 83 88 59 89 60 90 69 91 61 92 62 93 68 94 70 95 63 96
REMARK SMILES IDX 64 97 65 98 66 99 67 100
REMARK H PARENT 11 22 91 50 57 61
REMARK Flexibility Score: inf
ROOT
ATOM      1  C   UNL A   1      46.768  24.223  25.047  1.00  0.00     0.188 C 
ENDROOT
BRANCH   1   2
ATOM      2  O   UNL A   1      46.393  25.479  24.503  1.00  0.00    -0.377 OA
BRANCH   2   3
ATOM      3  C   UNL A   1      45.347  26.166  25.173  1.00  0.00     0.188 C 
BRANCH   3   4
ATOM      4  C   UNL A   1      45.781  27.535  25.676  1.00  0.00     0.188 C 
BRANCH   4   5
ATOM      5  O   UNL A   1      45.580  27.794  27.063  1.00  0.00    -0.376 OA
BRANCH   5   6
ATOM      6  C   UNL A   1      46.532  28.554  27.792  1.00  0.00     0.202 C 
BRANCH   6   7
ATOM      7  C   UNL A   1      46.285  30.043  28.005  1.00  0.00     0.261 C 
BRANCH   7   8
ATOM      8  O   UNL A   1      45.039  30.521  27.506  1.00  0.00    -0.463 OA
BRANCH   8   9
ATOM      9  C   UNL A   1      45.125  31.430  26.502  1.00  0.00     0.312 C 
ATOM     10  O   UNL A   1      46.038  31.396  25.684  1.00  0.00    -0.252 OA
BRANCH   9  11
ATOM     11  C   UNL A   1      44.186  32.600  26.638  1.00  0.00     0.192 C 
BRANCH  11  12
ATOM     12  C   UNL A   1      44.705  33.679  27.588  1.00  0.00     0.226 C 
BRANCH  12  13
ATOM     13  C   UNL A   1      43.996  35.033  27.461  1.00  0.00     0.010 A 
ATOM     14  C   UNL A   1      42.648  35.162  27.827  1.00  0.00     0.010 A 
ATOM     15  C   UNL A   1      44.640  36.177  26.959  1.00  0.00     0.010 A 
ATOM     16  C   UNL A   1      41.988  36.392  27.716  1.00  0.00     0.001 A 
ATOM     17  C   UNL A   1      43.989  37.410  26.858  1.00  0.00     0.001 A 
ATOM     18  C   UNL A   1      42.660  37.517  27.242  1.00  0.00     0.000 A 
ENDBRANCH  12  13
BRANCH  12  19
ATOM     19  N   UNL A   1      44.679  33.060  28.944  1.00  0.00    -0.328 N 
ATOM     20  C   UNL A   1      45.597  33.726  29.864  1.00  0.00     0.262 C 
ATOM     21  C   UNL A   1      43.352  32.794  29.508  1.00  0.00     0.262 C 
ATOM     22  H   UNL A   1      45.033  32.114  28.801  1.00  0.00     0.348 HD
ATOM     23  C   UNL A   1      45.676  32.997  31.205  1.00  0.00     0.062 C 
ATOM     24  C   UNL A   1      43.388  32.107  30.870  1.00  0.00     0.062 C 
ATOM     25  C   UNL A   1      44.295  32.862  31.827  1.00  0.00     0.012 C 
ENDBRANCH  12  19
ENDBRANCH  11  12
ENDBRANCH   9  11
ENDBRANCH   8   9
ENDBRANCH   7   8
ENDBRANCH   6   7
ENDBRANCH   5   6
ENDBRANCH   4   5
ENDBRANCH   3   4
ENDBRANCH   2   3
ENDBRANCH   1   2
BRANCH   1  26
ATOM     26  C   UNL A   1      46.209  22.969  24.334  1.00  0.00     0.188 C 
BRANCH  26  27
ATOM     27  O   UNL A   1      44.822  22.640  24.360  1.00  0.00    -0.376 OA
BRANCH  27  28
ATOM     28  C   UNL A   1      44.107  22.748  25.576  1.00  0.00     0.202 C 
BRANCH  28  29
ATOM     29  C   UNL A   1      42.836  21.893  25.687  1.00  0.00     0.261 C 
BRANCH  29  30
ATOM     30  O   UNL A   1      41.956  22.258  26.763  1.00  0.00    -0.460 OA
BRANCH  30  31
ATOM     31  C   UNL A   1      40.780  22.837  26.411  1.00  0.00     0.338 C 
ATOM     32  O   UNL A   1      39.859  22.306  25.809  1.00  0.00    -0.246 OA
BRANCH  31  33
ATOM     33  C   UNL A   1      40.675  24.179  27.051  1.00  0.00     0.060 A 
ATOM     34  C   UNL A   1      41.648  25.145  26.739  1.00  0.00     0.016 A 
ATOM     35  C   UNL A   1      39.616  24.516  27.900  1.00  0.00     0.016 A 
ATOM     36  C   UNL A   1      41.590  26.425  27.298  1.00  0.00     0.010 A 
ATOM     37  C   UNL A   1      39.570  25.789  28.482  1.00  0.00     0.010 A 
ATOM     38  C   UNL A   1      40.580  26.733  28.218  1.00  0.00    -0.014 A 
BRANCH  38  39
ATOM     39  C   UNL A   1      40.739  27.880  29.150  1.00  0.00     0.031 A 
ATOM     40  C   UNL A   1      41.856  27.785  30.154  1.00  0.00     0.074 A 
ATOM     41  C   UNL A   1      39.908  28.938  29.164  1.00  0.00     0.049 A 
ATOM     42  N   UNL A   1      42.109  28.532  31.196  1.00  0.00    -0.248 NA
ATOM     43  C   UNL A   1      42.806  26.676  29.960  1.00  0.00     0.031 C 
ATOM     44  C   UNL A   1      38.821  29.178  28.221  1.00  0.00     0.029 A 
ATOM     45  N   UNL A   1      39.839  29.995  30.040  1.00  0.00    -0.354 N 
ATOM     46  C   UNL A   1      43.223  27.961  31.800  1.00  0.00     0.074 A 
ATOM     47  C   UNL A   1      43.590  26.804  31.016  1.00  0.00     0.031 C 
ATOM     48  C   UNL A   1      38.163  30.291  28.593  1.00  0.00     0.029 A 
ATOM     49  C   UNL A   1      38.757  30.815  29.825  1.00  0.00     0.049 A 
ATOM     50  H   UNL A   1      40.500  30.150  30.752  1.00  0.00     0.167 HD
ATOM     51  C   UNL A   1      43.880  28.356  32.916  1.00  0.00     0.037 A 
ATOM     52  C   UNL A   1      38.275  31.839  30.563  1.00  0.00     0.037 A 
ATOM     53  C   UNL A   1      43.507  29.501  33.700  1.00  0.00     0.049 A 
ATOM     54  C   UNL A   1      38.985  32.242  31.833  1.00  0.00     0.074 A 
ATOM     55  C   UNL A   1      44.116  30.000  34.836  1.00  0.00     0.029 A 
ATOM     56  N   UNL A   1      42.414  30.314  33.437  1.00  0.00    -0.354 N 
ATOM     57  N   UNL A   1      40.049  31.710  32.388  1.00  0.00    -0.248 NA
ATOM     58  C   UNL A   1      38.429  33.380  32.580  1.00  0.00     0.031 C 
ATOM     59  C   UNL A   1      43.361  31.086  35.291  1.00  0.00     0.029 A 
ATOM     60  C   UNL A   1      42.315  31.297  34.404  1.00  0.00     0.049 A 
ATOM     61  H   UNL A   1      41.799  30.206  32.676  1.00  0.00     0.167 HD
ATOM     62  C   UNL A   1      40.305  32.463  33.531  1.00  0.00     0.074 A 
ATOM     63  C   UNL A   1      39.284  33.489  33.590  1.00  0.00     0.031 C 
ATOM     64  C   UNL A   1      41.299  32.322  34.442  1.00  0.00     0.037 A 
BRANCH  51  65
ATOM     65  C   UNL A   1      45.024  27.496  33.372  1.00  0.00     0.058 A 
ATOM     66  C   UNL A   1      46.315  27.628  32.835  1.00  0.00     0.135 A 
ATOM     67  C   UNL A   1      44.811  26.494  34.332  1.00  0.00     0.135 A 
ATOM     68  F   UNL A   1      46.566  28.554  31.896  1.00  0.00    -0.206 F 
ATOM     69  C   UNL A   1      47.342  26.760  33.194  1.00  0.00     0.059 A 
ATOM     70  C   UNL A   1      45.831  25.636  34.729  1.00  0.00     0.059 A 
ATOM     71  F   UNL A   1      43.595  26.323  34.873  1.00  0.00    -0.206 F 
ATOM     72  C   UNL A   1      47.087  25.761  34.135  1.00  0.00     0.060 A 
BRANCH  72  73
ATOM     73  S   UNL A   1      48.412  24.613  34.558  1.00  0.00     0.124 S 
ATOM     74  O   UNL A   1      49.022  25.286  35.702  1.00  0.00    -0.237 OA
ATOM     75  O   UNL A   1      47.680  23.387  34.863  1.00  0.00    -0.237 OA
ATOM     76  O   UNL A   1      49.225  24.570  33.348  1.00  0.00    -0.744 OA
ENDBRANCH  72  73
ENDBRANCH  51  65
BRANCH  52  77
ATOM     77  C   UNL A   1      37.032  32.533  30.129  1.00  0.00     0.058 A 
ATOM     78  C   UNL A   1      35.784  32.200  30.674  1.00  0.00     0.135 A 
ATOM     79  C   UNL A   1      37.078  33.575  29.189  1.00  0.00     0.135 A 
ATOM     80  F   UNL A   1      35.684  31.197  31.559  1.00  0.00    -0.206 F 
ATOM     81  C   UNL A   1      34.626  32.887  30.317  1.00  0.00     0.059 A 
ATOM     82  C   UNL A   1      35.938  34.291  28.833  1.00  0.00     0.059 A 
ATOM     83  F   UNL A   1      38.248  33.934  28.638  1.00  0.00    -0.206 F 
ATOM     84  C   UNL A   1      34.717  33.941  29.405  1.00  0.00     0.060 A 
BRANCH  84  85
ATOM     85  S   UNL A   1      33.229  34.898  29.039  1.00  0.00     0.124 S 
ATOM     86  O   UNL A   1      32.575  34.057  28.043  1.00  0.00    -0.237 OA
ATOM     87  O   UNL A   1      32.581  34.965  30.345  1.00  0.00    -0.237 OA
ATOM     88  O   UNL A   1      33.759  36.166  28.546  1.00  0.00    -0.744 OA
ENDBRANCH  84  85
ENDBRANCH  52  77
BRANCH  64  89
ATOM     89  C   UNL A   1      41.381  33.320  35.566  1.00  0.00     0.058 A 
ATOM     90  C   UNL A   1      40.785  33.084  36.814  1.00  0.00     0.135 A 
ATOM     91  C   UNL A   1      42.166  34.477  35.423  1.00  0.00     0.135 A 
ATOM     92  F   UNL A   1      40.022  31.995  37.003  1.00  0.00    -0.206 F 
ATOM     93  C   UNL A   1      40.963  33.960  37.880  1.00  0.00     0.059 A 
ATOM     94  C   UNL A   1      42.376  35.354  36.483  1.00  0.00     0.059 A 
ATOM     95  F   UNL A   1      42.768  34.744  34.253  1.00  0.00    -0.206 F 
ATOM     96  C   UNL A   1      41.768  35.088  37.707  1.00  0.00     0.060 A 
BRANCH  96  97
ATOM     97  S   UNL A   1      42.048  36.180  39.119  1.00  0.00     0.124 S 
ATOM     98  O   UNL A   1      41.212  37.324  38.776  1.00  0.00    -0.237 OA
ATOM     99  O   UNL A   1      41.584  35.368  40.239  1.00  0.00    -0.237 OA
ATOM    100  O   UNL A   1      43.488  36.420  39.081  1.00  0.00    -0.744 OA
ENDBRANCH  96  97
ENDBRANCH  64  89
ENDBRANCH  38  39
ENDBRANCH  31  33
ENDBRANCH  30  31
ENDBRANCH  29  30
ENDBRANCH  28  29
ENDBRANCH  27  28
ENDBRANCH  26  27
ENDBRANCH   1  26
TORSDOF 26
ENDMDL
MODEL 3
REMARK VINA RESULT:      -8.2      6.075      7.223
REMARK SMILES O=C(C[C@@H](c1ccccc1)[NH+]1CCCCC1)OCCOCCOCCOCCOC(=O)c1ccc(-c2c3nc(c(-c4c(F)cc(S(=O)(=O)[O-])cc4F)c4ccc([nH]4)c(-c4c(F)cc(S(=O)(=O)[O-])cc4F)c4nc(c(-c5c(F)cc(S(=O)(=O)[O-])cc5F)c5ccc2[nH]5)C=C4)C=C3)cc1
REMARK SMILES IDX 24 1 23 2 22 3 21 4 20 5 19 6 18 7 17 8 2 9 1 10 3 11 4 12
REMARK SMILES IDX 5 13 6 14 10 15 7 16 9 17 8 18 11 19 12 20 16 21 13 23 15 24
REMARK SMILES IDX 14 25 25 26 26 27 27 28 28 29 29 30 30 31 31 32 32 33 33 34
REMARK SMILES IDX 97 35 34 36 96 37 35 38 36 39 37 40 90 41 38 42 95 43 89 44
REMARK SMILES IDX 91 45 39 46 94 47 88 48 87 49 40 51 74 52 53 53 73 54 54 55
REMARK SMILES IDX 57 56 72 57 92 58 55 59 56 60 71 62 93 63 58 64 41 65 42 66
REMARK SMILES IDX 51 67 43 68 44 69 50 70 52 71 45 72 46 73 47 74 48 75 49 76
REMARK SMILES IDX 75 77 76 78 85 79 77 80 78 81 84 82 86 83 79 84 80 85 81 86
REMARK SMILES IDX 82 87 83 88 59 89 60 90 69 91 61 92 62 93 68 94 70 95 63 96
REMARK SMILES IDX 64 97 65 98 66 99 67 100
REMARK H PARENT 11 22 91 50 57 61
REMARK Flexibility Score: inf
ROOT
ATOM      1  C   UNL A   1      33.787  21.756  26.566  1.00  0.00     0.188 C 
ENDROOT
BRANCH   1   2
ATOM      2  O   UNL A   1      33.189  21.462  25.312  1.00  0.00    -0.377 OA
BRANCH   2   3
ATOM      3  C   UNL A   1      31.797  21.720  25.205  1.00  0.00     0.188 C 
BRANCH   3   4
ATOM      4  C   UNL A   1      31.500  22.971  24.390  1.00  0.00     0.188 C 
BRANCH   4   5
ATOM      5  O   UNL A   1      31.862  22.932  23.012  1.00  0.00    -0.376 OA
BRANCH   5   6
ATOM      6  C   UNL A   1      33.058  23.557  22.572  1.00  0.00     0.202 C 
BRANCH   6   7
ATOM      7  C   UNL A   1      32.968  24.711  21.579  1.00  0.00     0.261 C 
BRANCH   7   8
ATOM      8  O   UNL A   1      33.898  25.768  21.803  1.00  0.00    -0.463 OA
BRANCH   8   9
ATOM      9  C   UNL A   1      33.351  27.002  21.946  1.00  0.00     0.312 C 
ATOM     10  O   UNL A   1      33.993  28.019  21.712  1.00  0.00    -0.252 OA
BRANCH   9  11
ATOM     11  C   UNL A   1      32.020  27.015  22.652  1.00  0.00     0.192 C 
BRANCH  11  12
ATOM     12  C   UNL A   1      31.656  28.387  23.220  1.00  0.00     0.226 C 
BRANCH  12  13
ATOM     13  C   UNL A   1      30.276  28.905  22.796  1.00  0.00     0.010 A 
ATOM     14  C   UNL A   1      30.167  29.955  21.873  1.00  0.00     0.010 A 
ATOM     15  C   UNL A   1      29.081  28.381  23.319  1.00  0.00     0.010 A 
ATOM     16  C   UNL A   1      28.914  30.438  21.477  1.00  0.00     0.001 A 
ATOM     17  C   UNL A   1      27.827  28.850  22.918  1.00  0.00     0.001 A 
ATOM     18  C   UNL A   1      27.745  29.879  21.991  1.00  0.00     0.000 A 
ENDBRANCH  12  13
BRANCH  12  19
ATOM     19  N   UNL A   1      31.883  28.282  24.690  1.00  0.00    -0.328 N 
ATOM     20  C   UNL A   1      33.088  27.519  25.000  1.00  0.00     0.262 C 
ATOM     21  C   UNL A   1      31.746  29.524  25.456  1.00  0.00     0.262 C 
ATOM     22  H   UNL A   1      31.089  27.742  25.033  1.00  0.00     0.348 HD
ATOM     23  C   UNL A   1      33.234  27.287  26.504  1.00  0.00     0.062 C 
ATOM     24  C   UNL A   1      31.931  29.344  26.960  1.00  0.00     0.062 C 
ATOM     25  C   UNL A   1      33.227  28.609  27.256  1.00  0.00     0.012 C 
ENDBRANCH  12  19
ENDBRANCH  11  12
ENDBRANCH   9  11
ENDBRANCH   8   9
ENDBRANCH   7   8
ENDBRANCH   6   7
ENDBRANCH   5   6
ENDBRANCH   4   5
ENDBRANCH   3   4
ENDBRANCH   2   3
ENDBRANCH   1   2
BRANCH   1  26
ATOM     26  C   UNL A   1      35.333  21.833  26.589  1.00  0.00     0.188 C 
BRANCH  26  27
ATOM     27  O   UNL A   1      36.041  22.954  26.066  1.00  0.00    -0.376 OA
BRANCH  27  28
ATOM     28  C   UNL A   1      37.040  22.747  25.086  1.00  0.00     0.202 C 
BRANCH  28  29
ATOM     29  C   UNL A   1      38.215  21.851  25.503  1.00  0.00     0.261 C 
BRANCH  29  30
ATOM     30  O   UNL A   1      39.164  22.473  26.386  1.00  0.00    -0.460 OA
BRANCH  30  31
ATOM     31  C   UNL A   1      40.327  21.804  26.589  1.00  0.00     0.338 C 
ATOM     32  O   UNL A   1      40.706  20.806  25.995  1.00  0.00    -0.246 OA
BRANCH  31  33
ATOM     33  C   UNL A   1      41.196  22.588  27.514  1.00  0.00     0.060 A 
ATOM     34  C   UNL A   1      40.779  23.876  27.891  1.00  0.00     0.016 A 
ATOM     35  C   UNL A   1      42.373  22.058  28.053  1.00  0.00     0.016 A 
ATOM     36  C   UNL A   1      41.546  24.648  28.768  1.00  0.00     0.010 A 
ATOM     37  C   UNL A   1      43.156  22.840  28.911  1.00  0.00     0.010 A 
ATOM     38  C   UNL A   1      42.769  24.153  29.237  1.00  0.00    -0.014 A 
BRANCH  38  39
ATOM     39  C   UNL A   1      43.796  25.081  29.778  1.00  0.00     0.031 A 
ATOM     40  C   UNL A   1      44.459  24.679  31.068  1.00  0.00     0.074 A 
ATOM     41  C   UNL A   1      44.101  26.258  29.202  1.00  0.00     0.049 A 
ATOM     42  N   UNL A   1      45.238  25.369  31.858  1.00  0.00    -0.248 NA
ATOM     43  C   UNL A   1      44.182  23.310  31.536  1.00  0.00     0.031 C 
ATOM     44  C   UNL A   1      43.573  26.746  27.932  1.00  0.00     0.029 A 
ATOM     45  N   UNL A   1      44.913  27.274  29.646  1.00  0.00    -0.354 N 
ATOM     46  C   UNL A   1      45.513  24.531  32.933  1.00  0.00     0.074 A 
ATOM     47  C   UNL A   1      44.812  23.289  32.698  1.00  0.00     0.031 C 
ATOM     48  C   UNL A   1      44.041  27.989  27.717  1.00  0.00     0.029 A 
ATOM     49  C   UNL A   1      44.867  28.398  28.856  1.00  0.00     0.049 A 
ATOM     50  H   UNL A   1      45.475  27.204  30.451  1.00  0.00     0.167 HD
ATOM     51  C   UNL A   1      46.273  24.774  34.025  1.00  0.00     0.037 A 
ATOM     52  C   UNL A   1      45.390  29.628  29.052  1.00  0.00     0.037 A 
ATOM     53  C   UNL A   1      46.960  26.013  34.262  1.00  0.00     0.049 A 
ATOM     54  C   UNL A   1      46.196  29.906  30.299  1.00  0.00     0.074 A 
ATOM     55  C   UNL A   1      47.772  26.356  35.327  1.00  0.00     0.029 A 
ATOM     56  N   UNL A   1      46.899  27.119  33.428  1.00  0.00    -0.354 N 
ATOM     57  N   UNL A   1      46.468  29.103  31.300  1.00  0.00    -0.248 NA
ATOM     58  C   UNL A   1      46.762  31.255  30.445  1.00  0.00     0.031 C 
ATOM     59  C   UNL A   1      48.162  27.688  35.163  1.00  0.00     0.029 A 
ATOM     60  C   UNL A   1      47.640  28.156  33.965  1.00  0.00     0.049 A 
ATOM     61  H   UNL A   1      46.402  27.161  32.579  1.00  0.00     0.167 HD
ATOM     62  C   UNL A   1      47.257  29.839  32.180  1.00  0.00     0.074 A 
ATOM     63  C   UNL A   1      47.419  31.153  31.594  1.00  0.00     0.031 C 
ATOM     64  C   UNL A   1      47.803  29.457  33.362  1.00  0.00     0.037 A 
BRANCH  51  65
ATOM     65  C   UNL A   1      46.336  23.690  35.065  1.00  0.00     0.058 A 
ATOM     66  C   UNL A   1      45.349  23.547  36.053  1.00  0.00     0.135 A 
ATOM     67  C   UNL A   1      47.429  22.809  35.095  1.00  0.00     0.135 A 
ATOM     68  F   UNL A   1      44.296  24.381  36.083  1.00  0.00    -0.206 F 
ATOM     69  C   UNL A   1      45.471  22.604  37.068  1.00  0.00     0.059 A 
ATOM     70  C   UNL A   1      47.555  21.838  36.082  1.00  0.00     0.059 A 
ATOM     71  F   UNL A   1      48.402  22.906  34.177  1.00  0.00    -0.206 F 
ATOM     72  C   UNL A   1      46.583  21.760  37.080  1.00  0.00     0.060 A 
BRANCH  72  73
ATOM     73  S   UNL A   1      46.754  20.571  38.426  1.00  0.00     0.124 S 
ATOM     74  O   UNL A   1      48.123  20.104  38.226  1.00  0.00    -0.237 OA
ATOM     75  O   UNL A   1      46.534  21.401  39.607  1.00  0.00    -0.237 OA
ATOM     76  O   UNL A   1      45.709  19.591  38.148  1.00  0.00    -0.744 OA
ENDBRANCH  72  73
ENDBRANCH  51  65
BRANCH  52  77
ATOM     77  C   UNL A   1      45.136  30.700  28.051  1.00  0.00     0.058 A 
ATOM     78  C   UNL A   1      44.109  31.637  28.232  1.00  0.00     0.135 A 
ATOM     79  C   UNL A   1      45.949  30.832  26.913  1.00  0.00     0.135 A 
ATOM     80  F   UNL A   1      43.292  31.541  29.292  1.00  0.00    -0.206 F 
ATOM     81  C   UNL A   1      43.906  32.678  27.331  1.00  0.00     0.059 A 
ATOM     82  C   UNL A   1      45.779  31.877  26.010  1.00  0.00     0.059 A 
ATOM     83  F   UNL A   1      46.947  29.962  26.694  1.00  0.00    -0.206 F 
ATOM     84  C   UNL A   1      44.756  32.798  26.230  1.00  0.00     0.060 A 
BRANCH  84  85
ATOM     85  S   UNL A   1      44.555  34.219  25.132  1.00  0.00     0.124 S 
ATOM     86  O   UNL A   1      45.673  35.064  25.535  1.00  0.00    -0.237 OA
ATOM     87  O   UNL A   1      44.662  33.602  23.814  1.00  0.00    -0.237 OA
ATOM     88  O   UNL A   1      43.228  34.721  25.474  1.00  0.00    -0.744 OA
ENDBRANCH  84  85
ENDBRANCH  52  77
BRANCH  64  89
ATOM     89  C   UNL A   1      48.674  30.443  34.095  1.00  0.00     0.058 A 
ATOM     90  C   UNL A   1      50.043  30.572  33.819  1.00  0.00     0.135 A 
ATOM     91  C   UNL A   1      48.099  31.347  35.005  1.00  0.00     0.135 A 
ATOM     92  F   UNL A   1      50.642  29.732  32.961  1.00  0.00    -0.206 F 
ATOM     93  C   UNL A   1      50.814  31.563  34.422  1.00  0.00     0.059 A 
ATOM     94  C   UNL A   1      48.846  32.359  35.600  1.00  0.00     0.059 A 
ATOM     95  F   UNL A   1      46.790  31.273  35.294  1.00  0.00    -0.206 F 
ATOM     96  C   UNL A   1      50.203  32.457  35.304  1.00  0.00     0.060 A 
BRANCH  96  97
ATOM     97  S   UNL A   1      51.198  33.782  36.024  1.00  0.00     0.124 S 
ATOM     98  O   UNL A   1      50.762  34.934  35.242  1.00  0.00    -0.237 OA
ATOM     99  O   UNL A   1      50.775  33.767  37.420  1.00  0.00    -0.237 OA
ATOM    100  O   UNL A   1      52.570  33.345  35.785  1.00  0.00    -0.744 OA
ENDBRANCH  96  97
ENDBRANCH  64  89
ENDBRANCH  38  39
ENDBRANCH  31  33
ENDBRANCH  30  31
ENDBRANCH  29  30
ENDBRANCH  28  29
ENDBRANCH  27  28
ENDBRANCH  26  27
ENDBRANCH   1  26
TORSDOF 26
ENDMDL
