MODEL 1
REMARK VINA RESULT:      -9.6      0.000      0.000
REMARK SMILES O=C(OCCOCCOCCOCCOC(=O)c1c(F)cccc1NC(=O)C1CCCCC1)c1ccc(-c2c3nc(c(-c4c(F)cc(S(=O)(=O)[O-])cc4F)c4ccc([nH]4)c(-c4c(F)cc(S(=O)(=O)[O-])cc4F)c4nc(c(-c5c(F)cc(S(=O)(=O)[O-])cc5F)c5ccc2[nH]5)C=C4)C=C3)cc1
REMARK SMILES IDX 8 1 7 2 6 3 5 4 4 5 3 6 2 7 1 8 34 9 35 10 99 11 36 12 98 13
REMARK SMILES IDX 37 14 38 15 39 16 92 17 40 18 97 19 91 20 93 21 41 22 96 23
REMARK SMILES IDX 90 24 89 25 42 27 76 28 55 29 75 30 56 31 59 32 74 33 94 34
REMARK SMILES IDX 57 35 58 36 73 38 95 39 60 40 43 41 44 42 53 43 45 44 46 45
REMARK SMILES IDX 52 46 54 47 47 48 48 49 49 50 50 51 51 52 77 53 78 54 87 55
REMARK SMILES IDX 79 56 80 57 86 58 88 59 81 60 82 61 83 62 84 63 85 64 61 65
REMARK SMILES IDX 62 66 71 67 63 68 64 69 70 70 72 71 65 72 66 73 67 74 68 75
REMARK SMILES IDX 69 76 9 77 10 78 11 79 12 80 13 81 14 82 15 83 16 84 17 85
REMARK SMILES IDX 18 86 19 87 24 88 20 89 21 90 23 91 22 92 25 93 26 94 27 96
REMARK SMILES IDX 28 97 29 98 33 99 30 100 32 101 31 102
REMARK H PARENT 93 26 59 37 25 95
REMARK Flexibility Score: inf
ROOT
ATOM      1  C   UNL A   1      33.989  33.680  27.793  1.00  0.00     0.188 C 
ENDROOT
BRANCH   1   2
ATOM      2  C   UNL A   1      35.319  33.301  28.431  1.00  0.00     0.188 C 
BRANCH   2   3
ATOM      3  O   UNL A   1      35.454  33.943  29.701  1.00  0.00    -0.376 OA
BRANCH   3   4
ATOM      4  C   UNL A   1      34.646  33.407  30.749  1.00  0.00     0.202 C 
BRANCH   4   5
ATOM      5  C   UNL A   1      35.459  32.755  31.867  1.00  0.00     0.261 C 
BRANCH   5   6
ATOM      6  O   UNL A   1      36.433  31.836  31.350  1.00  0.00    -0.460 OA
BRANCH   6   7
ATOM      7  C   UNL A   1      37.427  31.206  32.029  1.00  0.00     0.338 C 
ATOM      8  O   UNL A   1      37.373  31.220  33.259  1.00  0.00    -0.246 OA
BRANCH   7   9
ATOM      9  C   UNL A   1      38.567  30.467  31.388  1.00  0.00     0.060 A 
ATOM     10  C   UNL A   1      39.488  29.642  32.039  1.00  0.00     0.016 A 
ATOM     11  C   UNL A   1      38.700  30.617  29.995  1.00  0.00     0.016 A 
ATOM     12  C   UNL A   1      40.575  29.093  31.369  1.00  0.00     0.010 A 
ATOM     13  C   UNL A   1      39.778  30.054  29.304  1.00  0.00     0.010 A 
ATOM     14  C   UNL A   1      40.752  29.345  30.013  1.00  0.00    -0.014 A 
BRANCH  14  15
ATOM     15  C   UNL A   1      42.092  29.097  29.453  1.00  0.00     0.031 A 
ATOM     16  C   UNL A   1      42.341  27.738  28.860  1.00  0.00     0.074 A 
ATOM     17  C   UNL A   1      42.968  30.105  29.309  1.00  0.00     0.049 A 
ATOM     18  N   UNL A   1      43.418  27.258  28.305  1.00  0.00    -0.248 NA
ATOM     19  C   UNL A   1      41.204  26.796  28.877  1.00  0.00     0.031 C 
ATOM     20  C   UNL A   1      42.726  31.491  29.713  1.00  0.00     0.029 A 
ATOM     21  N   UNL A   1      44.213  30.130  28.744  1.00  0.00    -0.354 N 
ATOM     22  C   UNL A   1      43.097  25.959  27.929  1.00  0.00     0.074 A 
ATOM     23  C   UNL A   1      41.731  25.716  28.326  1.00  0.00     0.031 C 
ATOM     24  C   UNL A   1      43.783  32.239  29.356  1.00  0.00     0.029 A 
ATOM     25  C   UNL A   1      44.796  31.376  28.755  1.00  0.00     0.049 A 
ATOM     26  H   UNL A   1      44.650  29.334  28.364  1.00  0.00     0.167 HD
ATOM     27  C   UNL A   1      43.882  25.051  27.306  1.00  0.00     0.037 A 
ATOM     28  C   UNL A   1      46.021  31.755  28.342  1.00  0.00     0.037 A 
ATOM     29  C   UNL A   1      45.239  25.329  26.931  1.00  0.00     0.049 A 
ATOM     30  C   UNL A   1      46.919  30.703  27.749  1.00  0.00     0.074 A 
ATOM     31  C   UNL A   1      46.185  24.474  26.403  1.00  0.00     0.029 A 
ATOM     32  N   UNL A   1      45.838  26.578  27.046  1.00  0.00    -0.354 N 
ATOM     33  N   UNL A   1      46.656  29.437  27.511  1.00  0.00    -0.248 NA
ATOM     34  C   UNL A   1      48.279  31.114  27.384  1.00  0.00     0.031 C 
ATOM     35  C   UNL A   1      47.369  25.201  26.229  1.00  0.00     0.029 A 
ATOM     36  C   UNL A   1      47.145  26.519  26.602  1.00  0.00     0.049 A 
ATOM     37  H   UNL A   1      45.395  27.386  27.393  1.00  0.00     0.167 HD
ATOM     38  C   UNL A   1      47.810  28.903  26.954  1.00  0.00     0.074 A 
ATOM     39  C   UNL A   1      48.771  29.988  26.883  1.00  0.00     0.031 C 
ATOM     40  C   UNL A   1      48.061  27.634  26.543  1.00  0.00     0.037 A 
BRANCH  27  41
ATOM     41  C   UNL A   1      43.299  23.684  27.080  1.00  0.00     0.058 A 
ATOM     42  C   UNL A   1      42.891  23.294  25.795  1.00  0.00     0.135 A 
ATOM     43  C   UNL A   1      43.203  22.735  28.111  1.00  0.00     0.135 A 
ATOM     44  F   UNL A   1      42.982  24.152  24.767  1.00  0.00    -0.206 F 
ATOM     45  C   UNL A   1      42.414  22.013  25.537  1.00  0.00     0.059 A 
ATOM     46  C   UNL A   1      42.749  21.439  27.872  1.00  0.00     0.059 A 
ATOM     47  F   UNL A   1      43.619  23.040  29.351  1.00  0.00    -0.206 F 
ATOM     48  C   UNL A   1      42.354  21.089  26.581  1.00  0.00     0.060 A 
BRANCH  48  49
ATOM     49  S   UNL A   1      41.823  19.402  26.208  1.00  0.00     0.124 S 
ATOM     50  O   UNL A   1      42.158  18.702  27.443  1.00  0.00    -0.237 OA
ATOM     51  O   UNL A   1      40.399  19.579  25.942  1.00  0.00    -0.237 OA
ATOM     52  O   UNL A   1      42.628  19.045  25.042  1.00  0.00    -0.744 OA
ENDBRANCH  48  49
ENDBRANCH  27  41
BRANCH  28  53
ATOM     53  C   UNL A   1      46.451  33.171  28.505  1.00  0.00     0.058 A 
ATOM     54  C   UNL A   1      47.192  33.576  29.629  1.00  0.00     0.135 A 
ATOM     55  C   UNL A   1      46.089  34.160  27.579  1.00  0.00     0.135 A 
ATOM     56  F   UNL A   1      47.568  32.673  30.548  1.00  0.00    -0.206 F 
ATOM     57  C   UNL A   1      47.520  34.909  29.850  1.00  0.00     0.059 A 
ATOM     58  C   UNL A   1      46.428  35.500  27.765  1.00  0.00     0.059 A 
ATOM     59  F   UNL A   1      45.397  33.826  26.480  1.00  0.00    -0.206 F 
ATOM     60  C   UNL A   1      47.125  35.867  28.917  1.00  0.00     0.060 A 
BRANCH  60  61
ATOM     61  S   UNL A   1      47.534  37.596  29.242  1.00  0.00     0.124 S 
ATOM     62  O   UNL A   1      47.751  38.105  27.891  1.00  0.00    -0.237 OA
ATOM     63  O   UNL A   1      46.330  38.075  29.914  1.00  0.00    -0.237 OA
ATOM     64  O   UNL A   1      48.725  37.511  30.080  1.00  0.00    -0.744 OA
ENDBRANCH  60  61
ENDBRANCH  28  53
BRANCH  40  65
ATOM     65  C   UNL A   1      49.411  27.357  25.953  1.00  0.00     0.058 A 
ATOM     66  C   UNL A   1      49.591  27.398  24.561  1.00  0.00     0.135 A 
ATOM     67  C   UNL A   1      50.490  26.952  26.751  1.00  0.00     0.135 A 
ATOM     68  F   UNL A   1      48.582  27.772  23.758  1.00  0.00    -0.206 F 
ATOM     69  C   UNL A   1      50.793  27.024  23.978  1.00  0.00     0.059 A 
ATOM     70  C   UNL A   1      51.711  26.597  26.188  1.00  0.00     0.059 A 
ATOM     71  F   UNL A   1      50.364  26.907  28.086  1.00  0.00    -0.206 F 
ATOM     72  C   UNL A   1      51.846  26.618  24.800  1.00  0.00     0.060 A 
BRANCH  72  73
ATOM     73  S   UNL A   1      53.402  26.132  24.024  1.00  0.00     0.124 S 
ATOM     74  O   UNL A   1      53.068  26.222  22.607  1.00  0.00    -0.237 OA
ATOM     75  O   UNL A   1      54.326  27.145  24.526  1.00  0.00    -0.237 OA
ATOM     76  O   UNL A   1      53.625  24.783  24.534  1.00  0.00    -0.744 OA
ENDBRANCH  72  73
ENDBRANCH  40  65
ENDBRANCH  14  15
ENDBRANCH   7   9
ENDBRANCH   6   7
ENDBRANCH   5   6
ENDBRANCH   4   5
ENDBRANCH   3   4
ENDBRANCH   2   3
ENDBRANCH   1   2
BRANCH   1  77
ATOM     77  O   UNL A   1      33.083  32.585  27.682  1.00  0.00    -0.377 OA
BRANCH  77  78
ATOM     78  C   UNL A   1      33.667  31.285  27.654  1.00  0.00     0.188 C 
BRANCH  78  79
ATOM     79  C   UNL A   1      32.744  30.073  27.417  1.00  0.00     0.188 C 
BRANCH  79  80
ATOM     80  O   UNL A   1      32.822  29.575  26.089  1.00  0.00    -0.376 OA
BRANCH  80  81
ATOM     81  C   UNL A   1      34.053  28.961  25.744  1.00  0.00     0.202 C 
BRANCH  81  82
ATOM     82  C   UNL A   1      34.208  28.660  24.250  1.00  0.00     0.261 C 
BRANCH  82  83
ATOM     83  O   UNL A   1      33.930  27.312  23.824  1.00  0.00    -0.460 OA
BRANCH  83  84
ATOM     84  C   UNL A   1      33.330  27.064  22.639  1.00  0.00     0.343 C 
ATOM     85  O   UNL A   1      33.798  27.219  21.526  1.00  0.00    -0.246 OA
BRANCH  84  86
ATOM     86  C   UNL A   1      32.042  26.384  22.922  1.00  0.00     0.119 A 
ATOM     87  C   UNL A   1      31.012  27.195  23.421  1.00  0.00     0.139 A 
ATOM     88  C   UNL A   1      31.875  24.973  22.840  1.00  0.00     0.058 A 
ATOM     89  F   UNL A   1      31.165  28.524  23.517  1.00  0.00    -0.206 F 
ATOM     90  C   UNL A   1      29.814  26.647  23.854  1.00  0.00     0.040 A 
ATOM     91  C   UNL A   1      30.637  24.459  23.244  1.00  0.00     0.027 A 
ATOM     92  C   UNL A   1      29.623  25.278  23.757  1.00  0.00     0.005 A 
BRANCH  88  93
ATOM     93  N   UNL A   1      32.973  24.154  22.465  1.00  0.00    -0.325 N 
ATOM     94  C   UNL A   1      33.846  23.313  23.104  1.00  0.00     0.227 C 
ATOM     95  H   UNL A   1      33.152  24.203  21.497  1.00  0.00     0.169 HD
ATOM     96  O   UNL A   1      34.826  22.941  22.449  1.00  0.00    -0.274 OA
BRANCH  94  97
ATOM     97  C   UNL A   1      33.680  22.850  24.547  1.00  0.00     0.079 C 
ATOM     98  C   UNL A   1      33.768  21.316  24.680  1.00  0.00     0.013 C 
ATOM     99  C   UNL A   1      34.728  23.457  25.490  1.00  0.00     0.013 C 
ATOM    100  C   UNL A   1      33.430  20.887  26.109  1.00  0.00     0.001 C 
ATOM    101  C   UNL A   1      34.413  23.085  26.941  1.00  0.00     0.001 C 
ATOM    102  C   UNL A   1      34.323  21.572  27.143  1.00  0.00     0.000 C 
ENDBRANCH  94  97
ENDBRANCH  88  93
ENDBRANCH  84  86
ENDBRANCH  83  84
ENDBRANCH  82  83
ENDBRANCH  81  82
ENDBRANCH  80  81
ENDBRANCH  79  80
ENDBRANCH  78  79
ENDBRANCH  77  78
ENDBRANCH   1  77
TORSDOF 25
ENDMDL
MODEL 2
REMARK VINA RESULT:      -9.3      6.190     11.860
REMARK SMILES O=C(OCCOCCOCCOCCOC(=O)c1c(F)cccc1NC(=O)C1CCCCC1)c1ccc(-c2c3nc(c(-c4c(F)cc(S(=O)(=O)[O-])cc4F)c4ccc([nH]4)c(-c4c(F)cc(S(=O)(=O)[O-])cc4F)c4nc(c(-c5c(F)cc(S(=O)(=O)[O-])cc5F)c5ccc2[nH]5)C=C4)C=C3)cc1
REMARK SMILES IDX 8 1 7 2 6 3 5 4 4 5 3 6 2 7 1 8 34 9 35 10 99 11 36 12 98 13
REMARK SMILES IDX 37 14 38 15 39 16 92 17 40 18 97 19 91 20 93 21 41 22 96 23
REMARK SMILES IDX 90 24 89 25 42 27 76 28 55 29 75 30 56 31 59 32 74 33 94 34
REMARK SMILES IDX 57 35 58 36 73 38 95 39 60 40 43 41 44 42 53 43 45 44 46 45
REMARK SMILES IDX 52 46 54 47 47 48 48 49 49 50 50 51 51 52 77 53 78 54 87 55
REMARK SMILES IDX 79 56 80 57 86 58 88 59 81 60 82 61 83 62 84 63 85 64 61 65
REMARK SMILES IDX 62 66 71 67 63 68 64 69 70 70 72 71 65 72 66 73 67 74 68 75
REMARK SMILES IDX 69 76 9 77 10 78 11 79 12 80 13 81 14 82 15 83 16 84 17 85
REMARK SMILES IDX 18 86 19 87 24 88 20 89 21 90 23 91 22 92 25 93 26 94 27 96
REMARK SMILES IDX 28 97 29 98 33 99 30 100 32 101 31 102
REMARK H PARENT 93 26 59 37 25 95
REMARK Flexibility Score: inf
ROOT
ATOM      1  C   UNL A   1      38.123  21.723  25.832  1.00  0.00     0.188 C 
ENDROOT
BRANCH   1   2
ATOM      2  C   UNL A   1      39.493  21.058  25.786  1.00  0.00     0.188 C 
BRANCH   2   3
ATOM      3  O   UNL A   1      40.311  21.543  26.852  1.00  0.00    -0.376 OA
BRANCH   3   4
ATOM      4  C   UNL A   1      40.593  22.942  26.822  1.00  0.00     0.202 C 
BRANCH   4   5
ATOM      5  C   UNL A   1      42.041  23.260  26.451  1.00  0.00     0.261 C 
BRANCH   5   6
ATOM      6  O   UNL A   1      42.163  24.553  25.841  1.00  0.00    -0.460 OA
BRANCH   6   7
ATOM      7  C   UNL A   1      41.542  25.706  26.203  1.00  0.00     0.338 C 
ATOM      8  O   UNL A   1      40.903  26.305  25.336  1.00  0.00    -0.246 OA
BRANCH   7   9
ATOM      9  C   UNL A   1      41.551  26.287  27.588  1.00  0.00     0.060 A 
ATOM     10  C   UNL A   1      40.522  26.197  28.530  1.00  0.00     0.016 A 
ATOM     11  C   UNL A   1      42.720  26.972  27.967  1.00  0.00     0.016 A 
ATOM     12  C   UNL A   1      40.587  26.866  29.745  1.00  0.00     0.010 A 
ATOM     13  C   UNL A   1      42.808  27.633  29.197  1.00  0.00     0.010 A 
ATOM     14  C   UNL A   1      41.706  27.632  30.056  1.00  0.00    -0.014 A 
BRANCH  14  15
ATOM     15  C   UNL A   1      41.563  28.624  31.136  1.00  0.00     0.031 A 
ATOM     16  C   UNL A   1      40.458  29.632  30.992  1.00  0.00     0.074 A 
ATOM     17  C   UNL A   1      42.264  28.497  32.275  1.00  0.00     0.049 A 
ATOM     18  N   UNL A   1      40.112  30.606  31.786  1.00  0.00    -0.248 NA
ATOM     19  C   UNL A   1      39.608  29.508  29.791  1.00  0.00     0.031 C 
ATOM     20  C   UNL A   1      43.238  27.439  32.547  1.00  0.00     0.029 A 
ATOM     21  N   UNL A   1      42.233  29.233  33.428  1.00  0.00    -0.354 N 
ATOM     22  C   UNL A   1      39.026  31.220  31.174  1.00  0.00     0.074 A 
ATOM     23  C   UNL A   1      38.772  30.522  29.937  1.00  0.00     0.031 C 
ATOM     24  C   UNL A   1      43.692  27.580  33.803  1.00  0.00     0.029 A 
ATOM     25  C   UNL A   1      43.088  28.768  34.398  1.00  0.00     0.049 A 
ATOM     26  H   UNL A   1      41.652  30.019  33.551  1.00  0.00     0.167 HD
ATOM     27  C   UNL A   1      38.307  32.277  31.613  1.00  0.00     0.037 A 
ATOM     28  C   UNL A   1      43.356  29.270  35.619  1.00  0.00     0.037 A 
ATOM     29  C   UNL A   1      38.594  32.950  32.848  1.00  0.00     0.049 A 
ATOM     30  C   UNL A   1      42.621  30.513  36.045  1.00  0.00     0.074 A 
ATOM     31  C   UNL A   1      38.029  34.100  33.362  1.00  0.00     0.029 A 
ATOM     32  N   UNL A   1      39.538  32.513  33.771  1.00  0.00    -0.354 N 
ATOM     33  N   UNL A   1      41.679  31.170  35.404  1.00  0.00    -0.248 NA
ATOM     34  C   UNL A   1      42.987  31.096  37.340  1.00  0.00     0.031 C 
ATOM     35  C   UNL A   1      38.657  34.377  34.582  1.00  0.00     0.029 A 
ATOM     36  C   UNL A   1      39.576  33.373  34.851  1.00  0.00     0.049 A 
ATOM     37  H   UNL A   1      40.097  31.709  33.668  1.00  0.00     0.167 HD
ATOM     38  C   UNL A   1      41.329  32.235  36.224  1.00  0.00     0.074 A 
ATOM     39  C   UNL A   1      42.155  32.127  37.412  1.00  0.00     0.031 C 
ATOM     40  C   UNL A   1      40.414  33.215  36.018  1.00  0.00     0.037 A 
BRANCH  27  41
ATOM     41  C   UNL A   1      37.218  32.787  30.710  1.00  0.00     0.058 A 
ATOM     42  C   UNL A   1      35.883  32.418  30.936  1.00  0.00     0.135 A 
ATOM     43  C   UNL A   1      37.479  33.688  29.665  1.00  0.00     0.135 A 
ATOM     44  F   UNL A   1      35.573  31.577  31.935  1.00  0.00    -0.206 F 
ATOM     45  C   UNL A   1      34.844  32.927  30.163  1.00  0.00     0.059 A 
ATOM     46  C   UNL A   1      36.451  34.229  28.892  1.00  0.00     0.059 A 
ATOM     47  F   UNL A   1      38.733  34.109  29.431  1.00  0.00    -0.206 F 
ATOM     48  C   UNL A   1      35.137  33.839  29.148  1.00  0.00     0.060 A 
BRANCH  48  49
ATOM     49  S   UNL A   1      33.767  34.563  28.219  1.00  0.00     0.124 S 
ATOM     50  O   UNL A   1      33.011  33.379  27.826  1.00  0.00    -0.237 OA
ATOM     51  O   UNL A   1      33.136  35.421  29.217  1.00  0.00    -0.237 OA
ATOM     52  O   UNL A   1      34.436  35.274  27.131  1.00  0.00    -0.744 OA
ENDBRANCH  48  49
ENDBRANCH  27  41
BRANCH  28  53
ATOM     53  C   UNL A   1      44.372  28.610  36.485  1.00  0.00     0.058 A 
ATOM     54  C   UNL A   1      45.694  29.087  36.541  1.00  0.00     0.135 A 
ATOM     55  C   UNL A   1      44.068  27.461  37.228  1.00  0.00     0.135 A 
ATOM     56  F   UNL A   1      46.043  30.184  35.851  1.00  0.00    -0.206 F 
ATOM     57  C   UNL A   1      46.681  28.428  37.265  1.00  0.00     0.059 A 
ATOM     58  C   UNL A   1      45.035  26.797  37.983  1.00  0.00     0.059 A 
ATOM     59  F   UNL A   1      42.819  26.972  37.225  1.00  0.00    -0.206 F 
ATOM     60  C   UNL A   1      46.344  27.277  37.976  1.00  0.00     0.060 A 
BRANCH  60  61
ATOM     61  S   UNL A   1      47.651  26.420  38.883  1.00  0.00     0.124 S 
ATOM     62  O   UNL A   1      46.939  25.981  40.079  1.00  0.00    -0.237 OA
ATOM     63  O   UNL A   1      48.032  25.366  37.948  1.00  0.00    -0.237 OA
ATOM     64  O   UNL A   1      48.654  27.459  39.094  1.00  0.00    -0.744 OA
ENDBRANCH  60  61
ENDBRANCH  28  53
BRANCH  40  65
ATOM     65  C   UNL A   1      40.235  34.229  37.108  1.00  0.00     0.058 A 
ATOM     66  C   UNL A   1      39.259  34.033  38.097  1.00  0.00     0.135 A 
ATOM     67  C   UNL A   1      40.953  35.434  37.112  1.00  0.00     0.135 A 
ATOM     68  F   UNL A   1      38.542  32.898  38.126  1.00  0.00    -0.206 F 
ATOM     69  C   UNL A   1      38.984  35.010  39.044  1.00  0.00     0.059 A 
ATOM     70  C   UNL A   1      40.711  36.415  38.067  1.00  0.00     0.059 A 
ATOM     71  F   UNL A   1      41.901  35.659  36.190  1.00  0.00    -0.206 F 
ATOM     72  C   UNL A   1      39.711  36.201  39.016  1.00  0.00     0.060 A 
BRANCH  72  73
ATOM     73  S   UNL A   1      39.339  37.462  40.253  1.00  0.00     0.124 S 
ATOM     74  O   UNL A   1      38.378  38.299  39.544  1.00  0.00    -0.237 OA
ATOM     75  O   UNL A   1      38.800  36.666  41.352  1.00  0.00    -0.237 OA
ATOM     76  O   UNL A   1      40.638  38.075  40.511  1.00  0.00    -0.744 OA
ENDBRANCH  72  73
ENDBRANCH  40  65
ENDBRANCH  14  15
ENDBRANCH   7   9
ENDBRANCH   6   7
ENDBRANCH   5   6
ENDBRANCH   4   5
ENDBRANCH   3   4
ENDBRANCH   2   3
ENDBRANCH   1   2
BRANCH   1  77
ATOM     77  O   UNL A   1      37.636  22.104  24.549  1.00  0.00    -0.377 OA
BRANCH  77  78
ATOM     78  C   UNL A   1      36.246  22.410  24.468  1.00  0.00     0.188 C 
BRANCH  78  79
ATOM     79  C   UNL A   1      35.785  23.457  23.435  1.00  0.00     0.188 C 
BRANCH  79  80
ATOM     80  O   UNL A   1      34.879  22.923  22.479  1.00  0.00    -0.376 OA
BRANCH  80  81
ATOM     81  C   UNL A   1      33.579  23.490  22.495  1.00  0.00     0.202 C 
BRANCH  81  82
ATOM     82  C   UNL A   1      33.376  24.562  23.569  1.00  0.00     0.261 C 
BRANCH  82  83
ATOM     83  O   UNL A   1      32.070  24.640  24.175  1.00  0.00    -0.460 OA
BRANCH  83  84
ATOM     84  C   UNL A   1      31.754  25.640  25.027  1.00  0.00     0.343 C 
ATOM     85  O   UNL A   1      32.330  25.946  26.055  1.00  0.00    -0.246 OA
BRANCH  84  86
ATOM     86  C   UNL A   1      30.672  26.438  24.399  1.00  0.00     0.119 A 
ATOM     87  C   UNL A   1      29.361  26.085  24.750  1.00  0.00     0.139 A 
ATOM     88  C   UNL A   1      30.912  27.412  23.390  1.00  0.00     0.058 A 
ATOM     89  F   UNL A   1      29.124  25.156  25.688  1.00  0.00    -0.206 F 
ATOM     90  C   UNL A   1      28.270  26.664  24.120  1.00  0.00     0.040 A 
ATOM     91  C   UNL A   1      29.787  28.009  22.808  1.00  0.00     0.027 A 
ATOM     92  C   UNL A   1      28.483  27.634  23.153  1.00  0.00     0.005 A 
BRANCH  88  93
ATOM     93  N   UNL A   1      32.240  27.658  22.950  1.00  0.00    -0.325 N 
ATOM     94  C   UNL A   1      33.266  28.490  23.314  1.00  0.00     0.227 C 
ATOM     95  H   UNL A   1      32.485  27.083  22.188  1.00  0.00     0.169 HD
ATOM     96  O   UNL A   1      34.218  28.561  22.528  1.00  0.00    -0.274 OA
BRANCH  94  97
ATOM     97  C   UNL A   1      33.277  29.320  24.592  1.00  0.00     0.079 C 
ATOM     98  C   UNL A   1      31.854  29.611  25.109  1.00  0.00     0.013 C 
ATOM     99  C   UNL A   1      34.054  28.646  25.732  1.00  0.00     0.013 C 
ATOM    100  C   UNL A   1      31.906  30.582  26.291  1.00  0.00     0.001 C 
ATOM    101  C   UNL A   1      34.166  29.593  26.929  1.00  0.00     0.001 C 
ATOM    102  C   UNL A   1      32.797  30.067  27.421  1.00  0.00     0.000 C 
ENDBRANCH  94  97
ENDBRANCH  88  93
ENDBRANCH  84  86
ENDBRANCH  83  84
ENDBRANCH  82  83
ENDBRANCH  81  82
ENDBRANCH  80  81
ENDBRANCH  79  80
ENDBRANCH  78  79
ENDBRANCH  77  78
ENDBRANCH   1  77
TORSDOF 25
ENDMDL
MODEL 3
REMARK VINA RESULT:      -9.2      3.617      9.215
REMARK SMILES O=C(OCCOCCOCCOCCOC(=O)c1c(F)cccc1NC(=O)C1CCCCC1)c1ccc(-c2c3nc(c(-c4c(F)cc(S(=O)(=O)[O-])cc4F)c4ccc([nH]4)c(-c4c(F)cc(S(=O)(=O)[O-])cc4F)c4nc(c(-c5c(F)cc(S(=O)(=O)[O-])cc5F)c5ccc2[nH]5)C=C4)C=C3)cc1
REMARK SMILES IDX 8 1 7 2 6 3 5 4 4 5 3 6 2 7 1 8 34 9 35 10 99 11 36 12 98 13
REMARK SMILES IDX 37 14 38 15 39 16 92 17 40 18 97 19 91 20 93 21 41 22 96 23
REMARK SMILES IDX 90 24 89 25 42 27 76 28 55 29 75 30 56 31 59 32 74 33 94 34
REMARK SMILES IDX 57 35 58 36 73 38 95 39 60 40 43 41 44 42 53 43 45 44 46 45
REMARK SMILES IDX 52 46 54 47 47 48 48 49 49 50 50 51 51 52 77 53 78 54 87 55
REMARK SMILES IDX 79 56 80 57 86 58 88 59 81 60 82 61 83 62 84 63 85 64 61 65
REMARK SMILES IDX 62 66 71 67 63 68 64 69 70 70 72 71 65 72 66 73 67 74 68 75
REMARK SMILES IDX 69 76 9 77 10 78 11 79 12 80 13 81 14 82 15 83 16 84 17 85
REMARK SMILES IDX 18 86 19 87 24 88 20 89 21 90 23 91 22 92 25 93 26 94 27 96
REMARK SMILES IDX 28 97 29 98 33 99 30 100 32 101 31 102
REMARK H PARENT 93 26 59 37 25 95
REMARK Flexibility Score: inf
ROOT
ATOM      1  C   UNL A   1      34.266  33.645  30.569  1.00  0.00     0.188 C 
ENDROOT
BRANCH   1   2
ATOM      2  C   UNL A   1      35.698  34.019  30.930  1.00  0.00     0.188 C 
BRANCH   2   3
ATOM      3  O   UNL A   1      35.717  34.774  32.144  1.00  0.00    -0.376 OA
BRANCH   3   4
ATOM      4  C   UNL A   1      34.728  34.411  33.108  1.00  0.00     0.202 C 
BRANCH   4   5
ATOM      5  C   UNL A   1      35.308  33.710  34.336  1.00  0.00     0.261 C 
BRANCH   5   6
ATOM      6  O   UNL A   1      36.038  32.528  33.979  1.00  0.00    -0.460 OA
BRANCH   6   7
ATOM      7  C   UNL A   1      37.271  32.149  34.405  1.00  0.00     0.338 C 
ATOM      8  O   UNL A   1      37.413  31.922  35.608  1.00  0.00    -0.246 OA
BRANCH   7   9
ATOM      9  C   UNL A   1      38.465  31.956  33.514  1.00  0.00     0.060 A 
ATOM     10  C   UNL A   1      39.727  31.505  33.907  1.00  0.00     0.016 A 
ATOM     11  C   UNL A   1      38.275  32.247  32.150  1.00  0.00     0.016 A 
ATOM     12  C   UNL A   1      40.796  31.468  33.021  1.00  0.00     0.010 A 
ATOM     13  C   UNL A   1      39.337  32.195  31.242  1.00  0.00     0.010 A 
ATOM     14  C   UNL A   1      40.616  31.867  31.701  1.00  0.00    -0.014 A 
BRANCH  14  15
ATOM     15  C   UNL A   1      41.826  32.196  30.927  1.00  0.00     0.031 A 
ATOM     16  C   UNL A   1      42.414  33.563  31.131  1.00  0.00     0.074 A 
ATOM     17  C   UNL A   1      42.468  31.243  30.230  1.00  0.00     0.049 A 
ATOM     18  N   UNL A   1      43.465  34.107  30.583  1.00  0.00    -0.248 NA
ATOM     19  C   UNL A   1      41.732  34.432  32.111  1.00  0.00     0.031 C 
ATOM     20  C   UNL A   1      42.040  29.848  30.124  1.00  0.00     0.029 A 
ATOM     21  N   UNL A   1      43.637  31.293  29.520  1.00  0.00    -0.354 N 
ATOM     22  C   UNL A   1      43.556  35.381  31.133  1.00  0.00     0.074 A 
ATOM     23  C   UNL A   1      42.451  35.539  32.048  1.00  0.00     0.031 C 
ATOM     24  C   UNL A   1      42.952  29.166  29.412  1.00  0.00     0.029 A 
ATOM     25  C   UNL A   1      43.993  30.087  28.964  1.00  0.00     0.049 A 
ATOM     26  H   UNL A   1      44.172  32.113  29.419  1.00  0.00     0.167 HD
ATOM     27  C   UNL A   1      44.485  36.332  30.888  1.00  0.00     0.037 A 
ATOM     28  C   UNL A   1      45.035  29.783  28.167  1.00  0.00     0.037 A 
ATOM     29  C   UNL A   1      45.567  36.137  29.965  1.00  0.00     0.049 A 
ATOM     30  C   UNL A   1      45.999  30.886  27.820  1.00  0.00     0.074 A 
ATOM     31  C   UNL A   1      46.510  37.047  29.531  1.00  0.00     0.029 A 
ATOM     32  N   UNL A   1      45.847  34.929  29.336  1.00  0.00    -0.354 N 
ATOM     33  N   UNL A   1      46.009  32.131  28.241  1.00  0.00    -0.248 NA
ATOM     34  C   UNL A   1      47.078  30.559  26.881  1.00  0.00     0.031 C 
ATOM     35  C   UNL A   1      47.342  36.395  28.612  1.00  0.00     0.029 A 
ATOM     36  C   UNL A   1      46.947  35.068  28.513  1.00  0.00     0.049 A 
ATOM     37  H   UNL A   1      45.335  34.097  29.461  1.00  0.00     0.167 HD
ATOM     38  C   UNL A   1      47.103  32.733  27.633  1.00  0.00     0.074 A 
ATOM     39  C   UNL A   1      47.735  31.710  26.821  1.00  0.00     0.031 C 
ATOM     40  C   UNL A   1      47.545  34.012  27.730  1.00  0.00     0.037 A 
BRANCH  27  41
ATOM     41  C   UNL A   1      44.303  37.658  31.571  1.00  0.00     0.058 A 
ATOM     42  C   UNL A   1      43.686  38.722  30.895  1.00  0.00     0.135 A 
ATOM     43  C   UNL A   1      44.675  37.864  32.910  1.00  0.00     0.135 A 
ATOM     44  F   UNL A   1      43.289  38.575  29.621  1.00  0.00    -0.206 F 
ATOM     45  C   UNL A   1      43.439  39.940  31.520  1.00  0.00     0.059 A 
ATOM     46  C   UNL A   1      44.417  39.068  33.564  1.00  0.00     0.059 A 
ATOM     47  F   UNL A   1      45.230  36.867  33.619  1.00  0.00    -0.206 F 
ATOM     48  C   UNL A   1      43.800  40.101  32.858  1.00  0.00     0.060 A 
BRANCH  48  49
ATOM     49  S   UNL A   1      43.384  41.655  33.681  1.00  0.00     0.124 S 
ATOM     50  O   UNL A   1      44.085  41.519  34.953  1.00  0.00    -0.237 OA
ATOM     51  O   UNL A   1      43.926  42.647  32.758  1.00  0.00    -0.237 OA
ATOM     52  O   UNL A   1      41.926  41.616  33.757  1.00  0.00    -0.744 OA
ENDBRANCH  48  49
ENDBRANCH  27  41
BRANCH  28  53
ATOM     53  C   UNL A   1      45.185  28.398  27.641  1.00  0.00     0.058 A 
ATOM     54  C   UNL A   1      46.092  27.497  28.227  1.00  0.00     0.135 A 
ATOM     55  C   UNL A   1      44.477  27.960  26.513  1.00  0.00     0.135 A 
ATOM     56  F   UNL A   1      46.798  27.862  29.309  1.00  0.00    -0.206 F 
ATOM     57  C   UNL A   1      46.320  26.234  27.692  1.00  0.00     0.059 A 
ATOM     58  C   UNL A   1      44.668  26.688  25.974  1.00  0.00     0.059 A 
ATOM     59  F   UNL A   1      43.587  28.772  25.925  1.00  0.00    -0.206 F 
ATOM     60  C   UNL A   1      45.610  25.841  26.559  1.00  0.00     0.060 A 
BRANCH  60  61
ATOM     61  S   UNL A   1      45.946  24.208  25.864  1.00  0.00     0.124 S 
ATOM     62  O   UNL A   1      46.336  24.545  24.498  1.00  0.00    -0.237 OA
ATOM     63  O   UNL A   1      47.018  23.723  26.727  1.00  0.00    -0.237 OA
ATOM     64  O   UNL A   1      44.671  23.512  26.000  1.00  0.00    -0.744 OA
ENDBRANCH  60  61
ENDBRANCH  28  53
BRANCH  40  65
ATOM     65  C   UNL A   1      48.784  34.370  26.965  1.00  0.00     0.058 A 
ATOM     66  C   UNL A   1      50.034  34.350  27.603  1.00  0.00     0.135 A 
ATOM     67  C   UNL A   1      48.722  34.830  25.642  1.00  0.00     0.135 A 
ATOM     68  F   UNL A   1      50.140  33.925  28.873  1.00  0.00    -0.206 F 
ATOM     69  C   UNL A   1      51.181  34.796  26.962  1.00  0.00     0.059 A 
ATOM     70  C   UNL A   1      49.862  35.258  24.971  1.00  0.00     0.059 A 
ATOM     71  F   UNL A   1      47.549  34.859  24.991  1.00  0.00    -0.206 F 
ATOM     72  C   UNL A   1      51.083  35.255  25.647  1.00  0.00     0.060 A 
BRANCH  72  73
ATOM     73  S   UNL A   1      52.583  35.834  24.827  1.00  0.00     0.124 S 
ATOM     74  O   UNL A   1      52.471  35.200  23.519  1.00  0.00    -0.237 OA
ATOM     75  O   UNL A   1      52.407  37.283  24.849  1.00  0.00    -0.237 OA
ATOM     76  O   UNL A   1      53.652  35.327  25.683  1.00  0.00    -0.744 OA
ENDBRANCH  72  73
ENDBRANCH  40  65
ENDBRANCH  14  15
ENDBRANCH   7   9
ENDBRANCH   6   7
ENDBRANCH   5   6
ENDBRANCH   4   5
ENDBRANCH   3   4
ENDBRANCH   2   3
ENDBRANCH   1   2
BRANCH   1  77
ATOM     77  O   UNL A   1      33.961  33.842  29.191  1.00  0.00    -0.377 OA
BRANCH  77  78
ATOM     78  C   UNL A   1      34.293  32.770  28.313  1.00  0.00     0.188 C 
BRANCH  78  79
ATOM     79  C   UNL A   1      33.169  32.142  27.465  1.00  0.00     0.188 C 
BRANCH  79  80
ATOM     80  O   UNL A   1      33.133  30.725  27.565  1.00  0.00    -0.376 OA
BRANCH  80  81
ATOM     81  C   UNL A   1      34.337  30.063  27.215  1.00  0.00     0.202 C 
BRANCH  81  82
ATOM     82  C   UNL A   1      34.246  28.535  27.253  1.00  0.00     0.261 C 
BRANCH  82  83
ATOM     83  O   UNL A   1      33.256  27.919  26.407  1.00  0.00    -0.460 OA
BRANCH  83  84
ATOM     84  C   UNL A   1      31.968  27.813  26.801  1.00  0.00     0.343 C 
ATOM     85  O   UNL A   1      31.520  27.984  27.920  1.00  0.00    -0.246 OA
BRANCH  84  86
ATOM     86  C   UNL A   1      31.141  27.627  25.583  1.00  0.00     0.119 A 
ATOM     87  C   UNL A   1      31.052  28.730  24.722  1.00  0.00     0.139 A 
ATOM     88  C   UNL A   1      30.356  26.463  25.348  1.00  0.00     0.058 A 
ATOM     89  F   UNL A   1      31.774  29.839  24.943  1.00  0.00    -0.206 F 
ATOM     90  C   UNL A   1      30.195  28.721  23.631  1.00  0.00     0.040 A 
ATOM     91  C   UNL A   1      29.537  26.471  24.213  1.00  0.00     0.027 A 
ATOM     92  C   UNL A   1      29.444  27.586  23.372  1.00  0.00     0.005 A 
BRANCH  88  93
ATOM     93  N   UNL A   1      30.354  25.411  26.303  1.00  0.00    -0.325 N 
ATOM     94  C   UNL A   1      30.848  24.135  26.373  1.00  0.00     0.227 C 
ATOM     95  H   UNL A   1      29.874  25.665  27.126  1.00  0.00     0.169 HD
ATOM     96  O   UNL A   1      30.441  23.441  27.311  1.00  0.00    -0.274 OA
BRANCH  94  97
ATOM     97  C   UNL A   1      31.828  23.546  25.365  1.00  0.00     0.079 C 
ATOM     98  C   UNL A   1      32.518  22.274  25.899  1.00  0.00     0.013 C 
ATOM     99  C   UNL A   1      31.162  23.185  24.030  1.00  0.00     0.013 C 
ATOM    100  C   UNL A   1      33.609  21.815  24.929  1.00  0.00     0.001 C 
ATOM    101  C   UNL A   1      32.218  22.751  23.011  1.00  0.00     0.001 C 
ATOM    102  C   UNL A   1      33.067  21.585  23.519  1.00  0.00     0.000 C 
ENDBRANCH  94  97
ENDBRANCH  88  93
ENDBRANCH  84  86
ENDBRANCH  83  84
ENDBRANCH  82  83
ENDBRANCH  81  82
ENDBRANCH  80  81
ENDBRANCH  79  80
ENDBRANCH  78  79
ENDBRANCH  77  78
ENDBRANCH   1  77
TORSDOF 25
ENDMDL
