MODEL 1
REMARK VINA RESULT:      -8.6      0.000      0.000
REMARK SMILES Cc1c(CC(=O)N[C@H](CO)C(=O)OCCOCCOCCOCCOC(=O)c2ccc(-c3c4nc(c(-c5c(F)cc(S(=O)(=O)[O-])cc5F)c5ccc([nH]5)c(-c5c(F)cc(S(=O)(=O)[O-])cc5F)c5nc(c(-c6c(F)cc(S(=O)(=O)[O-])cc6F)c6ccc3[nH]6)C=C5)C=C4)cc2)cc(-c2ccc(S(C)(=O)=O)cc2)n1-c1ccc(F)cc1
REMARK SMILES IDX 18 1 17 2 16 3 15 4 14 5 13 6 11 7 12 8 8 9 7 10 5 11 6 12
REMARK SMILES IDX 4 14 3 15 1 16 2 17 106 18 94 19 95 20 107 21 108 22 113 23
REMARK SMILES IDX 109 24 112 25 110 26 111 27 96 28 97 29 105 30 98 31 104 32
REMARK SMILES IDX 99 33 100 34 101 35 102 36 103 37 9 38 10 39 19 41 20 42
REMARK SMILES IDX 21 43 22 44 23 45 24 46 25 47 26 48 27 49 28 50 29 51 93 52
REMARK SMILES IDX 30 53 92 54 31 55 32 56 33 57 86 58 34 59 91 60 85 61 87 62
REMARK SMILES IDX 35 63 90 64 84 65 83 66 36 68 70 69 49 70 69 71 50 72 53 73
REMARK SMILES IDX 68 74 88 75 51 76 52 77 67 79 89 80 54 81 37 82 38 83 47 84
REMARK SMILES IDX 39 85 40 86 46 87 48 88 41 89 42 90 43 91 44 92 45 93 71 94
REMARK SMILES IDX 72 95 81 96 73 97 74 98 80 99 82 100 75 101 76 102 77 103
REMARK SMILES IDX 78 104 79 105 55 106 56 107 65 108 57 109 58 110 64 111
REMARK SMILES IDX 66 112 59 113 60 114 61 115 62 116 63 117
REMARK H PARENT 7 13 10 40 87 67 53 78
REMARK Flexibility Score: inf
ROOT
ATOM      1  C   UNL A   1      38.680  21.611  25.597  1.00  0.00     0.188 C 
ENDROOT
BRANCH   1   2
ATOM      2  C   UNL A   1      37.397  21.484  24.801  1.00  0.00     0.188 C 
BRANCH   2   3
ATOM      3  O   UNL A   1      36.354  21.109  25.647  1.00  0.00    -0.376 OA
BRANCH   3   4
ATOM      4  C   UNL A   1      35.457  22.047  26.172  1.00  0.00     0.202 C 
BRANCH   4   5
ATOM      5  C   UNL A   1      35.619  23.535  26.030  1.00  0.00     0.261 C 
BRANCH   5   6
ATOM      6  O   UNL A   1      35.416  24.076  24.730  1.00  0.00    -0.462 OA
BRANCH   6   7
ATOM      7  C   UNL A   1      34.360  23.797  23.940  1.00  0.00     0.331 C 
ATOM      8  O   UNL A   1      34.294  23.007  22.993  1.00  0.00    -0.250 OA
BRANCH   7   9
ATOM      9  C   UNL A   1      33.268  24.762  24.266  1.00  0.00     0.218 C 
BRANCH   9  10
ATOM     10  N   UNL A   1      32.137  23.868  24.578  1.00  0.00    -0.341 N 
ATOM     11  C   UNL A   1      31.091  24.011  25.462  1.00  0.00     0.225 C 
ATOM     12  O   UNL A   1      30.352  23.022  25.564  1.00  0.00    -0.275 OA
ATOM     13  H   UNL A   1      32.128  23.026  24.066  1.00  0.00     0.164 HD
BRANCH  11  14
ATOM     14  C   UNL A   1      30.778  25.308  26.249  1.00  0.00     0.137 C 
BRANCH  14  15
ATOM     15  C   UNL A   1      31.042  26.690  25.620  1.00  0.00    -0.017 A 
ATOM     16  C   UNL A   1      29.906  26.500  23.331  1.00  0.00     0.065 C 
ATOM     17  C   UNL A   1      30.619  27.248  24.417  1.00  0.00     0.024 A 
ATOM     18  N   UNL A   1      30.910  28.647  24.411  1.00  0.00    -0.314 N 
ATOM     19  C   UNL A   1      31.904  27.683  26.191  1.00  0.00     0.033 A 
ATOM     20  C   UNL A   1      31.815  28.901  25.506  1.00  0.00     0.053 A 
BRANCH  18  21
ATOM     21  C   UNL A   1      30.199  29.658  23.618  1.00  0.00     0.046 A 
ATOM     22  C   UNL A   1      29.156  30.412  24.172  1.00  0.00     0.029 A 
ATOM     23  C   UNL A   1      30.374  29.740  22.215  1.00  0.00     0.029 A 
ATOM     24  C   UNL A   1      28.246  31.102  23.351  1.00  0.00     0.041 A 
ATOM     25  C   UNL A   1      29.458  30.418  21.395  1.00  0.00     0.041 A 
ATOM     26  C   UNL A   1      28.384  31.070  21.972  1.00  0.00     0.123 A 
ATOM     27  F   UNL A   1      27.465  31.649  21.190  1.00  0.00    -0.207 F 
ENDBRANCH  18  21
BRANCH  20  28
ATOM     28  C   UNL A   1      32.126  30.222  26.187  1.00  0.00    -0.001 A 
ATOM     29  C   UNL A   1      33.384  30.378  26.786  1.00  0.00     0.011 A 
ATOM     30  C   UNL A   1      31.346  31.384  26.162  1.00  0.00     0.011 A 
ATOM     31  C   UNL A   1      33.790  31.490  27.529  1.00  0.00     0.021 A 
ATOM     32  C   UNL A   1      31.779  32.576  26.824  1.00  0.00     0.021 A 
ATOM     33  C   UNL A   1      32.977  32.602  27.555  1.00  0.00     0.067 A 
BRANCH  33  34
ATOM     34  S   UNL A   1      33.635  34.076  28.320  1.00  0.00     0.175 S 
ATOM     35  C   UNL A   1      34.391  33.551  29.841  1.00  0.00     0.163 C 
ATOM     36  O   UNL A   1      34.686  34.563  27.449  1.00  0.00    -0.224 OA
ATOM     37  O   UNL A   1      32.506  34.931  28.654  1.00  0.00    -0.224 OA
ENDBRANCH  33  34
ENDBRANCH  20  28
ENDBRANCH  14  15
ENDBRANCH  11  14
ENDBRANCH   9  10
BRANCH   9  38
ATOM     38  C   UNL A   1      33.100  25.647  22.999  1.00  0.00     0.193 C 
BRANCH  38  39
ATOM     39  O   UNL A   1      34.052  26.716  22.995  1.00  0.00    -0.394 OA
ATOM     40  H   UNL A   1      34.944  26.354  23.112  1.00  0.00     0.210 HD
ENDBRANCH  38  39
ENDBRANCH   9  38
ENDBRANCH   7   9
ENDBRANCH   6   7
ENDBRANCH   5   6
ENDBRANCH   4   5
ENDBRANCH   3   4
ENDBRANCH   2   3
ENDBRANCH   1   2
BRANCH   1  41
ATOM     41  O   UNL A   1      38.908  22.806  26.337  1.00  0.00    -0.377 OA
BRANCH  41  42
ATOM     42  C   UNL A   1      39.952  22.985  27.304  1.00  0.00     0.188 C 
BRANCH  42  43
ATOM     43  C   UNL A   1      41.033  24.072  27.071  1.00  0.00     0.188 C 
BRANCH  43  44
ATOM     44  O   UNL A   1      41.836  24.451  28.180  1.00  0.00    -0.376 OA
BRANCH  44  45
ATOM     45  C   UNL A   1      41.704  25.789  28.597  1.00  0.00     0.202 C 
BRANCH  45  46
ATOM     46  C   UNL A   1      40.249  26.299  28.763  1.00  0.00     0.261 C 
BRANCH  46  47
ATOM     47  O   UNL A   1      39.616  27.371  27.988  1.00  0.00    -0.460 OA
BRANCH  47  48
ATOM     48  C   UNL A   1      39.770  28.674  28.369  1.00  0.00     0.338 C 
ATOM     49  O   UNL A   1      38.891  29.341  28.892  1.00  0.00    -0.246 OA
BRANCH  48  50
ATOM     50  C   UNL A   1      41.194  29.214  28.180  1.00  0.00     0.060 A 
ATOM     51  C   UNL A   1      41.797  29.107  26.937  1.00  0.00     0.016 A 
ATOM     52  C   UNL A   1      42.051  29.663  29.208  1.00  0.00     0.016 A 
ATOM     53  C   UNL A   1      43.173  29.481  26.742  1.00  0.00     0.010 A 
ATOM     54  C   UNL A   1      43.492  29.950  29.017  1.00  0.00     0.010 A 
ATOM     55  C   UNL A   1      44.133  29.861  27.769  1.00  0.00    -0.014 A 
BRANCH  55  56
ATOM     56  C   UNL A   1      45.767  29.714  27.404  1.00  0.00     0.031 A 
ATOM     57  C   UNL A   1      45.875  28.241  27.166  1.00  0.00     0.074 A 
ATOM     58  C   UNL A   1      47.018  30.376  27.369  1.00  0.00     0.049 A 
ATOM     59  N   UNL A   1      45.464  27.434  28.104  1.00  0.00    -0.248 NA
ATOM     60  C   UNL A   1      45.967  27.619  25.842  1.00  0.00     0.031 C 
ATOM     61  C   UNL A   1      47.326  31.765  27.767  1.00  0.00     0.029 A 
ATOM     62  N   UNL A   1      48.364  29.967  26.986  1.00  0.00    -0.354 N 
ATOM     63  C   UNL A   1      45.530  26.164  27.604  1.00  0.00     0.074 A 
ATOM     64  C   UNL A   1      45.634  26.360  26.161  1.00  0.00     0.031 C 
ATOM     65  C   UNL A   1      48.624  32.122  27.495  1.00  0.00     0.029 A 
ATOM     66  C   UNL A   1      49.402  31.008  26.941  1.00  0.00     0.049 A 
ATOM     67  H   UNL A   1      48.569  29.030  26.766  1.00  0.00     0.167 HD
ATOM     68  C   UNL A   1      46.196  25.281  28.403  1.00  0.00     0.037 A 
ATOM     69  C   UNL A   1      50.774  30.975  26.589  1.00  0.00     0.037 A 
ATOM     70  C   UNL A   1      47.562  25.135  27.975  1.00  0.00     0.049 A 
ATOM     71  C   UNL A   1      51.190  29.590  26.822  1.00  0.00     0.074 A 
ATOM     72  C   UNL A   1      48.136  24.998  26.725  1.00  0.00     0.029 A 
ATOM     73  N   UNL A   1      48.534  25.654  28.806  1.00  0.00    -0.354 N 
ATOM     74  N   UNL A   1      51.416  29.140  28.015  1.00  0.00    -0.248 NA
ATOM     75  C   UNL A   1      51.457  28.660  25.731  1.00  0.00     0.031 C 
ATOM     76  C   UNL A   1      49.178  25.948  26.723  1.00  0.00     0.029 A 
ATOM     77  C   UNL A   1      49.498  26.267  28.036  1.00  0.00     0.049 A 
ATOM     78  H   UNL A   1      48.539  25.594  29.788  1.00  0.00     0.167 HD
ATOM     79  C   UNL A   1      51.304  27.799  27.853  1.00  0.00     0.074 A 
ATOM     80  C   UNL A   1      51.606  27.550  26.455  1.00  0.00     0.031 C 
ATOM     81  C   UNL A   1      50.413  27.182  28.665  1.00  0.00     0.037 A 
BRANCH  68  82
ATOM     82  C   UNL A   1      45.767  25.331  29.850  1.00  0.00     0.058 A 
ATOM     83  C   UNL A   1      44.926  24.329  30.346  1.00  0.00     0.135 A 
ATOM     84  C   UNL A   1      46.066  26.408  30.717  1.00  0.00     0.135 A 
ATOM     85  F   UNL A   1      44.639  23.257  29.590  1.00  0.00    -0.206 F 
ATOM     86  C   UNL A   1      44.364  24.416  31.618  1.00  0.00     0.059 A 
ATOM     87  C   UNL A   1      45.466  26.547  31.964  1.00  0.00     0.059 A 
ATOM     88  F   UNL A   1      46.962  27.344  30.363  1.00  0.00    -0.206 F 
ATOM     89  C   UNL A   1      44.616  25.543  32.408  1.00  0.00     0.060 A 
BRANCH  89  90
ATOM     90  S   UNL A   1      43.809  25.676  34.017  1.00  0.00     0.124 S 
ATOM     91  O   UNL A   1      43.273  24.331  34.211  1.00  0.00    -0.237 OA
ATOM     92  O   UNL A   1      44.929  26.030  34.880  1.00  0.00    -0.237 OA
ATOM     93  O   UNL A   1      42.801  26.712  33.814  1.00  0.00    -0.744 OA
ENDBRANCH  89  90
ENDBRANCH  68  82
BRANCH  69  94
ATOM     94  C   UNL A   1      52.107  31.790  26.232  1.00  0.00     0.058 A 
ATOM     95  C   UNL A   1      52.416  32.188  24.872  1.00  0.00     0.135 A 
ATOM     96  C   UNL A   1      52.810  32.566  27.171  1.00  0.00     0.135 A 
ATOM     97  F   UNL A   1      51.888  31.541  23.824  1.00  0.00    -0.206 F 
ATOM     98  C   UNL A   1      53.208  33.305  24.501  1.00  0.00     0.059 A 
ATOM     99  C   UNL A   1      53.640  33.680  26.815  1.00  0.00     0.059 A 
ATOM    100  F   UNL A   1      52.641  32.329  28.479  1.00  0.00    -0.206 F 
ATOM    101  C   UNL A   1      53.793  34.078  25.485  1.00  0.00     0.060 A 
BRANCH 101 102
ATOM    102  S   UNL A   1      54.603  35.653  25.016  1.00  0.00     0.124 S 
ATOM    103  O   UNL A   1      54.164  35.850  23.639  1.00  0.00    -0.237 OA
ATOM    104  O   UNL A   1      54.056  36.594  25.991  1.00  0.00    -0.237 OA
ATOM    105  O   UNL A   1      56.026  35.364  25.181  1.00  0.00    -0.744 OA
ENDBRANCH 101 102
ENDBRANCH  69  94
BRANCH  81 106
ATOM    106  C   UNL A   1      50.395  27.614  30.123  1.00  0.00     0.058 A 
ATOM    107  C   UNL A   1      49.761  28.758  30.668  1.00  0.00     0.135 A 
ATOM    108  C   UNL A   1      51.175  26.864  31.017  1.00  0.00     0.135 A 
ATOM    109  F   UNL A   1      48.891  29.492  29.959  1.00  0.00    -0.206 F 
ATOM    110  C   UNL A   1      49.995  29.187  31.979  1.00  0.00     0.059 A 
ATOM    111  C   UNL A   1      51.376  27.242  32.342  1.00  0.00     0.059 A 
ATOM    112  F   UNL A   1      51.775  25.739  30.594  1.00  0.00    -0.206 F 
ATOM    113  C   UNL A   1      50.825  28.433  32.802  1.00  0.00     0.060 A 
BRANCH 113 114
ATOM    114  S   UNL A   1      51.196  29.027  34.466  1.00  0.00     0.124 S 
ATOM    115  O   UNL A   1      50.418  28.110  35.294  1.00  0.00    -0.237 OA
ATOM    116  O   UNL A   1      52.644  28.873  34.548  1.00  0.00    -0.237 OA
ATOM    117  O   UNL A   1      50.709  30.405  34.451  1.00  0.00    -0.744 OA
ENDBRANCH 113 114
ENDBRANCH  81 106
ENDBRANCH  55  56
ENDBRANCH  48  50
ENDBRANCH  47  48
ENDBRANCH  46  47
ENDBRANCH  45  46
ENDBRANCH  44  45
ENDBRANCH  43  44
ENDBRANCH  42  43
ENDBRANCH  41  42
ENDBRANCH   1  41
TORSDOF 31
ENDMDL
MODEL 2
REMARK VINA RESULT:      -8.1      4.193      5.896
REMARK SMILES Cc1c(CC(=O)N[C@H](CO)C(=O)OCCOCCOCCOCCOC(=O)c2ccc(-c3c4nc(c(-c5c(F)cc(S(=O)(=O)[O-])cc5F)c5ccc([nH]5)c(-c5c(F)cc(S(=O)(=O)[O-])cc5F)c5nc(c(-c6c(F)cc(S(=O)(=O)[O-])cc6F)c6ccc3[nH]6)C=C5)C=C4)cc2)cc(-c2ccc(S(C)(=O)=O)cc2)n1-c1ccc(F)cc1
REMARK SMILES IDX 18 1 17 2 16 3 15 4 14 5 13 6 11 7 12 8 8 9 7 10 5 11 6 12
REMARK SMILES IDX 4 14 3 15 1 16 2 17 106 18 94 19 95 20 107 21 108 22 113 23
REMARK SMILES IDX 109 24 112 25 110 26 111 27 96 28 97 29 105 30 98 31 104 32
REMARK SMILES IDX 99 33 100 34 101 35 102 36 103 37 9 38 10 39 19 41 20 42
REMARK SMILES IDX 21 43 22 44 23 45 24 46 25 47 26 48 27 49 28 50 29 51 93 52
REMARK SMILES IDX 30 53 92 54 31 55 32 56 33 57 86 58 34 59 91 60 85 61 87 62
REMARK SMILES IDX 35 63 90 64 84 65 83 66 36 68 70 69 49 70 69 71 50 72 53 73
REMARK SMILES IDX 68 74 88 75 51 76 52 77 67 79 89 80 54 81 37 82 38 83 47 84
REMARK SMILES IDX 39 85 40 86 46 87 48 88 41 89 42 90 43 91 44 92 45 93 71 94
REMARK SMILES IDX 72 95 81 96 73 97 74 98 80 99 82 100 75 101 76 102 77 103
REMARK SMILES IDX 78 104 79 105 55 106 56 107 65 108 57 109 58 110 64 111
REMARK SMILES IDX 66 112 59 113 60 114 61 115 62 116 63 117
REMARK H PARENT 7 13 10 40 87 67 53 78
REMARK Flexibility Score: inf
ROOT
ATOM      1  C   UNL A   1      38.549  21.486  25.687  1.00  0.00     0.188 C 
ENDROOT
BRANCH   1   2
ATOM      2  C   UNL A   1      37.372  21.555  24.736  1.00  0.00     0.188 C 
BRANCH   2   3
ATOM      3  O   UNL A   1      36.251  20.978  25.331  1.00  0.00    -0.376 OA
BRANCH   3   4
ATOM      4  C   UNL A   1      35.177  21.752  25.787  1.00  0.00     0.202 C 
BRANCH   4   5
ATOM      5  C   UNL A   1      35.277  23.216  26.117  1.00  0.00     0.261 C 
BRANCH   5   6
ATOM      6  O   UNL A   1      35.354  24.113  25.015  1.00  0.00    -0.462 OA
BRANCH   6   7
ATOM      7  C   UNL A   1      34.636  23.996  23.880  1.00  0.00     0.331 C 
ATOM      8  O   UNL A   1      34.922  23.380  22.848  1.00  0.00    -0.250 OA
BRANCH   7   9
ATOM      9  C   UNL A   1      33.464  24.915  23.975  1.00  0.00     0.218 C 
BRANCH   9  10
ATOM     10  N   UNL A   1      32.350  23.982  24.231  1.00  0.00    -0.341 N 
ATOM     11  C   UNL A   1      31.295  24.057  25.114  1.00  0.00     0.225 C 
ATOM     12  O   UNL A   1      30.577  23.050  25.159  1.00  0.00    -0.275 OA
ATOM     13  H   UNL A   1      32.363  23.168  23.677  1.00  0.00     0.164 HD
BRANCH  11  14
ATOM     14  C   UNL A   1      30.949  25.305  25.964  1.00  0.00     0.137 C 
BRANCH  14  15
ATOM     15  C   UNL A   1      31.160  26.723  25.397  1.00  0.00    -0.017 A 
ATOM     16  C   UNL A   1      29.949  26.621  23.141  1.00  0.00     0.065 C 
ATOM     17  C   UNL A   1      30.683  27.331  24.240  1.00  0.00     0.024 A 
ATOM     18  N   UNL A   1      30.942  28.735  24.295  1.00  0.00    -0.314 N 
ATOM     19  C   UNL A   1      32.019  27.706  25.989  1.00  0.00     0.033 A 
ATOM     20  C   UNL A   1      31.879  28.955  25.371  1.00  0.00     0.053 A 
BRANCH  18  21
ATOM     21  C   UNL A   1      30.181  29.767  23.580  1.00  0.00     0.046 A 
ATOM     22  C   UNL A   1      29.180  30.507  24.223  1.00  0.00     0.029 A 
ATOM     23  C   UNL A   1      30.260  29.886  22.171  1.00  0.00     0.029 A 
ATOM     24  C   UNL A   1      28.219  31.220  23.484  1.00  0.00     0.041 A 
ATOM     25  C   UNL A   1      29.293  30.586  21.433  1.00  0.00     0.041 A 
ATOM     26  C   UNL A   1      28.262  31.223  22.099  1.00  0.00     0.123 A 
ATOM     27  F   UNL A   1      27.294  31.824  21.397  1.00  0.00    -0.207 F 
ENDBRANCH  18  21
BRANCH  20  28
ATOM     28  C   UNL A   1      32.185  30.247  26.108  1.00  0.00    -0.001 A 
ATOM     29  C   UNL A   1      33.434  30.375  26.731  1.00  0.00     0.011 A 
ATOM     30  C   UNL A   1      31.409  31.413  26.116  1.00  0.00     0.011 A 
ATOM     31  C   UNL A   1      33.832  31.455  27.522  1.00  0.00     0.021 A 
ATOM     32  C   UNL A   1      31.836  32.576  26.830  1.00  0.00     0.021 A 
ATOM     33  C   UNL A   1      33.023  32.569  27.580  1.00  0.00     0.067 A 
BRANCH  33  34
ATOM     34  S   UNL A   1      33.675  34.009  28.412  1.00  0.00     0.175 S 
ATOM     35  C   UNL A   1      34.463  33.415  29.890  1.00  0.00     0.163 C 
ATOM     36  O   UNL A   1      34.704  34.557  27.551  1.00  0.00    -0.224 OA
ATOM     37  O   UNL A   1      32.540  34.829  28.809  1.00  0.00    -0.224 OA
ENDBRANCH  33  34
ENDBRANCH  20  28
ENDBRANCH  14  15
ENDBRANCH  11  14
ENDBRANCH   9  10
BRANCH   9  38
ATOM     38  C   UNL A   1      33.413  25.670  22.617  1.00  0.00     0.193 C 
BRANCH  38  39
ATOM     39  O   UNL A   1      33.710  27.059  22.796  1.00  0.00    -0.394 OA
ATOM     40  H   UNL A   1      34.552  27.150  23.271  1.00  0.00     0.210 HD
ENDBRANCH  38  39
ENDBRANCH   9  38
ENDBRANCH   7   9
ENDBRANCH   6   7
ENDBRANCH   5   6
ENDBRANCH   4   5
ENDBRANCH   3   4
ENDBRANCH   2   3
ENDBRANCH   1   2
BRANCH   1  41
ATOM     41  O   UNL A   1      38.784  22.585  26.562  1.00  0.00    -0.377 OA
BRANCH  41  42
ATOM     42  C   UNL A   1      38.747  23.965  26.174  1.00  0.00     0.188 C 
BRANCH  42  43
ATOM     43  C   UNL A   1      39.035  25.065  27.228  1.00  0.00     0.188 C 
BRANCH  43  44
ATOM     44  O   UNL A   1      39.952  24.756  28.269  1.00  0.00    -0.376 OA
BRANCH  44  45
ATOM     45  C   UNL A   1      41.285  25.146  28.040  1.00  0.00     0.202 C 
BRANCH  45  46
ATOM     46  C   UNL A   1      41.582  25.723  26.632  1.00  0.00     0.261 C 
BRANCH  46  47
ATOM     47  O   UNL A   1      41.445  27.126  26.228  1.00  0.00    -0.460 OA
BRANCH  47  48
ATOM     48  C   UNL A   1      42.543  27.833  25.824  1.00  0.00     0.338 C 
ATOM     49  O   UNL A   1      42.577  28.525  24.818  1.00  0.00    -0.246 OA
BRANCH  48  50
ATOM     50  C   UNL A   1      43.718  27.774  26.809  1.00  0.00     0.060 A 
ATOM     51  C   UNL A   1      44.684  26.794  26.648  1.00  0.00     0.016 A 
ATOM     52  C   UNL A   1      43.836  28.520  28.001  1.00  0.00     0.016 A 
ATOM     53  C   UNL A   1      45.734  26.617  27.616  1.00  0.00     0.010 A 
ATOM     54  C   UNL A   1      44.862  28.263  29.039  1.00  0.00     0.010 A 
ATOM     55  C   UNL A   1      45.862  27.284  28.904  1.00  0.00    -0.014 A 
BRANCH  55  56
ATOM     56  C   UNL A   1      46.813  26.546  30.076  1.00  0.00     0.031 A 
ATOM     57  C   UNL A   1      45.765  25.919  30.941  1.00  0.00     0.074 A 
ATOM     58  C   UNL A   1      48.121  26.410  30.600  1.00  0.00     0.049 A 
ATOM     59  N   UNL A   1      44.826  26.684  31.422  1.00  0.00    -0.248 NA
ATOM     60  C   UNL A   1      45.429  24.493  30.934  1.00  0.00     0.031 C 
ATOM     61  C   UNL A   1      49.360  27.074  30.145  1.00  0.00     0.029 A 
ATOM     62  N   UNL A   1      48.689  25.649  31.707  1.00  0.00    -0.354 N 
ATOM     63  C   UNL A   1      43.923  25.872  32.050  1.00  0.00     0.074 A 
ATOM     64  C   UNL A   1      44.230  24.542  31.532  1.00  0.00     0.031 C 
ATOM     65  C   UNL A   1      50.478  26.626  30.804  1.00  0.00     0.029 A 
ATOM     66  C   UNL A   1      50.153  25.648  31.849  1.00  0.00     0.049 A 
ATOM     67  H   UNL A   1      48.114  25.156  32.335  1.00  0.00     0.167 HD
ATOM     68  C   UNL A   1      43.621  26.252  33.325  1.00  0.00     0.037 A 
ATOM     69  C   UNL A   1      51.024  25.008  32.764  1.00  0.00     0.037 A 
ATOM     70  C   UNL A   1      44.407  25.513  34.277  1.00  0.00     0.049 A 
ATOM     71  C   UNL A   1      50.212  24.780  33.962  1.00  0.00     0.074 A 
ATOM     72  C   UNL A   1      44.744  24.176  34.367  1.00  0.00     0.029 A 
ATOM     73  N   UNL A   1      45.373  26.216  34.967  1.00  0.00    -0.354 N 
ATOM     74  N   UNL A   1      49.936  25.738  34.789  1.00  0.00    -0.248 NA
ATOM     75  C   UNL A   1      49.735  23.455  34.341  1.00  0.00     0.031 C 
ATOM     76  C   UNL A   1      46.138  24.190  34.579  1.00  0.00     0.029 A 
ATOM     77  C   UNL A   1      46.506  25.438  35.064  1.00  0.00     0.049 A 
ATOM     78  H   UNL A   1      45.270  27.124  35.332  1.00  0.00     0.167 HD
ATOM     79  C   UNL A   1      48.845  25.265  35.439  1.00  0.00     0.074 A 
ATOM     80  C   UNL A   1      48.933  23.819  35.343  1.00  0.00     0.031 C 
ATOM     81  C   UNL A   1      47.753  26.065  35.412  1.00  0.00     0.037 A 
BRANCH  68  82
ATOM     82  C   UNL A   1      43.296  27.721  33.459  1.00  0.00     0.058 A 
ATOM     83  C   UNL A   1      41.976  28.106  33.708  1.00  0.00     0.135 A 
ATOM     84  C   UNL A   1      44.234  28.753  33.224  1.00  0.00     0.135 A 
ATOM     85  F   UNL A   1      41.044  27.178  33.984  1.00  0.00    -0.206 F 
ATOM     86  C   UNL A   1      41.589  29.445  33.672  1.00  0.00     0.059 A 
ATOM     87  C   UNL A   1      43.861  30.088  33.119  1.00  0.00     0.059 A 
ATOM     88  F   UNL A   1      45.543  28.475  33.101  1.00  0.00    -0.206 F 
ATOM     89  C   UNL A   1      42.533  30.426  33.348  1.00  0.00     0.060 A 
BRANCH  89  90
ATOM     90  S   UNL A   1      41.993  32.144  33.221  1.00  0.00     0.124 S 
ATOM     91  O   UNL A   1      43.104  32.769  32.507  1.00  0.00    -0.237 OA
ATOM     92  O   UNL A   1      40.759  32.009  32.457  1.00  0.00    -0.237 OA
ATOM     93  O   UNL A   1      41.846  32.564  34.611  1.00  0.00    -0.744 OA
ENDBRANCH  89  90
ENDBRANCH  68  82
BRANCH  69  94
ATOM     94  C   UNL A   1      52.522  24.590  33.152  1.00  0.00     0.058 A 
ATOM     95  C   UNL A   1      53.104  23.339  32.707  1.00  0.00     0.135 A 
ATOM     96  C   UNL A   1      53.511  25.521  33.515  1.00  0.00     0.135 A 
ATOM     97  F   UNL A   1      52.331  22.299  32.362  1.00  0.00    -0.206 F 
ATOM     98  C   UNL A   1      54.488  23.098  32.511  1.00  0.00     0.059 A 
ATOM     99  C   UNL A   1      54.917  25.286  33.356  1.00  0.00     0.059 A 
ATOM    100  F   UNL A   1      53.146  26.734  33.953  1.00  0.00    -0.206 F 
ATOM    101  C   UNL A   1      55.397  24.095  32.804  1.00  0.00     0.060 A 
BRANCH 101 102
ATOM    102  S   UNL A   1      57.151  23.873  32.320  1.00  0.00     0.124 S 
ATOM    103  O   UNL A   1      57.050  23.273  30.994  1.00  0.00    -0.237 OA
ATOM    104  O   UNL A   1      57.666  25.239  32.355  1.00  0.00    -0.237 OA
ATOM    105  O   UNL A   1      57.680  22.995  33.362  1.00  0.00    -0.744 OA
ENDBRANCH 101 102
ENDBRANCH  69  94
BRANCH  81 106
ATOM    106  C   UNL A   1      47.983  27.553  35.629  1.00  0.00     0.058 A 
ATOM    107  C   UNL A   1      48.401  28.503  34.665  1.00  0.00     0.135 A 
ATOM    108  C   UNL A   1      47.875  28.026  36.946  1.00  0.00     0.135 A 
ATOM    109  F   UNL A   1      48.429  28.219  33.354  1.00  0.00    -0.206 F 
ATOM    110  C   UNL A   1      48.803  29.796  35.017  1.00  0.00     0.059 A 
ATOM    111  C   UNL A   1      48.215  29.327  37.310  1.00  0.00     0.059 A 
ATOM    112  F   UNL A   1      47.441  27.203  37.916  1.00  0.00    -0.206 F 
ATOM    113  C   UNL A   1      48.728  30.191  36.348  1.00  0.00     0.060 A 
BRANCH 113 114
ATOM    114  S   UNL A   1      49.323  31.829  36.820  1.00  0.00     0.124 S 
ATOM    115  O   UNL A   1      48.076  32.528  37.121  1.00  0.00    -0.237 OA
ATOM    116  O   UNL A   1      50.176  31.545  37.968  1.00  0.00    -0.237 OA
ATOM    117  O   UNL A   1      50.015  32.297  35.621  1.00  0.00    -0.744 OA
ENDBRANCH 113 114
ENDBRANCH  81 106
ENDBRANCH  55  56
ENDBRANCH  48  50
ENDBRANCH  47  48
ENDBRANCH  46  47
ENDBRANCH  45  46
ENDBRANCH  44  45
ENDBRANCH  43  44
ENDBRANCH  42  43
ENDBRANCH  41  42
ENDBRANCH   1  41
TORSDOF 31
ENDMDL
MODEL 3
REMARK VINA RESULT:      -7.2      6.573     14.745
REMARK SMILES Cc1c(CC(=O)N[C@H](CO)C(=O)OCCOCCOCCOCCOC(=O)c2ccc(-c3c4nc(c(-c5c(F)cc(S(=O)(=O)[O-])cc5F)c5ccc([nH]5)c(-c5c(F)cc(S(=O)(=O)[O-])cc5F)c5nc(c(-c6c(F)cc(S(=O)(=O)[O-])cc6F)c6ccc3[nH]6)C=C5)C=C4)cc2)cc(-c2ccc(S(C)(=O)=O)cc2)n1-c1ccc(F)cc1
REMARK SMILES IDX 18 1 17 2 16 3 15 4 14 5 13 6 11 7 12 8 8 9 7 10 5 11 6 12
REMARK SMILES IDX 4 14 3 15 1 16 2 17 106 18 94 19 95 20 107 21 108 22 113 23
REMARK SMILES IDX 109 24 112 25 110 26 111 27 96 28 97 29 105 30 98 31 104 32
REMARK SMILES IDX 99 33 100 34 101 35 102 36 103 37 9 38 10 39 19 41 20 42
REMARK SMILES IDX 21 43 22 44 23 45 24 46 25 47 26 48 27 49 28 50 29 51 93 52
REMARK SMILES IDX 30 53 92 54 31 55 32 56 33 57 86 58 34 59 91 60 85 61 87 62
REMARK SMILES IDX 35 63 90 64 84 65 83 66 36 68 70 69 49 70 69 71 50 72 53 73
REMARK SMILES IDX 68 74 88 75 51 76 52 77 67 79 89 80 54 81 37 82 38 83 47 84
REMARK SMILES IDX 39 85 40 86 46 87 48 88 41 89 42 90 43 91 44 92 45 93 71 94
REMARK SMILES IDX 72 95 81 96 73 97 74 98 80 99 82 100 75 101 76 102 77 103
REMARK SMILES IDX 78 104 79 105 55 106 56 107 65 108 57 109 58 110 64 111
REMARK SMILES IDX 66 112 59 113 60 114 61 115 62 116 63 117
REMARK H PARENT 7 13 10 40 87 67 53 78
REMARK Flexibility Score: inf
ROOT
ATOM      1  C   UNL A   1      49.538  40.406  32.560  1.00  0.00     0.188 C 
ENDROOT
BRANCH   1   2
ATOM      2  C   UNL A   1      50.883  39.856  32.989  1.00  0.00     0.188 C 
BRANCH   2   3
ATOM      3  O   UNL A   1      51.316  38.902  32.068  1.00  0.00    -0.376 OA
BRANCH   3   4
ATOM      4  C   UNL A   1      50.685  38.735  30.829  1.00  0.00     0.202 C 
BRANCH   4   5
ATOM      5  C   UNL A   1      50.659  37.439  30.067  1.00  0.00     0.261 C 
BRANCH   5   6
ATOM      6  O   UNL A   1      49.890  36.385  30.632  1.00  0.00    -0.462 OA
BRANCH   6   7
ATOM      7  C   UNL A   1      50.404  35.240  31.127  1.00  0.00     0.331 C 
ATOM      8  O   UNL A   1      51.325  34.552  30.675  1.00  0.00    -0.250 OA
BRANCH   7   9
ATOM      9  C   UNL A   1      49.539  34.793  32.258  1.00  0.00     0.218 C 
BRANCH   9  10
ATOM     10  N   UNL A   1      48.256  34.516  31.585  1.00  0.00    -0.341 N 
ATOM     11  C   UNL A   1      47.614  33.325  31.322  1.00  0.00     0.225 C 
ATOM     12  O   UNL A   1      46.585  33.425  30.640  1.00  0.00    -0.275 OA
ATOM     13  H   UNL A   1      47.777  35.317  31.272  1.00  0.00     0.164 HD
BRANCH  11  14
ATOM     14  C   UNL A   1      48.066  31.946  31.863  1.00  0.00     0.137 C 
BRANCH  14  15
ATOM     15  C   UNL A   1      47.396  30.650  31.365  1.00  0.00    -0.017 A 
ATOM     16  C   UNL A   1      48.150  30.525  28.919  1.00  0.00     0.065 C 
ATOM     17  C   UNL A   1      47.477  29.985  30.145  1.00  0.00     0.024 A 
ATOM     18  N   UNL A   1      46.881  28.691  30.266  1.00  0.00    -0.314 N 
ATOM     19  C   UNL A   1      46.440  29.896  32.121  1.00  0.00     0.033 A 
ATOM     20  C   UNL A   1      46.137  28.677  31.503  1.00  0.00     0.053 A 
BRANCH  18  21
ATOM     21  C   UNL A   1      47.205  27.527  29.432  1.00  0.00     0.046 A 
ATOM     22  C   UNL A   1      48.327  26.732  29.700  1.00  0.00     0.029 A 
ATOM     23  C   UNL A   1      46.543  27.307  28.199  1.00  0.00     0.029 A 
ATOM     24  C   UNL A   1      48.846  25.860  28.725  1.00  0.00     0.041 A 
ATOM     25  C   UNL A   1      47.069  26.447  27.222  1.00  0.00     0.041 A 
ATOM     26  C   UNL A   1      48.234  25.752  27.486  1.00  0.00     0.123 A 
ATOM     27  F   UNL A   1      48.782  24.993  26.530  1.00  0.00    -0.207 F 
ENDBRANCH  18  21
BRANCH  20  28
ATOM     28  C   UNL A   1      45.654  27.478  32.300  1.00  0.00    -0.001 A 
ATOM     29  C   UNL A   1      46.478  26.985  33.321  1.00  0.00     0.011 A 
ATOM     30  C   UNL A   1      44.389  26.881  32.234  1.00  0.00     0.011 A 
ATOM     31  C   UNL A   1      46.223  25.840  34.080  1.00  0.00     0.021 A 
ATOM     32  C   UNL A   1      44.055  25.770  33.072  1.00  0.00     0.021 A 
ATOM     33  C   UNL A   1      44.999  25.219  33.952  1.00  0.00     0.067 A 
BRANCH  33  34
ATOM     34  S   UNL A   1      44.628  23.903  35.101  1.00  0.00     0.175 S 
ATOM     35  C   UNL A   1      44.740  22.389  34.176  1.00  0.00     0.163 C 
ATOM     36  O   UNL A   1      45.690  23.900  36.087  1.00  0.00    -0.224 OA
ATOM     37  O   UNL A   1      43.243  24.071  35.518  1.00  0.00    -0.224 OA
ENDBRANCH  33  34
ENDBRANCH  20  28
ENDBRANCH  14  15
ENDBRANCH  11  14
ENDBRANCH   9  10
BRANCH   9  38
ATOM     38  C   UNL A   1      49.530  35.973  33.269  1.00  0.00     0.193 C 
BRANCH  38  39
ATOM     39  O   UNL A   1      50.096  35.574  34.522  1.00  0.00    -0.394 OA
ATOM     40  H   UNL A   1      50.352  36.363  35.026  1.00  0.00     0.210 HD
ENDBRANCH  38  39
ENDBRANCH   9  38
ENDBRANCH   7   9
ENDBRANCH   6   7
ENDBRANCH   5   6
ENDBRANCH   4   5
ENDBRANCH   3   4
ENDBRANCH   2   3
ENDBRANCH   1   2
BRANCH   1  41
ATOM     41  O   UNL A   1      48.495  40.485  33.527  1.00  0.00    -0.377 OA
BRANCH  41  42
ATOM     42  C   UNL A   1      47.606  41.600  33.685  1.00  0.00     0.188 C 
BRANCH  42  43
ATOM     43  C   UNL A   1      46.416  41.776  32.707  1.00  0.00     0.188 C 
BRANCH  43  44
ATOM     44  O   UNL A   1      45.316  42.563  33.142  1.00  0.00    -0.376 OA
BRANCH  44  45
ATOM     45  C   UNL A   1      44.059  42.184  32.635  1.00  0.00     0.202 C 
BRANCH  45  46
ATOM     46  C   UNL A   1      43.797  40.657  32.565  1.00  0.00     0.261 C 
BRANCH  46  47
ATOM     47  O   UNL A   1      43.048  39.957  31.518  1.00  0.00    -0.460 OA
BRANCH  47  48
ATOM     48  C   UNL A   1      43.687  39.523  30.390  1.00  0.00     0.338 C 
ATOM     49  O   UNL A   1      44.239  40.263  29.591  1.00  0.00    -0.246 OA
BRANCH  48  50
ATOM     50  C   UNL A   1      43.750  37.995  30.259  1.00  0.00     0.060 A 
ATOM     51  C   UNL A   1      43.352  37.403  29.072  1.00  0.00     0.016 A 
ATOM     52  C   UNL A   1      44.009  37.086  31.308  1.00  0.00     0.016 A 
ATOM     53  C   UNL A   1      43.273  35.972  28.944  1.00  0.00     0.010 A 
ATOM     54  C   UNL A   1      43.827  35.620  31.195  1.00  0.00     0.010 A 
ATOM     55  C   UNL A   1      43.435  34.986  30.002  1.00  0.00    -0.014 A 
BRANCH  55  56
ATOM     56  C   UNL A   1      42.767  33.463  29.761  1.00  0.00     0.031 A 
ATOM     57  C   UNL A   1      41.398  33.658  30.332  1.00  0.00     0.074 A 
ATOM     58  C   UNL A   1      43.025  32.124  29.378  1.00  0.00     0.049 A 
ATOM     59  N   UNL A   1      41.297  34.096  31.555  1.00  0.00    -0.248 NA
ATOM     60  C   UNL A   1      40.184  33.841  29.531  1.00  0.00     0.031 C 
ATOM     61  C   UNL A   1      44.313  31.519  28.986  1.00  0.00     0.029 A 
ATOM     62  N   UNL A   1      42.192  30.933  29.260  1.00  0.00    -0.354 N 
ATOM     63  C   UNL A   1      39.972  34.326  31.797  1.00  0.00     0.074 A 
ATOM     64  C   UNL A   1      39.374  34.360  30.464  1.00  0.00     0.031 C 
ATOM     65  C   UNL A   1      44.186  30.220  28.561  1.00  0.00     0.029 A 
ATOM     66  C   UNL A   1      42.806  29.733  28.670  1.00  0.00     0.049 A 
ATOM     67  H   UNL A   1      41.256  30.932  29.564  1.00  0.00     0.167 HD
ATOM     68  C   UNL A   1      39.500  33.743  32.937  1.00  0.00     0.037 A 
ATOM     69  C   UNL A   1      42.297  28.443  28.382  1.00  0.00     0.037 A 
ATOM     70  C   UNL A   1      38.860  32.489  32.642  1.00  0.00     0.049 A 
ATOM     71  C   UNL A   1      41.173  28.265  29.305  1.00  0.00     0.074 A 
ATOM     72  C   UNL A   1      37.981  32.104  31.648  1.00  0.00     0.029 A 
ATOM     73  N   UNL A   1      39.501  31.346  33.073  1.00  0.00    -0.354 N 
ATOM     74  N   UNL A   1      41.360  27.985  30.556  1.00  0.00    -0.248 NA
ATOM     75  C   UNL A   1      39.785  28.307  28.863  1.00  0.00     0.031 C 
ATOM     76  C   UNL A   1      38.540  30.913  31.143  1.00  0.00     0.029 A 
ATOM     77  C   UNL A   1      39.405  30.384  32.091  1.00  0.00     0.049 A 
ATOM     78  H   UNL A   1      39.953  31.234  33.940  1.00  0.00     0.167 HD
ATOM     79  C   UNL A   1      40.188  28.362  31.123  1.00  0.00     0.074 A 
ATOM     80  C   UNL A   1      39.200  28.280  30.061  1.00  0.00     0.031 C 
ATOM     81  C   UNL A   1      40.286  29.248  32.142  1.00  0.00     0.037 A 
BRANCH  68  82
ATOM     82  C   UNL A   1      40.376  33.980  34.144  1.00  0.00     0.058 A 
ATOM     83  C   UNL A   1      39.848  34.660  35.246  1.00  0.00     0.135 A 
ATOM     84  C   UNL A   1      41.753  33.660  34.186  1.00  0.00     0.135 A 
ATOM     85  F   UNL A   1      38.538  34.954  35.290  1.00  0.00    -0.206 F 
ATOM     86  C   UNL A   1      40.654  35.055  36.312  1.00  0.00     0.059 A 
ATOM     87  C   UNL A   1      42.588  34.099  35.206  1.00  0.00     0.059 A 
ATOM     88  F   UNL A   1      42.309  32.900  33.227  1.00  0.00    -0.206 F 
ATOM     89  C   UNL A   1      42.028  34.796  36.270  1.00  0.00     0.060 A 
BRANCH  89  90
ATOM     90  S   UNL A   1      43.068  35.391  37.620  1.00  0.00     0.124 S 
ATOM     91  O   UNL A   1      43.693  34.161  38.099  1.00  0.00    -0.237 OA
ATOM     92  O   UNL A   1      43.958  36.311  36.921  1.00  0.00    -0.237 OA
ATOM     93  O   UNL A   1      42.118  35.997  38.547  1.00  0.00    -0.744 OA
ENDBRANCH  89  90
ENDBRANCH  68  82
BRANCH  69  94
ATOM     94  C   UNL A   1      42.498  27.034  27.643  1.00  0.00     0.058 A 
ATOM     95  C   UNL A   1      43.082  25.894  28.321  1.00  0.00     0.135 A 
ATOM     96  C   UNL A   1      41.751  26.642  26.519  1.00  0.00     0.135 A 
ATOM     97  F   UNL A   1      43.874  26.054  29.391  1.00  0.00    -0.206 F 
ATOM     98  C   UNL A   1      42.833  24.533  28.007  1.00  0.00     0.059 A 
ATOM     99  C   UNL A   1      41.513  25.273  26.164  1.00  0.00     0.059 A 
ATOM    100  F   UNL A   1      41.142  27.575  25.773  1.00  0.00    -0.206 F 
ATOM    101  C   UNL A   1      42.011  24.223  26.941  1.00  0.00     0.060 A 
BRANCH 101 102
ATOM    102  S   UNL A   1      41.495  22.483  26.690  1.00  0.00     0.124 S 
ATOM    103  O   UNL A   1      42.114  21.793  27.816  1.00  0.00    -0.237 OA
ATOM    104  O   UNL A   1      40.038  22.575  26.732  1.00  0.00    -0.237 OA
ATOM    105  O   UNL A   1      42.046  22.153  25.378  1.00  0.00    -0.744 OA
ENDBRANCH 101 102
ENDBRANCH  69  94
BRANCH  81 106
ATOM    106  C   UNL A   1      41.394  29.011  33.156  1.00  0.00     0.058 A 
ATOM    107  C   UNL A   1      41.403  28.062  34.207  1.00  0.00     0.135 A 
ATOM    108  C   UNL A   1      42.485  29.894  33.120  1.00  0.00     0.135 A 
ATOM    109  F   UNL A   1      40.489  27.083  34.288  1.00  0.00    -0.206 F 
ATOM    110  C   UNL A   1      42.368  28.080  35.220  1.00  0.00     0.059 A 
ATOM    111  C   UNL A   1      43.488  29.892  34.087  1.00  0.00     0.059 A 
ATOM    112  F   UNL A   1      42.579  30.797  32.130  1.00  0.00    -0.206 F 
ATOM    113  C   UNL A   1      43.394  29.016  35.163  1.00  0.00     0.060 A 
BRANCH 113 114
ATOM    114  S   UNL A   1      44.593  29.097  36.512  1.00  0.00     0.124 S 
ATOM    115  O   UNL A   1      43.777  29.610  37.609  1.00  0.00    -0.237 OA
ATOM    116  O   UNL A   1      45.024  27.711  36.644  1.00  0.00    -0.237 OA
ATOM    117  O   UNL A   1      45.603  30.027  36.012  1.00  0.00    -0.744 OA
ENDBRANCH 113 114
ENDBRANCH  81 106
ENDBRANCH  55  56
ENDBRANCH  48  50
ENDBRANCH  47  48
ENDBRANCH  46  47
ENDBRANCH  45  46
ENDBRANCH  44  45
ENDBRANCH  43  44
ENDBRANCH  42  43
ENDBRANCH  41  42
ENDBRANCH   1  41
TORSDOF 31
ENDMDL
