MODEL 1
REMARK VINA RESULT:     -11.7      0.000      0.000
REMARK SMILES CCC(=O)N1CCC[C@](C[C@H]2CC(c3ccc(C)cc3)=NO2)(C(=O)OCCOCCOCCOCCOC(=O)c2ccc(-c3c4nc(c(-c5c(F)cc(S(=O)(=O)[O-])cc5F)c5ccc([nH]5)c(-c5c(F)cc(S(=O)(=O)[O-])cc5F)c5nc(c(-c6c(F)cc(S(=O)(=O)[O-])cc6F)c6ccc3[nH]6)C=C5)C=C4)cc2)C1
REMARK SMILES IDX 31 1 30 2 29 3 28 4 27 5 26 6 25 7 23 8 24 9 9 10 5 11 6 12
REMARK SMILES IDX 106 13 7 14 8 15 3 16 4 17 2 18 1 19 10 20 11 21 12 22 22 23
REMARK SMILES IDX 13 24 21 25 14 26 15 27 20 28 16 29 19 30 17 31 18 32 32 33
REMARK SMILES IDX 33 34 34 35 35 36 36 37 37 38 38 39 39 40 40 41 41 42 105 43
REMARK SMILES IDX 42 44 104 45 43 46 44 47 45 48 98 49 46 50 103 51 97 52
REMARK SMILES IDX 99 53 47 54 102 55 96 56 95 57 48 59 82 60 61 61 81 62 62 63
REMARK SMILES IDX 65 64 80 65 100 66 63 67 64 68 79 70 101 71 66 72 49 73
REMARK SMILES IDX 50 74 59 75 51 76 52 77 58 78 60 79 53 80 54 81 55 82 56 83
REMARK SMILES IDX 57 84 83 85 84 86 93 87 85 88 86 89 92 90 94 91 87 92 88 93
REMARK SMILES IDX 89 94 90 95 91 96 67 97 68 98 77 99 69 100 70 101 76 102
REMARK SMILES IDX 78 103 71 104 72 105 73 106 74 107 75 108
REMARK H PARENT 99 58 65 69
REMARK Flexibility Score: inf
ROOT
ATOM      1  O   UNL A   1      36.223  30.261  29.087  1.00  0.00    -0.377 OA
ENDROOT
BRANCH   1   2
ATOM      2  C   UNL A   1      35.475  31.215  28.302  1.00  0.00     0.188 C 
BRANCH   2   3
ATOM      3  C   UNL A   1      34.019  31.125  27.451  1.00  0.00     0.188 C 
BRANCH   3   4
ATOM      4  O   UNL A   1      32.592  30.114  27.406  1.00  0.00    -0.376 OA
BRANCH   4   5
ATOM      5  C   UNL A   1      32.240  28.394  27.198  1.00  0.00     0.202 C 
BRANCH   5   6
ATOM      6  C   UNL A   1      33.225  27.022  26.296  1.00  0.00     0.261 C 
BRANCH   6   7
ATOM      7  O   UNL A   1      32.761  25.291  26.014  1.00  0.00    -0.463 OA
BRANCH   7   8
ATOM      8  C   UNL A   1      32.612  24.280  24.997  1.00  0.00     0.314 C 
ATOM      9  O   UNL A   1      31.548  23.756  24.659  1.00  0.00    -0.252 OA
BRANCH   8  10
ATOM     10  C   UNL A   1      33.759  23.838  23.933  1.00  0.00     0.089 C 
ATOM     11  N   UNL A   1      34.171  21.698  25.255  1.00  0.00    -0.342 N 
ATOM     12  C   UNL A   1      35.410  22.207  25.834  1.00  0.00     0.119 C 
ATOM     13  C   UNL A   1      33.830  22.252  23.966  1.00  0.00     0.138 C 
ATOM     14  C   UNL A   1      35.623  23.714  25.658  1.00  0.00     0.023 C 
ATOM     15  C   UNL A   1      35.199  24.233  24.292  1.00  0.00     0.022 C 
BRANCH  11  16
ATOM     16  C   UNL A   1      33.546  20.604  25.836  1.00  0.00     0.222 C 
ATOM     17  O   UNL A   1      33.397  20.578  27.067  1.00  0.00    -0.275 OA
BRANCH  16  18
ATOM     18  C   UNL A   1      33.172  19.324  25.059  1.00  0.00     0.097 C 
ATOM     19  C   UNL A   1      34.175  18.373  24.429  1.00  0.00     0.014 C 
ENDBRANCH  16  18
ENDBRANCH  11  16
BRANCH  10  20
ATOM     20  C   UNL A   1      33.251  24.060  22.429  1.00  0.00     0.069 C 
BRANCH  20  21
ATOM     21  C   UNL A   1      33.130  25.445  21.746  1.00  0.00     0.212 C 
ATOM     22  C   UNL A   1      31.775  26.029  21.394  1.00  0.00     0.108 C 
ATOM     23  O   UNL A   1      33.823  26.450  22.501  1.00  0.00    -0.392 OA
ATOM     24  C   UNL A   1      31.790  27.222  22.285  1.00  0.00     0.091 C 
ATOM     25  N   UNL A   1      32.927  27.483  22.842  1.00  0.00    -0.090 NA
BRANCH  24  26
ATOM     26  C   UNL A   1      30.606  28.081  22.487  1.00  0.00    -0.001 A 
ATOM     27  C   UNL A   1      29.467  27.596  23.130  1.00  0.00     0.010 A 
ATOM     28  C   UNL A   1      30.679  29.426  22.112  1.00  0.00     0.010 A 
ATOM     29  C   UNL A   1      28.412  28.467  23.423  1.00  0.00     0.004 A 
ATOM     30  C   UNL A   1      29.614  30.287  22.385  1.00  0.00     0.004 A 
ATOM     31  C   UNL A   1      28.481  29.819  23.062  1.00  0.00    -0.051 A 
ATOM     32  C   UNL A   1      27.365  30.764  23.396  1.00  0.00     0.044 C 
ENDBRANCH  24  26
ENDBRANCH  20  21
ENDBRANCH  10  20
ENDBRANCH   8  10
ENDBRANCH   7   8
ENDBRANCH   6   7
ENDBRANCH   5   6
ENDBRANCH   4   5
ENDBRANCH   3   4
ENDBRANCH   2   3
ENDBRANCH   1   2
BRANCH   1  33
ATOM     33  C   UNL A   1      37.109  29.258  28.579  1.00  0.00     0.188 C 
BRANCH  33  34
ATOM     34  C   UNL A   1      38.405  29.739  27.979  1.00  0.00     0.188 C 
BRANCH  34  35
ATOM     35  O   UNL A   1      39.322  28.676  28.165  1.00  0.00    -0.376 OA
BRANCH  35  36
ATOM     36  C   UNL A   1      39.137  27.910  29.334  1.00  0.00     0.202 C 
BRANCH  36  37
ATOM     37  C   UNL A   1      39.238  26.412  29.052  1.00  0.00     0.261 C 
BRANCH  37  38
ATOM     38  O   UNL A   1      39.560  26.211  27.659  1.00  0.00    -0.460 OA
BRANCH  38  39
ATOM     39  C   UNL A   1      40.524  25.265  27.437  1.00  0.00     0.338 C 
ATOM     40  O   UNL A   1      40.309  24.060  27.443  1.00  0.00    -0.246 OA
BRANCH  39  41
ATOM     41  C   UNL A   1      41.866  25.898  27.589  1.00  0.00     0.060 A 
ATOM     42  C   UNL A   1      42.740  25.551  28.600  1.00  0.00     0.016 A 
ATOM     43  C   UNL A   1      42.168  27.060  26.945  1.00  0.00     0.016 A 
ATOM     44  C   UNL A   1      43.549  26.538  29.225  1.00  0.00     0.010 A 
ATOM     45  C   UNL A   1      42.973  27.989  27.625  1.00  0.00     0.010 A 
ATOM     46  C   UNL A   1      43.373  27.909  29.014  1.00  0.00    -0.014 A 
BRANCH  46  47
ATOM     47  C   UNL A   1      43.586  29.206  30.329  1.00  0.00     0.031 A 
ATOM     48  C   UNL A   1      42.148  30.247  31.198  1.00  0.00     0.074 A 
ATOM     49  C   UNL A   1      44.976  29.487  30.344  1.00  0.00     0.049 A 
ATOM     50  N   UNL A   1      41.791  31.484  30.718  1.00  0.00    -0.248 NA
ATOM     51  C   UNL A   1      40.756  29.984  31.931  1.00  0.00     0.031 C 
ATOM     52  C   UNL A   1      45.858  30.325  31.144  1.00  0.00     0.029 A 
ATOM     53  N   UNL A   1      45.877  29.308  29.271  1.00  0.00    -0.354 N 
ATOM     54  C   UNL A   1      40.580  32.050  30.988  1.00  0.00     0.074 A 
ATOM     55  C   UNL A   1      39.900  30.990  31.629  1.00  0.00     0.031 C 
ATOM     56  C   UNL A   1      46.735  31.010  30.402  1.00  0.00     0.029 A 
ATOM     57  C   UNL A   1      46.659  30.448  29.105  1.00  0.00     0.049 A 
ATOM     58  H   UNL A   1      45.943  28.495  28.719  1.00  0.00     0.167 HD
ATOM     59  C   UNL A   1      40.249  33.356  30.703  1.00  0.00     0.037 A 
ATOM     60  C   UNL A   1      47.093  31.013  27.965  1.00  0.00     0.037 A 
ATOM     61  C   UNL A   1      41.410  34.226  30.459  1.00  0.00     0.049 A 
ATOM     62  C   UNL A   1      46.652  32.475  27.918  1.00  0.00     0.074 A 
ATOM     63  C   UNL A   1      42.169  34.895  31.399  1.00  0.00     0.029 A 
ATOM     64  N   UNL A   1      42.116  34.372  29.254  1.00  0.00    -0.354 N 
ATOM     65  N   UNL A   1      45.501  32.951  28.356  1.00  0.00    -0.248 NA
ATOM     66  C   UNL A   1      47.567  33.538  27.515  1.00  0.00     0.031 C 
ATOM     67  C   UNL A   1      43.430  35.164  30.849  1.00  0.00     0.029 A 
ATOM     68  C   UNL A   1      43.425  34.824  29.506  1.00  0.00     0.049 A 
ATOM     69  H   UNL A   1      41.748  34.184  28.362  1.00  0.00     0.167 HD
ATOM     70  C   UNL A   1      45.480  34.332  28.225  1.00  0.00     0.074 A 
ATOM     71  C   UNL A   1      46.826  34.635  27.742  1.00  0.00     0.031 C 
ATOM     72  C   UNL A   1      44.439  35.196  28.511  1.00  0.00     0.037 A 
BRANCH  59  73
ATOM     73  C   UNL A   1      38.892  33.835  31.199  1.00  0.00     0.058 A 
ATOM     74  C   UNL A   1      38.671  34.266  32.522  1.00  0.00     0.135 A 
ATOM     75  C   UNL A   1      37.730  33.685  30.411  1.00  0.00     0.135 A 
ATOM     76  F   UNL A   1      39.687  34.528  33.352  1.00  0.00    -0.206 F 
ATOM     77  C   UNL A   1      37.392  34.374  33.077  1.00  0.00     0.059 A 
ATOM     78  C   UNL A   1      36.437  33.781  30.947  1.00  0.00     0.059 A 
ATOM     79  F   UNL A   1      37.837  33.353  29.114  1.00  0.00    -0.206 F 
ATOM     80  C   UNL A   1      36.280  34.075  32.298  1.00  0.00     0.060 A 
BRANCH  80  81
ATOM     81  S   UNL A   1      34.665  33.963  33.108  1.00  0.00     0.124 S 
ATOM     82  O   UNL A   1      33.964  33.000  32.262  1.00  0.00    -0.237 OA
ATOM     83  O   UNL A   1      35.014  33.494  34.445  1.00  0.00    -0.237 OA
ATOM     84  O   UNL A   1      34.152  35.329  33.038  1.00  0.00    -0.744 OA
ENDBRANCH  80  81
ENDBRANCH  59  73
BRANCH  60  85
ATOM     85  C   UNL A   1      47.421  29.977  26.943  1.00  0.00     0.058 A 
ATOM     86  C   UNL A   1      48.738  29.432  27.018  1.00  0.00     0.135 A 
ATOM     87  C   UNL A   1      46.505  29.261  26.171  1.00  0.00     0.135 A 
ATOM     88  F   UNL A   1      49.681  30.065  27.740  1.00  0.00    -0.206 F 
ATOM     89  C   UNL A   1      49.084  28.191  26.490  1.00  0.00     0.059 A 
ATOM     90  C   UNL A   1      46.844  28.018  25.594  1.00  0.00     0.059 A 
ATOM     91  F   UNL A   1      45.246  29.700  26.046  1.00  0.00    -0.206 F 
ATOM     92  C   UNL A   1      48.122  27.475  25.793  1.00  0.00     0.060 A 
BRANCH  92  93
ATOM     93  S   UNL A   1      48.585  25.845  25.133  1.00  0.00     0.124 S 
ATOM     94  O   UNL A   1      50.041  25.928  25.093  1.00  0.00    -0.237 OA
ATOM     95  O   UNL A   1      48.047  24.940  26.138  1.00  0.00    -0.237 OA
ATOM     96  O   UNL A   1      47.920  25.814  23.836  1.00  0.00    -0.744 OA
ENDBRANCH  92  93
ENDBRANCH  60  85
BRANCH  72  97
ATOM     97  C   UNL A   1      44.414  36.660  28.050  1.00  0.00     0.058 A 
ATOM     98  C   UNL A   1      43.469  37.151  27.132  1.00  0.00     0.135 A 
ATOM     99  C   UNL A   1      45.224  37.661  28.657  1.00  0.00     0.135 A 
ATOM    100  F   UNL A   1      42.581  36.335  26.546  1.00  0.00    -0.206 F 
ATOM    101  C   UNL A   1      43.361  38.507  26.813  1.00  0.00     0.059 A 
ATOM    102  C   UNL A   1      45.097  39.019  28.393  1.00  0.00     0.059 A 
ATOM    103  F   UNL A   1      46.171  37.381  29.558  1.00  0.00    -0.206 F 
ATOM    104  C   UNL A   1      44.167  39.436  27.462  1.00  0.00     0.060 A 
BRANCH 104 105
ATOM    105  S   UNL A   1      43.930  41.197  27.184  1.00  0.00     0.124 S 
ATOM    106  O   UNL A   1      45.179  41.558  26.521  1.00  0.00    -0.237 OA
ATOM    107  O   UNL A   1      42.737  41.230  26.344  1.00  0.00    -0.237 OA
ATOM    108  O   UNL A   1      43.751  41.727  28.532  1.00  0.00    -0.744 OA
ENDBRANCH 104 105
ENDBRANCH  72  97
ENDBRANCH  46  47
ENDBRANCH  39  41
ENDBRANCH  38  39
ENDBRANCH  37  38
ENDBRANCH  36  37
ENDBRANCH  35  36
ENDBRANCH  34  35
ENDBRANCH  33  34
ENDBRANCH   1  33
TORSDOF 28
ENDMDL
MODEL 2
REMARK VINA RESULT:     -11.0      1.239      4.191
REMARK SMILES CCC(=O)N1CCC[C@](C[C@H]2CC(c3ccc(C)cc3)=NO2)(C(=O)OCCOCCOCCOCCOC(=O)c2ccc(-c3c4nc(c(-c5c(F)cc(S(=O)(=O)[O-])cc5F)c5ccc([nH]5)c(-c5c(F)cc(S(=O)(=O)[O-])cc5F)c5nc(c(-c6c(F)cc(S(=O)(=O)[O-])cc6F)c6ccc3[nH]6)C=C5)C=C4)cc2)C1
REMARK SMILES IDX 31 1 30 2 29 3 28 4 27 5 26 6 25 7 23 8 24 9 9 10 5 11 6 12
REMARK SMILES IDX 106 13 7 14 8 15 3 16 4 17 2 18 1 19 10 20 11 21 12 22 22 23
REMARK SMILES IDX 13 24 21 25 14 26 15 27 20 28 16 29 19 30 17 31 18 32 32 33
REMARK SMILES IDX 33 34 34 35 35 36 36 37 37 38 38 39 39 40 40 41 41 42 105 43
REMARK SMILES IDX 42 44 104 45 43 46 44 47 45 48 98 49 46 50 103 51 97 52
REMARK SMILES IDX 99 53 47 54 102 55 96 56 95 57 48 59 82 60 61 61 81 62 62 63
REMARK SMILES IDX 65 64 80 65 100 66 63 67 64 68 79 70 101 71 66 72 49 73
REMARK SMILES IDX 50 74 59 75 51 76 52 77 58 78 60 79 53 80 54 81 55 82 56 83
REMARK SMILES IDX 57 84 83 85 84 86 93 87 85 88 86 89 92 90 94 91 87 92 88 93
REMARK SMILES IDX 89 94 90 95 91 96 67 97 68 98 77 99 69 100 70 101 76 102
REMARK SMILES IDX 78 103 71 104 72 105 73 106 74 107 75 108
REMARK H PARENT 99 58 65 69
REMARK Flexibility Score: inf
ROOT
ATOM      1  O   UNL A   1      36.091  31.091  29.839  1.00  0.00    -0.377 OA
ENDROOT
BRANCH   1   2
ATOM      2  C   UNL A   1      35.211  31.969  29.104  1.00  0.00     0.188 C 
BRANCH   2   3
ATOM      3  C   UNL A   1      34.008  31.700  27.951  1.00  0.00     0.188 C 
BRANCH   3   4
ATOM      4  O   UNL A   1      33.504  30.427  26.860  1.00  0.00    -0.376 OA
BRANCH   4   5
ATOM      5  C   UNL A   1      34.254  29.029  26.080  1.00  0.00     0.202 C 
BRANCH   5   6
ATOM      6  C   UNL A   1      34.078  28.356  24.296  1.00  0.00     0.261 C 
BRANCH   6   7
ATOM      7  O   UNL A   1      33.761  26.655  23.752  1.00  0.00    -0.463 OA
BRANCH   7   8
ATOM      8  C   UNL A   1      32.759  25.784  23.187  1.00  0.00     0.314 C 
ATOM      9  O   UNL A   1      32.754  25.353  22.032  1.00  0.00    -0.252 OA
BRANCH   8  10
ATOM     10  C   UNL A   1      31.609  25.002  24.028  1.00  0.00     0.089 C 
ATOM     11  N   UNL A   1      30.296  27.173  24.267  1.00  0.00    -0.342 N 
ATOM     12  C   UNL A   1      30.694  27.347  25.661  1.00  0.00     0.119 C 
ATOM     13  C   UNL A   1      30.256  25.804  23.812  1.00  0.00     0.138 C 
ATOM     14  C   UNL A   1      31.844  26.440  26.112  1.00  0.00     0.023 C 
ATOM     15  C   UNL A   1      31.758  25.026  25.557  1.00  0.00     0.022 C 
BRANCH  11  16
ATOM     16  C   UNL A   1      29.786  28.256  23.564  1.00  0.00     0.222 C 
ATOM     17  O   UNL A   1      30.445  29.306  23.512  1.00  0.00    -0.275 OA
BRANCH  16  18
ATOM     18  C   UNL A   1      28.359  28.295  22.978  1.00  0.00     0.097 C 
ATOM     19  C   UNL A   1      27.383  29.445  23.161  1.00  0.00     0.014 C 
ENDBRANCH  16  18
ENDBRANCH  11  16
BRANCH  10  20
ATOM     20  C   UNL A   1      31.228  23.618  23.313  1.00  0.00     0.069 C 
BRANCH  20  21
ATOM     21  C   UNL A   1      32.032  22.304  23.473  1.00  0.00     0.212 C 
ATOM     22  C   UNL A   1      33.515  22.252  23.160  1.00  0.00     0.108 C 
ATOM     23  O   UNL A   1      31.875  21.765  24.793  1.00  0.00    -0.392 OA
ATOM     24  C   UNL A   1      34.035  21.943  24.521  1.00  0.00     0.091 C 
ATOM     25  N   UNL A   1      33.141  21.620  25.395  1.00  0.00    -0.090 NA
BRANCH  24  26
ATOM     26  C   UNL A   1      35.476  21.955  24.845  1.00  0.00    -0.001 A 
ATOM     27  C   UNL A   1      36.099  23.113  25.313  1.00  0.00     0.010 A 
ATOM     28  C   UNL A   1      36.192  20.756  24.773  1.00  0.00     0.010 A 
ATOM     29  C   UNL A   1      37.432  23.062  25.735  1.00  0.00     0.004 A 
ATOM     30  C   UNL A   1      37.530  20.715  25.172  1.00  0.00     0.004 A 
ATOM     31  C   UNL A   1      38.153  21.862  25.677  1.00  0.00    -0.051 A 
ATOM     32  C   UNL A   1      39.574  21.795  26.152  1.00  0.00     0.044 C 
ENDBRANCH  24  26
ENDBRANCH  20  21
ENDBRANCH  10  20
ENDBRANCH   8  10
ENDBRANCH   7   8
ENDBRANCH   6   7
ENDBRANCH   5   6
ENDBRANCH   4   5
ENDBRANCH   3   4
ENDBRANCH   2   3
ENDBRANCH   1   2
BRANCH   1  33
ATOM     33  C   UNL A   1      36.615  29.840  29.379  1.00  0.00     0.188 C 
BRANCH  33  34
ATOM     34  C   UNL A   1      37.515  29.885  28.171  1.00  0.00     0.188 C 
BRANCH  34  35
ATOM     35  O   UNL A   1      38.652  29.117  28.521  1.00  0.00    -0.376 OA
BRANCH  35  36
ATOM     36  C   UNL A   1      38.522  28.331  29.684  1.00  0.00     0.202 C 
BRANCH  36  37
ATOM     37  C   UNL A   1      39.186  26.965  29.523  1.00  0.00     0.261 C 
BRANCH  37  38
ATOM     38  O   UNL A   1      39.702  26.842  28.180  1.00  0.00    -0.460 OA
BRANCH  38  39
ATOM     39  C   UNL A   1      40.560  25.790  28.003  1.00  0.00     0.338 C 
ATOM     40  O   UNL A   1      40.212  24.617  28.034  1.00  0.00    -0.246 OA
BRANCH  39  41
ATOM     41  C   UNL A   1      41.960  26.274  28.170  1.00  0.00     0.060 A 
ATOM     42  C   UNL A   1      42.753  25.901  29.236  1.00  0.00     0.016 A 
ATOM     43  C   UNL A   1      42.418  27.346  27.464  1.00  0.00     0.016 A 
ATOM     44  C   UNL A   1      43.650  26.830  29.829  1.00  0.00     0.010 A 
ATOM     45  C   UNL A   1      43.303  28.222  28.114  1.00  0.00     0.010 A 
ATOM     46  C   UNL A   1      43.643  28.195  29.521  1.00  0.00    -0.014 A 
BRANCH  46  47
ATOM     47  C   UNL A   1      43.962  29.548  30.755  1.00  0.00     0.031 A 
ATOM     48  C   UNL A   1      42.598  30.592  31.735  1.00  0.00     0.074 A 
ATOM     49  C   UNL A   1      45.337  29.859  30.611  1.00  0.00     0.049 A 
ATOM     50  N   UNL A   1      42.160  31.800  31.250  1.00  0.00    -0.248 NA
ATOM     51  C   UNL A   1      41.299  30.328  32.622  1.00  0.00     0.031 C 
ATOM     52  C   UNL A   1      46.278  30.747  31.279  1.00  0.00     0.029 A 
ATOM     53  N   UNL A   1      46.123  29.657  29.454  1.00  0.00    -0.354 N 
ATOM     54  C   UNL A   1      40.970  32.351  31.627  1.00  0.00     0.074 A 
ATOM     55  C   UNL A   1      40.390  31.302  32.376  1.00  0.00     0.031 C 
ATOM     56  C   UNL A   1      47.053  31.421  30.422  1.00  0.00     0.029 A 
ATOM     57  C   UNL A   1      46.853  30.806  29.163  1.00  0.00     0.049 A 
ATOM     58  H   UNL A   1      46.150  28.823  28.930  1.00  0.00     0.167 HD
ATOM     59  C   UNL A   1      40.578  33.636  31.330  1.00  0.00     0.037 A 
ATOM     60  C   UNL A   1      47.148  31.333  27.962  1.00  0.00     0.037 A 
ATOM     61  C   UNL A   1      41.683  34.521  30.930  1.00  0.00     0.049 A 
ATOM     62  C   UNL A   1      46.667  32.783  27.908  1.00  0.00     0.074 A 
ATOM     63  C   UNL A   1      42.520  35.244  31.757  1.00  0.00     0.029 A 
ATOM     64  N   UNL A   1      42.253  34.633  29.652  1.00  0.00    -0.354 N 
ATOM     65  N   UNL A   1      45.558  33.252  28.449  1.00  0.00    -0.248 NA
ATOM     66  C   UNL A   1      47.507  33.848  27.369  1.00  0.00     0.031 C 
ATOM     67  C   UNL A   1      43.708  35.517  31.065  1.00  0.00     0.029 A 
ATOM     68  C   UNL A   1      43.569  35.124  29.745  1.00  0.00     0.049 A 
ATOM     69  H   UNL A   1      41.797  34.402  28.812  1.00  0.00     0.167 HD
ATOM     70  C   UNL A   1      45.487  34.625  28.269  1.00  0.00     0.074 A 
ATOM     71  C   UNL A   1      46.766  34.938  27.633  1.00  0.00     0.031 C 
ATOM     72  C   UNL A   1      44.461  35.477  28.633  1.00  0.00     0.037 A 
BRANCH  59  73
ATOM     73  C   UNL A   1      39.269  34.106  31.951  1.00  0.00     0.058 A 
ATOM     74  C   UNL A   1      39.175  34.562  33.281  1.00  0.00     0.135 A 
ATOM     75  C   UNL A   1      38.037  33.921  31.288  1.00  0.00     0.135 A 
ATOM     76  F   UNL A   1      40.265  34.857  33.998  1.00  0.00    -0.206 F 
ATOM     77  C   UNL A   1      37.956  34.663  33.960  1.00  0.00     0.059 A 
ATOM     78  C   UNL A   1      36.802  34.009  31.949  1.00  0.00     0.059 A 
ATOM     79  F   UNL A   1      38.019  33.563  29.994  1.00  0.00    -0.206 F 
ATOM     80  C   UNL A   1      36.778  34.330  33.303  1.00  0.00     0.060 A 
BRANCH  80  81
ATOM     81  S   UNL A   1      35.254  34.211  34.274  1.00  0.00     0.124 S 
ATOM     82  O   UNL A   1      34.431  33.333  33.447  1.00  0.00    -0.237 OA
ATOM     83  O   UNL A   1      35.724  33.638  35.531  1.00  0.00    -0.237 OA
ATOM     84  O   UNL A   1      34.789  35.594  34.352  1.00  0.00    -0.744 OA
ENDBRANCH  80  81
ENDBRANCH  59  73
BRANCH  60  85
ATOM     85  C   UNL A   1      47.392  30.265  26.950  1.00  0.00     0.058 A 
ATOM     86  C   UNL A   1      48.694  29.681  26.972  1.00  0.00     0.135 A 
ATOM     87  C   UNL A   1      46.416  29.560  26.244  1.00  0.00     0.135 A 
ATOM     88  F   UNL A   1      49.692  30.300  27.629  1.00  0.00    -0.206 F 
ATOM     89  C   UNL A   1      48.975  28.418  26.457  1.00  0.00     0.059 A 
ATOM     90  C   UNL A   1      46.688  28.295  25.681  1.00  0.00     0.059 A 
ATOM     91  F   UNL A   1      45.166  30.036  26.172  1.00  0.00    -0.206 F 
ATOM     92  C   UNL A   1      47.957  27.716  25.828  1.00  0.00     0.060 A 
BRANCH  92  93
ATOM     93  S   UNL A   1      48.337  26.058  25.185  1.00  0.00     0.124 S 
ATOM     94  O   UNL A   1      47.760  26.105  23.845  1.00  0.00    -0.237 OA
ATOM     95  O   UNL A   1      49.792  26.034  25.230  1.00  0.00    -0.237 OA
ATOM     96  O   UNL A   1      47.662  25.176  26.130  1.00  0.00    -0.744 OA
ENDBRANCH  92  93
ENDBRANCH  60  85
BRANCH  72  97
ATOM     97  C   UNL A   1      44.349  36.921  28.123  1.00  0.00     0.058 A 
ATOM     98  C   UNL A   1      45.321  37.899  28.392  1.00  0.00     0.135 A 
ATOM     99  C   UNL A   1      43.350  37.320  27.191  1.00  0.00     0.135 A 
ATOM    100  F   UNL A   1      46.370  37.637  29.185  1.00  0.00    -0.206 F 
ATOM    101  C   UNL A   1      45.287  39.174  27.820  1.00  0.00     0.059 A 
ATOM    102  C   UNL A   1      43.328  38.563  26.571  1.00  0.00     0.059 A 
ATOM    103  F   UNL A   1      42.350  36.519  26.811  1.00  0.00    -0.206 F 
ATOM    104  C   UNL A   1      44.297  39.491  26.896  1.00  0.00     0.060 A 
BRANCH 104 105
ATOM    105  S   UNL A   1      44.333  41.067  26.030  1.00  0.00     0.124 S 
ATOM    106  O   UNL A   1      45.302  40.796  24.973  1.00  0.00    -0.237 OA
ATOM    107  O   UNL A   1      42.949  41.223  25.593  1.00  0.00    -0.237 OA
ATOM    108  O   UNL A   1      44.766  42.005  27.061  1.00  0.00    -0.744 OA
ENDBRANCH 104 105
ENDBRANCH  72  97
ENDBRANCH  46  47
ENDBRANCH  39  41
ENDBRANCH  38  39
ENDBRANCH  37  38
ENDBRANCH  36  37
ENDBRANCH  35  36
ENDBRANCH  34  35
ENDBRANCH  33  34
ENDBRANCH   1  33
TORSDOF 28
ENDMDL
MODEL 3
REMARK VINA RESULT:     -10.1      2.768      5.270
REMARK SMILES CCC(=O)N1CCC[C@](C[C@H]2CC(c3ccc(C)cc3)=NO2)(C(=O)OCCOCCOCCOCCOC(=O)c2ccc(-c3c4nc(c(-c5c(F)cc(S(=O)(=O)[O-])cc5F)c5ccc([nH]5)c(-c5c(F)cc(S(=O)(=O)[O-])cc5F)c5nc(c(-c6c(F)cc(S(=O)(=O)[O-])cc6F)c6ccc3[nH]6)C=C5)C=C4)cc2)C1
REMARK SMILES IDX 31 1 30 2 29 3 28 4 27 5 26 6 25 7 23 8 24 9 9 10 5 11 6 12
REMARK SMILES IDX 106 13 7 14 8 15 3 16 4 17 2 18 1 19 10 20 11 21 12 22 22 23
REMARK SMILES IDX 13 24 21 25 14 26 15 27 20 28 16 29 19 30 17 31 18 32 32 33
REMARK SMILES IDX 33 34 34 35 35 36 36 37 37 38 38 39 39 40 40 41 41 42 105 43
REMARK SMILES IDX 42 44 104 45 43 46 44 47 45 48 98 49 46 50 103 51 97 52
REMARK SMILES IDX 99 53 47 54 102 55 96 56 95 57 48 59 82 60 61 61 81 62 62 63
REMARK SMILES IDX 65 64 80 65 100 66 63 67 64 68 79 70 101 71 66 72 49 73
REMARK SMILES IDX 50 74 59 75 51 76 52 77 58 78 60 79 53 80 54 81 55 82 56 83
REMARK SMILES IDX 57 84 83 85 84 86 93 87 85 88 86 89 92 90 94 91 87 92 88 93
REMARK SMILES IDX 89 94 90 95 91 96 67 97 68 98 77 99 69 100 70 101 76 102
REMARK SMILES IDX 78 103 71 104 72 105 73 106 74 107 75 108
REMARK H PARENT 99 58 65 69
REMARK Flexibility Score: inf
ROOT
ATOM      1  O   UNL A   1      35.182  31.728  29.514  1.00  0.00    -0.377 OA
ENDROOT
BRANCH   1   2
ATOM      2  C   UNL A   1      34.305  32.320  28.530  1.00  0.00     0.188 C 
BRANCH   2   3
ATOM      3  C   UNL A   1      33.151  31.682  27.476  1.00  0.00     0.188 C 
BRANCH   3   4
ATOM      4  O   UNL A   1      32.970  30.300  26.418  1.00  0.00    -0.376 OA
BRANCH   4   5
ATOM      5  C   UNL A   1      33.978  28.951  25.879  1.00  0.00     0.202 C 
BRANCH   5   6
ATOM      6  C   UNL A   1      34.107  28.100  24.169  1.00  0.00     0.261 C 
BRANCH   6   7
ATOM      7  O   UNL A   1      33.772  26.371  23.733  1.00  0.00    -0.463 OA
BRANCH   7   8
ATOM      8  C   UNL A   1      32.809  25.496  23.112  1.00  0.00     0.314 C 
ATOM      9  O   UNL A   1      32.863  25.078  21.954  1.00  0.00    -0.252 OA
BRANCH   8  10
ATOM     10  C   UNL A   1      31.628  24.693  23.890  1.00  0.00     0.089 C 
ATOM     11  N   UNL A   1      30.154  26.772  23.814  1.00  0.00    -0.342 N 
ATOM     12  C   UNL A   1      30.384  27.077  25.223  1.00  0.00     0.119 C 
ATOM     13  C   UNL A   1      30.256  25.374  23.469  1.00  0.00     0.138 C 
ATOM     14  C   UNL A   1      31.536  26.295  25.864  1.00  0.00     0.023 C 
ATOM     15  C   UNL A   1      31.607  24.841  25.418  1.00  0.00     0.022 C 
BRANCH  11  16
ATOM     16  C   UNL A   1      29.654  27.759  22.977  1.00  0.00     0.222 C 
ATOM     17  O   UNL A   1      30.306  28.088  21.975  1.00  0.00    -0.275 OA
BRANCH  16  18
ATOM     18  C   UNL A   1      28.404  28.603  23.307  1.00  0.00     0.097 C 
ATOM     19  C   UNL A   1      27.798  29.645  22.382  1.00  0.00     0.014 C 
ENDBRANCH  16  18
ENDBRANCH  11  16
BRANCH  10  20
ATOM     20  C   UNL A   1      31.420  23.237  23.253  1.00  0.00     0.069 C 
BRANCH  20  21
ATOM     21  C   UNL A   1      32.315  22.012  23.570  1.00  0.00     0.212 C 
ATOM     22  C   UNL A   1      33.822  22.084  23.416  1.00  0.00     0.108 C 
ATOM     23  O   UNL A   1      32.062  21.524  24.895  1.00  0.00    -0.392 OA
ATOM     24  C   UNL A   1      34.216  21.888  24.839  1.00  0.00     0.091 C 
ATOM     25  N   UNL A   1      33.263  21.525  25.633  1.00  0.00    -0.090 NA
BRANCH  24  26
ATOM     26  C   UNL A   1      35.606  22.050  25.310  1.00  0.00    -0.001 A 
ATOM     27  C   UNL A   1      36.542  21.026  25.155  1.00  0.00     0.010 A 
ATOM     28  C   UNL A   1      36.002  23.287  25.828  1.00  0.00     0.010 A 
ATOM     29  C   UNL A   1      37.881  21.253  25.491  1.00  0.00     0.004 A 
ATOM     30  C   UNL A   1      37.335  23.502  26.185  1.00  0.00     0.004 A 
ATOM     31  C   UNL A   1      38.288  22.494  25.998  1.00  0.00    -0.051 A 
ATOM     32  C   UNL A   1      39.727  22.753  26.337  1.00  0.00     0.044 C 
ENDBRANCH  24  26
ENDBRANCH  20  21
ENDBRANCH  10  20
ENDBRANCH   8  10
ENDBRANCH   7   8
ENDBRANCH   6   7
ENDBRANCH   5   6
ENDBRANCH   4   5
ENDBRANCH   3   4
ENDBRANCH   2   3
ENDBRANCH   1   2
BRANCH   1  33
ATOM     33  C   UNL A   1      36.166  30.717  29.271  1.00  0.00     0.188 C 
BRANCH  33  34
ATOM     34  C   UNL A   1      37.515  31.187  28.787  1.00  0.00     0.188 C 
BRANCH  34  35
ATOM     35  O   UNL A   1      38.384  30.085  28.971  1.00  0.00    -0.376 OA
BRANCH  35  36
ATOM     36  C   UNL A   1      37.984  28.884  28.351  1.00  0.00     0.202 C 
BRANCH  36  37
ATOM     37  C   UNL A   1      39.098  27.839  28.366  1.00  0.00     0.261 C 
BRANCH  37  38
ATOM     38  O   UNL A   1      39.981  28.068  27.247  1.00  0.00    -0.460 OA
BRANCH  38  39
ATOM     39  C   UNL A   1      40.979  27.140  27.120  1.00  0.00     0.338 C 
ATOM     40  O   UNL A   1      40.834  26.058  26.567  1.00  0.00    -0.246 OA
BRANCH  39  41
ATOM     41  C   UNL A   1      42.076  27.477  28.071  1.00  0.00     0.060 A 
ATOM     42  C   UNL A   1      42.376  26.695  29.167  1.00  0.00     0.016 A 
ATOM     43  C   UNL A   1      42.626  28.724  28.091  1.00  0.00     0.016 A 
ATOM     44  C   UNL A   1      42.774  27.292  30.394  1.00  0.00     0.010 A 
ATOM     45  C   UNL A   1      42.996  29.251  29.340  1.00  0.00     0.010 A 
ATOM     46  C   UNL A   1      42.694  28.668  30.630  1.00  0.00    -0.014 A 
BRANCH  46  47
ATOM     47  C   UNL A   1      42.236  29.425  32.265  1.00  0.00     0.031 A 
ATOM     48  C   UNL A   1      40.493  30.227  32.743  1.00  0.00     0.074 A 
ATOM     49  C   UNL A   1      43.464  29.568  32.959  1.00  0.00     0.049 A 
ATOM     50  N   UNL A   1      40.284  31.578  32.608  1.00  0.00    -0.248 NA
ATOM     51  C   UNL A   1      38.945  29.848  32.683  1.00  0.00     0.031 C 
ATOM     52  C   UNL A   1      43.861  30.012  34.287  1.00  0.00     0.029 A 
ATOM     53  N   UNL A   1      44.745  29.687  32.375  1.00  0.00    -0.354 N 
ATOM     54  C   UNL A   1      39.035  32.119  32.517  1.00  0.00     0.074 A 
ATOM     55  C   UNL A   1      38.227  30.964  32.410  1.00  0.00     0.031 C 
ATOM     56  C   UNL A   1      44.918  30.832  34.265  1.00  0.00     0.029 A 
ATOM     57  C   UNL A   1      45.438  30.748  32.952  1.00  0.00     0.049 A 
ATOM     58  H   UNL A   1      45.096  29.104  31.663  1.00  0.00     0.167 HD
ATOM     59  C   UNL A   1      38.763  33.467  32.580  1.00  0.00     0.037 A 
ATOM     60  C   UNL A   1      46.272  31.625  32.367  1.00  0.00     0.037 A 
ATOM     61  C   UNL A   1      39.851  34.269  33.159  1.00  0.00     0.049 A 
ATOM     62  C   UNL A   1      45.787  33.050  32.637  1.00  0.00     0.074 A 
ATOM     63  C   UNL A   1      40.090  34.518  34.497  1.00  0.00     0.029 A 
ATOM     64  N   UNL A   1      40.989  34.753  32.493  1.00  0.00    -0.354 N 
ATOM     65  N   UNL A   1      44.529  33.444  32.683  1.00  0.00    -0.248 NA
ATOM     66  C   UNL A   1      46.708  34.106  33.044  1.00  0.00     0.031 C 
ATOM     67  C   UNL A   1      41.443  34.851  34.656  1.00  0.00     0.029 A 
ATOM     68  C   UNL A   1      42.031  34.985  33.410  1.00  0.00     0.049 A 
ATOM     69  H   UNL A   1      41.048  34.908  31.523  1.00  0.00     0.167 HD
ATOM     70  C   UNL A   1      44.465  34.785  33.031  1.00  0.00     0.074 A 
ATOM     71  C   UNL A   1      45.863  35.120  33.295  1.00  0.00     0.031 C 
ATOM     72  C   UNL A   1      43.341  35.585  33.126  1.00  0.00     0.037 A 
BRANCH  59  73
ATOM     73  C   UNL A   1      37.292  33.861  32.588  1.00  0.00     0.058 A 
ATOM     74  C   UNL A   1      36.597  34.237  31.420  1.00  0.00     0.135 A 
ATOM     75  C   UNL A   1      36.595  34.065  33.797  1.00  0.00     0.135 A 
ATOM     76  F   UNL A   1      37.107  34.022  30.203  1.00  0.00    -0.206 F 
ATOM     77  C   UNL A   1      35.377  34.920  31.456  1.00  0.00     0.059 A 
ATOM     78  C   UNL A   1      35.375  34.756  33.859  1.00  0.00     0.059 A 
ATOM     79  F   UNL A   1      37.139  33.670  34.960  1.00  0.00    -0.206 F 
ATOM     80  C   UNL A   1      34.800  35.226  32.682  1.00  0.00     0.060 A 
BRANCH  80  81
ATOM     81  S   UNL A   1      33.370  36.337  32.708  1.00  0.00     0.124 S 
ATOM     82  O   UNL A   1      33.622  37.188  31.548  1.00  0.00    -0.237 OA
ATOM     83  O   UNL A   1      32.249  35.412  32.582  1.00  0.00    -0.237 OA
ATOM     84  O   UNL A   1      33.483  37.010  34.000  1.00  0.00    -0.744 OA
ENDBRANCH  80  81
ENDBRANCH  59  73
BRANCH  60  85
ATOM     85  C   UNL A   1      47.076  30.971  31.294  1.00  0.00     0.058 A 
ATOM     86  C   UNL A   1      48.134  30.126  31.745  1.00  0.00     0.135 A 
ATOM     87  C   UNL A   1      46.703  30.825  29.957  1.00  0.00     0.135 A 
ATOM     88  F   UNL A   1      48.554  30.207  33.021  1.00  0.00    -0.206 F 
ATOM     89  C   UNL A   1      48.683  29.108  30.970  1.00  0.00     0.059 A 
ATOM     90  C   UNL A   1      47.273  29.824  29.142  1.00  0.00     0.059 A 
ATOM     91  F   UNL A   1      45.718  31.579  29.450  1.00  0.00    -0.206 F 
ATOM     92  C   UNL A   1      48.231  28.946  29.669  1.00  0.00     0.060 A 
BRANCH  92  93
ATOM     93  S   UNL A   1      48.942  27.594  28.681  1.00  0.00     0.124 S 
ATOM     94  O   UNL A   1      49.639  26.805  29.692  1.00  0.00    -0.237 OA
ATOM     95  O   UNL A   1      47.755  26.967  28.118  1.00  0.00    -0.237 OA
ATOM     96  O   UNL A   1      49.796  28.296  27.730  1.00  0.00    -0.744 OA
ENDBRANCH  92  93
ENDBRANCH  60  85
BRANCH  72  97
ATOM     97  C   UNL A   1      43.407  37.115  33.224  1.00  0.00     0.058 A 
ATOM     98  C   UNL A   1      43.470  37.796  34.452  1.00  0.00     0.135 A 
ATOM     99  C   UNL A   1      43.595  37.941  32.080  1.00  0.00     0.135 A 
ATOM    100  F   UNL A   1      43.396  37.136  35.617  1.00  0.00    -0.206 F 
ATOM    101  C   UNL A   1      43.663  39.177  34.540  1.00  0.00     0.059 A 
ATOM    102  C   UNL A   1      43.840  39.306  32.148  1.00  0.00     0.059 A 
ATOM    103  F   UNL A   1      43.573  37.466  30.831  1.00  0.00    -0.206 F 
ATOM    104  C   UNL A   1      43.865  39.922  33.383  1.00  0.00     0.060 A 
BRANCH 104 105
ATOM    105  S   UNL A   1      44.276  41.670  33.487  1.00  0.00     0.124 S 
ATOM    106  O   UNL A   1      45.712  41.617  33.742  1.00  0.00    -0.237 OA
ATOM    107  O   UNL A   1      43.886  42.169  32.173  1.00  0.00    -0.237 OA
ATOM    108  O   UNL A   1      43.453  42.140  34.597  1.00  0.00    -0.744 OA
ENDBRANCH 104 105
ENDBRANCH  72  97
ENDBRANCH  46  47
ENDBRANCH  39  41
ENDBRANCH  38  39
ENDBRANCH  37  38
ENDBRANCH  36  37
ENDBRANCH  35  36
ENDBRANCH  34  35
ENDBRANCH  33  34
ENDBRANCH   1  33
TORSDOF 28
ENDMDL
