MODEL 1
REMARK VINA RESULT:      -7.1      0.000      0.000
REMARK SMILES CC[C@@H]1CC[C@H]([C@@H](C)C(=O)OCCOCCOCCOCCOC(=O)c2ccc(-c3c4nc(c(-c5c(F)cc(S(=O)(=O)[O-])cc5F)c5ccc([nH]5)c(-c5c(F)cc(S(=O)(=O)[O-])cc5F)c5nc(c(-c6c(F)cc(S(=O)(=O)[O-])cc6F)c6ccc3[nH]6)C=C5)C=C4)cc2)C1
REMARK SMILES IDX 18 1 17 2 16 3 15 4 14 5 13 6 12 7 11 8 9 9 10 10 7 11 8 12
REMARK SMILES IDX 6 13 3 14 4 15 92 16 5 17 2 18 1 19 19 20 20 21 21 22 22 23
REMARK SMILES IDX 23 24 24 25 25 26 26 27 27 28 91 29 28 30 90 31 29 32 30 33
REMARK SMILES IDX 31 34 84 35 32 36 89 37 83 38 85 39 33 40 88 41 82 42 81 43
REMARK SMILES IDX 34 45 68 46 47 47 67 48 48 49 51 50 66 51 86 52 49 53 50 54
REMARK SMILES IDX 65 56 87 57 52 58 35 59 36 60 45 61 37 62 38 63 44 64 46 65
REMARK SMILES IDX 39 66 40 67 41 68 42 69 43 70 69 71 70 72 79 73 71 74 72 75
REMARK SMILES IDX 78 76 80 77 73 78 74 79 75 80 76 81 77 82 53 83 54 84 63 85
REMARK SMILES IDX 55 86 56 87 62 88 64 89 57 90 58 91 59 92 60 93 61 94
REMARK H PARENT 85 44 51 55
REMARK Flexibility Score: inf
ROOT
ATOM      1  C   UNL A   1      42.230  19.358  26.170  1.00  0.00     0.188 C 
ENDROOT
BRANCH   1   2
ATOM      2  O   UNL A   1      43.001  19.137  24.993  1.00  0.00    -0.377 OA
BRANCH   2   3
ATOM      3  C   UNL A   1      44.379  18.826  25.067  1.00  0.00     0.188 C 
BRANCH   3   4
ATOM      4  C   UNL A   1      45.261  19.472  24.001  1.00  0.00     0.188 C 
BRANCH   4   5
ATOM      5  O   UNL A   1      44.893  20.763  23.569  1.00  0.00    -0.376 OA
BRANCH   5   6
ATOM      6  C   UNL A   1      45.083  21.872  24.447  1.00  0.00     0.202 C 
BRANCH   6   7
ATOM      7  C   UNL A   1      46.185  22.943  24.245  1.00  0.00     0.261 C 
BRANCH   7   8
ATOM      8  O   UNL A   1      45.851  24.337  24.515  1.00  0.00    -0.463 OA
BRANCH   8   9
ATOM      9  C   UNL A   1      46.111  24.773  25.772  1.00  0.00     0.309 C 
ATOM     10  O   UNL A   1      45.222  24.981  26.603  1.00  0.00    -0.252 OA
BRANCH   9  11
ATOM     11  C   UNL A   1      47.547  25.182  26.129  1.00  0.00     0.099 C 
ATOM     12  C   UNL A   1      47.554  25.057  27.671  1.00  0.00     0.020 C 
BRANCH  11  13
ATOM     13  C   UNL A   1      48.306  26.468  25.666  1.00  0.00     0.003 C 
ATOM     14  C   UNL A   1      49.837  27.448  23.973  1.00  0.00    -0.011 C 
ATOM     15  C   UNL A   1      50.701  26.740  24.998  1.00  0.00     0.004 C 
ATOM     16  C   UNL A   1      48.483  26.730  24.147  1.00  0.00     0.008 C 
ATOM     17  C   UNL A   1      49.781  26.411  26.159  1.00  0.00     0.005 C 
BRANCH  14  18
ATOM     18  C   UNL A   1      50.498  27.331  22.586  1.00  0.00     0.000 C 
ATOM     19  C   UNL A   1      51.041  28.628  22.010  1.00  0.00     0.004 C 
ENDBRANCH  14  18
ENDBRANCH  11  13
ENDBRANCH   9  11
ENDBRANCH   8   9
ENDBRANCH   7   8
ENDBRANCH   6   7
ENDBRANCH   5   6
ENDBRANCH   4   5
ENDBRANCH   3   4
ENDBRANCH   2   3
ENDBRANCH   1   2
BRANCH   1  20
ATOM     20  C   UNL A   1      40.712  19.437  26.023  1.00  0.00     0.188 C 
BRANCH  20  21
ATOM     21  O   UNL A   1      40.014  20.350  26.877  1.00  0.00    -0.376 OA
BRANCH  21  22
ATOM     22  C   UNL A   1      39.222  21.371  26.275  1.00  0.00     0.202 C 
BRANCH  22  23
ATOM     23  C   UNL A   1      39.709  22.798  26.516  1.00  0.00     0.261 C 
BRANCH  23  24
ATOM     24  O   UNL A   1      40.943  23.070  25.855  1.00  0.00    -0.460 OA
BRANCH  24  25
ATOM     25  C   UNL A   1      41.994  23.242  26.681  1.00  0.00     0.338 C 
ATOM     26  O   UNL A   1      42.929  22.480  26.878  1.00  0.00    -0.246 OA
BRANCH  25  27
ATOM     27  C   UNL A   1      41.908  24.592  27.245  1.00  0.00     0.060 A 
ATOM     28  C   UNL A   1      41.766  25.671  26.367  1.00  0.00     0.016 A 
ATOM     29  C   UNL A   1      42.034  24.782  28.624  1.00  0.00     0.016 A 
ATOM     30  C   UNL A   1      41.813  26.964  26.867  1.00  0.00     0.010 A 
ATOM     31  C   UNL A   1      42.082  26.077  29.123  1.00  0.00     0.010 A 
ATOM     32  C   UNL A   1      42.021  27.166  28.237  1.00  0.00    -0.014 A 
BRANCH  32  33
ATOM     33  C   UNL A   1      42.381  28.510  28.723  1.00  0.00     0.031 A 
ATOM     34  C   UNL A   1      43.828  28.912  28.691  1.00  0.00     0.074 A 
ATOM     35  C   UNL A   1      41.427  29.344  29.162  1.00  0.00     0.049 A 
ATOM     36  N   UNL A   1      44.388  30.021  29.091  1.00  0.00    -0.248 NA
ATOM     37  C   UNL A   1      44.770  27.923  28.139  1.00  0.00     0.031 C 
ATOM     38  C   UNL A   1      39.994  29.047  29.188  1.00  0.00     0.029 A 
ATOM     39  N   UNL A   1      41.521  30.610  29.670  1.00  0.00    -0.354 N 
ATOM     40  C   UNL A   1      45.748  29.859  28.849  1.00  0.00     0.074 A 
ATOM     41  C   UNL A   1      45.933  28.531  28.311  1.00  0.00     0.031 C 
ATOM     42  C   UNL A   1      39.340  30.111  29.682  1.00  0.00     0.029 A 
ATOM     43  C   UNL A   1      40.311  31.142  30.040  1.00  0.00     0.049 A 
ATOM     44  H   UNL A   1      42.374  31.093  29.761  1.00  0.00     0.167 HD
ATOM     45  C   UNL A   1      46.748  30.750  29.050  1.00  0.00     0.037 A 
ATOM     46  C   UNL A   1      40.033  32.327  30.614  1.00  0.00     0.037 A 
ATOM     47  C   UNL A   1      46.534  32.064  29.599  1.00  0.00     0.049 A 
ATOM     48  C   UNL A   1      41.171  33.269  30.906  1.00  0.00     0.074 A 
ATOM     49  C   UNL A   1      47.460  33.060  29.840  1.00  0.00     0.029 A 
ATOM     50  N   UNL A   1      45.299  32.555  30.008  1.00  0.00    -0.354 N 
ATOM     51  N   UNL A   1      42.451  33.123  30.652  1.00  0.00    -0.248 NA
ATOM     52  C   UNL A   1      40.826  34.537  31.561  1.00  0.00     0.031 C 
ATOM     53  C   UNL A   1      46.797  34.129  30.453  1.00  0.00     0.029 A 
ATOM     54  C   UNL A   1      45.445  33.828  30.530  1.00  0.00     0.049 A 
ATOM     55  H   UNL A   1      44.446  32.068  29.937  1.00  0.00     0.167 HD
ATOM     56  C   UNL A   1      43.062  34.296  31.084  1.00  0.00     0.074 A 
ATOM     57  C   UNL A   1      42.006  35.140  31.608  1.00  0.00     0.031 C 
ATOM     58  C   UNL A   1      44.372  34.647  31.045  1.00  0.00     0.037 A 
BRANCH  45  59
ATOM     59  C   UNL A   1      48.148  30.308  28.715  1.00  0.00     0.058 A 
ATOM     60  C   UNL A   1      48.988  29.706  29.668  1.00  0.00     0.135 A 
ATOM     61  C   UNL A   1      48.667  30.511  27.427  1.00  0.00     0.135 A 
ATOM     62  F   UNL A   1      48.553  29.502  30.922  1.00  0.00    -0.206 F 
ATOM     63  C   UNL A   1      50.304  29.368  29.369  1.00  0.00     0.059 A 
ATOM     64  C   UNL A   1      49.969  30.149  27.095  1.00  0.00     0.059 A 
ATOM     65  F   UNL A   1      47.913  31.086  26.476  1.00  0.00    -0.206 F 
ATOM     66  C   UNL A   1      50.788  29.599  28.080  1.00  0.00     0.060 A 
BRANCH  66  67
ATOM     67  S   UNL A   1      52.507  29.186  27.716  1.00  0.00     0.124 S 
ATOM     68  O   UNL A   1      53.214  29.977  28.720  1.00  0.00    -0.237 OA
ATOM     69  O   UNL A   1      52.530  27.741  27.917  1.00  0.00    -0.237 OA
ATOM     70  O   UNL A   1      52.679  29.627  26.336  1.00  0.00    -0.744 OA
ENDBRANCH  66  67
ENDBRANCH  45  59
BRANCH  46  71
ATOM     71  C   UNL A   1      38.625  32.689  30.920  1.00  0.00     0.058 A 
ATOM     72  C   UNL A   1      38.066  32.394  32.171  1.00  0.00     0.135 A 
ATOM     73  C   UNL A   1      37.822  33.365  29.988  1.00  0.00     0.135 A 
ATOM     74  F   UNL A   1      38.793  31.745  33.094  1.00  0.00    -0.206 F 
ATOM     75  C   UNL A   1      36.759  32.747  32.487  1.00  0.00     0.059 A 
ATOM     76  C   UNL A   1      36.521  33.753  30.289  1.00  0.00     0.059 A 
ATOM     77  F   UNL A   1      38.314  33.685  28.781  1.00  0.00    -0.206 F 
ATOM     78  C   UNL A   1      35.996  33.435  31.541  1.00  0.00     0.060 A 
BRANCH  78  79
ATOM     79  S   UNL A   1      34.323  33.943  31.989  1.00  0.00     0.124 S 
ATOM     80  O   UNL A   1      33.795  34.385  30.704  1.00  0.00    -0.237 OA
ATOM     81  O   UNL A   1      33.763  32.705  32.521  1.00  0.00    -0.237 OA
ATOM     82  O   UNL A   1      34.545  34.997  32.975  1.00  0.00    -0.744 OA
ENDBRANCH  78  79
ENDBRANCH  46  71
BRANCH  58  83
ATOM     83  C   UNL A   1      44.731  36.019  31.548  1.00  0.00     0.058 A 
ATOM     84  C   UNL A   1      44.592  37.163  30.748  1.00  0.00     0.135 A 
ATOM     85  C   UNL A   1      45.170  36.193  32.872  1.00  0.00     0.135 A 
ATOM     86  F   UNL A   1      44.184  37.053  29.475  1.00  0.00    -0.206 F 
ATOM     87  C   UNL A   1      44.899  38.430  31.235  1.00  0.00     0.059 A 
ATOM     88  C   UNL A   1      45.449  37.453  33.389  1.00  0.00     0.059 A 
ATOM     89  F   UNL A   1      45.310  35.133  33.684  1.00  0.00    -0.206 F 
ATOM     90  C   UNL A   1      45.323  38.565  32.559  1.00  0.00     0.060 A 
BRANCH  90  91
ATOM     91  S   UNL A   1      45.682  40.218  33.185  1.00  0.00     0.124 S 
ATOM     92  O   UNL A   1      44.442  40.545  33.881  1.00  0.00    -0.237 OA
ATOM     93  O   UNL A   1      46.845  39.982  34.036  1.00  0.00    -0.237 OA
ATOM     94  O   UNL A   1      45.945  40.991  31.974  1.00  0.00    -0.744 OA
ENDBRANCH  90  91
ENDBRANCH  58  83
ENDBRANCH  32  33
ENDBRANCH  25  27
ENDBRANCH  24  25
ENDBRANCH  23  24
ENDBRANCH  22  23
ENDBRANCH  21  22
ENDBRANCH  20  21
ENDBRANCH   1  20
TORSDOF 25
ENDMDL
MODEL 2
REMARK VINA RESULT:      -6.9      6.583     16.240
REMARK SMILES CC[C@@H]1CC[C@H]([C@@H](C)C(=O)OCCOCCOCCOCCOC(=O)c2ccc(-c3c4nc(c(-c5c(F)cc(S(=O)(=O)[O-])cc5F)c5ccc([nH]5)c(-c5c(F)cc(S(=O)(=O)[O-])cc5F)c5nc(c(-c6c(F)cc(S(=O)(=O)[O-])cc6F)c6ccc3[nH]6)C=C5)C=C4)cc2)C1
REMARK SMILES IDX 18 1 17 2 16 3 15 4 14 5 13 6 12 7 11 8 9 9 10 10 7 11 8 12
REMARK SMILES IDX 6 13 3 14 4 15 92 16 5 17 2 18 1 19 19 20 20 21 21 22 22 23
REMARK SMILES IDX 23 24 24 25 25 26 26 27 27 28 91 29 28 30 90 31 29 32 30 33
REMARK SMILES IDX 31 34 84 35 32 36 89 37 83 38 85 39 33 40 88 41 82 42 81 43
REMARK SMILES IDX 34 45 68 46 47 47 67 48 48 49 51 50 66 51 86 52 49 53 50 54
REMARK SMILES IDX 65 56 87 57 52 58 35 59 36 60 45 61 37 62 38 63 44 64 46 65
REMARK SMILES IDX 39 66 40 67 41 68 42 69 43 70 69 71 70 72 79 73 71 74 72 75
REMARK SMILES IDX 78 76 80 77 73 78 74 79 75 80 76 81 77 82 53 83 54 84 63 85
REMARK SMILES IDX 55 86 56 87 62 88 64 89 57 90 58 91 59 92 60 93 61 94
REMARK H PARENT 85 44 51 55
REMARK Flexibility Score: inf
ROOT
ATOM      1  C   UNL A   1      46.168  42.704  27.815  1.00  0.00     0.188 C 
ENDROOT
BRANCH   1   2
ATOM      2  O   UNL A   1      45.579  43.812  27.140  1.00  0.00    -0.377 OA
BRANCH   2   3
ATOM      3  C   UNL A   1      44.663  43.622  26.079  1.00  0.00     0.188 C 
BRANCH   3   4
ATOM      4  C   UNL A   1      45.215  43.866  24.677  1.00  0.00     0.188 C 
BRANCH   4   5
ATOM      5  O   UNL A   1      46.365  44.677  24.580  1.00  0.00    -0.376 OA
BRANCH   5   6
ATOM      6  C   UNL A   1      47.153  44.627  23.391  1.00  0.00     0.202 C 
BRANCH   6   7
ATOM      7  C   UNL A   1      46.666  45.160  22.019  1.00  0.00     0.261 C 
BRANCH   7   8
ATOM      8  O   UNL A   1      45.358  44.730  21.536  1.00  0.00    -0.463 OA
BRANCH   8   9
ATOM      9  C   UNL A   1      45.266  44.510  20.202  1.00  0.00     0.309 C 
ATOM     10  O   UNL A   1      46.242  44.216  19.505  1.00  0.00    -0.252 OA
BRANCH   9  11
ATOM     11  C   UNL A   1      43.933  44.799  19.497  1.00  0.00     0.099 C 
ATOM     12  C   UNL A   1      43.257  43.407  19.484  1.00  0.00     0.020 C 
BRANCH  11  13
ATOM     13  C   UNL A   1      43.724  45.538  18.135  1.00  0.00     0.003 C 
ATOM     14  C   UNL A   1      43.324  47.725  17.029  1.00  0.00    -0.011 C 
ATOM     15  C   UNL A   1      41.977  47.206  17.490  1.00  0.00     0.004 C 
ATOM     16  C   UNL A   1      44.292  46.971  17.963  1.00  0.00     0.008 C 
ATOM     17  C   UNL A   1      42.204  45.760  17.888  1.00  0.00     0.005 C 
BRANCH  14  18
ATOM     18  C   UNL A   1      43.336  49.263  17.132  1.00  0.00     0.000 C 
ATOM     19  C   UNL A   1      43.627  49.823  18.514  1.00  0.00     0.004 C 
ENDBRANCH  14  18
ENDBRANCH  11  13
ENDBRANCH   9  11
ENDBRANCH   8   9
ENDBRANCH   7   8
ENDBRANCH   6   7
ENDBRANCH   5   6
ENDBRANCH   4   5
ENDBRANCH   3   4
ENDBRANCH   2   3
ENDBRANCH   1   2
BRANCH   1  20
ATOM     20  C   UNL A   1      46.344  41.404  27.033  1.00  0.00     0.188 C 
BRANCH  20  21
ATOM     21  O   UNL A   1      46.235  40.177  27.760  1.00  0.00    -0.376 OA
BRANCH  21  22
ATOM     22  C   UNL A   1      45.077  39.965  28.565  1.00  0.00     0.202 C 
BRANCH  22  23
ATOM     23  C   UNL A   1      45.015  38.615  29.273  1.00  0.00     0.261 C 
BRANCH  23  24
ATOM     24  O   UNL A   1      45.841  37.634  28.648  1.00  0.00    -0.460 OA
BRANCH  24  25
ATOM     25  C   UNL A   1      46.659  36.973  29.491  1.00  0.00     0.338 C 
ATOM     26  O   UNL A   1      47.231  37.408  30.479  1.00  0.00    -0.246 OA
BRANCH  25  27
ATOM     27  C   UNL A   1      46.666  35.562  29.097  1.00  0.00     0.060 A 
ATOM     28  C   UNL A   1      46.157  35.220  27.841  1.00  0.00     0.016 A 
ATOM     29  C   UNL A   1      47.113  34.588  29.995  1.00  0.00     0.016 A 
ATOM     30  C   UNL A   1      46.034  33.881  27.499  1.00  0.00     0.010 A 
ATOM     31  C   UNL A   1      46.988  33.248  29.652  1.00  0.00     0.010 A 
ATOM     32  C   UNL A   1      46.402  32.897  28.424  1.00  0.00    -0.014 A 
BRANCH  32  33
ATOM     33  C   UNL A   1      45.989  31.500  28.197  1.00  0.00     0.031 A 
ATOM     34  C   UNL A   1      44.579  31.114  28.540  1.00  0.00     0.074 A 
ATOM     35  C   UNL A   1      46.858  30.618  27.681  1.00  0.00     0.049 A 
ATOM     36  N   UNL A   1      43.998  29.948  28.460  1.00  0.00    -0.248 NA
ATOM     37  C   UNL A   1      43.712  32.188  29.053  1.00  0.00     0.031 C 
ATOM     38  C   UNL A   1      48.232  30.922  27.282  1.00  0.00     0.029 A 
ATOM     39  N   UNL A   1      46.710  29.287  27.406  1.00  0.00    -0.354 N 
ATOM     40  C   UNL A   1      42.700  30.146  28.919  1.00  0.00     0.074 A 
ATOM     41  C   UNL A   1      42.595  31.531  29.319  1.00  0.00     0.031 C 
ATOM     42  C   UNL A   1      48.801  29.804  26.803  1.00  0.00     0.029 A 
ATOM     43  C   UNL A   1      47.845  28.704  26.899  1.00  0.00     0.049 A 
ATOM     44  H   UNL A   1      45.870  28.794  27.555  1.00  0.00     0.167 HD
ATOM     45  C   UNL A   1      41.687  29.250  28.987  1.00  0.00     0.037 A 
ATOM     46  C   UNL A   1      48.076  27.421  26.566  1.00  0.00     0.037 A 
ATOM     47  C   UNL A   1      41.827  27.873  28.591  1.00  0.00     0.049 A 
ATOM     48  C   UNL A   1      46.961  26.423  26.730  1.00  0.00     0.074 A 
ATOM     49  C   UNL A   1      40.875  26.871  28.602  1.00  0.00     0.029 A 
ATOM     50  N   UNL A   1      43.006  27.302  28.126  1.00  0.00    -0.354 N 
ATOM     51  N   UNL A   1      45.728  26.620  27.139  1.00  0.00    -0.248 NA
ATOM     52  C   UNL A   1      47.266  25.030  26.383  1.00  0.00     0.031 C 
ATOM     53  C   UNL A   1      41.495  25.681  28.205  1.00  0.00     0.029 A 
ATOM     54  C   UNL A   1      42.816  25.954  27.878  1.00  0.00     0.049 A 
ATOM     55  H   UNL A   1      43.853  27.786  27.993  1.00  0.00     0.167 HD
ATOM     56  C   UNL A   1      45.100  25.381  27.068  1.00  0.00     0.074 A 
ATOM     57  C   UNL A   1      46.089  24.446  26.568  1.00  0.00     0.031 C 
ATOM     58  C   UNL A   1      43.821  25.047  27.378  1.00  0.00     0.037 A 
BRANCH  45  59
ATOM     59  C   UNL A   1      40.375  29.729  29.548  1.00  0.00     0.058 A 
ATOM     60  C   UNL A   1      39.246  29.932  28.735  1.00  0.00     0.135 A 
ATOM     61  C   UNL A   1      40.249  30.013  30.917  1.00  0.00     0.135 A 
ATOM     62  F   UNL A   1      39.310  29.694  27.415  1.00  0.00    -0.206 F 
ATOM     63  C   UNL A   1      38.059  30.444  29.250  1.00  0.00     0.059 A 
ATOM     64  C   UNL A   1      39.061  30.493  31.461  1.00  0.00     0.059 A 
ATOM     65  F   UNL A   1      41.294  29.842  31.742  1.00  0.00    -0.206 F 
ATOM     66  C   UNL A   1      37.978  30.728  30.615  1.00  0.00     0.060 A 
BRANCH  66  67
ATOM     67  S   UNL A   1      36.444  31.423  31.263  1.00  0.00     0.124 S 
ATOM     68  O   UNL A   1      35.961  30.330  32.103  1.00  0.00    -0.237 OA
ATOM     69  O   UNL A   1      36.914  32.608  31.973  1.00  0.00    -0.237 OA
ATOM     70  O   UNL A   1      35.656  31.686  30.063  1.00  0.00    -0.744 OA
ENDBRANCH  66  67
ENDBRANCH  45  59
BRANCH  46  71
ATOM     71  C   UNL A   1      49.402  27.024  26.025  1.00  0.00     0.058 A 
ATOM     72  C   UNL A   1      49.681  27.144  24.656  1.00  0.00     0.135 A 
ATOM     73  C   UNL A   1      50.425  26.554  26.862  1.00  0.00     0.135 A 
ATOM     74  F   UNL A   1      48.733  27.584  23.815  1.00  0.00    -0.206 F 
ATOM     75  C   UNL A   1      50.923  26.803  24.134  1.00  0.00     0.059 A 
ATOM     76  C   UNL A   1      51.685  26.233  26.368  1.00  0.00     0.059 A 
ATOM     77  F   UNL A   1      50.215  26.435  28.183  1.00  0.00    -0.206 F 
ATOM     78  C   UNL A   1      51.922  26.356  25.000  1.00  0.00     0.060 A 
BRANCH  78  79
ATOM     79  S   UNL A   1      53.550  25.980  24.315  1.00  0.00     0.124 S 
ATOM     80  O   UNL A   1      54.420  26.787  25.162  1.00  0.00    -0.237 OA
ATOM     81  O   UNL A   1      53.632  24.535  24.505  1.00  0.00    -0.237 OA
ATOM     82  O   UNL A   1      53.439  26.417  22.926  1.00  0.00    -0.744 OA
ENDBRANCH  78  79
ENDBRANCH  46  71
BRANCH  58  83
ATOM     83  C   UNL A   1      43.410  23.618  27.149  1.00  0.00     0.058 A 
ATOM     84  C   UNL A   1      43.286  22.702  28.204  1.00  0.00     0.135 A 
ATOM     85  C   UNL A   1      43.082  23.177  25.855  1.00  0.00     0.135 A 
ATOM     86  F   UNL A   1      43.593  23.069  29.458  1.00  0.00    -0.206 F 
ATOM     87  C   UNL A   1      42.876  21.391  27.983  1.00  0.00     0.059 A 
ATOM     88  C   UNL A   1      42.637  21.881  25.616  1.00  0.00     0.059 A 
ATOM     89  F   UNL A   1      43.172  24.016  24.811  1.00  0.00    -0.206 F 
ATOM     90  C   UNL A   1      42.549  20.992  26.685  1.00  0.00     0.060 A 
BRANCH  90  91
ATOM     91  S   UNL A   1      41.984  19.299  26.420  1.00  0.00     0.124 S 
ATOM     92  O   UNL A   1      43.106  18.726  25.684  1.00  0.00    -0.237 OA
ATOM     93  O   UNL A   1      41.805  18.814  27.785  1.00  0.00    -0.237 OA
ATOM     94  O   UNL A   1      40.752  19.468  25.654  1.00  0.00    -0.744 OA
ENDBRANCH  90  91
ENDBRANCH  58  83
ENDBRANCH  32  33
ENDBRANCH  25  27
ENDBRANCH  24  25
ENDBRANCH  23  24
ENDBRANCH  22  23
ENDBRANCH  21  22
ENDBRANCH  20  21
ENDBRANCH   1  20
TORSDOF 25
ENDMDL
MODEL 3
REMARK VINA RESULT:      -6.9      3.909     11.612
REMARK SMILES CC[C@@H]1CC[C@H]([C@@H](C)C(=O)OCCOCCOCCOCCOC(=O)c2ccc(-c3c4nc(c(-c5c(F)cc(S(=O)(=O)[O-])cc5F)c5ccc([nH]5)c(-c5c(F)cc(S(=O)(=O)[O-])cc5F)c5nc(c(-c6c(F)cc(S(=O)(=O)[O-])cc6F)c6ccc3[nH]6)C=C5)C=C4)cc2)C1
REMARK SMILES IDX 18 1 17 2 16 3 15 4 14 5 13 6 12 7 11 8 9 9 10 10 7 11 8 12
REMARK SMILES IDX 6 13 3 14 4 15 92 16 5 17 2 18 1 19 19 20 20 21 21 22 22 23
REMARK SMILES IDX 23 24 24 25 25 26 26 27 27 28 91 29 28 30 90 31 29 32 30 33
REMARK SMILES IDX 31 34 84 35 32 36 89 37 83 38 85 39 33 40 88 41 82 42 81 43
REMARK SMILES IDX 34 45 68 46 47 47 67 48 48 49 51 50 66 51 86 52 49 53 50 54
REMARK SMILES IDX 65 56 87 57 52 58 35 59 36 60 45 61 37 62 38 63 44 64 46 65
REMARK SMILES IDX 39 66 40 67 41 68 42 69 43 70 69 71 70 72 79 73 71 74 72 75
REMARK SMILES IDX 78 76 80 77 73 78 74 79 75 80 76 81 77 82 53 83 54 84 63 85
REMARK SMILES IDX 55 86 56 87 62 88 64 89 57 90 58 91 59 92 60 93 61 94
REMARK H PARENT 85 44 51 55
REMARK Flexibility Score: inf
ROOT
ATOM      1  C   UNL A   1      36.866  34.482  33.964  1.00  0.00     0.188 C 
ENDROOT
BRANCH   1   2
ATOM      2  O   UNL A   1      37.820  34.688  35.002  1.00  0.00    -0.377 OA
BRANCH   2   3
ATOM      3  C   UNL A   1      39.203  34.767  34.721  1.00  0.00     0.188 C 
BRANCH   3   4
ATOM      4  C   UNL A   1      39.996  33.480  34.935  1.00  0.00     0.188 C 
BRANCH   4   5
ATOM      5  O   UNL A   1      39.968  32.535  33.888  1.00  0.00    -0.376 OA
BRANCH   5   6
ATOM      6  C   UNL A   1      41.166  31.836  33.549  1.00  0.00     0.202 C 
BRANCH   6   7
ATOM      7  C   UNL A   1      41.180  30.414  32.933  1.00  0.00     0.261 C 
BRANCH   7   8
ATOM      8  O   UNL A   1      40.768  29.293  33.771  1.00  0.00    -0.463 OA
BRANCH   8   9
ATOM      9  C   UNL A   1      41.677  28.298  33.913  1.00  0.00     0.309 C 
ATOM     10  O   UNL A   1      42.354  27.875  32.972  1.00  0.00    -0.252 OA
BRANCH   9  11
ATOM     11  C   UNL A   1      41.754  27.554  35.253  1.00  0.00     0.099 C 
ATOM     12  C   UNL A   1      42.062  28.697  36.250  1.00  0.00     0.020 C 
BRANCH  11  13
ATOM     13  C   UNL A   1      42.599  26.280  35.580  1.00  0.00     0.003 C 
ATOM     14  C   UNL A   1      43.400  24.081  34.750  1.00  0.00    -0.011 C 
ATOM     15  C   UNL A   1      42.004  23.868  35.300  1.00  0.00     0.004 C 
ATOM     16  C   UNL A   1      43.393  25.591  34.440  1.00  0.00     0.008 C 
ATOM     17  C   UNL A   1      41.659  25.136  36.058  1.00  0.00     0.005 C 
BRANCH  14  18
ATOM     18  C   UNL A   1      43.621  23.139  33.550  1.00  0.00     0.000 C 
ATOM     19  C   UNL A   1      44.376  23.741  32.377  1.00  0.00     0.004 C 
ENDBRANCH  14  18
ENDBRANCH  11  13
ENDBRANCH   9  11
ENDBRANCH   8   9
ENDBRANCH   7   8
ENDBRANCH   6   7
ENDBRANCH   5   6
ENDBRANCH   4   5
ENDBRANCH   3   4
ENDBRANCH   2   3
ENDBRANCH   1   2
BRANCH   1  20
ATOM     20  C   UNL A   1      36.112  33.154  33.942  1.00  0.00     0.188 C 
BRANCH  20  21
ATOM     21  O   UNL A   1      34.908  33.093  33.171  1.00  0.00    -0.376 OA
BRANCH  21  22
ATOM     22  C   UNL A   1      34.901  32.302  31.985  1.00  0.00     0.202 C 
BRANCH  22  23
ATOM     23  C   UNL A   1      35.901  32.728  30.913  1.00  0.00     0.261 C 
BRANCH  23  24
ATOM     24  O   UNL A   1      36.863  31.714  30.633  1.00  0.00    -0.460 OA
BRANCH  24  25
ATOM     25  C   UNL A   1      36.609  30.993  29.522  1.00  0.00     0.338 C 
ATOM     26  O   UNL A   1      35.617  31.034  28.810  1.00  0.00    -0.246 OA
BRANCH  25  27
ATOM     27  C   UNL A   1      37.804  30.204  29.214  1.00  0.00     0.060 A 
ATOM     28  C   UNL A   1      38.660  29.857  30.263  1.00  0.00     0.016 A 
ATOM     29  C   UNL A   1      38.099  29.871  27.889  1.00  0.00     0.016 A 
ATOM     30  C   UNL A   1      39.861  29.223  29.979  1.00  0.00     0.010 A 
ATOM     31  C   UNL A   1      39.302  29.238  27.605  1.00  0.00     0.010 A 
ATOM     32  C   UNL A   1      40.203  28.960  28.647  1.00  0.00    -0.014 A 
BRANCH  32  33
ATOM     33  C   UNL A   1      41.588  28.580  28.317  1.00  0.00     0.031 A 
ATOM     34  C   UNL A   1      42.643  29.648  28.352  1.00  0.00     0.074 A 
ATOM     35  C   UNL A   1      41.883  27.307  28.015  1.00  0.00     0.049 A 
ATOM     36  N   UNL A   1      43.916  29.564  28.072  1.00  0.00    -0.248 NA
ATOM     37  C   UNL A   1      42.198  30.995  28.748  1.00  0.00     0.031 C 
ATOM     38  C   UNL A   1      40.924  26.200  27.999  1.00  0.00     0.029 A 
ATOM     39  N   UNL A   1      43.072  26.732  27.663  1.00  0.00    -0.354 N 
ATOM     40  C   UNL A   1      44.421  30.848  28.248  1.00  0.00     0.074 A 
ATOM     41  C   UNL A   1      43.312  31.698  28.614  1.00  0.00     0.031 C 
ATOM     42  C   UNL A   1      41.570  25.073  27.660  1.00  0.00     0.029 A 
ATOM     43  C   UNL A   1      42.973  25.388  27.400  1.00  0.00     0.049 A 
ATOM     44  H   UNL A   1      43.917  27.233  27.604  1.00  0.00     0.167 HD
ATOM     45  C   UNL A   1      45.702  31.270  28.126  1.00  0.00     0.037 A 
ATOM     46  C   UNL A   1      43.916  24.522  26.984  1.00  0.00     0.037 A 
ATOM     47  C   UNL A   1      46.785  30.399  27.749  1.00  0.00     0.049 A 
ATOM     48  C   UNL A   1      45.316  25.032  26.772  1.00  0.00     0.074 A 
ATOM     49  C   UNL A   1      48.125  30.702  27.602  1.00  0.00     0.029 A 
ATOM     50  N   UNL A   1      46.642  29.051  27.443  1.00  0.00    -0.354 N 
ATOM     51  N   UNL A   1      45.795  26.239  26.966  1.00  0.00    -0.248 NA
ATOM     52  C   UNL A   1      46.305  24.061  26.290  1.00  0.00     0.031 C 
ATOM     53  C   UNL A   1      48.782  29.554  27.146  1.00  0.00     0.029 A 
ATOM     54  C   UNL A   1      47.864  28.515  27.076  1.00  0.00     0.049 A 
ATOM     55  H   UNL A   1      45.795  28.550  27.482  1.00  0.00     0.167 HD
ATOM     56  C   UNL A   1      47.151  26.166  26.661  1.00  0.00     0.074 A 
ATOM     57  C   UNL A   1      47.412  24.792  26.278  1.00  0.00     0.031 C 
ATOM     58  C   UNL A   1      48.095  27.140  26.700  1.00  0.00     0.037 A 
BRANCH  45  59
ATOM     59  C   UNL A   1      45.975  32.732  28.359  1.00  0.00     0.058 A 
ATOM     60  C   UNL A   1      45.870  33.684  27.330  1.00  0.00     0.135 A 
ATOM     61  C   UNL A   1      46.372  33.187  29.626  1.00  0.00     0.135 A 
ATOM     62  F   UNL A   1      45.512  33.307  26.092  1.00  0.00    -0.206 F 
ATOM     63  C   UNL A   1      46.196  35.021  27.538  1.00  0.00     0.059 A 
ATOM     64  C   UNL A   1      46.669  34.525  29.866  1.00  0.00     0.059 A 
ATOM     65  F   UNL A   1      46.494  32.323  30.648  1.00  0.00    -0.206 F 
ATOM     66  C   UNL A   1      46.601  35.431  28.809  1.00  0.00     0.060 A 
BRANCH  66  67
ATOM     67  S   UNL A   1      47.051  37.162  29.055  1.00  0.00     0.124 S 
ATOM     68  O   UNL A   1      48.227  37.036  29.913  1.00  0.00    -0.237 OA
ATOM     69  O   UNL A   1      47.308  37.614  27.691  1.00  0.00    -0.237 OA
ATOM     70  O   UNL A   1      45.870  37.734  29.691  1.00  0.00    -0.744 OA
ENDBRANCH  66  67
ENDBRANCH  45  59
BRANCH  46  71
ATOM     71  C   UNL A   1      43.566  23.094  26.770  1.00  0.00     0.058 A 
ATOM     72  C   UNL A   1      43.370  22.234  27.860  1.00  0.00     0.135 A 
ATOM     73  C   UNL A   1      43.386  22.568  25.482  1.00  0.00     0.135 A 
ATOM     74  F   UNL A   1      43.536  22.690  29.111  1.00  0.00    -0.206 F 
ATOM     75  C   UNL A   1      43.017  20.902  27.683  1.00  0.00     0.059 A 
ATOM     76  C   UNL A   1      43.006  21.245  25.278  1.00  0.00     0.059 A 
ATOM     77  F   UNL A   1      43.546  23.352  24.404  1.00  0.00    -0.206 F 
ATOM     78  C   UNL A   1      42.829  20.418  26.387  1.00  0.00     0.060 A 
BRANCH  78  79
ATOM     79  S   UNL A   1      42.307  18.702  26.175  1.00  0.00     0.124 S 
ATOM     80  O   UNL A   1      43.253  18.229  25.171  1.00  0.00    -0.237 OA
ATOM     81  O   UNL A   1      42.480  18.166  27.522  1.00  0.00    -0.237 OA
ATOM     82  O   UNL A   1      40.922  18.825  25.729  1.00  0.00    -0.744 OA
ENDBRANCH  78  79
ENDBRANCH  46  71
BRANCH  58  83
ATOM     83  C   UNL A   1      49.505  26.745  26.357  1.00  0.00     0.058 A 
ATOM     84  C   UNL A   1      50.034  26.923  25.070  1.00  0.00     0.135 A 
ATOM     85  C   UNL A   1      50.355  26.231  27.351  1.00  0.00     0.135 A 
ATOM     86  F   UNL A   1      49.263  27.403  24.082  1.00  0.00    -0.206 F 
ATOM     87  C   UNL A   1      51.349  26.580  24.773  1.00  0.00     0.059 A 
ATOM     88  C   UNL A   1      51.683  25.915  27.085  1.00  0.00     0.059 A 
ATOM     89  F   UNL A   1      49.904  26.052  28.603  1.00  0.00    -0.206 F 
ATOM     90  C   UNL A   1      52.167  26.081  25.789  1.00  0.00     0.060 A 
BRANCH  90  91
ATOM     91  S   UNL A   1      53.881  25.676  25.396  1.00  0.00     0.124 S 
ATOM     92  O   UNL A   1      54.212  26.711  24.422  1.00  0.00    -0.237 OA
ATOM     93  O   UNL A   1      54.534  25.795  26.696  1.00  0.00    -0.237 OA
ATOM     94  O   UNL A   1      53.797  24.318  24.865  1.00  0.00    -0.744 OA
ENDBRANCH  90  91
ENDBRANCH  58  83
ENDBRANCH  32  33
ENDBRANCH  25  27
ENDBRANCH  24  25
ENDBRANCH  23  24
ENDBRANCH  22  23
ENDBRANCH  21  22
ENDBRANCH  20  21
ENDBRANCH   1  20
TORSDOF 25
ENDMDL
