MODEL 1
REMARK VINA RESULT:      -9.5      0.000      0.000
REMARK SMILES Cc1cc([C@@H]([NH3+])C[C@H](C)CC(=O)OCCOCCOCCOCCOC(=O)c2ccc(-c3c4nc(c(-c5c(F)cc(S(=O)(=O)[O-])cc5F)c5ccc([nH]5)c(-c5c(F)cc(S(=O)(=O)[O-])cc5F)c5nc(c(-c6c(F)cc(S(=O)(=O)[O-])cc6F)c6ccc3[nH]6)C=C5)C=C4)cc2)ccc1F
REMARK SMILES IDX 18 1 17 2 16 3 15 4 14 5 13 6 11 7 12 8 10 9 8 10 9 11 7 12
REMARK SMILES IDX 5 13 4 14 1 15 2 16 3 17 96 18 95 19 97 20 94 21 6 22 19 26
REMARK SMILES IDX 20 27 21 28 22 29 23 30 24 31 25 32 26 33 27 34 28 35 29 36
REMARK SMILES IDX 93 37 30 38 92 39 31 40 32 41 33 42 86 43 34 44 91 45 85 46
REMARK SMILES IDX 87 47 35 48 90 49 84 50 83 51 36 53 70 54 49 55 69 56 50 57
REMARK SMILES IDX 53 58 68 59 88 60 51 61 52 62 67 64 89 65 54 66 37 67 38 68
REMARK SMILES IDX 47 69 39 70 40 71 46 72 48 73 41 74 42 75 43 76 44 77 45 78
REMARK SMILES IDX 71 79 72 80 81 81 73 82 74 83 80 84 82 85 75 86 76 87 77 88
REMARK SMILES IDX 78 89 79 90 55 91 56 92 65 93 57 94 58 95 64 96 66 97 59 98
REMARK SMILES IDX 60 99 61 100 62 101 63 102
REMARK H PARENT 6 23 6 24 6 25 87 52 53 63
REMARK Flexibility Score: inf
ROOT
ATOM      1  C   UNL A   1      30.585  27.317  24.624  1.00  0.00     0.188 C 
ENDROOT
BRANCH   1   2
ATOM      2  C   UNL A   1      30.346  25.808  24.703  1.00  0.00     0.188 C 
BRANCH   2   3
ATOM      3  O   UNL A   1      31.089  25.081  25.653  1.00  0.00    -0.376 OA
BRANCH   3   4
ATOM      4  C   UNL A   1      30.572  23.941  26.313  1.00  0.00     0.202 C 
BRANCH   4   5
ATOM      5  C   UNL A   1      31.371  22.937  27.178  1.00  0.00     0.261 C 
BRANCH   5   6
ATOM      6  O   UNL A   1      32.799  22.893  27.067  1.00  0.00    -0.463 OA
BRANCH   6   7
ATOM      7  C   UNL A   1      33.340  21.895  26.336  1.00  0.00     0.306 C 
ATOM      8  O   UNL A   1      33.746  20.839  26.813  1.00  0.00    -0.252 OA
BRANCH   7   9
ATOM      9  C   UNL A   1      33.288  22.120  24.829  1.00  0.00     0.126 C 
BRANCH   9  10
ATOM     10  C   UNL A   1      34.359  23.003  24.147  1.00  0.00     0.003 C 
ATOM     11  C   UNL A   1      33.701  24.184  23.428  1.00  0.00     0.008 C 
BRANCH  10  12
ATOM     12  C   UNL A   1      35.471  23.406  25.167  1.00  0.00     0.074 C 
BRANCH  12  13
ATOM     13  C   UNL A   1      36.907  23.463  24.567  1.00  0.00     0.212 C 
BRANCH  13  14
ATOM     14  C   UNL A   1      37.961  23.115  25.596  1.00  0.00     0.010 A 
ATOM     15  C   UNL A   1      40.368  20.228  26.243  1.00  0.00     0.047 C 
ATOM     16  C   UNL A   1      39.663  21.544  26.362  1.00  0.00    -0.015 A 
ATOM     17  C   UNL A   1      38.549  21.839  25.568  1.00  0.00     0.016 A 
ATOM     18  C   UNL A   1      40.133  22.517  27.242  1.00  0.00     0.126 A 
ATOM     19  C   UNL A   1      39.535  23.769  27.324  1.00  0.00     0.040 A 
ATOM     20  F   UNL A   1      41.209  22.263  28.003  1.00  0.00    -0.207 F 
ATOM     21  C   UNL A   1      38.456  24.073  26.497  1.00  0.00     0.013 A 
ENDBRANCH  13  14
BRANCH  13  22
ATOM     22  N   UNL A   1      37.002  22.572  23.398  1.00  0.00    -0.351 N 
ATOM     23  H   UNL A   1      37.975  22.300  23.255  1.00  0.00     0.345 HD
ATOM     24  H   UNL A   1      36.661  23.059  22.569  1.00  0.00     0.345 HD
ATOM     25  H   UNL A   1      36.437  21.738  23.559  1.00  0.00     0.345 HD
ENDBRANCH  13  22
ENDBRANCH  12  13
ENDBRANCH  10  12
ENDBRANCH   9  10
ENDBRANCH   7   9
ENDBRANCH   6   7
ENDBRANCH   5   6
ENDBRANCH   4   5
ENDBRANCH   3   4
ENDBRANCH   2   3
ENDBRANCH   1   2
BRANCH   1  26
ATOM     26  O   UNL A   1      31.558  27.808  23.720  1.00  0.00    -0.377 OA
BRANCH  26  27
ATOM     27  C   UNL A   1      32.849  28.167  24.204  1.00  0.00     0.188 C 
BRANCH  27  28
ATOM     28  C   UNL A   1      32.952  28.781  25.613  1.00  0.00     0.188 C 
BRANCH  28  29
ATOM     29  O   UNL A   1      32.701  30.176  25.639  1.00  0.00    -0.376 OA
BRANCH  29  30
ATOM     30  C   UNL A   1      32.592  30.777  26.917  1.00  0.00     0.202 C 
BRANCH  30  31
ATOM     31  C   UNL A   1      33.759  31.553  27.539  1.00  0.00     0.261 C 
BRANCH  31  32
ATOM     32  O   UNL A   1      34.595  31.040  28.584  1.00  0.00    -0.460 OA
BRANCH  32  33
ATOM     33  C   UNL A   1      35.560  30.139  28.362  1.00  0.00     0.338 C 
ATOM     34  O   UNL A   1      35.676  29.304  27.471  1.00  0.00    -0.246 OA
BRANCH  33  35
ATOM     35  C   UNL A   1      36.642  30.295  29.301  1.00  0.00     0.060 A 
ATOM     36  C   UNL A   1      37.505  31.379  29.059  1.00  0.00     0.016 A 
ATOM     37  C   UNL A   1      36.980  29.177  30.059  1.00  0.00     0.016 A 
ATOM     38  C   UNL A   1      38.830  31.207  29.334  1.00  0.00     0.010 A 
ATOM     39  C   UNL A   1      38.289  29.024  30.365  1.00  0.00     0.010 A 
ATOM     40  C   UNL A   1      39.188  29.987  29.900  1.00  0.00    -0.014 A 
BRANCH  40  41
ATOM     41  C   UNL A   1      40.556  29.658  30.141  1.00  0.00     0.031 A 
ATOM     42  C   UNL A   1      40.951  28.386  29.530  1.00  0.00     0.074 A 
ATOM     43  C   UNL A   1      41.277  30.583  30.807  1.00  0.00     0.049 A 
ATOM     44  N   UNL A   1      41.642  27.478  30.115  1.00  0.00    -0.248 NA
ATOM     45  C   UNL A   1      40.377  27.927  28.252  1.00  0.00     0.031 C 
ATOM     46  C   UNL A   1      42.716  30.703  30.888  1.00  0.00     0.029 A 
ATOM     47  N   UNL A   1      40.807  31.592  31.667  1.00  0.00    -0.354 N 
ATOM     48  C   UNL A   1      41.999  26.607  29.105  1.00  0.00     0.074 A 
ATOM     49  C   UNL A   1      40.990  26.752  28.090  1.00  0.00     0.031 C 
ATOM     50  C   UNL A   1      43.020  31.493  31.934  1.00  0.00     0.029 A 
ATOM     51  C   UNL A   1      41.784  31.785  32.648  1.00  0.00     0.049 A 
ATOM     52  H   UNL A   1      39.951  32.073  31.592  1.00  0.00     0.167 HD
ATOM     53  C   UNL A   1      43.280  26.146  29.074  1.00  0.00     0.037 A 
ATOM     54  C   UNL A   1      41.599  31.532  33.980  1.00  0.00     0.037 A 
ATOM     55  C   UNL A   1      44.028  26.769  30.165  1.00  0.00     0.049 A 
ATOM     56  C   UNL A   1      42.366  30.335  34.438  1.00  0.00     0.074 A 
ATOM     57  C   UNL A   1      44.799  27.921  30.189  1.00  0.00     0.029 A 
ATOM     58  N   UNL A   1      43.697  26.487  31.480  1.00  0.00    -0.354 N 
ATOM     59  N   UNL A   1      42.834  29.432  33.628  1.00  0.00    -0.248 NA
ATOM     60  C   UNL A   1      42.648  30.057  35.838  1.00  0.00     0.031 C 
ATOM     61  C   UNL A   1      44.917  28.338  31.536  1.00  0.00     0.029 A 
ATOM     62  C   UNL A   1      44.205  27.453  32.327  1.00  0.00     0.049 A 
ATOM     63  H   UNL A   1      43.171  25.706  31.770  1.00  0.00     0.167 HD
ATOM     64  C   UNL A   1      43.457  28.461  34.354  1.00  0.00     0.074 A 
ATOM     65  C   UNL A   1      43.349  28.918  35.729  1.00  0.00     0.031 C 
ATOM     66  C   UNL A   1      43.988  27.356  33.760  1.00  0.00     0.037 A 
BRANCH  53  67
ATOM     67  C   UNL A   1      43.951  25.481  27.896  1.00  0.00     0.058 A 
ATOM     68  C   UNL A   1      44.233  24.097  27.939  1.00  0.00     0.135 A 
ATOM     69  C   UNL A   1      44.307  26.121  26.691  1.00  0.00     0.135 A 
ATOM     70  F   UNL A   1      43.919  23.342  29.000  1.00  0.00    -0.206 F 
ATOM     71  C   UNL A   1      44.840  23.409  26.893  1.00  0.00     0.059 A 
ATOM     72  C   UNL A   1      44.949  25.457  25.638  1.00  0.00     0.059 A 
ATOM     73  F   UNL A   1      43.996  27.405  26.461  1.00  0.00    -0.206 F 
ATOM     74  C   UNL A   1      45.198  24.095  25.744  1.00  0.00     0.060 A 
BRANCH  74  75
ATOM     75  S   UNL A   1      45.920  23.155  24.389  1.00  0.00     0.124 S 
ATOM     76  O   UNL A   1      46.403  21.958  25.069  1.00  0.00    -0.237 OA
ATOM     77  O   UNL A   1      44.772  22.966  23.509  1.00  0.00    -0.237 OA
ATOM     78  O   UNL A   1      46.961  24.042  23.876  1.00  0.00    -0.744 OA
ENDBRANCH  74  75
ENDBRANCH  53  67
BRANCH  54  79
ATOM     79  C   UNL A   1      40.292  31.912  34.553  1.00  0.00     0.058 A 
ATOM     80  C   UNL A   1      40.120  33.285  34.785  1.00  0.00     0.135 A 
ATOM     81  C   UNL A   1      39.172  31.102  34.326  1.00  0.00     0.135 A 
ATOM     82  F   UNL A   1      41.172  34.061  35.086  1.00  0.00    -0.206 F 
ATOM     83  C   UNL A   1      38.927  33.896  34.488  1.00  0.00     0.059 A 
ATOM     84  C   UNL A   1      37.969  31.694  33.997  1.00  0.00     0.059 A 
ATOM     85  F   UNL A   1      39.297  29.777  34.179  1.00  0.00    -0.206 F 
ATOM     86  C   UNL A   1      37.919  33.092  33.979  1.00  0.00     0.060 A 
BRANCH  86  87
ATOM     87  S   UNL A   1      36.746  33.851  32.892  1.00  0.00     0.124 S 
ATOM     88  O   UNL A   1      37.462  34.056  31.637  1.00  0.00    -0.237 OA
ATOM     89  O   UNL A   1      35.735  32.799  32.832  1.00  0.00    -0.237 OA
ATOM     90  O   UNL A   1      36.419  35.067  33.625  1.00  0.00    -0.744 OA
ENDBRANCH  86  87
ENDBRANCH  54  79
BRANCH  66  91
ATOM     91  C   UNL A   1      44.440  26.122  34.488  1.00  0.00     0.058 A 
ATOM     92  C   UNL A   1      43.566  25.216  35.108  1.00  0.00     0.135 A 
ATOM     93  C   UNL A   1      45.807  25.749  34.484  1.00  0.00     0.135 A 
ATOM     94  F   UNL A   1      42.235  25.351  35.032  1.00  0.00    -0.206 F 
ATOM     95  C   UNL A   1      44.024  24.101  35.798  1.00  0.00     0.059 A 
ATOM     96  C   UNL A   1      46.272  24.587  35.078  1.00  0.00     0.059 A 
ATOM     97  F   UNL A   1      46.746  26.498  33.889  1.00  0.00    -0.206 F 
ATOM     98  C   UNL A   1      45.379  23.797  35.782  1.00  0.00     0.060 A 
BRANCH  98  99
ATOM     99  S   UNL A   1      45.960  22.349  36.664  1.00  0.00     0.124 S 
ATOM    100  O   UNL A   1      45.276  21.282  35.940  1.00  0.00    -0.237 OA
ATOM    101  O   UNL A   1      47.405  22.420  36.471  1.00  0.00    -0.237 OA
ATOM    102  O   UNL A   1      45.505  22.579  38.031  1.00  0.00    -0.744 OA
ENDBRANCH  98  99
ENDBRANCH  66  91
ENDBRANCH  40  41
ENDBRANCH  33  35
ENDBRANCH  32  33
ENDBRANCH  31  32
ENDBRANCH  30  31
ENDBRANCH  29  30
ENDBRANCH  28  29
ENDBRANCH  27  28
ENDBRANCH  26  27
ENDBRANCH   1  26
TORSDOF 28
ENDMDL
MODEL 2
REMARK VINA RESULT:      -8.1      1.416      2.075
REMARK SMILES Cc1cc([C@@H]([NH3+])C[C@H](C)CC(=O)OCCOCCOCCOCCOC(=O)c2ccc(-c3c4nc(c(-c5c(F)cc(S(=O)(=O)[O-])cc5F)c5ccc([nH]5)c(-c5c(F)cc(S(=O)(=O)[O-])cc5F)c5nc(c(-c6c(F)cc(S(=O)(=O)[O-])cc6F)c6ccc3[nH]6)C=C5)C=C4)cc2)ccc1F
REMARK SMILES IDX 18 1 17 2 16 3 15 4 14 5 13 6 11 7 12 8 10 9 8 10 9 11 7 12
REMARK SMILES IDX 5 13 4 14 1 15 2 16 3 17 96 18 95 19 97 20 94 21 6 22 19 26
REMARK SMILES IDX 20 27 21 28 22 29 23 30 24 31 25 32 26 33 27 34 28 35 29 36
REMARK SMILES IDX 93 37 30 38 92 39 31 40 32 41 33 42 86 43 34 44 91 45 85 46
REMARK SMILES IDX 87 47 35 48 90 49 84 50 83 51 36 53 70 54 49 55 69 56 50 57
REMARK SMILES IDX 53 58 68 59 88 60 51 61 52 62 67 64 89 65 54 66 37 67 38 68
REMARK SMILES IDX 47 69 39 70 40 71 46 72 48 73 41 74 42 75 43 76 44 77 45 78
REMARK SMILES IDX 71 79 72 80 81 81 73 82 74 83 80 84 82 85 75 86 76 87 77 88
REMARK SMILES IDX 78 89 79 90 55 91 56 92 65 93 57 94 58 95 64 96 66 97 59 98
REMARK SMILES IDX 60 99 61 100 62 101 63 102
REMARK H PARENT 6 23 6 24 6 25 87 52 53 63
REMARK Flexibility Score: inf
ROOT
ATOM      1  C   UNL A   1      31.036  26.827  26.333  1.00  0.00     0.188 C 
ENDROOT
BRANCH   1   2
ATOM      2  C   UNL A   1      30.683  25.413  25.868  1.00  0.00     0.188 C 
BRANCH   2   3
ATOM      3  O   UNL A   1      31.626  24.395  26.108  1.00  0.00    -0.376 OA
BRANCH   3   4
ATOM      4  C   UNL A   1      31.354  23.287  26.946  1.00  0.00     0.202 C 
BRANCH   4   5
ATOM      5  C   UNL A   1      32.383  22.264  27.482  1.00  0.00     0.261 C 
BRANCH   5   6
ATOM      6  O   UNL A   1      33.630  22.095  26.796  1.00  0.00    -0.463 OA
BRANCH   6   7
ATOM      7  C   UNL A   1      33.653  21.261  25.734  1.00  0.00     0.306 C 
ATOM      8  O   UNL A   1      33.491  20.047  25.812  1.00  0.00    -0.252 OA
BRANCH   7   9
ATOM      9  C   UNL A   1      33.760  21.965  24.385  1.00  0.00     0.126 C 
BRANCH   9  10
ATOM     10  C   UNL A   1      35.070  22.692  24.002  1.00  0.00     0.003 C 
ATOM     11  C   UNL A   1      34.767  24.096  23.472  1.00  0.00     0.008 C 
BRANCH  10  12
ATOM     12  C   UNL A   1      36.088  22.654  25.185  1.00  0.00     0.074 C 
BRANCH  12  13
ATOM     13  C   UNL A   1      37.444  21.964  24.848  1.00  0.00     0.212 C 
BRANCH  13  14
ATOM     14  C   UNL A   1      38.557  22.438  25.757  1.00  0.00     0.010 A 
ATOM     15  C   UNL A   1      39.428  25.631  27.654  1.00  0.00     0.047 C 
ATOM     16  C   UNL A   1      39.474  24.224  27.144  1.00  0.00    -0.015 A 
ATOM     17  C   UNL A   1      38.591  23.787  26.150  1.00  0.00     0.016 A 
ATOM     18  C   UNL A   1      40.377  23.309  27.685  1.00  0.00     0.126 A 
ATOM     19  C   UNL A   1      40.395  21.981  27.275  1.00  0.00     0.040 A 
ATOM     20  F   UNL A   1      41.223  23.700  28.650  1.00  0.00    -0.207 F 
ATOM     21  C   UNL A   1      39.482  21.542  26.318  1.00  0.00     0.013 A 
ENDBRANCH  13  14
BRANCH  13  22
ATOM     22  N   UNL A   1      37.297  20.499  24.919  1.00  0.00    -0.351 N 
ATOM     23  H   UNL A   1      37.069  20.135  23.994  1.00  0.00     0.345 HD
ATOM     24  H   UNL A   1      36.548  20.264  25.571  1.00  0.00     0.345 HD
ATOM     25  H   UNL A   1      38.171  20.085  25.241  1.00  0.00     0.345 HD
ENDBRANCH  13  22
ENDBRANCH  12  13
ENDBRANCH  10  12
ENDBRANCH   9  10
ENDBRANCH   7   9
ENDBRANCH   6   7
ENDBRANCH   5   6
ENDBRANCH   4   5
ENDBRANCH   3   4
ENDBRANCH   2   3
ENDBRANCH   1   2
BRANCH   1  26
ATOM     26  O   UNL A   1      31.789  27.661  25.473  1.00  0.00    -0.377 OA
BRANCH  26  27
ATOM     27  C   UNL A   1      33.128  28.003  25.821  1.00  0.00     0.188 C 
BRANCH  27  28
ATOM     28  C   UNL A   1      33.346  29.040  26.938  1.00  0.00     0.188 C 
BRANCH  28  29
ATOM     29  O   UNL A   1      33.490  30.366  26.456  1.00  0.00    -0.376 OA
BRANCH  29  30
ATOM     30  C   UNL A   1      33.162  31.408  27.358  1.00  0.00     0.202 C 
BRANCH  30  31
ATOM     31  C   UNL A   1      34.249  32.203  28.091  1.00  0.00     0.261 C 
BRANCH  31  32
ATOM     32  O   UNL A   1      34.893  31.759  29.292  1.00  0.00    -0.460 OA
BRANCH  32  33
ATOM     33  C   UNL A   1      35.880  30.855  29.293  1.00  0.00     0.338 C 
ATOM     34  O   UNL A   1      36.001  29.812  28.659  1.00  0.00    -0.246 OA
BRANCH  33  35
ATOM     35  C   UNL A   1      36.979  31.287  30.119  1.00  0.00     0.060 A 
ATOM     36  C   UNL A   1      37.833  32.245  29.542  1.00  0.00     0.016 A 
ATOM     37  C   UNL A   1      37.336  30.451  31.174  1.00  0.00     0.016 A 
ATOM     38  C   UNL A   1      39.163  32.162  29.831  1.00  0.00     0.010 A 
ATOM     39  C   UNL A   1      38.651  30.396  31.486  1.00  0.00     0.010 A 
ATOM     40  C   UNL A   1      39.538  31.171  30.734  1.00  0.00    -0.014 A 
BRANCH  40  41
ATOM     41  C   UNL A   1      40.911  30.929  31.037  1.00  0.00     0.031 A 
ATOM     42  C   UNL A   1      41.466  29.795  30.294  1.00  0.00     0.074 A 
ATOM     43  C   UNL A   1      41.494  31.807  31.877  1.00  0.00     0.049 A 
ATOM     44  N   UNL A   1      42.199  28.874  30.803  1.00  0.00    -0.248 NA
ATOM     45  C   UNL A   1      41.025  29.474  28.923  1.00  0.00     0.031 C 
ATOM     46  C   UNL A   1      42.906  32.037  32.089  1.00  0.00     0.029 A 
ATOM     47  N   UNL A   1      40.873  32.641  32.826  1.00  0.00    -0.354 N 
ATOM     48  C   UNL A   1      42.705  28.189  29.717  1.00  0.00     0.074 A 
ATOM     49  C   UNL A   1      41.757  28.390  28.654  1.00  0.00     0.031 C 
ATOM     50  C   UNL A   1      43.062  32.694  33.253  1.00  0.00     0.029 A 
ATOM     51  C   UNL A   1      41.759  32.775  33.899  1.00  0.00     0.049 A 
ATOM     52  H   UNL A   1      39.982  33.053  32.748  1.00  0.00     0.167 HD
ATOM     53  C   UNL A   1      44.023  27.848  29.727  1.00  0.00     0.037 A 
ATOM     54  C   UNL A   1      41.509  32.321  35.165  1.00  0.00     0.037 A 
ATOM     55  C   UNL A   1      44.633  28.371  30.949  1.00  0.00     0.049 A 
ATOM     56  C   UNL A   1      42.354  31.141  35.517  1.00  0.00     0.074 A 
ATOM     57  C   UNL A   1      45.287  29.569  31.190  1.00  0.00     0.029 A 
ATOM     58  N   UNL A   1      44.242  27.878  32.182  1.00  0.00    -0.354 N 
ATOM     59  N   UNL A   1      42.959  30.405  34.633  1.00  0.00    -0.248 NA
ATOM     60  C   UNL A   1      42.566  30.691  36.885  1.00  0.00     0.031 C 
ATOM     61  C   UNL A   1      45.274  29.799  32.586  1.00  0.00     0.029 A 
ATOM     62  C   UNL A   1      44.597  28.753  33.190  1.00  0.00     0.049 A 
ATOM     63  H   UNL A   1      43.775  27.022  32.322  1.00  0.00     0.167 HD
ATOM     64  C   UNL A   1      43.622  29.397  35.269  1.00  0.00     0.074 A 
ATOM     65  C   UNL A   1      43.378  29.643  36.679  1.00  0.00     0.031 C 
ATOM     66  C   UNL A   1      44.294  28.437  34.575  1.00  0.00     0.037 A 
BRANCH  53  67
ATOM     67  C   UNL A   1      44.832  27.416  28.528  1.00  0.00     0.058 A 
ATOM     68  C   UNL A   1      45.299  26.085  28.438  1.00  0.00     0.135 A 
ATOM     69  C   UNL A   1      45.152  28.231  27.422  1.00  0.00     0.135 A 
ATOM     70  F   UNL A   1      45.043  25.179  29.391  1.00  0.00    -0.206 F 
ATOM     71  C   UNL A   1      46.042  25.608  27.363  1.00  0.00     0.059 A 
ATOM     72  C   UNL A   1      45.927  27.782  26.345  1.00  0.00     0.059 A 
ATOM     73  F   UNL A   1      44.678  29.480  27.312  1.00  0.00    -0.206 F 
ATOM     74  C   UNL A   1      46.355  26.461  26.319  1.00  0.00     0.060 A 
BRANCH  74  75
ATOM     75  S   UNL A   1      47.260  25.786  24.917  1.00  0.00     0.124 S 
ATOM     76  O   UNL A   1      47.219  26.892  23.965  1.00  0.00    -0.237 OA
ATOM     77  O   UNL A   1      48.564  25.506  25.508  1.00  0.00    -0.237 OA
ATOM     78  O   UNL A   1      46.479  24.612  24.540  1.00  0.00    -0.744 OA
ENDBRANCH  74  75
ENDBRANCH  53  67
BRANCH  54  79
ATOM     79  C   UNL A   1      40.137  32.503  35.678  1.00  0.00     0.058 A 
ATOM     80  C   UNL A   1      39.717  33.836  35.795  1.00  0.00     0.135 A 
ATOM     81  C   UNL A   1      39.185  31.492  35.493  1.00  0.00     0.135 A 
ATOM     82  F   UNL A   1      40.604  34.808  36.056  1.00  0.00    -0.206 F 
ATOM     83  C   UNL A   1      38.446  34.201  35.425  1.00  0.00     0.059 A 
ATOM     84  C   UNL A   1      37.909  31.833  35.091  1.00  0.00     0.059 A 
ATOM     85  F   UNL A   1      39.547  30.203  35.455  1.00  0.00    -0.206 F 
ATOM     86  C   UNL A   1      37.614  33.195  34.960  1.00  0.00     0.060 A 
BRANCH  86  87
ATOM     87  S   UNL A   1      36.365  33.648  33.791  1.00  0.00     0.124 S 
ATOM     88  O   UNL A   1      35.374  32.578  33.855  1.00  0.00    -0.237 OA
ATOM     89  O   UNL A   1      35.913  34.909  34.376  1.00  0.00    -0.237 OA
ATOM     90  O   UNL A   1      37.134  33.708  32.557  1.00  0.00    -0.744 OA
ENDBRANCH  86  87
ENDBRANCH  54  79
BRANCH  66  91
ATOM     91  C   UNL A   1      44.811  27.154  35.164  1.00  0.00     0.058 A 
ATOM     92  C   UNL A   1      46.078  27.019  35.752  1.00  0.00     0.135 A 
ATOM     93  C   UNL A   1      43.970  26.018  35.253  1.00  0.00     0.135 A 
ATOM     94  F   UNL A   1      46.906  28.062  35.899  1.00  0.00    -0.206 F 
ATOM     95  C   UNL A   1      46.532  25.808  36.259  1.00  0.00     0.059 A 
ATOM     96  C   UNL A   1      44.368  24.831  35.846  1.00  0.00     0.059 A 
ATOM     97  F   UNL A   1      42.718  26.021  34.773  1.00  0.00    -0.206 F 
ATOM     98  C   UNL A   1      45.672  24.718  36.297  1.00  0.00     0.060 A 
BRANCH  98  99
ATOM     99  S   UNL A   1      46.262  23.163  36.965  1.00  0.00     0.124 S 
ATOM    100  O   UNL A   1      47.639  23.149  36.480  1.00  0.00    -0.237 OA
ATOM    101  O   UNL A   1      46.100  23.354  38.403  1.00  0.00    -0.237 OA
ATOM    102  O   UNL A   1      45.370  22.176  36.366  1.00  0.00    -0.744 OA
ENDBRANCH  98  99
ENDBRANCH  66  91
ENDBRANCH  40  41
ENDBRANCH  33  35
ENDBRANCH  32  33
ENDBRANCH  31  32
ENDBRANCH  30  31
ENDBRANCH  29  30
ENDBRANCH  28  29
ENDBRANCH  27  28
ENDBRANCH  26  27
ENDBRANCH   1  26
TORSDOF 28
ENDMDL
MODEL 3
REMARK VINA RESULT:      -7.7      4.974      9.743
REMARK SMILES Cc1cc([C@@H]([NH3+])C[C@H](C)CC(=O)OCCOCCOCCOCCOC(=O)c2ccc(-c3c4nc(c(-c5c(F)cc(S(=O)(=O)[O-])cc5F)c5ccc([nH]5)c(-c5c(F)cc(S(=O)(=O)[O-])cc5F)c5nc(c(-c6c(F)cc(S(=O)(=O)[O-])cc6F)c6ccc3[nH]6)C=C5)C=C4)cc2)ccc1F
REMARK SMILES IDX 18 1 17 2 16 3 15 4 14 5 13 6 11 7 12 8 10 9 8 10 9 11 7 12
REMARK SMILES IDX 5 13 4 14 1 15 2 16 3 17 96 18 95 19 97 20 94 21 6 22 19 26
REMARK SMILES IDX 20 27 21 28 22 29 23 30 24 31 25 32 26 33 27 34 28 35 29 36
REMARK SMILES IDX 93 37 30 38 92 39 31 40 32 41 33 42 86 43 34 44 91 45 85 46
REMARK SMILES IDX 87 47 35 48 90 49 84 50 83 51 36 53 70 54 49 55 69 56 50 57
REMARK SMILES IDX 53 58 68 59 88 60 51 61 52 62 67 64 89 65 54 66 37 67 38 68
REMARK SMILES IDX 47 69 39 70 40 71 46 72 48 73 41 74 42 75 43 76 44 77 45 78
REMARK SMILES IDX 71 79 72 80 81 81 73 82 74 83 80 84 82 85 75 86 76 87 77 88
REMARK SMILES IDX 78 89 79 90 55 91 56 92 65 93 57 94 58 95 64 96 66 97 59 98
REMARK SMILES IDX 60 99 61 100 62 101 63 102
REMARK H PARENT 6 23 6 24 6 25 87 52 53 63
REMARK Flexibility Score: inf
ROOT
ATOM      1  C   UNL A   1      32.619  25.577  26.916  1.00  0.00     0.188 C 
ENDROOT
BRANCH   1   2
ATOM      2  C   UNL A   1      32.421  24.117  26.504  1.00  0.00     0.188 C 
BRANCH   2   3
ATOM      3  O   UNL A   1      33.575  23.337  26.299  1.00  0.00    -0.376 OA
BRANCH   3   4
ATOM      4  C   UNL A   1      33.559  21.923  26.356  1.00  0.00     0.202 C 
BRANCH   4   5
ATOM      5  C   UNL A   1      33.415  20.956  25.157  1.00  0.00     0.261 C 
BRANCH   5   6
ATOM      6  O   UNL A   1      33.813  21.390  23.850  1.00  0.00    -0.463 OA
BRANCH   6   7
ATOM      7  C   UNL A   1      32.840  21.757  22.989  1.00  0.00     0.306 C 
ATOM      8  O   UNL A   1      31.791  21.137  22.835  1.00  0.00    -0.252 OA
BRANCH   7   9
ATOM      9  C   UNL A   1      33.079  23.099  22.305  1.00  0.00     0.126 C 
BRANCH   9  10
ATOM     10  C   UNL A   1      32.793  24.412  23.072  1.00  0.00     0.003 C 
ATOM     11  C   UNL A   1      33.976  25.375  22.944  1.00  0.00     0.008 C 
BRANCH  10  12
ATOM     12  C   UNL A   1      31.419  25.015  22.638  1.00  0.00     0.074 C 
BRANCH  12  13
ATOM     13  C   UNL A   1      30.731  25.898  23.722  1.00  0.00     0.212 C 
BRANCH  13  14
ATOM     14  C   UNL A   1      30.249  27.215  23.151  1.00  0.00     0.010 A 
ATOM     15  C   UNL A   1      27.008  29.226  23.160  1.00  0.00     0.047 C 
ATOM     16  C   UNL A   1      28.434  28.831  22.931  1.00  0.00    -0.015 A 
ATOM     17  C   UNL A   1      28.887  27.547  23.257  1.00  0.00     0.016 A 
ATOM     18  C   UNL A   1      29.348  29.753  22.424  1.00  0.00     0.126 A 
ATOM     19  C   UNL A   1      30.690  29.430  22.264  1.00  0.00     0.040 A 
ATOM     20  F   UNL A   1      28.941  30.994  22.118  1.00  0.00    -0.207 F 
ATOM     21  C   UNL A   1      31.144  28.165  22.634  1.00  0.00     0.013 A 
ENDBRANCH  13  14
BRANCH  13  22
ATOM     22  N   UNL A   1      29.620  25.158  24.346  1.00  0.00    -0.351 N 
ATOM     23  H   UNL A   1      28.846  25.086  23.684  1.00  0.00     0.345 HD
ATOM     24  H   UNL A   1      29.307  25.654  25.181  1.00  0.00     0.345 HD
ATOM     25  H   UNL A   1      29.935  24.223  24.603  1.00  0.00     0.345 HD
ENDBRANCH  13  22
ENDBRANCH  12  13
ENDBRANCH  10  12
ENDBRANCH   9  10
ENDBRANCH   7   9
ENDBRANCH   6   7
ENDBRANCH   5   6
ENDBRANCH   4   5
ENDBRANCH   3   4
ENDBRANCH   2   3
ENDBRANCH   1   2
BRANCH   1  26
ATOM     26  O   UNL A   1      32.703  26.566  25.907  1.00  0.00    -0.377 OA
BRANCH  26  27
ATOM     27  C   UNL A   1      33.475  27.741  26.138  1.00  0.00     0.188 C 
BRANCH  27  28
ATOM     28  C   UNL A   1      32.904  28.810  27.089  1.00  0.00     0.188 C 
BRANCH  28  29
ATOM     29  O   UNL A   1      33.889  29.687  27.608  1.00  0.00    -0.376 OA
BRANCH  29  30
ATOM     30  C   UNL A   1      35.206  29.528  27.109  1.00  0.00     0.202 C 
BRANCH  30  31
ATOM     31  C   UNL A   1      36.406  30.197  27.790  1.00  0.00     0.261 C 
BRANCH  31  32
ATOM     32  O   UNL A   1      37.732  29.652  27.791  1.00  0.00    -0.460 OA
BRANCH  32  33
ATOM     33  C   UNL A   1      38.314  29.168  28.895  1.00  0.00     0.338 C 
ATOM     34  O   UNL A   1      37.967  29.236  30.069  1.00  0.00    -0.246 OA
BRANCH  33  35
ATOM     35  C   UNL A   1      39.473  28.378  28.566  1.00  0.00     0.060 A 
ATOM     36  C   UNL A   1      40.048  27.667  29.635  1.00  0.00     0.016 A 
ATOM     37  C   UNL A   1      40.147  28.711  27.393  1.00  0.00     0.016 A 
ATOM     38  C   UNL A   1      41.406  27.543  29.656  1.00  0.00     0.010 A 
ATOM     39  C   UNL A   1      41.490  28.554  27.399  1.00  0.00     0.010 A 
ATOM     40  C   UNL A   1      42.090  28.077  28.568  1.00  0.00    -0.014 A 
BRANCH  40  41
ATOM     41  C   UNL A   1      43.516  28.092  28.527  1.00  0.00     0.031 A 
ATOM     42  C   UNL A   1      44.061  29.396  28.141  1.00  0.00     0.074 A 
ATOM     43  C   UNL A   1      44.130  26.957  28.919  1.00  0.00     0.049 A 
ATOM     44  N   UNL A   1      45.005  29.572  27.292  1.00  0.00    -0.248 NA
ATOM     45  C   UNL A   1      43.398  30.658  28.520  1.00  0.00     0.031 C 
ATOM     46  C   UNL A   1      45.509  26.781  29.319  1.00  0.00     0.029 A 
ATOM     47  N   UNL A   1      43.606  25.651  28.936  1.00  0.00    -0.354 N 
ATOM     48  C   UNL A   1      45.369  30.895  27.443  1.00  0.00     0.074 A 
ATOM     49  C   UNL A   1      44.204  31.563  27.960  1.00  0.00     0.031 C 
ATOM     50  C   UNL A   1      45.806  25.470  29.257  1.00  0.00     0.029 A 
ATOM     51  C   UNL A   1      44.666  24.779  28.670  1.00  0.00     0.049 A 
ATOM     52  H   UNL A   1      42.669  25.399  29.104  1.00  0.00     0.167 HD
ATOM     53  C   UNL A   1      46.695  31.201  27.468  1.00  0.00     0.037 A 
ATOM     54  C   UNL A   1      44.748  23.983  27.561  1.00  0.00     0.037 A 
ATOM     55  C   UNL A   1      47.463  29.960  27.372  1.00  0.00     0.049 A 
ATOM     56  C   UNL A   1      45.805  24.446  26.613  1.00  0.00     0.074 A 
ATOM     57  C   UNL A   1      47.977  29.138  28.363  1.00  0.00     0.029 A 
ATOM     58  N   UNL A   1      47.408  29.201  26.216  1.00  0.00    -0.354 N 
ATOM     59  N   UNL A   1      46.314  25.642  26.636  1.00  0.00    -0.248 NA
ATOM     60  C   UNL A   1      46.355  23.606  25.559  1.00  0.00     0.031 C 
ATOM     61  C   UNL A   1      48.219  27.867  27.791  1.00  0.00     0.029 A 
ATOM     62  C   UNL A   1      47.835  27.910  26.462  1.00  0.00     0.049 A 
ATOM     63  H   UNL A   1      47.105  29.534  25.340  1.00  0.00     0.167 HD
ATOM     64  C   UNL A   1      47.228  25.759  25.632  1.00  0.00     0.074 A 
ATOM     65  C   UNL A   1      47.247  24.446  25.012  1.00  0.00     0.031 C 
ATOM     66  C   UNL A   1      47.872  26.934  25.386  1.00  0.00     0.037 A 
BRANCH  53  67
ATOM     67  C   UNL A   1      47.293  32.499  27.955  1.00  0.00     0.058 A 
ATOM     68  C   UNL A   1      47.280  32.805  29.334  1.00  0.00     0.135 A 
ATOM     69  C   UNL A   1      47.922  33.464  27.140  1.00  0.00     0.135 A 
ATOM     70  F   UNL A   1      46.753  31.970  30.239  1.00  0.00    -0.206 F 
ATOM     71  C   UNL A   1      47.816  33.974  29.862  1.00  0.00     0.059 A 
ATOM     72  C   UNL A   1      48.439  34.665  27.645  1.00  0.00     0.059 A 
ATOM     73  F   UNL A   1      48.113  33.258  25.830  1.00  0.00    -0.206 F 
ATOM     74  C   UNL A   1      48.394  34.903  29.013  1.00  0.00     0.060 A 
BRANCH  74  75
ATOM     75  S   UNL A   1      49.136  36.371  29.743  1.00  0.00     0.124 S 
ATOM     76  O   UNL A   1      50.458  35.887  30.128  1.00  0.00    -0.237 OA
ATOM     77  O   UNL A   1      49.104  37.311  28.628  1.00  0.00    -0.237 OA
ATOM     78  O   UNL A   1      48.243  36.688  30.853  1.00  0.00    -0.744 OA
ENDBRANCH  74  75
ENDBRANCH  53  67
BRANCH  54  79
ATOM     79  C   UNL A   1      43.499  23.337  27.112  1.00  0.00     0.058 A 
ATOM     80  C   UNL A   1      42.714  22.784  28.134  1.00  0.00     0.135 A 
ATOM     81  C   UNL A   1      42.891  23.752  25.920  1.00  0.00     0.135 A 
ATOM     82  F   UNL A   1      43.287  22.305  29.249  1.00  0.00    -0.206 F 
ATOM     83  C   UNL A   1      41.348  22.927  28.118  1.00  0.00     0.059 A 
ATOM     84  C   UNL A   1      41.523  23.931  25.889  1.00  0.00     0.059 A 
ATOM     85  F   UNL A   1      43.622  24.211  24.896  1.00  0.00    -0.206 F 
ATOM     86  C   UNL A   1      40.802  23.614  27.046  1.00  0.00     0.060 A 
BRANCH  86  87
ATOM     87  S   UNL A   1      39.289  24.489  27.328  1.00  0.00     0.124 S 
ATOM     88  O   UNL A   1      39.481  25.796  26.708  1.00  0.00    -0.237 OA
ATOM     89  O   UNL A   1      38.356  23.625  26.610  1.00  0.00    -0.237 OA
ATOM     90  O   UNL A   1      39.228  24.496  28.783  1.00  0.00    -0.744 OA
ENDBRANCH  86  87
ENDBRANCH  54  79
BRANCH  66  91
ATOM     91  C   UNL A   1      48.675  27.233  24.152  1.00  0.00     0.058 A 
ATOM     92  C   UNL A   1      50.037  26.928  24.012  1.00  0.00     0.135 A 
ATOM     93  C   UNL A   1      48.041  27.752  22.995  1.00  0.00     0.135 A 
ATOM     94  F   UNL A   1      50.717  26.270  24.961  1.00  0.00    -0.206 F 
ATOM     95  C   UNL A   1      50.752  27.247  22.865  1.00  0.00     0.059 A 
ATOM     96  C   UNL A   1      48.716  27.982  21.807  1.00  0.00     0.059 A 
ATOM     97  F   UNL A   1      46.733  28.046  22.973  1.00  0.00    -0.206 F 
ATOM     98  C   UNL A   1      50.084  27.779  21.770  1.00  0.00     0.060 A 
BRANCH  98  99
ATOM     99  S   UNL A   1      51.013  28.177  20.289  1.00  0.00     0.124 S 
ATOM    100  O   UNL A   1      51.021  29.636  20.341  1.00  0.00    -0.237 OA
ATOM    101  O   UNL A   1      52.297  27.527  20.537  1.00  0.00    -0.237 OA
ATOM    102  O   UNL A   1      50.216  27.585  19.219  1.00  0.00    -0.744 OA
ENDBRANCH  98  99
ENDBRANCH  66  91
ENDBRANCH  40  41
ENDBRANCH  33  35
ENDBRANCH  32  33
ENDBRANCH  31  32
ENDBRANCH  30  31
ENDBRANCH  29  30
ENDBRANCH  28  29
ENDBRANCH  27  28
ENDBRANCH  26  27
ENDBRANCH   1  26
TORSDOF 28
ENDMDL
