MODEL 1
REMARK VINA RESULT:     -10.3      0.000      0.000
REMARK SMILES O=C(OCCOCCOCCOCCOC(=O)c1ccc(-c2c3nc(c(-c4c(F)cc(S(=O)(=O)[O-])cc4F)c4ccc([nH]4)c(-c4c(F)cc(S(=O)(=O)[O-])cc4F)c4nc(c(-c5c(F)cc(S(=O)(=O)[O-])cc5F)c5ccc2[nH]5)C=C4)C=C3)cc1)C1=Cc2cc(S(F)(F)(F)(F)F)cc(Br)c2O[C@@H]1C(F)(F)F
REMARK SMILES IDX 10 1 9 2 8 3 7 4 6 5 5 6 4 7 3 8 2 9 1 10 84 11 85 12 100 13
REMARK SMILES IDX 86 14 99 15 87 16 98 17 88 18 96 19 95 20 97 21 101 22
REMARK SMILES IDX 102 23 103 24 104 25 89 26 90 27 91 28 92 29 93 30 94 31
REMARK SMILES IDX 11 32 12 33 13 34 14 35 15 36 16 37 17 38 18 39 19 40 83 41
REMARK SMILES IDX 20 42 82 43 21 44 22 45 23 46 76 47 24 48 81 49 75 50 77 51
REMARK SMILES IDX 25 52 80 53 74 54 73 55 26 57 60 58 39 59 59 60 40 61 43 62
REMARK SMILES IDX 58 63 78 64 41 65 42 66 57 68 79 69 44 70 27 71 28 72 37 73
REMARK SMILES IDX 29 74 30 75 36 76 38 77 31 78 32 79 33 80 34 81 35 82 61 83
REMARK SMILES IDX 62 84 71 85 63 86 64 87 70 88 72 89 65 90 66 91 67 92 68 93
REMARK SMILES IDX 69 94 45 95 46 96 55 97 47 98 48 99 54 100 56 101 49 102
REMARK SMILES IDX 50 103 51 104 52 105 53 106
REMARK H PARENT 77 56 43 67
REMARK Flexibility Score: inf
ROOT
ATOM      1  C   UNL A   1      35.321  32.722  29.250  1.00  0.00     0.188 C 
ENDROOT
BRANCH   1   2
ATOM      2  O   UNL A   1      35.675  31.523  28.578  1.00  0.00    -0.377 OA
BRANCH   2   3
ATOM      3  C   UNL A   1      34.726  31.253  27.557  1.00  0.00     0.188 C 
BRANCH   3   4
ATOM      4  C   UNL A   1      34.374  29.775  27.572  1.00  0.00     0.188 C 
BRANCH   4   5
ATOM      5  O   UNL A   1      34.007  29.362  26.263  1.00  0.00    -0.376 OA
BRANCH   5   6
ATOM      6  C   UNL A   1      34.180  27.958  26.144  1.00  0.00     0.202 C 
BRANCH   6   7
ATOM      7  C   UNL A   1      33.820  27.520  24.735  1.00  0.00     0.261 C 
BRANCH   7   8
ATOM      8  O   UNL A   1      33.485  26.140  24.740  1.00  0.00    -0.460 OA
BRANCH   8   9
ATOM      9  C   UNL A   1      33.009  25.520  23.554  1.00  0.00     0.338 C 
ATOM     10  O   UNL A   1      33.826  25.178  22.643  1.00  0.00    -0.246 OA
BRANCH   9  11
ATOM     11  C   UNL A   1      31.521  25.267  23.374  1.00  0.00     0.087 C 
ATOM     12  C   UNL A   1      31.014  24.020  23.569  1.00  0.00     0.027 C 
ATOM     13  C   UNL A   1      30.598  26.408  22.977  1.00  0.00     0.316 C 
ATOM     14  C   UNL A   1      31.937  22.879  23.967  1.00  0.00     0.020 A 
ATOM     15  O   UNL A   1      33.058  24.247  25.555  1.00  0.00    -0.474 OA
ATOM     16  C   UNL A   1      31.828  21.727  23.205  1.00  0.00     0.036 A 
ATOM     17  C   UNL A   1      32.869  22.999  24.905  1.00  0.00     0.142 A 
ATOM     18  C   UNL A   1      32.572  20.634  23.709  1.00  0.00     0.109 A 
ATOM     19  C   UNL A   1      33.653  21.926  25.252  1.00  0.00     0.062 A 
ATOM     20  C   UNL A   1      33.558  20.738  24.582  1.00  0.00     0.044 A 
ATOM     21  Br  UNL A   1      34.928  22.100  26.732  1.00  0.00    -0.047 Br
BRANCH  13  22
ATOM     22  C   UNL A   1      29.542  26.605  24.052  1.00  0.00     0.430 C 
ATOM     23  F   UNL A   1      29.378  25.469  24.726  1.00  0.00    -0.167 F 
ATOM     24  F   UNL A   1      29.932  27.563  24.888  1.00  0.00    -0.167 F 
ATOM     25  F   UNL A   1      28.390  26.952  23.484  1.00  0.00    -0.167 F 
ENDBRANCH  13  22
BRANCH  18  26
ATOM     26  S   UNL A   1      32.143  18.978  23.117  1.00  0.00     0.310 S 
ATOM     27  F   UNL A   1      33.630  18.467  23.320  1.00  0.00    -0.094 F 
ATOM     28  F   UNL A   1      32.562  19.404  21.659  1.00  0.00    -0.094 F 
ATOM     29  F   UNL A   1      31.784  17.547  22.626  1.00  0.00    -0.094 F 
ATOM     30  F   UNL A   1      31.862  18.530  24.604  1.00  0.00    -0.094 F 
ATOM     31  F   UNL A   1      32.612  20.392  23.646  1.00  0.00    -0.094 F 
ENDBRANCH  18  26
ENDBRANCH   9  11
ENDBRANCH   8   9
ENDBRANCH   7   8
ENDBRANCH   6   7
ENDBRANCH   5   6
ENDBRANCH   4   5
ENDBRANCH   3   4
ENDBRANCH   2   3
ENDBRANCH   1   2
BRANCH   1  32
ATOM     32  C   UNL A   1      36.574  33.532  29.536  1.00  0.00     0.188 C 
BRANCH  32  33
ATOM     33  O   UNL A   1      36.478  34.112  30.829  1.00  0.00    -0.376 OA
BRANCH  33  34
ATOM     34  C   UNL A   1      36.021  33.136  31.753  1.00  0.00     0.202 C 
BRANCH  34  35
ATOM     35  C   UNL A   1      36.993  33.047  32.919  1.00  0.00     0.261 C 
BRANCH  35  36
ATOM     36  O   UNL A   1      37.241  31.683  33.226  1.00  0.00    -0.460 OA
BRANCH  36  37
ATOM     37  C   UNL A   1      37.082  30.689  32.224  1.00  0.00     0.338 C 
ATOM     38  O   UNL A   1      35.921  30.260  31.933  1.00  0.00    -0.246 OA
BRANCH  37  39
ATOM     39  C   UNL A   1      38.299  30.138  31.500  1.00  0.00     0.060 A 
ATOM     40  C   UNL A   1      38.351  30.422  30.146  1.00  0.00     0.016 A 
ATOM     41  C   UNL A   1      39.317  29.554  32.121  1.00  0.00     0.016 A 
ATOM     42  C   UNL A   1      39.417  29.784  29.467  1.00  0.00     0.010 A 
ATOM     43  C   UNL A   1      40.389  29.074  31.409  1.00  0.00     0.010 A 
ATOM     44  C   UNL A   1      40.479  29.267  30.058  1.00  0.00    -0.014 A 
BRANCH  44  45
ATOM     45  C   UNL A   1      41.733  28.906  29.279  1.00  0.00     0.031 A 
ATOM     46  C   UNL A   1      41.931  27.606  28.811  1.00  0.00     0.074 A 
ATOM     47  C   UNL A   1      42.695  29.900  29.233  1.00  0.00     0.049 A 
ATOM     48  N   UNL A   1      43.023  27.109  28.227  1.00  0.00    -0.248 NA
ATOM     49  C   UNL A   1      40.922  26.539  28.889  1.00  0.00     0.031 C 
ATOM     50  C   UNL A   1      42.500  31.216  29.696  1.00  0.00     0.029 A 
ATOM     51  N   UNL A   1      43.982  29.809  28.750  1.00  0.00    -0.354 N 
ATOM     52  C   UNL A   1      42.828  25.830  27.901  1.00  0.00     0.074 A 
ATOM     53  C   UNL A   1      41.476  25.443  28.327  1.00  0.00     0.031 C 
ATOM     54  C   UNL A   1      43.656  31.906  29.505  1.00  0.00     0.029 A 
ATOM     55  C   UNL A   1      44.592  31.032  28.919  1.00  0.00     0.049 A 
ATOM     56  H   UNL A   1      44.394  29.008  28.353  1.00  0.00     0.167 HD
ATOM     57  C   UNL A   1      43.724  24.971  27.261  1.00  0.00     0.037 A 
ATOM     58  C   UNL A   1      45.891  31.385  28.590  1.00  0.00     0.037 A 
ATOM     59  C   UNL A   1      45.009  25.337  26.892  1.00  0.00     0.049 A 
ATOM     60  C   UNL A   1      46.808  30.510  28.003  1.00  0.00     0.074 A 
ATOM     61  C   UNL A   1      45.922  24.487  26.240  1.00  0.00     0.029 A 
ATOM     62  N   UNL A   1      45.627  26.552  27.084  1.00  0.00    -0.354 N 
ATOM     63  N   UNL A   1      46.600  29.243  27.640  1.00  0.00    -0.248 NA
ATOM     64  C   UNL A   1      48.196  30.863  27.680  1.00  0.00     0.031 C 
ATOM     65  C   UNL A   1      47.078  25.176  26.049  1.00  0.00     0.029 A 
ATOM     66  C   UNL A   1      46.906  26.469  26.579  1.00  0.00     0.049 A 
ATOM     67  H   UNL A   1      45.224  27.344  27.507  1.00  0.00     0.167 HD
ATOM     68  C   UNL A   1      47.706  28.734  27.094  1.00  0.00     0.074 A 
ATOM     69  C   UNL A   1      48.751  29.766  27.119  1.00  0.00     0.031 C 
ATOM     70  C   UNL A   1      47.885  27.451  26.574  1.00  0.00     0.037 A 
BRANCH  57  71
ATOM     71  C   UNL A   1      43.265  23.555  26.951  1.00  0.00     0.058 A 
ATOM     72  C   UNL A   1      42.831  23.147  25.701  1.00  0.00     0.135 A 
ATOM     73  C   UNL A   1      43.437  22.685  27.939  1.00  0.00     0.135 A 
ATOM     74  F   UNL A   1      42.886  23.926  24.624  1.00  0.00    -0.206 F 
ATOM     75  C   UNL A   1      42.324  21.826  25.673  1.00  0.00     0.059 A 
ATOM     76  C   UNL A   1      43.042  21.377  27.795  1.00  0.00     0.059 A 
ATOM     77  F   UNL A   1      43.996  23.083  29.079  1.00  0.00    -0.206 F 
ATOM     78  C   UNL A   1      42.550  20.918  26.604  1.00  0.00     0.060 A 
BRANCH  78  79
ATOM     79  S   UNL A   1      42.223  19.160  26.321  1.00  0.00     0.124 S 
ATOM     80  O   UNL A   1      42.395  18.392  27.633  1.00  0.00    -0.237 OA
ATOM     81  O   UNL A   1      40.791  18.983  25.811  1.00  0.00    -0.237 OA
ATOM     82  O   UNL A   1      43.321  18.556  25.159  1.00  0.00    -0.744 OA
ENDBRANCH  78  79
ENDBRANCH  57  71
BRANCH  58  83
ATOM     83  C   UNL A   1      46.344  32.806  28.884  1.00  0.00     0.058 A 
ATOM     84  C   UNL A   1      46.860  33.158  30.120  1.00  0.00     0.135 A 
ATOM     85  C   UNL A   1      46.074  33.725  27.964  1.00  0.00     0.135 A 
ATOM     86  F   UNL A   1      47.379  32.274  30.969  1.00  0.00    -0.206 F 
ATOM     87  C   UNL A   1      46.787  34.543  30.399  1.00  0.00     0.059 A 
ATOM     88  C   UNL A   1      46.153  35.062  28.267  1.00  0.00     0.059 A 
ATOM     89  F   UNL A   1      45.723  33.346  26.739  1.00  0.00    -0.206 F 
ATOM     90  C   UNL A   1      46.600  35.482  29.490  1.00  0.00     0.060 A 
BRANCH  90  91
ATOM     91  S   UNL A   1      46.916  37.228  29.842  1.00  0.00     0.124 S 
ATOM     92  O   UNL A   1      46.800  37.475  31.348  1.00  0.00    -0.237 OA
ATOM     93  O   UNL A   1      48.326  37.596  29.372  1.00  0.00    -0.237 OA
ATOM     94  O   UNL A   1      45.770  38.193  29.016  1.00  0.00    -0.744 OA
ENDBRANCH  90  91
ENDBRANCH  58  83
BRANCH  70  95
ATOM     95  C   UNL A   1      49.234  27.110  25.963  1.00  0.00     0.058 A 
ATOM     96  C   UNL A   1      50.162  26.571  26.839  1.00  0.00     0.135 A 
ATOM     97  C   UNL A   1      49.492  27.212  24.664  1.00  0.00     0.135 A 
ATOM     98  F   UNL A   1      49.861  26.217  28.085  1.00  0.00    -0.206 F 
ATOM     99  C   UNL A   1      51.457  26.430  26.288  1.00  0.00     0.059 A 
ATOM    100  C   UNL A   1      50.744  26.927  24.175  1.00  0.00     0.059 A 
ATOM    101  F   UNL A   1      48.530  27.593  23.829  1.00  0.00    -0.206 F 
ATOM    102  C   UNL A   1      51.726  26.446  24.995  1.00  0.00     0.060 A 
BRANCH 102 103
ATOM    103  S   UNL A   1      53.312  25.864  24.344  1.00  0.00     0.124 S 
ATOM    104  O   UNL A   1      54.447  26.692  24.950  1.00  0.00    -0.237 OA
ATOM    105  O   UNL A   1      53.503  24.390  24.711  1.00  0.00    -0.237 OA
ATOM    106  O   UNL A   1      53.326  26.035  22.643  1.00  0.00    -0.744 OA
ENDBRANCH 102 103
ENDBRANCH  70  95
ENDBRANCH  44  45
ENDBRANCH  37  39
ENDBRANCH  36  37
ENDBRANCH  35  36
ENDBRANCH  34  35
ENDBRANCH  33  34
ENDBRANCH  32  33
ENDBRANCH   1  32
TORSDOF 25
ENDMDL
MODEL 2
REMARK VINA RESULT:     -10.3      6.751     14.084
REMARK SMILES O=C(OCCOCCOCCOCCOC(=O)c1ccc(-c2c3nc(c(-c4c(F)cc(S(=O)(=O)[O-])cc4F)c4ccc([nH]4)c(-c4c(F)cc(S(=O)(=O)[O-])cc4F)c4nc(c(-c5c(F)cc(S(=O)(=O)[O-])cc5F)c5ccc2[nH]5)C=C4)C=C3)cc1)C1=Cc2cc(S(F)(F)(F)(F)F)cc(Br)c2O[C@@H]1C(F)(F)F
REMARK SMILES IDX 10 1 9 2 8 3 7 4 6 5 5 6 4 7 3 8 2 9 1 10 84 11 85 12 100 13
REMARK SMILES IDX 86 14 99 15 87 16 98 17 88 18 96 19 95 20 97 21 101 22
REMARK SMILES IDX 102 23 103 24 104 25 89 26 90 27 91 28 92 29 93 30 94 31
REMARK SMILES IDX 11 32 12 33 13 34 14 35 15 36 16 37 17 38 18 39 19 40 83 41
REMARK SMILES IDX 20 42 82 43 21 44 22 45 23 46 76 47 24 48 81 49 75 50 77 51
REMARK SMILES IDX 25 52 80 53 74 54 73 55 26 57 60 58 39 59 59 60 40 61 43 62
REMARK SMILES IDX 58 63 78 64 41 65 42 66 57 68 79 69 44 70 27 71 28 72 37 73
REMARK SMILES IDX 29 74 30 75 36 76 38 77 31 78 32 79 33 80 34 81 35 82 61 83
REMARK SMILES IDX 62 84 71 85 63 86 64 87 70 88 72 89 65 90 66 91 67 92 68 93
REMARK SMILES IDX 69 94 45 95 46 96 55 97 47 98 48 99 54 100 56 101 49 102
REMARK SMILES IDX 50 103 51 104 52 105 53 106
REMARK H PARENT 77 56 43 67
REMARK Flexibility Score: inf
ROOT
ATOM      1  C   UNL A   1      44.257  23.510  24.656  1.00  0.00     0.188 C 
ENDROOT
BRANCH   1   2
ATOM      2  O   UNL A   1      45.547  23.936  24.240  1.00  0.00    -0.377 OA
BRANCH   2   3
ATOM      3  C   UNL A   1      46.314  24.301  25.378  1.00  0.00     0.188 C 
BRANCH   3   4
ATOM      4  C   UNL A   1      47.027  25.616  25.106  1.00  0.00     0.188 C 
BRANCH   4   5
ATOM      5  O   UNL A   1      46.089  26.578  24.648  1.00  0.00    -0.376 OA
BRANCH   5   6
ATOM      6  C   UNL A   1      46.779  27.734  24.196  1.00  0.00     0.202 C 
BRANCH   6   7
ATOM      7  C   UNL A   1      47.456  28.414  25.373  1.00  0.00     0.261 C 
BRANCH   7   8
ATOM      8  O   UNL A   1      46.671  29.519  25.797  1.00  0.00    -0.460 OA
BRANCH   8   9
ATOM      9  C   UNL A   1      46.774  29.993  27.131  1.00  0.00     0.338 C 
ATOM     10  O   UNL A   1      47.524  30.984  27.398  1.00  0.00    -0.246 OA
BRANCH   9  11
ATOM     11  C   UNL A   1      45.988  29.314  28.242  1.00  0.00     0.087 C 
ATOM     12  C   UNL A   1      44.966  29.973  28.851  1.00  0.00     0.027 C 
ATOM     13  C   UNL A   1      46.345  27.901  28.671  1.00  0.00     0.316 C 
ATOM     14  C   UNL A   1      44.609  31.387  28.422  1.00  0.00     0.020 A 
ATOM     15  O   UNL A   1      44.788  30.808  26.124  1.00  0.00    -0.474 OA
ATOM     16  C   UNL A   1      44.503  32.315  29.445  1.00  0.00     0.036 A 
ATOM     17  C   UNL A   1      44.514  31.752  27.149  1.00  0.00     0.142 A 
ATOM     18  C   UNL A   1      44.003  33.572  29.030  1.00  0.00     0.109 A 
ATOM     19  C   UNL A   1      44.152  33.033  26.814  1.00  0.00     0.062 A 
ATOM     20  C   UNL A   1      43.972  33.988  27.777  1.00  0.00     0.044 A 
ATOM     21  Br  UNL A   1      43.892  33.503  24.929  1.00  0.00    -0.047 Br
BRANCH  13  22
ATOM     22  C   UNL A   1      45.146  26.990  28.463  1.00  0.00     0.430 C 
ATOM     23  F   UNL A   1      44.424  26.945  29.580  1.00  0.00    -0.167 F 
ATOM     24  F   UNL A   1      44.398  27.461  27.470  1.00  0.00    -0.167 F 
ATOM     25  F   UNL A   1      45.567  25.765  28.159  1.00  0.00    -0.167 F 
ENDBRANCH  13  22
BRANCH  18  26
ATOM     26  S   UNL A   1      43.360  34.685  30.303  1.00  0.00     0.310 S 
ATOM     27  F   UNL A   1      43.247  35.882  29.268  1.00  0.00    -0.094 F 
ATOM     28  F   UNL A   1      44.828  35.173  30.601  1.00  0.00    -0.094 F 
ATOM     29  F   UNL A   1      42.791  35.648  31.383  1.00  0.00    -0.094 F 
ATOM     30  F   UNL A   1      41.888  34.288  29.893  1.00  0.00    -0.094 F 
ATOM     31  F   UNL A   1      43.914  33.789  29.126  1.00  0.00    -0.094 F 
ENDBRANCH  18  26
ENDBRANCH   9  11
ENDBRANCH   8   9
ENDBRANCH   7   8
ENDBRANCH   6   7
ENDBRANCH   5   6
ENDBRANCH   4   5
ENDBRANCH   3   4
ENDBRANCH   2   3
ENDBRANCH   1   2
BRANCH   1  32
ATOM     32  C   UNL A   1      44.390  22.286  25.545  1.00  0.00     0.188 C 
BRANCH  32  33
ATOM     33  O   UNL A   1      43.389  22.319  26.551  1.00  0.00    -0.376 OA
BRANCH  33  34
ATOM     34  C   UNL A   1      42.247  21.602  26.106  1.00  0.00     0.202 C 
BRANCH  34  35
ATOM     35  C   UNL A   1      40.988  22.350  26.511  1.00  0.00     0.261 C 
BRANCH  35  36
ATOM     36  O   UNL A   1      41.222  23.749  26.432  1.00  0.00    -0.460 OA
BRANCH  36  37
ATOM     37  C   UNL A   1      40.160  24.662  26.670  1.00  0.00     0.338 C 
ATOM     38  O   UNL A   1      39.154  24.682  25.893  1.00  0.00    -0.246 OA
BRANCH  37  39
ATOM     39  C   UNL A   1      40.228  25.614  27.852  1.00  0.00     0.060 A 
ATOM     40  C   UNL A   1      41.293  26.499  27.830  1.00  0.00     0.016 A 
ATOM     41  C   UNL A   1      39.274  25.707  28.771  1.00  0.00     0.016 A 
ATOM     42  C   UNL A   1      41.415  27.279  29.004  1.00  0.00     0.010 A 
ATOM     43  C   UNL A   1      39.396  26.588  29.819  1.00  0.00     0.010 A 
ATOM     44  C   UNL A   1      40.454  27.452  29.892  1.00  0.00    -0.014 A 
BRANCH  44  45
ATOM     45  C   UNL A   1      40.517  28.552  30.939  1.00  0.00     0.031 A 
ATOM     46  C   UNL A   1      41.358  28.434  32.046  1.00  0.00     0.074 A 
ATOM     47  C   UNL A   1      39.575  29.555  30.786  1.00  0.00     0.049 A 
ATOM     48  N   UNL A   1      41.433  29.246  33.102  1.00  0.00    -0.248 NA
ATOM     49  C   UNL A   1      42.337  27.350  32.226  1.00  0.00     0.031 C 
ATOM     50  C   UNL A   1      38.728  29.686  29.669  1.00  0.00     0.029 A 
ATOM     51  N   UNL A   1      39.285  30.581  31.658  1.00  0.00    -0.354 N 
ATOM     52  C   UNL A   1      42.371  28.816  33.948  1.00  0.00     0.074 A 
ATOM     53  C   UNL A   1      42.961  27.587  33.400  1.00  0.00     0.031 C 
ATOM     54  C   UNL A   1      37.931  30.769  29.868  1.00  0.00     0.029 A 
ATOM     55  C   UNL A   1      38.267  31.333  31.113  1.00  0.00     0.049 A 
ATOM     56  H   UNL A   1      39.728  30.748  32.520  1.00  0.00     0.167 HD
ATOM     57  C   UNL A   1      42.759  29.402  35.154  1.00  0.00     0.037 A 
ATOM     58  C   UNL A   1      37.652  32.449  31.658  1.00  0.00     0.037 A 
ATOM     59  C   UNL A   1      42.173  30.543  35.678  1.00  0.00     0.049 A 
ATOM     60  C   UNL A   1      38.000  33.002  32.892  1.00  0.00     0.074 A 
ATOM     61  C   UNL A   1      42.557  31.151  36.889  1.00  0.00     0.029 A 
ATOM     62  N   UNL A   1      41.139  31.280  35.145  1.00  0.00    -0.354 N 
ATOM     63  N   UNL A   1      38.963  32.595  33.719  1.00  0.00    -0.248 NA
ATOM     64  C   UNL A   1      37.333  34.164  33.494  1.00  0.00     0.031 C 
ATOM     65  C   UNL A   1      41.760  32.234  37.089  1.00  0.00     0.029 A 
ATOM     66  C   UNL A   1      40.864  32.320  36.005  1.00  0.00     0.049 A 
ATOM     67  H   UNL A   1      40.676  31.096  34.296  1.00  0.00     0.167 HD
ATOM     68  C   UNL A   1      39.010  33.384  34.794  1.00  0.00     0.074 A 
ATOM     69  C   UNL A   1      37.956  34.400  34.669  1.00  0.00     0.031 C 
ATOM     70  C   UNL A   1      39.890  33.299  35.874  1.00  0.00     0.037 A 
BRANCH  57  71
ATOM     71  C   UNL A   1      43.888  28.751  35.938  1.00  0.00     0.058 A 
ATOM     72  C   UNL A   1      45.197  29.205  35.915  1.00  0.00     0.135 A 
ATOM     73  C   UNL A   1      43.508  27.786  36.766  1.00  0.00     0.135 A 
ATOM     74  F   UNL A   1      45.566  30.323  35.297  1.00  0.00    -0.206 F 
ATOM     75  C   UNL A   1      46.105  28.370  36.609  1.00  0.00     0.059 A 
ATOM     76  C   UNL A   1      44.434  27.103  37.516  1.00  0.00     0.059 A 
ATOM     77  F   UNL A   1      42.218  27.477  36.871  1.00  0.00    -0.206 F 
ATOM     78  C   UNL A   1      45.755  27.459  37.497  1.00  0.00     0.060 A 
BRANCH  78  79
ATOM     79  S   UNL A   1      46.958  26.720  38.631  1.00  0.00     0.124 S 
ATOM     80  O   UNL A   1      47.617  27.821  39.464  1.00  0.00    -0.237 OA
ATOM     81  O   UNL A   1      46.244  25.735  39.559  1.00  0.00    -0.237 OA
ATOM     82  O   UNL A   1      48.153  25.892  37.732  1.00  0.00    -0.744 OA
ENDBRANCH  78  79
ENDBRANCH  57  71
BRANCH  58  83
ATOM     83  C   UNL A   1      36.534  33.109  30.866  1.00  0.00     0.058 A 
ATOM     84  C   UNL A   1      36.805  33.971  29.816  1.00  0.00     0.135 A 
ATOM     85  C   UNL A   1      35.298  32.950  31.325  1.00  0.00     0.135 A 
ATOM     86  F   UNL A   1      37.963  33.977  29.161  1.00  0.00    -0.206 F 
ATOM     87  C   UNL A   1      35.738  34.847  29.503  1.00  0.00     0.059 A 
ATOM     88  C   UNL A   1      34.277  33.751  30.876  1.00  0.00     0.059 A 
ATOM     89  F   UNL A   1      35.048  32.008  32.229  1.00  0.00    -0.206 F 
ATOM     90  C   UNL A   1      34.486  34.666  29.881  1.00  0.00     0.060 A 
BRANCH  90  91
ATOM     91  S   UNL A   1      33.120  35.581  29.125  1.00  0.00     0.124 S 
ATOM     92  O   UNL A   1      32.153  36.050  30.215  1.00  0.00    -0.237 OA
ATOM     93  O   UNL A   1      33.673  36.796  28.375  1.00  0.00    -0.237 OA
ATOM     94  O   UNL A   1      32.291  34.563  28.028  1.00  0.00    -0.744 OA
ENDBRANCH  90  91
ENDBRANCH  58  83
BRANCH  70  95
ATOM     95  C   UNL A   1      39.776  34.342  36.973  1.00  0.00     0.058 A 
ATOM     96  C   UNL A   1      40.383  35.557  36.702  1.00  0.00     0.135 A 
ATOM     97  C   UNL A   1      39.058  34.163  38.076  1.00  0.00     0.135 A 
ATOM     98  F   UNL A   1      40.890  35.864  35.511  1.00  0.00    -0.206 F 
ATOM     99  C   UNL A   1      40.414  36.442  37.805  1.00  0.00     0.059 A 
ATOM    100  C   UNL A   1      39.024  35.127  39.054  1.00  0.00     0.059 A 
ATOM    101  F   UNL A   1      38.367  33.038  38.236  1.00  0.00    -0.206 F 
ATOM    102  C   UNL A   1      39.651  36.329  38.877  1.00  0.00     0.060 A 
BRANCH 102 103
ATOM    103  S   UNL A   1      39.447  37.692  40.050  1.00  0.00     0.124 S 
ATOM    104  O   UNL A   1      39.143  37.129  41.440  1.00  0.00    -0.237 OA
ATOM    105  O   UNL A   1      40.735  38.516  40.104  1.00  0.00    -0.237 OA
ATOM    106  O   UNL A   1      38.153  38.689  39.545  1.00  0.00    -0.744 OA
ENDBRANCH 102 103
ENDBRANCH  70  95
ENDBRANCH  44  45
ENDBRANCH  37  39
ENDBRANCH  36  37
ENDBRANCH  35  36
ENDBRANCH  34  35
ENDBRANCH  33  34
ENDBRANCH  32  33
ENDBRANCH   1  32
TORSDOF 25
ENDMDL
MODEL 3
REMARK VINA RESULT:     -10.2      6.344     12.767
REMARK SMILES O=C(OCCOCCOCCOCCOC(=O)c1ccc(-c2c3nc(c(-c4c(F)cc(S(=O)(=O)[O-])cc4F)c4ccc([nH]4)c(-c4c(F)cc(S(=O)(=O)[O-])cc4F)c4nc(c(-c5c(F)cc(S(=O)(=O)[O-])cc5F)c5ccc2[nH]5)C=C4)C=C3)cc1)C1=Cc2cc(S(F)(F)(F)(F)F)cc(Br)c2O[C@@H]1C(F)(F)F
REMARK SMILES IDX 10 1 9 2 8 3 7 4 6 5 5 6 4 7 3 8 2 9 1 10 84 11 85 12 100 13
REMARK SMILES IDX 86 14 99 15 87 16 98 17 88 18 96 19 95 20 97 21 101 22
REMARK SMILES IDX 102 23 103 24 104 25 89 26 90 27 91 28 92 29 93 30 94 31
REMARK SMILES IDX 11 32 12 33 13 34 14 35 15 36 16 37 17 38 18 39 19 40 83 41
REMARK SMILES IDX 20 42 82 43 21 44 22 45 23 46 76 47 24 48 81 49 75 50 77 51
REMARK SMILES IDX 25 52 80 53 74 54 73 55 26 57 60 58 39 59 59 60 40 61 43 62
REMARK SMILES IDX 58 63 78 64 41 65 42 66 57 68 79 69 44 70 27 71 28 72 37 73
REMARK SMILES IDX 29 74 30 75 36 76 38 77 31 78 32 79 33 80 34 81 35 82 61 83
REMARK SMILES IDX 62 84 71 85 63 86 64 87 70 88 72 89 65 90 66 91 67 92 68 93
REMARK SMILES IDX 69 94 45 95 46 96 55 97 47 98 48 99 54 100 56 101 49 102
REMARK SMILES IDX 50 103 51 104 52 105 53 106
REMARK H PARENT 77 56 43 67
REMARK Flexibility Score: inf
ROOT
ATOM      1  C   UNL A   1      43.482  22.687  24.596  1.00  0.00     0.188 C 
ENDROOT
BRANCH   1   2
ATOM      2  O   UNL A   1      44.507  22.288  23.697  1.00  0.00    -0.377 OA
BRANCH   2   3
ATOM      3  C   UNL A   1      45.745  22.226  24.389  1.00  0.00     0.188 C 
BRANCH   3   4
ATOM      4  C   UNL A   1      46.290  23.633  24.578  1.00  0.00     0.188 C 
BRANCH   4   5
ATOM      5  O   UNL A   1      46.837  23.757  25.882  1.00  0.00    -0.376 OA
BRANCH   5   6
ATOM      6  C   UNL A   1      45.848  24.270  26.763  1.00  0.00     0.202 C 
BRANCH   6   7
ATOM      7  C   UNL A   1      45.178  25.476  26.128  1.00  0.00     0.261 C 
BRANCH   7   8
ATOM      8  O   UNL A   1      45.199  26.564  27.040  1.00  0.00    -0.460 OA
BRANCH   8   9
ATOM      9  C   UNL A   1      45.034  27.892  26.565  1.00  0.00     0.338 C 
ATOM     10  O   UNL A   1      44.478  28.100  25.441  1.00  0.00    -0.246 OA
BRANCH   9  11
ATOM     11  C   UNL A   1      45.522  29.064  27.401  1.00  0.00     0.087 C 
ATOM     12  C   UNL A   1      46.853  29.228  27.629  1.00  0.00     0.027 C 
ATOM     13  C   UNL A   1      44.524  30.052  27.981  1.00  0.00     0.316 C 
ATOM     14  C   UNL A   1      47.852  28.240  27.048  1.00  0.00     0.020 A 
ATOM     15  O   UNL A   1      46.735  28.239  24.950  1.00  0.00    -0.474 OA
ATOM     16  C   UNL A   1      48.772  27.722  27.945  1.00  0.00     0.036 A 
ATOM     17  C   UNL A   1      47.791  27.806  25.795  1.00  0.00     0.142 A 
ATOM     18  C   UNL A   1      49.788  26.945  27.339  1.00  0.00     0.109 A 
ATOM     19  C   UNL A   1      48.740  26.940  25.308  1.00  0.00     0.062 A 
ATOM     20  C   UNL A   1      49.715  26.434  26.123  1.00  0.00     0.044 A 
ATOM     21  Br  UNL A   1      48.697  26.423  23.418  1.00  0.00    -0.047 Br
BRANCH  13  22
ATOM     22  C   UNL A   1      44.818  31.444  27.446  1.00  0.00     0.430 C 
ATOM     23  F   UNL A   1      43.739  32.210  27.584  1.00  0.00    -0.167 F 
ATOM     24  F   UNL A   1      45.829  31.976  28.127  1.00  0.00    -0.167 F 
ATOM     25  F   UNL A   1      45.143  31.364  26.159  1.00  0.00    -0.167 F 
ENDBRANCH  13  22
BRANCH  18  26
ATOM     26  S   UNL A   1      51.291  26.629  28.296  1.00  0.00     0.310 S 
ATOM     27  F   UNL A   1      50.939  27.787  29.322  1.00  0.00    -0.094 F 
ATOM     28  F   UNL A   1      52.049  27.713  27.439  1.00  0.00    -0.094 F 
ATOM     29  F   UNL A   1      52.570  26.357  29.137  1.00  0.00    -0.094 F 
ATOM     30  F   UNL A   1      50.478  25.651  29.232  1.00  0.00    -0.094 F 
ATOM     31  F   UNL A   1      49.956  26.978  27.525  1.00  0.00    -0.094 F 
ENDBRANCH  18  26
ENDBRANCH   9  11
ENDBRANCH   8   9
ENDBRANCH   7   8
ENDBRANCH   6   7
ENDBRANCH   5   6
ENDBRANCH   4   5
ENDBRANCH   3   4
ENDBRANCH   2   3
ENDBRANCH   1   2
BRANCH   1  32
ATOM     32  C   UNL A   1      43.354  21.658  25.706  1.00  0.00     0.188 C 
BRANCH  32  33
ATOM     33  O   UNL A   1      42.271  22.010  26.556  1.00  0.00    -0.376 OA
BRANCH  33  34
ATOM     34  C   UNL A   1      41.199  21.101  26.355  1.00  0.00     0.202 C 
BRANCH  34  35
ATOM     35  C   UNL A   1      39.900  21.738  26.821  1.00  0.00     0.261 C 
BRANCH  35  36
ATOM     36  O   UNL A   1      39.387  22.573  25.792  1.00  0.00    -0.460 OA
BRANCH  36  37
ATOM     37  C   UNL A   1      38.705  23.773  26.125  1.00  0.00     0.338 C 
ATOM     38  O   UNL A   1      37.547  23.998  25.653  1.00  0.00    -0.246 OA
BRANCH  37  39
ATOM     39  C   UNL A   1      39.361  24.789  27.045  1.00  0.00     0.060 A 
ATOM     40  C   UNL A   1      40.263  25.639  26.428  1.00  0.00     0.016 A 
ATOM     41  C   UNL A   1      39.008  24.962  28.313  1.00  0.00     0.016 A 
ATOM     42  C   UNL A   1      40.963  26.481  27.325  1.00  0.00     0.010 A 
ATOM     43  C   UNL A   1      39.642  25.897  29.095  1.00  0.00     0.010 A 
ATOM     44  C   UNL A   1      40.586  26.733  28.565  1.00  0.00    -0.014 A 
BRANCH  44  45
ATOM     45  C   UNL A   1      41.170  27.888  29.362  1.00  0.00     0.031 A 
ATOM     46  C   UNL A   1      42.395  27.755  30.016  1.00  0.00     0.074 A 
ATOM     47  C   UNL A   1      40.325  28.974  29.514  1.00  0.00     0.049 A 
ATOM     48  N   UNL A   1      42.973  28.624  30.847  1.00  0.00    -0.248 NA
ATOM     49  C   UNL A   1      43.279  26.587  29.883  1.00  0.00     0.031 C 
ATOM     50  C   UNL A   1      39.091  29.120  28.851  1.00  0.00     0.029 A 
ATOM     51  N   UNL A   1      40.510  30.083  30.310  1.00  0.00    -0.354 N 
ATOM     52  C   UNL A   1      44.151  28.154  31.260  1.00  0.00     0.074 A 
ATOM     53  C   UNL A   1      44.362  26.834  30.650  1.00  0.00     0.031 C 
ATOM     54  C   UNL A   1      38.534  30.294  29.249  1.00  0.00     0.029 A 
ATOM     55  C   UNL A   1      39.411  30.902  30.168  1.00  0.00     0.049 A 
ATOM     56  H   UNL A   1      41.291  30.260  30.881  1.00  0.00     0.167 HD
ATOM     57  C   UNL A   1      45.060  28.775  32.119  1.00  0.00     0.037 A 
ATOM     58  C   UNL A   1      39.168  32.113  30.797  1.00  0.00     0.037 A 
ATOM     59  C   UNL A   1      44.836  30.006  32.714  1.00  0.00     0.049 A 
ATOM     60  C   UNL A   1      40.050  32.707  31.701  1.00  0.00     0.074 A 
ATOM     61  C   UNL A   1      45.744  30.650  33.576  1.00  0.00     0.029 A 
ATOM     62  N   UNL A   1      43.727  30.813  32.591  1.00  0.00    -0.354 N 
ATOM     63  N   UNL A   1      41.246  32.256  32.083  1.00  0.00    -0.248 NA
ATOM     64  C   UNL A   1      39.789  33.973  32.398  1.00  0.00     0.031 C 
ATOM     65  C   UNL A   1      45.187  31.824  33.975  1.00  0.00     0.029 A 
ATOM     66  C   UNL A   1      43.921  31.933  33.369  1.00  0.00     0.049 A 
ATOM     67  H   UNL A   1      42.932  30.622  32.042  1.00  0.00     0.167 HD
ATOM     68  C   UNL A   1      41.805  33.106  32.946  1.00  0.00     0.074 A 
ATOM     69  C   UNL A   1      40.872  34.220  33.167  1.00  0.00     0.031 C 
ATOM     70  C   UNL A   1      43.056  33.000  33.556  1.00  0.00     0.037 A 
BRANCH  57  71
ATOM     71  C   UNL A   1      46.368  28.061  32.418  1.00  0.00     0.058 A 
ATOM     72  C   UNL A   1      46.503  27.088  33.395  1.00  0.00     0.135 A 
ATOM     73  C   UNL A   1      47.359  28.337  31.579  1.00  0.00     0.135 A 
ATOM     74  F   UNL A   1      45.473  26.604  34.083  1.00  0.00    -0.206 F 
ATOM     75  C   UNL A   1      47.835  26.656  33.593  1.00  0.00     0.059 A 
ATOM     76  C   UNL A   1      48.600  27.773  31.753  1.00  0.00     0.059 A 
ATOM     77  F   UNL A   1      47.149  29.166  30.561  1.00  0.00    -0.206 F 
ATOM     78  C   UNL A   1      48.820  26.847  32.735  1.00  0.00     0.060 A 
BRANCH  78  79
ATOM     79  S   UNL A   1      50.380  25.934  32.853  1.00  0.00     0.124 S 
ATOM     80  O   UNL A   1      50.696  25.653  34.323  1.00  0.00    -0.237 OA
ATOM     81  O   UNL A   1      50.253  24.611  32.096  1.00  0.00    -0.237 OA
ATOM     82  O   UNL A   1      51.638  26.866  32.166  1.00  0.00    -0.744 OA
ENDBRANCH  78  79
ENDBRANCH  57  71
BRANCH  58  83
ATOM     83  C   UNL A   1      37.867  32.834  30.484  1.00  0.00     0.058 A 
ATOM     84  C   UNL A   1      36.689  32.517  31.140  1.00  0.00     0.135 A 
ATOM     85  C   UNL A   1      37.875  33.664  29.446  1.00  0.00     0.135 A 
ATOM     86  F   UNL A   1      36.659  31.904  32.321  1.00  0.00    -0.206 F 
ATOM     87  C   UNL A   1      35.521  32.903  30.442  1.00  0.00     0.059 A 
ATOM     88  C   UNL A   1      36.697  34.109  28.898  1.00  0.00     0.059 A 
ATOM     89  F   UNL A   1      39.034  34.065  28.934  1.00  0.00    -0.206 F 
ATOM     90  C   UNL A   1      35.493  33.787  29.461  1.00  0.00     0.060 A 
BRANCH  90  91
ATOM     91  S   UNL A   1      33.945  34.529  28.890  1.00  0.00     0.124 S 
ATOM     92  O   UNL A   1      34.243  35.856  28.187  1.00  0.00    -0.237 OA
ATOM     93  O   UNL A   1      33.253  33.578  27.911  1.00  0.00    -0.237 OA
ATOM     94  O   UNL A   1      32.921  34.813  30.231  1.00  0.00    -0.744 OA
ENDBRANCH  90  91
ENDBRANCH  58  83
BRANCH  70  95
ATOM     95  C   UNL A   1      43.497  34.123  34.481  1.00  0.00     0.058 A 
ATOM     96  C   UNL A   1      43.186  33.945  35.818  1.00  0.00     0.135 A 
ATOM     97  C   UNL A   1      44.224  35.158  34.074  1.00  0.00     0.135 A 
ATOM     98  F   UNL A   1      42.688  32.811  36.302  1.00  0.00    -0.206 F 
ATOM     99  C   UNL A   1      43.448  35.078  36.624  1.00  0.00     0.059 A 
ATOM    100  C   UNL A   1      44.559  36.163  34.948  1.00  0.00     0.059 A 
ATOM    101  F   UNL A   1      44.630  35.221  32.810  1.00  0.00    -0.206 F 
ATOM    102  C   UNL A   1      44.233  36.081  36.273  1.00  0.00     0.060 A 
BRANCH 102 103
ATOM    103  S   UNL A   1      44.844  37.281  37.482  1.00  0.00     0.124 S 
ATOM    104  O   UNL A   1      43.662  37.878  38.251  1.00  0.00    -0.237 OA
ATOM    105  O   UNL A   1      45.789  36.583  38.462  1.00  0.00    -0.237 OA
ATOM    106  O   UNL A   1      45.684  38.530  36.670  1.00  0.00    -0.744 OA
ENDBRANCH 102 103
ENDBRANCH  70  95
ENDBRANCH  44  45
ENDBRANCH  37  39
ENDBRANCH  36  37
ENDBRANCH  35  36
ENDBRANCH  34  35
ENDBRANCH  33  34
ENDBRANCH  32  33
ENDBRANCH   1  32
TORSDOF 25
ENDMDL
