MODEL 1
REMARK VINA RESULT:      -9.3      0.000      0.000
REMARK SMILES C[C@@H](C(=O)OCCOCCOCCOCCOC(=O)c1ccc(-c2c3nc(c(-c4c(F)cc(S(=O)(=O)[O-])cc4F)c4ccc([nH]4)c(-c4c(F)cc(S(=O)(=O)[O-])cc4F)c4nc(c(-c5c(F)cc(S(=O)(=O)[O-])cc5F)c5ccc2[nH]5)C=C4)C=C3)cc1)c1ccc(C[C@H]2CCC[C@@H]2O)cc1
REMARK SMILES IDX 10 1 9 2 8 3 7 4 6 5 5 6 3 7 4 8 2 9 1 10 86 11 87 12 98 13
REMARK SMILES IDX 88 14 97 15 89 16 90 17 91 18 92 19 95 20 93 21 94 22 96 23
REMARK SMILES IDX 11 25 12 26 13 27 14 28 15 29 16 30 17 31 18 32 19 33 20 34
REMARK SMILES IDX 21 35 85 36 22 37 84 38 23 39 24 40 25 41 78 42 26 43 83 44
REMARK SMILES IDX 77 45 79 46 27 47 82 48 76 49 75 50 28 52 62 53 41 54 61 55
REMARK SMILES IDX 42 56 45 57 60 58 80 59 43 60 44 61 59 63 81 64 46 65 29 66
REMARK SMILES IDX 30 67 39 68 31 69 32 70 38 71 40 72 33 73 34 74 35 75 36 76
REMARK SMILES IDX 37 77 63 78 64 79 73 80 65 81 66 82 72 83 74 84 67 85 68 86
REMARK SMILES IDX 69 87 70 88 71 89 47 90 48 91 57 92 49 93 50 94 56 95 58 96
REMARK SMILES IDX 51 97 52 98 53 99 54 100 55 101
REMARK H PARENT 96 24 79 51 45 62
REMARK Flexibility Score: inf
ROOT
ATOM      1  C   UNL A   1      35.560  31.678  28.158  1.00  0.00     0.188 C 
ENDROOT
BRANCH   1   2
ATOM      2  C   UNL A   1      34.081  31.519  27.754  1.00  0.00     0.188 C 
BRANCH   2   3
ATOM      3  O   UNL A   1      33.559  30.229  27.485  1.00  0.00    -0.376 OA
BRANCH   3   4
ATOM      4  C   UNL A   1      33.313  29.834  26.143  1.00  0.00     0.202 C 
BRANCH   4   5
ATOM      5  C   UNL A   1      31.965  30.092  25.432  1.00  0.00     0.261 C 
BRANCH   5   6
ATOM      6  O   UNL A   1      31.262  28.962  24.878  1.00  0.00    -0.463 OA
BRANCH   6   7
ATOM      7  C   UNL A   1      31.647  28.537  23.646  1.00  0.00     0.313 C 
ATOM      8  O   UNL A   1      30.958  28.671  22.639  1.00  0.00    -0.252 OA
BRANCH   7   9
ATOM      9  C   UNL A   1      33.038  27.860  23.614  1.00  0.00     0.126 C 
ATOM     10  C   UNL A   1      33.835  27.864  22.305  1.00  0.00     0.025 C 
BRANCH   9  11
ATOM     11  C   UNL A   1      32.983  26.470  24.255  1.00  0.00    -0.034 A 
ATOM     12  C   UNL A   1      32.735  26.275  25.623  1.00  0.00     0.005 A 
ATOM     13  C   UNL A   1      33.295  25.345  23.487  1.00  0.00     0.005 A 
ATOM     14  C   UNL A   1      32.938  25.035  26.232  1.00  0.00     0.004 A 
ATOM     15  C   UNL A   1      33.470  24.096  24.089  1.00  0.00     0.004 A 
ATOM     16  C   UNL A   1      33.364  23.945  25.477  1.00  0.00    -0.048 A 
BRANCH  16  17
ATOM     17  C   UNL A   1      33.767  22.651  26.141  1.00  0.00     0.041 C 
BRANCH  17  18
ATOM     18  C   UNL A   1      33.971  21.449  25.196  1.00  0.00     0.022 C 
ATOM     19  C   UNL A   1      35.425  20.995  24.980  1.00  0.00     0.007 C 
ATOM     20  C   UNL A   1      33.226  20.163  25.569  1.00  0.00     0.117 C 
ATOM     21  C   UNL A   1      35.379  19.473  24.810  1.00  0.00     0.003 C 
ATOM     22  C   UNL A   1      33.906  19.119  24.693  1.00  0.00     0.032 C 
BRANCH  20  23
ATOM     23  O   UNL A   1      31.847  20.242  25.254  1.00  0.00    -0.393 OA
ATOM     24  H   UNL A   1      31.339  20.411  26.062  1.00  0.00     0.210 HD
ENDBRANCH  20  23
ENDBRANCH  17  18
ENDBRANCH  16  17
ENDBRANCH   9  11
ENDBRANCH   7   9
ENDBRANCH   6   7
ENDBRANCH   5   6
ENDBRANCH   4   5
ENDBRANCH   3   4
ENDBRANCH   2   3
ENDBRANCH   1   2
BRANCH   1  25
ATOM     25  O   UNL A   1      35.769  32.191  29.453  1.00  0.00    -0.377 OA
BRANCH  25  26
ATOM     26  C   UNL A   1      34.677  32.860  30.059  1.00  0.00     0.188 C 
BRANCH  26  27
ATOM     27  C   UNL A   1      34.751  33.177  31.566  1.00  0.00     0.188 C 
BRANCH  27  28
ATOM     28  O   UNL A   1      36.034  32.964  32.150  1.00  0.00    -0.376 OA
BRANCH  28  29
ATOM     29  C   UNL A   1      36.132  32.131  33.296  1.00  0.00     0.202 C 
BRANCH  29  30
ATOM     30  C   UNL A   1      37.463  31.395  33.518  1.00  0.00     0.261 C 
BRANCH  30  31
ATOM     31  O   UNL A   1      37.477  29.992  33.219  1.00  0.00    -0.460 OA
BRANCH  31  32
ATOM     32  C   UNL A   1      37.369  29.622  31.921  1.00  0.00     0.338 C 
ATOM     33  O   UNL A   1      36.350  29.469  31.288  1.00  0.00    -0.246 OA
BRANCH  32  34
ATOM     34  C   UNL A   1      38.733  29.641  31.344  1.00  0.00     0.060 A 
ATOM     35  C   UNL A   1      38.905  30.117  30.037  1.00  0.00     0.016 A 
ATOM     36  C   UNL A   1      39.832  29.221  32.095  1.00  0.00     0.016 A 
ATOM     37  C   UNL A   1      40.177  30.142  29.465  1.00  0.00     0.010 A 
ATOM     38  C   UNL A   1      41.102  29.219  31.512  1.00  0.00     0.010 A 
ATOM     39  C   UNL A   1      41.273  29.646  30.183  1.00  0.00    -0.014 A 
BRANCH  39  40
ATOM     40  C   UNL A   1      42.544  29.366  29.473  1.00  0.00     0.031 A 
ATOM     41  C   UNL A   1      42.730  27.996  28.880  1.00  0.00     0.074 A 
ATOM     42  C   UNL A   1      43.500  30.302  29.339  1.00  0.00     0.049 A 
ATOM     43  N   UNL A   1      43.765  27.490  28.263  1.00  0.00    -0.248 NA
ATOM     44  C   UNL A   1      41.592  27.069  29.004  1.00  0.00     0.031 C 
ATOM     45  C   UNL A   1      43.414  31.677  29.827  1.00  0.00     0.029 A 
ATOM     46  N   UNL A   1      44.739  30.230  28.754  1.00  0.00    -0.354 N 
ATOM     47  C   UNL A   1      43.408  26.186  27.936  1.00  0.00     0.074 A 
ATOM     48  C   UNL A   1      42.074  25.969  28.447  1.00  0.00     0.031 C 
ATOM     49  C   UNL A   1      44.560  32.316  29.531  1.00  0.00     0.029 A 
ATOM     50  C   UNL A   1      45.472  31.388  28.866  1.00  0.00     0.049 A 
ATOM     51  H   UNL A   1      45.073  29.424  28.296  1.00  0.00     0.167 HD
ATOM     52  C   UNL A   1      44.128  25.256  27.266  1.00  0.00     0.037 A 
ATOM     53  C   UNL A   1      46.742  31.654  28.495  1.00  0.00     0.037 A 
ATOM     54  C   UNL A   1      45.457  25.481  26.761  1.00  0.00     0.049 A 
ATOM     55  C   UNL A   1      47.552  30.576  27.816  1.00  0.00     0.074 A 
ATOM     56  C   UNL A   1      46.264  24.612  26.050  1.00  0.00     0.029 A 
ATOM     57  N   UNL A   1      46.178  26.655  26.923  1.00  0.00    -0.354 N 
ATOM     58  N   UNL A   1      47.196  29.355  27.491  1.00  0.00    -0.248 NA
ATOM     59  C   UNL A   1      48.937  30.913  27.454  1.00  0.00     0.031 C 
ATOM     60  C   UNL A   1      47.497  25.238  25.837  1.00  0.00     0.029 A 
ATOM     61  C   UNL A   1      47.432  26.522  26.353  1.00  0.00     0.049 A 
ATOM     62  H   UNL A   1      45.846  27.465  27.376  1.00  0.00     0.167 HD
ATOM     63  C   UNL A   1      48.300  28.792  26.854  1.00  0.00     0.074 A 
ATOM     64  C   UNL A   1      49.331  29.809  26.834  1.00  0.00     0.031 C 
ATOM     65  C   UNL A   1      48.446  27.550  26.330  1.00  0.00     0.037 A 
BRANCH  52  66
ATOM     66  C   UNL A   1      43.509  23.899  27.073  1.00  0.00     0.058 A 
ATOM     67  C   UNL A   1      42.912  23.518  25.861  1.00  0.00     0.135 A 
ATOM     68  C   UNL A   1      43.545  22.952  28.110  1.00  0.00     0.135 A 
ATOM     69  F   UNL A   1      42.829  24.390  24.843  1.00  0.00    -0.206 F 
ATOM     70  C   UNL A   1      42.352  22.256  25.692  1.00  0.00     0.059 A 
ATOM     71  C   UNL A   1      43.019  21.674  27.953  1.00  0.00     0.059 A 
ATOM     72  F   UNL A   1      44.097  23.266  29.293  1.00  0.00    -0.206 F 
ATOM     73  C   UNL A   1      42.414  21.339  26.743  1.00  0.00     0.060 A 
BRANCH  73  74
ATOM     74  S   UNL A   1      41.695  19.701  26.502  1.00  0.00     0.124 S 
ATOM     75  O   UNL A   1      40.267  19.997  26.562  1.00  0.00    -0.237 OA
ATOM     76  O   UNL A   1      42.210  19.328  25.188  1.00  0.00    -0.237 OA
ATOM     77  O   UNL A   1      42.223  18.929  27.621  1.00  0.00    -0.744 OA
ENDBRANCH  73  74
ENDBRANCH  52  66
BRANCH  53  78
ATOM     78  C   UNL A   1      47.336  32.992  28.765  1.00  0.00     0.058 A 
ATOM     79  C   UNL A   1      47.973  33.272  29.985  1.00  0.00     0.135 A 
ATOM     80  C   UNL A   1      47.265  34.025  27.817  1.00  0.00     0.135 A 
ATOM     81  F   UNL A   1      48.054  32.324  30.931  1.00  0.00    -0.206 F 
ATOM     82  C   UNL A   1      48.501  34.529  30.261  1.00  0.00     0.059 A 
ATOM     83  C   UNL A   1      47.813  35.282  28.059  1.00  0.00     0.059 A 
ATOM     84  F   UNL A   1      46.672  33.812  26.632  1.00  0.00    -0.206 F 
ATOM     85  C   UNL A   1      48.420  35.527  29.289  1.00  0.00     0.060 A 
BRANCH  85  86
ATOM     86  S   UNL A   1      49.152  37.141  29.641  1.00  0.00     0.124 S 
ATOM     87  O   UNL A   1      50.351  36.765  30.381  1.00  0.00    -0.237 OA
ATOM     88  O   UNL A   1      49.369  37.674  28.300  1.00  0.00    -0.237 OA
ATOM     89  O   UNL A   1      48.116  37.818  30.416  1.00  0.00    -0.744 OA
ENDBRANCH  85  86
ENDBRANCH  53  78
BRANCH  65  90
ATOM     90  C   UNL A   1      49.747  27.225  25.645  1.00  0.00     0.058 A 
ATOM     91  C   UNL A   1      49.949  27.467  24.278  1.00  0.00     0.135 A 
ATOM     92  C   UNL A   1      50.829  26.719  26.386  1.00  0.00     0.135 A 
ATOM     93  F   UNL A   1      48.949  27.946  23.521  1.00  0.00    -0.206 F 
ATOM     94  C   UNL A   1      51.168  27.197  23.663  1.00  0.00     0.059 A 
ATOM     95  C   UNL A   1      52.067  26.473  25.800  1.00  0.00     0.059 A 
ATOM     96  F   UNL A   1      50.697  26.481  27.701  1.00  0.00    -0.206 F 
ATOM     97  C   UNL A   1      52.223  26.703  24.435  1.00  0.00     0.060 A 
BRANCH  97  98
ATOM     98  S   UNL A   1      53.809  26.390  23.632  1.00  0.00     0.124 S 
ATOM     99  O   UNL A   1      54.370  25.347  24.484  1.00  0.00    -0.237 OA
ATOM    100  O   UNL A   1      53.403  25.966  22.295  1.00  0.00    -0.237 OA
ATOM    101  O   UNL A   1      54.484  27.682  23.695  1.00  0.00    -0.744 OA
ENDBRANCH  97  98
ENDBRANCH  65  90
ENDBRANCH  39  40
ENDBRANCH  32  34
ENDBRANCH  31  32
ENDBRANCH  30  31
ENDBRANCH  29  30
ENDBRANCH  28  29
ENDBRANCH  27  28
ENDBRANCH  26  27
ENDBRANCH  25  26
ENDBRANCH   1  25
TORSDOF 27
ENDMDL
MODEL 2
REMARK VINA RESULT:      -8.9      1.201      2.054
REMARK SMILES C[C@@H](C(=O)OCCOCCOCCOCCOC(=O)c1ccc(-c2c3nc(c(-c4c(F)cc(S(=O)(=O)[O-])cc4F)c4ccc([nH]4)c(-c4c(F)cc(S(=O)(=O)[O-])cc4F)c4nc(c(-c5c(F)cc(S(=O)(=O)[O-])cc5F)c5ccc2[nH]5)C=C4)C=C3)cc1)c1ccc(C[C@H]2CCC[C@@H]2O)cc1
REMARK SMILES IDX 10 1 9 2 8 3 7 4 6 5 5 6 3 7 4 8 2 9 1 10 86 11 87 12 98 13
REMARK SMILES IDX 88 14 97 15 89 16 90 17 91 18 92 19 95 20 93 21 94 22 96 23
REMARK SMILES IDX 11 25 12 26 13 27 14 28 15 29 16 30 17 31 18 32 19 33 20 34
REMARK SMILES IDX 21 35 85 36 22 37 84 38 23 39 24 40 25 41 78 42 26 43 83 44
REMARK SMILES IDX 77 45 79 46 27 47 82 48 76 49 75 50 28 52 62 53 41 54 61 55
REMARK SMILES IDX 42 56 45 57 60 58 80 59 43 60 44 61 59 63 81 64 46 65 29 66
REMARK SMILES IDX 30 67 39 68 31 69 32 70 38 71 40 72 33 73 34 74 35 75 36 76
REMARK SMILES IDX 37 77 63 78 64 79 73 80 65 81 66 82 72 83 74 84 67 85 68 86
REMARK SMILES IDX 69 87 70 88 71 89 47 90 48 91 57 92 49 93 50 94 56 95 58 96
REMARK SMILES IDX 51 97 52 98 53 99 54 100 55 101
REMARK H PARENT 96 24 79 51 45 62
REMARK Flexibility Score: inf
ROOT
ATOM      1  C   UNL A   1      34.378  31.192  27.246  1.00  0.00     0.188 C 
ENDROOT
BRANCH   1   2
ATOM      2  C   UNL A   1      32.899  30.756  27.252  1.00  0.00     0.188 C 
BRANCH   2   3
ATOM      3  O   UNL A   1      32.572  29.379  27.340  1.00  0.00    -0.376 OA
BRANCH   3   4
ATOM      4  C   UNL A   1      32.610  28.570  26.174  1.00  0.00     0.202 C 
BRANCH   4   5
ATOM      5  C   UNL A   1      31.397  27.740  25.696  1.00  0.00     0.261 C 
BRANCH   5   6
ATOM      6  O   UNL A   1      31.597  26.337  25.429  1.00  0.00    -0.463 OA
BRANCH   6   7
ATOM      7  C   UNL A   1      31.415  25.919  24.148  1.00  0.00     0.313 C 
ATOM      8  O   UNL A   1      30.309  25.752  23.642  1.00  0.00    -0.252 OA
BRANCH   7   9
ATOM      9  C   UNL A   1      32.728  25.666  23.370  1.00  0.00     0.126 C 
ATOM     10  C   UNL A   1      32.828  26.126  21.912  1.00  0.00     0.025 C 
BRANCH   9  11
ATOM     11  C   UNL A   1      33.202  24.221  23.556  1.00  0.00    -0.034 A 
ATOM     12  C   UNL A   1      32.320  23.129  23.564  1.00  0.00     0.005 A 
ATOM     13  C   UNL A   1      34.547  23.969  23.836  1.00  0.00     0.005 A 
ATOM     14  C   UNL A   1      32.731  21.861  23.983  1.00  0.00     0.004 A 
ATOM     15  C   UNL A   1      34.969  22.695  24.227  1.00  0.00     0.004 A 
ATOM     16  C   UNL A   1      34.051  21.646  24.373  1.00  0.00    -0.048 A 
BRANCH  16  17
ATOM     17  C   UNL A   1      34.472  20.342  25.003  1.00  0.00     0.041 C 
BRANCH  17  18
ATOM     18  C   UNL A   1      33.615  19.113  24.635  1.00  0.00     0.022 C 
ATOM     19  C   UNL A   1      32.596  19.312  23.500  1.00  0.00     0.007 C 
ATOM     20  C   UNL A   1      34.384  17.850  24.234  1.00  0.00     0.117 C 
ATOM     21  C   UNL A   1      32.521  17.978  22.752  1.00  0.00     0.003 C 
ATOM     22  C   UNL A   1      33.300  16.988  23.601  1.00  0.00     0.032 C 
BRANCH  20  23
ATOM     23  O   UNL A   1      34.937  17.190  25.360  1.00  0.00    -0.393 OA
ATOM     24  H   UNL A   1      35.486  16.448  25.063  1.00  0.00     0.210 HD
ENDBRANCH  20  23
ENDBRANCH  17  18
ENDBRANCH  16  17
ENDBRANCH   9  11
ENDBRANCH   7   9
ENDBRANCH   6   7
ENDBRANCH   5   6
ENDBRANCH   4   5
ENDBRANCH   3   4
ENDBRANCH   2   3
ENDBRANCH   1   2
BRANCH   1  25
ATOM     25  O   UNL A   1      34.640  32.412  27.901  1.00  0.00    -0.377 OA
BRANCH  25  26
ATOM     26  C   UNL A   1      33.559  33.323  28.009  1.00  0.00     0.188 C 
BRANCH  26  27
ATOM     27  C   UNL A   1      33.547  34.313  29.190  1.00  0.00     0.188 C 
BRANCH  27  28
ATOM     28  O   UNL A   1      34.768  34.372  29.922  1.00  0.00    -0.376 OA
BRANCH  28  29
ATOM     29  C   UNL A   1      35.049  33.348  30.866  1.00  0.00     0.202 C 
BRANCH  29  30
ATOM     30  C   UNL A   1      36.047  32.258  30.444  1.00  0.00     0.261 C 
BRANCH  30  31
ATOM     31  O   UNL A   1      36.740  31.581  31.501  1.00  0.00    -0.460 OA
BRANCH  31  32
ATOM     32  C   UNL A   1      37.045  30.273  31.320  1.00  0.00     0.338 C 
ATOM     33  O   UNL A   1      36.293  29.330  31.402  1.00  0.00    -0.246 OA
BRANCH  32  34
ATOM     34  C   UNL A   1      38.427  30.215  30.790  1.00  0.00     0.060 A 
ATOM     35  C   UNL A   1      38.632  30.430  29.420  1.00  0.00     0.016 A 
ATOM     36  C   UNL A   1      39.509  29.979  31.640  1.00  0.00     0.016 A 
ATOM     37  C   UNL A   1      39.921  30.375  28.890  1.00  0.00     0.010 A 
ATOM     38  C   UNL A   1      40.797  29.896  31.104  1.00  0.00     0.010 A 
ATOM     39  C   UNL A   1      41.003  30.059  29.722  1.00  0.00    -0.014 A 
BRANCH  39  40
ATOM     40  C   UNL A   1      42.302  29.678  29.118  1.00  0.00     0.031 A 
ATOM     41  C   UNL A   1      42.461  28.265  28.625  1.00  0.00     0.074 A 
ATOM     42  C   UNL A   1      43.308  30.561  28.991  1.00  0.00     0.049 A 
ATOM     43  N   UNL A   1      43.508  27.676  28.112  1.00  0.00    -0.248 NA
ATOM     44  C   UNL A   1      41.274  27.398  28.730  1.00  0.00     0.031 C 
ATOM     45  C   UNL A   1      43.257  31.967  29.386  1.00  0.00     0.029 A 
ATOM     46  N   UNL A   1      44.578  30.397  28.495  1.00  0.00    -0.354 N 
ATOM     47  C   UNL A   1      43.112  26.370  27.844  1.00  0.00     0.074 A 
ATOM     48  C   UNL A   1      41.738  26.244  28.277  1.00  0.00     0.031 C 
ATOM     49  C   UNL A   1      44.448  32.535  29.128  1.00  0.00     0.029 A 
ATOM     50  C   UNL A   1      45.356  31.527  28.584  1.00  0.00     0.049 A 
ATOM     51  H   UNL A   1      44.902  29.550  28.112  1.00  0.00     0.167 HD
ATOM     52  C   UNL A   1      43.828  25.368  27.282  1.00  0.00     0.037 A 
ATOM     53  C   UNL A   1      46.658  31.713  28.283  1.00  0.00     0.037 A 
ATOM     54  C   UNL A   1      45.196  25.502  26.854  1.00  0.00     0.049 A 
ATOM     55  C   UNL A   1      47.458  30.560  27.728  1.00  0.00     0.074 A 
ATOM     56  C   UNL A   1      46.005  24.554  26.255  1.00  0.00     0.029 A 
ATOM     57  N   UNL A   1      45.959  26.652  26.991  1.00  0.00    -0.354 N 
ATOM     58  N   UNL A   1      47.066  29.337  27.456  1.00  0.00    -0.248 NA
ATOM     59  C   UNL A   1      48.877  30.812  27.439  1.00  0.00     0.031 C 
ATOM     60  C   UNL A   1      47.276  25.111  26.086  1.00  0.00     0.029 A 
ATOM     61  C   UNL A   1      47.240  26.428  26.516  1.00  0.00     0.049 A 
ATOM     62  H   UNL A   1      45.638  27.503  27.369  1.00  0.00     0.167 HD
ATOM     63  C   UNL A   1      48.180  28.686  26.931  1.00  0.00     0.074 A 
ATOM     64  C   UNL A   1      49.258  29.654  26.917  1.00  0.00     0.031 C 
ATOM     65  C   UNL A   1      48.300  27.407  26.497  1.00  0.00     0.037 A 
BRANCH  52  66
ATOM     66  C   UNL A   1      43.159  24.030  27.133  1.00  0.00     0.058 A 
ATOM     67  C   UNL A   1      43.179  23.068  28.156  1.00  0.00     0.135 A 
ATOM     68  C   UNL A   1      42.458  23.717  25.956  1.00  0.00     0.135 A 
ATOM     69  F   UNL A   1      43.854  23.303  29.292  1.00  0.00    -0.206 F 
ATOM     70  C   UNL A   1      42.548  21.837  28.008  1.00  0.00     0.059 A 
ATOM     71  C   UNL A   1      41.792  22.506  25.800  1.00  0.00     0.059 A 
ATOM     72  F   UNL A   1      42.413  24.597  24.943  1.00  0.00    -0.206 F 
ATOM     73  C   UNL A   1      41.853  21.567  26.828  1.00  0.00     0.060 A 
BRANCH  73  74
ATOM     74  S   UNL A   1      41.027  19.971  26.659  1.00  0.00     0.124 S 
ATOM     75  O   UNL A   1      39.841  20.336  25.892  1.00  0.00    -0.237 OA
ATOM     76  O   UNL A   1      42.025  19.180  25.946  1.00  0.00    -0.237 OA
ATOM     77  O   UNL A   1      40.781  19.567  28.040  1.00  0.00    -0.744 OA
ENDBRANCH  73  74
ENDBRANCH  52  66
BRANCH  53  78
ATOM     78  C   UNL A   1      47.297  33.040  28.509  1.00  0.00     0.058 A 
ATOM     79  C   UNL A   1      47.401  33.982  27.473  1.00  0.00     0.135 A 
ATOM     80  C   UNL A   1      47.832  33.387  29.759  1.00  0.00     0.135 A 
ATOM     81  F   UNL A   1      46.919  33.693  26.254  1.00  0.00    -0.206 F 
ATOM     82  C   UNL A   1      48.025  35.210  27.663  1.00  0.00     0.059 A 
ATOM     83  C   UNL A   1      48.435  34.622  29.982  1.00  0.00     0.059 A 
ATOM     84  F   UNL A   1      47.755  32.527  30.787  1.00  0.00    -0.206 F 
ATOM     85  C   UNL A   1      48.536  35.523  28.923  1.00  0.00     0.060 A 
BRANCH  85  86
ATOM     86  S   UNL A   1      49.302  37.140  29.171  1.00  0.00     0.124 S 
ATOM     87  O   UNL A   1      49.129  37.331  30.607  1.00  0.00    -0.237 OA
ATOM     88  O   UNL A   1      50.669  36.900  28.719  1.00  0.00    -0.237 OA
ATOM     89  O   UNL A   1      48.512  38.021  28.316  1.00  0.00    -0.744 OA
ENDBRANCH  85  86
ENDBRANCH  53  78
BRANCH  65  90
ATOM     90  C   UNL A   1      49.626  26.982  25.922  1.00  0.00     0.058 A 
ATOM     91  C   UNL A   1      49.902  27.062  24.548  1.00  0.00     0.135 A 
ATOM     92  C   UNL A   1      50.657  26.545  26.771  1.00  0.00     0.135 A 
ATOM     93  F   UNL A   1      48.952  27.469  23.691  1.00  0.00    -0.206 F 
ATOM     94  C   UNL A   1      51.143  26.701  24.033  1.00  0.00     0.059 A 
ATOM     95  C   UNL A   1      51.916  26.211  26.282  1.00  0.00     0.059 A 
ATOM     96  F   UNL A   1      50.454  26.462  28.096  1.00  0.00    -0.206 F 
ATOM     97  C   UNL A   1      52.146  26.280  24.910  1.00  0.00     0.060 A 
BRANCH  97  98
ATOM     98  S   UNL A   1      53.762  25.848  24.232  1.00  0.00     0.124 S 
ATOM     99  O   UNL A   1      53.555  26.078  22.806  1.00  0.00    -0.237 OA
ATOM    100  O   UNL A   1      54.645  26.795  24.905  1.00  0.00    -0.237 OA
ATOM    101  O   UNL A   1      53.934  24.453  24.623  1.00  0.00    -0.744 OA
ENDBRANCH  97  98
ENDBRANCH  65  90
ENDBRANCH  39  40
ENDBRANCH  32  34
ENDBRANCH  31  32
ENDBRANCH  30  31
ENDBRANCH  29  30
ENDBRANCH  28  29
ENDBRANCH  27  28
ENDBRANCH  26  27
ENDBRANCH  25  26
ENDBRANCH   1  25
TORSDOF 27
ENDMDL
MODEL 3
REMARK VINA RESULT:      -8.6      3.916     12.066
REMARK SMILES C[C@@H](C(=O)OCCOCCOCCOCCOC(=O)c1ccc(-c2c3nc(c(-c4c(F)cc(S(=O)(=O)[O-])cc4F)c4ccc([nH]4)c(-c4c(F)cc(S(=O)(=O)[O-])cc4F)c4nc(c(-c5c(F)cc(S(=O)(=O)[O-])cc5F)c5ccc2[nH]5)C=C4)C=C3)cc1)c1ccc(C[C@H]2CCC[C@@H]2O)cc1
REMARK SMILES IDX 10 1 9 2 8 3 7 4 6 5 5 6 3 7 4 8 2 9 1 10 86 11 87 12 98 13
REMARK SMILES IDX 88 14 97 15 89 16 90 17 91 18 92 19 95 20 93 21 94 22 96 23
REMARK SMILES IDX 11 25 12 26 13 27 14 28 15 29 16 30 17 31 18 32 19 33 20 34
REMARK SMILES IDX 21 35 85 36 22 37 84 38 23 39 24 40 25 41 78 42 26 43 83 44
REMARK SMILES IDX 77 45 79 46 27 47 82 48 76 49 75 50 28 52 62 53 41 54 61 55
REMARK SMILES IDX 42 56 45 57 60 58 80 59 43 60 44 61 59 63 81 64 46 65 29 66
REMARK SMILES IDX 30 67 39 68 31 69 32 70 38 71 40 72 33 73 34 74 35 75 36 76
REMARK SMILES IDX 37 77 63 78 64 79 73 80 65 81 66 82 72 83 74 84 67 85 68 86
REMARK SMILES IDX 69 87 70 88 71 89 47 90 48 91 57 92 49 93 50 94 56 95 58 96
REMARK SMILES IDX 51 97 52 98 53 99 54 100 55 101
REMARK H PARENT 96 24 79 51 45 62
REMARK Flexibility Score: inf
ROOT
ATOM      1  C   UNL A   1      42.645  36.071  33.273  1.00  0.00     0.188 C 
ENDROOT
BRANCH   1   2
ATOM      2  C   UNL A   1      42.728  36.899  34.570  1.00  0.00     0.188 C 
BRANCH   2   3
ATOM      3  O   UNL A   1      43.950  37.520  34.931  1.00  0.00    -0.376 OA
BRANCH   3   4
ATOM      4  C   UNL A   1      44.074  38.932  34.848  1.00  0.00     0.202 C 
BRANCH   4   5
ATOM      5  C   UNL A   1      43.702  39.728  33.577  1.00  0.00     0.261 C 
BRANCH   5   6
ATOM      6  O   UNL A   1      43.933  41.152  33.575  1.00  0.00    -0.463 OA
BRANCH   6   7
ATOM      7  C   UNL A   1      44.557  41.676  32.487  1.00  0.00     0.313 C 
ATOM      8  O   UNL A   1      45.747  41.502  32.242  1.00  0.00    -0.252 OA
BRANCH   7   9
ATOM      9  C   UNL A   1      43.638  42.522  31.574  1.00  0.00     0.126 C 
ATOM     10  C   UNL A   1      42.446  43.257  32.197  1.00  0.00     0.025 C 
BRANCH   9  11
ATOM     11  C   UNL A   1      43.244  41.737  30.320  1.00  0.00    -0.034 A 
ATOM     12  C   UNL A   1      41.967  41.180  30.143  1.00  0.00     0.005 A 
ATOM     13  C   UNL A   1      44.210  41.462  29.348  1.00  0.00     0.005 A 
ATOM     14  C   UNL A   1      41.705  40.264  29.123  1.00  0.00     0.004 A 
ATOM     15  C   UNL A   1      43.942  40.567  28.309  1.00  0.00     0.004 A 
ATOM     16  C   UNL A   1      42.710  39.905  28.228  1.00  0.00    -0.048 A 
BRANCH  16  17
ATOM     17  C   UNL A   1      42.505  38.783  27.239  1.00  0.00     0.041 C 
BRANCH  17  18
ATOM     18  C   UNL A   1      43.026  37.400  27.678  1.00  0.00     0.022 C 
ATOM     19  C   UNL A   1      43.492  37.282  29.140  1.00  0.00     0.007 C 
ATOM     20  C   UNL A   1      42.060  36.225  27.495  1.00  0.00     0.117 C 
ATOM     21  C   UNL A   1      43.138  35.862  29.590  1.00  0.00     0.003 C 
ATOM     22  C   UNL A   1      42.706  35.129  28.331  1.00  0.00     0.032 C 
BRANCH  20  23
ATOM     23  O   UNL A   1      41.974  35.819  26.140  1.00  0.00    -0.393 OA
ATOM     24  H   UNL A   1      42.795  36.050  25.681  1.00  0.00     0.210 HD
ENDBRANCH  20  23
ENDBRANCH  17  18
ENDBRANCH  16  17
ENDBRANCH   9  11
ENDBRANCH   7   9
ENDBRANCH   6   7
ENDBRANCH   5   6
ENDBRANCH   4   5
ENDBRANCH   3   4
ENDBRANCH   2   3
ENDBRANCH   1   2
BRANCH   1  25
ATOM     25  O   UNL A   1      42.421  34.692  33.462  1.00  0.00    -0.377 OA
BRANCH  25  26
ATOM     26  C   UNL A   1      41.669  34.025  32.464  1.00  0.00     0.188 C 
BRANCH  26  27
ATOM     27  C   UNL A   1      40.221  33.610  32.788  1.00  0.00     0.188 C 
BRANCH  27  28
ATOM     28  O   UNL A   1      39.251  34.630  32.564  1.00  0.00    -0.376 OA
BRANCH  28  29
ATOM     29  C   UNL A   1      38.356  34.492  31.469  1.00  0.00     0.202 C 
BRANCH  29  30
ATOM     30  C   UNL A   1      36.968  33.903  31.767  1.00  0.00     0.261 C 
BRANCH  30  31
ATOM     31  O   UNL A   1      36.854  32.474  31.712  1.00  0.00    -0.460 OA
BRANCH  31  32
ATOM     32  C   UNL A   1      36.609  31.907  30.506  1.00  0.00     0.338 C 
ATOM     33  O   UNL A   1      35.677  32.131  29.769  1.00  0.00    -0.246 OA
BRANCH  32  34
ATOM     34  C   UNL A   1      37.804  31.109  30.146  1.00  0.00     0.060 A 
ATOM     35  C   UNL A   1      38.629  30.629  31.173  1.00  0.00     0.016 A 
ATOM     36  C   UNL A   1      38.092  30.816  28.811  1.00  0.00     0.016 A 
ATOM     37  C   UNL A   1      39.764  29.882  30.864  1.00  0.00     0.010 A 
ATOM     38  C   UNL A   1      39.245  30.091  28.501  1.00  0.00     0.010 A 
ATOM     39  C   UNL A   1      40.104  29.651  29.525  1.00  0.00    -0.014 A 
BRANCH  39  40
ATOM     40  C   UNL A   1      41.460  29.154  29.190  1.00  0.00     0.031 A 
ATOM     41  C   UNL A   1      42.604  30.128  29.264  1.00  0.00     0.074 A 
ATOM     42  C   UNL A   1      41.678  27.871  28.850  1.00  0.00     0.049 A 
ATOM     43  N   UNL A   1      43.865  29.954  28.970  1.00  0.00    -0.248 NA
ATOM     44  C   UNL A   1      42.278  31.487  29.730  1.00  0.00     0.031 C 
ATOM     45  C   UNL A   1      40.659  26.825  28.792  1.00  0.00     0.029 A 
ATOM     46  N   UNL A   1      42.836  27.234  28.481  1.00  0.00    -0.354 N 
ATOM     47  C   UNL A   1      44.479  31.180  29.204  1.00  0.00     0.074 A 
ATOM     48  C   UNL A   1      43.448  32.097  29.636  1.00  0.00     0.031 C 
ATOM     49  C   UNL A   1      41.237  25.677  28.397  1.00  0.00     0.029 A 
ATOM     50  C   UNL A   1      42.656  25.914  28.140  1.00  0.00     0.049 A 
ATOM     51  H   UNL A   1      43.714  27.680  28.462  1.00  0.00     0.167 HD
ATOM     52  C   UNL A   1      45.786  31.509  29.073  1.00  0.00     0.037 A 
ATOM     53  C   UNL A   1      43.536  25.013  27.653  1.00  0.00     0.037 A 
ATOM     54  C   UNL A   1      46.805  30.589  28.642  1.00  0.00     0.049 A 
ATOM     55  C   UNL A   1      44.973  25.425  27.445  1.00  0.00     0.074 A 
ATOM     56  C   UNL A   1      48.162  30.817  28.497  1.00  0.00     0.029 A 
ATOM     57  N   UNL A   1      46.579  29.271  28.275  1.00  0.00    -0.354 N 
ATOM     58  N   UNL A   1      45.547  26.579  27.693  1.00  0.00    -0.248 NA
ATOM     59  C   UNL A   1      45.882  24.411  26.892  1.00  0.00     0.031 C 
ATOM     60  C   UNL A   1      48.746  29.655  27.982  1.00  0.00     0.029 A 
ATOM     61  C   UNL A   1      47.765  28.682  27.873  1.00  0.00     0.049 A 
ATOM     62  H   UNL A   1      45.703  28.820  28.296  1.00  0.00     0.167 HD
ATOM     63  C   UNL A   1      46.889  26.418  27.359  1.00  0.00     0.074 A 
ATOM     64  C   UNL A   1      47.042  25.053  26.900  1.00  0.00     0.031 C 
ATOM     65  C   UNL A   1      47.904  27.315  27.430  1.00  0.00     0.037 A 
BRANCH  52  66
ATOM     66  C   UNL A   1      46.181  32.930  29.365  1.00  0.00     0.058 A 
ATOM     67  C   UNL A   1      46.236  33.910  28.361  1.00  0.00     0.135 A 
ATOM     68  C   UNL A   1      46.477  33.325  30.681  1.00  0.00     0.135 A 
ATOM     69  F   UNL A   1      45.986  33.584  27.083  1.00  0.00    -0.206 F 
ATOM     70  C   UNL A   1      46.594  35.223  28.647  1.00  0.00     0.059 A 
ATOM     71  C   UNL A   1      46.806  34.640  30.994  1.00  0.00     0.059 A 
ATOM     72  F   UNL A   1      46.447  32.428  31.679  1.00  0.00    -0.206 F 
ATOM     73  C   UNL A   1      46.873  35.580  29.968  1.00  0.00     0.060 A 
BRANCH  73  74
ATOM     74  S   UNL A   1      47.321  37.292  30.322  1.00  0.00     0.124 S 
ATOM     75  O   UNL A   1      46.408  37.612  31.415  1.00  0.00    -0.237 OA
ATOM     76  O   UNL A   1      48.729  37.175  30.686  1.00  0.00    -0.237 OA
ATOM     77  O   UNL A   1      47.057  37.981  29.063  1.00  0.00    -0.744 OA
ENDBRANCH  73  74
ENDBRANCH  52  66
BRANCH  53  78
ATOM     78  C   UNL A   1      43.085  23.634  27.316  1.00  0.00     0.058 A 
ATOM     79  C   UNL A   1      42.813  23.262  25.990  1.00  0.00     0.135 A 
ATOM     80  C   UNL A   1      42.901  22.664  28.314  1.00  0.00     0.135 A 
ATOM     81  F   UNL A   1      42.958  24.157  25.000  1.00  0.00    -0.206 F 
ATOM     82  C   UNL A   1      42.359  21.988  25.668  1.00  0.00     0.059 A 
ATOM     83  C   UNL A   1      42.476  21.373  28.013  1.00  0.00     0.059 A 
ATOM     84  F   UNL A   1      43.151  22.964  29.599  1.00  0.00    -0.206 F 
ATOM     85  C   UNL A   1      42.198  21.048  26.687  1.00  0.00     0.060 A 
BRANCH  85  86
ATOM     86  S   UNL A   1      41.654  19.381  26.251  1.00  0.00     0.124 S 
ATOM     87  O   UNL A   1      40.235  19.595  25.987  1.00  0.00    -0.237 OA
ATOM     88  O   UNL A   1      42.483  19.086  25.086  1.00  0.00    -0.237 OA
ATOM     89  O   UNL A   1      41.964  18.603  27.446  1.00  0.00    -0.744 OA
ENDBRANCH  85  86
ENDBRANCH  53  78
BRANCH  65  90
ATOM     90  C   UNL A   1      49.284  26.846  27.050  1.00  0.00     0.058 A 
ATOM     91  C   UNL A   1      49.837  27.107  25.787  1.00  0.00     0.135 A 
ATOM     92  C   UNL A   1      50.086  26.177  27.989  1.00  0.00     0.135 A 
ATOM     93  F   UNL A   1      49.113  27.739  24.849  1.00  0.00    -0.206 F 
ATOM     94  C   UNL A   1      51.127  26.700  25.459  1.00  0.00     0.059 A 
ATOM     95  C   UNL A   1      51.390  25.790  27.695  1.00  0.00     0.059 A 
ATOM     96  F   UNL A   1      49.614  25.913  29.218  1.00  0.00    -0.206 F 
ATOM     97  C   UNL A   1      51.898  26.045  26.423  1.00  0.00     0.060 A 
BRANCH  97  98
ATOM     98  S   UNL A   1      53.581  25.553  25.996  1.00  0.00     0.124 S 
ATOM     99  O   UNL A   1      54.282  25.775  27.256  1.00  0.00    -0.237 OA
ATOM    100  O   UNL A   1      53.408  24.158  25.604  1.00  0.00    -0.237 OA
ATOM    101  O   UNL A   1      53.938  26.462  24.912  1.00  0.00    -0.744 OA
ENDBRANCH  97  98
ENDBRANCH  65  90
ENDBRANCH  39  40
ENDBRANCH  32  34
ENDBRANCH  31  32
ENDBRANCH  30  31
ENDBRANCH  29  30
ENDBRANCH  28  29
ENDBRANCH  27  28
ENDBRANCH  26  27
ENDBRANCH  25  26
ENDBRANCH   1  25
TORSDOF 27
ENDMDL
