MODEL 1
REMARK VINA RESULT:      -8.1      0.000      0.000
REMARK SMILES C[C@H]([NH2+]Cc1ccccc1F)C(=O)OCCOCCOCCOCCOC(=O)c1ccc(-c2c3nc(c(-c4c(F)cc(S(=O)(=O)[O-])cc4F)c4ccc([nH]4)c(-c4c(F)cc(S(=O)(=O)[O-])cc4F)c4nc(c(-c5c(F)cc(S(=O)(=O)[O-])cc5F)c5ccc2[nH]5)C=C4)C=C3)cc1
REMARK SMILES IDX 20 1 19 2 18 3 17 4 16 5 15 6 14 7 12 8 13 9 2 10 1 11 3 12
REMARK SMILES IDX 4 15 5 16 6 17 10 18 7 19 9 20 11 21 8 22 21 23 22 24 23 25
REMARK SMILES IDX 24 26 25 27 26 28 27 29 28 30 29 31 30 32 94 33 31 34 93 35
REMARK SMILES IDX 32 36 33 37 34 38 87 39 35 40 92 41 86 42 88 43 36 44 91 45
REMARK SMILES IDX 85 46 84 47 37 49 71 50 50 51 70 52 51 53 54 54 69 55 89 56
REMARK SMILES IDX 52 57 53 58 68 60 90 61 55 62 38 63 39 64 48 65 40 66 41 67
REMARK SMILES IDX 47 68 49 69 42 70 43 71 44 72 45 73 46 74 72 75 73 76 82 77
REMARK SMILES IDX 74 78 75 79 81 80 83 81 76 82 77 83 78 84 79 85 80 86 56 87
REMARK SMILES IDX 57 88 66 89 58 90 59 91 65 92 67 93 60 94 61 95 62 96 63 97
REMARK SMILES IDX 64 98
REMARK H PARENT 3 13 3 14 88 48 54 59
REMARK Flexibility Score: inf
ROOT
ATOM      1  O   UNL A   1      37.561  22.099  25.117  1.00  0.00    -0.377 OA
ENDROOT
BRANCH   1   2
ATOM      2  C   UNL A   1      36.262  21.791  25.578  1.00  0.00     0.188 C 
BRANCH   2   3
ATOM      3  C   UNL A   1      35.157  21.949  24.521  1.00  0.00     0.188 C 
BRANCH   3   4
ATOM      4  O   UNL A   1      34.697  23.230  24.109  1.00  0.00    -0.376 OA
BRANCH   4   5
ATOM      5  C   UNL A   1      33.709  23.933  24.849  1.00  0.00     0.202 C 
BRANCH   5   6
ATOM      6  C   UNL A   1      32.481  24.581  24.181  1.00  0.00     0.261 C 
BRANCH   6   7
ATOM      7  O   UNL A   1      32.212  25.951  24.515  1.00  0.00    -0.459 OA
BRANCH   7   8
ATOM      8  C   UNL A   1      31.113  26.162  25.276  1.00  0.00     0.364 C 
ATOM      9  O   UNL A   1      30.926  25.636  26.373  1.00  0.00    -0.245 OA
BRANCH   8  10
ATOM     10  C   UNL A   1      30.086  27.138  24.674  1.00  0.00     0.290 C 
ATOM     11  C   UNL A   1      29.028  26.309  23.956  1.00  0.00     0.088 C 
BRANCH  10  12
ATOM     12  N   UNL A   1      30.638  28.217  23.814  1.00  0.00    -0.331 N 
ATOM     13  H   UNL A   1      31.586  27.966  23.537  1.00  0.00     0.347 HD
ATOM     14  H   UNL A   1      30.629  29.084  24.352  1.00  0.00     0.347 HD
BRANCH  12  15
ATOM     15  C   UNL A   1      29.830  28.422  22.610  1.00  0.00     0.301 C 
BRANCH  15  16
ATOM     16  C   UNL A   1      29.151  29.768  22.512  1.00  0.00     0.042 A 
ATOM     17  C   UNL A   1      28.388  30.135  21.391  1.00  0.00     0.012 A 
ATOM     18  C   UNL A   1      29.375  30.736  23.497  1.00  0.00     0.132 A 
ATOM     19  C   UNL A   1      27.900  31.443  21.258  1.00  0.00     0.001 A 
ATOM     20  C   UNL A   1      28.891  32.037  23.372  1.00  0.00     0.040 A 
ATOM     21  F   UNL A   1      30.111  30.434  24.577  1.00  0.00    -0.206 F 
ATOM     22  C   UNL A   1      28.158  32.396  22.243  1.00  0.00     0.003 A 
ENDBRANCH  15  16
ENDBRANCH  12  15
ENDBRANCH  10  12
ENDBRANCH   8  10
ENDBRANCH   7   8
ENDBRANCH   6   7
ENDBRANCH   5   6
ENDBRANCH   4   5
ENDBRANCH   3   4
ENDBRANCH   2   3
ENDBRANCH   1   2
BRANCH   1  23
ATOM     23  C   UNL A   1      38.600  21.214  25.509  1.00  0.00     0.188 C 
BRANCH  23  24
ATOM     24  C   UNL A   1      39.840  21.819  26.202  1.00  0.00     0.188 C 
BRANCH  24  25
ATOM     25  O   UNL A   1      40.575  20.900  27.004  1.00  0.00    -0.376 OA
BRANCH  25  26
ATOM     26  C   UNL A   1      40.955  19.655  26.435  1.00  0.00     0.202 C 
BRANCH  26  27
ATOM     27  C   UNL A   1      42.436  19.458  26.063  1.00  0.00     0.261 C 
BRANCH  27  28
ATOM     28  O   UNL A   1      43.224  20.650  25.924  1.00  0.00    -0.460 OA
BRANCH  28  29
ATOM     29  C   UNL A   1      44.275  20.599  25.083  1.00  0.00     0.338 C 
ATOM     30  O   UNL A   1      44.458  19.779  24.195  1.00  0.00    -0.246 OA
BRANCH  29  31
ATOM     31  C   UNL A   1      45.087  21.820  25.264  1.00  0.00     0.060 A 
ATOM     32  C   UNL A   1      45.381  22.232  26.570  1.00  0.00     0.016 A 
ATOM     33  C   UNL A   1      45.519  22.574  24.170  1.00  0.00     0.016 A 
ATOM     34  C   UNL A   1      46.028  23.445  26.789  1.00  0.00     0.010 A 
ATOM     35  C   UNL A   1      46.153  23.801  24.391  1.00  0.00     0.010 A 
ATOM     36  C   UNL A   1      46.349  24.269  25.702  1.00  0.00    -0.014 A 
BRANCH  36  37
ATOM     37  C   UNL A   1      46.615  25.705  25.961  1.00  0.00     0.031 A 
ATOM     38  C   UNL A   1      45.463  26.565  26.419  1.00  0.00     0.074 A 
ATOM     39  C   UNL A   1      47.856  26.219  25.890  1.00  0.00     0.049 A 
ATOM     40  N   UNL A   1      45.447  27.830  26.745  1.00  0.00    -0.248 NA
ATOM     41  C   UNL A   1      44.152  25.901  26.527  1.00  0.00     0.031 C 
ATOM     42  C   UNL A   1      49.057  25.475  25.516  1.00  0.00     0.029 A 
ATOM     43  N   UNL A   1      48.311  27.489  26.146  1.00  0.00    -0.354 N 
ATOM     44  C   UNL A   1      44.131  28.111  27.098  1.00  0.00     0.074 A 
ATOM     45  C   UNL A   1      43.368  26.900  26.900  1.00  0.00     0.031 C 
ATOM     46  C   UNL A   1      50.115  26.303  25.569  1.00  0.00     0.029 A 
ATOM     47  C   UNL A   1      49.662  27.640  25.957  1.00  0.00     0.049 A 
ATOM     48  H   UNL A   1      47.722  28.222  26.437  1.00  0.00     0.167 HD
ATOM     49  C   UNL A   1      43.608  29.267  27.569  1.00  0.00     0.037 A 
ATOM     50  C   UNL A   1      50.443  28.733  26.076  1.00  0.00     0.037 A 
ATOM     51  C   UNL A   1      44.373  30.470  27.765  1.00  0.00     0.049 A 
ATOM     52  C   UNL A   1      49.827  30.033  26.529  1.00  0.00     0.074 A 
ATOM     53  C   UNL A   1      43.936  31.700  28.226  1.00  0.00     0.029 A 
ATOM     54  N   UNL A   1      45.732  30.596  27.513  1.00  0.00    -0.354 N 
ATOM     55  N   UNL A   1      48.581  30.288  26.853  1.00  0.00    -0.248 NA
ATOM     56  C   UNL A   1      50.724  31.192  26.644  1.00  0.00     0.031 C 
ATOM     57  C   UNL A   1      45.019  32.584  28.200  1.00  0.00     0.029 A 
ATOM     58  C   UNL A   1      46.146  31.887  27.792  1.00  0.00     0.049 A 
ATOM     59  H   UNL A   1      46.314  29.874  27.186  1.00  0.00     0.167 HD
ATOM     60  C   UNL A   1      48.552  31.624  27.244  1.00  0.00     0.074 A 
ATOM     61  C   UNL A   1      49.907  32.121  27.120  1.00  0.00     0.031 C 
ATOM     62  C   UNL A   1      47.501  32.368  27.673  1.00  0.00     0.037 A 
BRANCH  49  63
ATOM     63  C   UNL A   1      42.137  29.291  27.887  1.00  0.00     0.058 A 
ATOM     64  C   UNL A   1      41.186  29.288  26.855  1.00  0.00     0.135 A 
ATOM     65  C   UNL A   1      41.666  29.352  29.209  1.00  0.00     0.135 A 
ATOM     66  F   UNL A   1      41.578  29.219  25.573  1.00  0.00    -0.206 F 
ATOM     67  C   UNL A   1      39.822  29.360  27.120  1.00  0.00     0.059 A 
ATOM     68  C   UNL A   1      40.306  29.394  29.499  1.00  0.00     0.059 A 
ATOM     69  F   UNL A   1      42.531  29.330  30.236  1.00  0.00    -0.206 F 
ATOM     70  C   UNL A   1      39.391  29.411  28.447  1.00  0.00     0.060 A 
BRANCH  70  71
ATOM     71  S   UNL A   1      37.617  29.462  28.772  1.00  0.00     0.124 S 
ATOM     72  O   UNL A   1      37.111  28.463  27.837  1.00  0.00    -0.237 OA
ATOM     73  O   UNL A   1      37.555  29.102  30.185  1.00  0.00    -0.237 OA
ATOM     74  O   UNL A   1      37.257  30.845  28.470  1.00  0.00    -0.744 OA
ENDBRANCH  70  71
ENDBRANCH  49  63
BRANCH  50  75
ATOM     75  C   UNL A   1      51.898  28.634  25.778  1.00  0.00     0.058 A 
ATOM     76  C   UNL A   1      52.393  28.896  24.491  1.00  0.00     0.135 A 
ATOM     77  C   UNL A   1      52.818  28.245  26.763  1.00  0.00     0.135 A 
ATOM     78  F   UNL A   1      51.556  29.270  23.510  1.00  0.00    -0.206 F 
ATOM     79  C   UNL A   1      53.739  28.741  24.181  1.00  0.00     0.059 A 
ATOM     80  C   UNL A   1      54.176  28.111  26.485  1.00  0.00     0.059 A 
ATOM     81  F   UNL A   1      52.398  28.002  28.014  1.00  0.00    -0.206 F 
ATOM     82  C   UNL A   1      54.623  28.342  25.183  1.00  0.00     0.060 A 
BRANCH  82  83
ATOM     83  S   UNL A   1      56.361  28.115  24.750  1.00  0.00     0.124 S 
ATOM     84  O   UNL A   1      56.590  26.738  25.176  1.00  0.00    -0.237 OA
ATOM     85  O   UNL A   1      56.346  28.339  23.308  1.00  0.00    -0.237 OA
ATOM     86  O   UNL A   1      57.043  29.137  25.536  1.00  0.00    -0.744 OA
ENDBRANCH  82  83
ENDBRANCH  50  75
BRANCH  62  87
ATOM     87  C   UNL A   1      47.768  33.791  28.090  1.00  0.00     0.058 A 
ATOM     88  C   UNL A   1      47.731  34.824  27.138  1.00  0.00     0.135 A 
ATOM     89  C   UNL A   1      48.131  34.128  29.404  1.00  0.00     0.135 A 
ATOM     90  F   UNL A   1      47.401  34.560  25.864  1.00  0.00    -0.206 F 
ATOM     91  C   UNL A   1      48.054  36.135  27.471  1.00  0.00     0.059 A 
ATOM     92  C   UNL A   1      48.426  35.439  29.766  1.00  0.00     0.059 A 
ATOM     93  F   UNL A   1      48.179  33.180  30.354  1.00  0.00    -0.206 F 
ATOM     94  C   UNL A   1      48.397  36.434  28.789  1.00  0.00     0.060 A 
BRANCH  94  95
ATOM     95  S   UNL A   1      48.776  38.149  29.210  1.00  0.00     0.124 S 
ATOM     96  O   UNL A   1      50.207  38.216  28.933  1.00  0.00    -0.237 OA
ATOM     97  O   UNL A   1      47.917  38.887  28.290  1.00  0.00    -0.237 OA
ATOM     98  O   UNL A   1      48.403  38.243  30.618  1.00  0.00    -0.744 OA
ENDBRANCH  94  95
ENDBRANCH  62  87
ENDBRANCH  36  37
ENDBRANCH  29  31
ENDBRANCH  28  29
ENDBRANCH  27  28
ENDBRANCH  26  27
ENDBRANCH  25  26
ENDBRANCH  24  25
ENDBRANCH  23  24
ENDBRANCH   1  23
TORSDOF 26
ENDMDL
MODEL 2
REMARK VINA RESULT:      -7.9      6.867     13.597
REMARK SMILES C[C@H]([NH2+]Cc1ccccc1F)C(=O)OCCOCCOCCOCCOC(=O)c1ccc(-c2c3nc(c(-c4c(F)cc(S(=O)(=O)[O-])cc4F)c4ccc([nH]4)c(-c4c(F)cc(S(=O)(=O)[O-])cc4F)c4nc(c(-c5c(F)cc(S(=O)(=O)[O-])cc5F)c5ccc2[nH]5)C=C4)C=C3)cc1
REMARK SMILES IDX 20 1 19 2 18 3 17 4 16 5 15 6 14 7 12 8 13 9 2 10 1 11 3 12
REMARK SMILES IDX 4 15 5 16 6 17 10 18 7 19 9 20 11 21 8 22 21 23 22 24 23 25
REMARK SMILES IDX 24 26 25 27 26 28 27 29 28 30 29 31 30 32 94 33 31 34 93 35
REMARK SMILES IDX 32 36 33 37 34 38 87 39 35 40 92 41 86 42 88 43 36 44 91 45
REMARK SMILES IDX 85 46 84 47 37 49 71 50 50 51 70 52 51 53 54 54 69 55 89 56
REMARK SMILES IDX 52 57 53 58 68 60 90 61 55 62 38 63 39 64 48 65 40 66 41 67
REMARK SMILES IDX 47 68 49 69 42 70 43 71 44 72 45 73 46 74 72 75 73 76 82 77
REMARK SMILES IDX 74 78 75 79 81 80 83 81 76 82 77 83 78 84 79 85 80 86 56 87
REMARK SMILES IDX 57 88 66 89 58 90 59 91 65 92 67 93 60 94 61 95 62 96 63 97
REMARK SMILES IDX 64 98
REMARK H PARENT 3 13 3 14 88 48 54 59
REMARK Flexibility Score: inf
ROOT
ATOM      1  O   UNL A   1      50.079  27.557  25.748  1.00  0.00    -0.377 OA
ENDROOT
BRANCH   1   2
ATOM      2  C   UNL A   1      50.211  28.292  26.946  1.00  0.00     0.188 C 
BRANCH   2   3
ATOM      3  C   UNL A   1      50.063  29.813  26.780  1.00  0.00     0.188 C 
BRANCH   3   4
ATOM      4  O   UNL A   1      49.341  30.599  27.720  1.00  0.00    -0.376 OA
BRANCH   4   5
ATOM      5  C   UNL A   1      48.034  31.078  27.434  1.00  0.00     0.202 C 
BRANCH   5   6
ATOM      6  C   UNL A   1      47.458  32.349  28.087  1.00  0.00     0.261 C 
BRANCH   6   7
ATOM      7  O   UNL A   1      47.527  32.428  29.519  1.00  0.00    -0.459 OA
BRANCH   7   8
ATOM      8  C   UNL A   1      46.543  31.782  30.187  1.00  0.00     0.364 C 
ATOM      9  O   UNL A   1      46.644  30.634  30.616  1.00  0.00    -0.245 OA
BRANCH   8  10
ATOM     10  C   UNL A   1      45.257  32.601  30.396  1.00  0.00     0.290 C 
ATOM     11  C   UNL A   1      45.046  32.755  31.897  1.00  0.00     0.088 C 
BRANCH  10  12
ATOM     12  N   UNL A   1      44.042  32.096  29.704  1.00  0.00    -0.331 N 
ATOM     13  H   UNL A   1      43.766  31.210  30.127  1.00  0.00     0.347 HD
ATOM     14  H   UNL A   1      44.268  31.977  28.716  1.00  0.00     0.347 HD
BRANCH  12  15
ATOM     15  C   UNL A   1      42.925  33.037  29.804  1.00  0.00     0.301 C 
BRANCH  15  16
ATOM     16  C   UNL A   1      42.839  34.054  28.690  1.00  0.00     0.042 A 
ATOM     17  C   UNL A   1      43.651  33.973  27.547  1.00  0.00     0.012 A 
ATOM     18  C   UNL A   1      42.022  35.181  28.836  1.00  0.00     0.132 A 
ATOM     19  C   UNL A   1      43.661  35.013  26.605  1.00  0.00     0.001 A 
ATOM     20  C   UNL A   1      42.027  36.216  27.902  1.00  0.00     0.040 A 
ATOM     21  F   UNL A   1      41.243  35.307  29.920  1.00  0.00    -0.206 F 
ATOM     22  C   UNL A   1      42.856  36.138  26.787  1.00  0.00     0.003 A 
ENDBRANCH  15  16
ENDBRANCH  12  15
ENDBRANCH  10  12
ENDBRANCH   8  10
ENDBRANCH   7   8
ENDBRANCH   6   7
ENDBRANCH   5   6
ENDBRANCH   4   5
ENDBRANCH   3   4
ENDBRANCH   2   3
ENDBRANCH   1   2
BRANCH   1  23
ATOM     23  C   UNL A   1      48.756  27.333  25.284  1.00  0.00     0.188 C 
BRANCH  23  24
ATOM     24  C   UNL A   1      48.382  25.906  24.830  1.00  0.00     0.188 C 
BRANCH  24  25
ATOM     25  O   UNL A   1      47.032  25.757  24.400  1.00  0.00    -0.376 OA
BRANCH  25  26
ATOM     26  C   UNL A   1      46.011  26.423  25.129  1.00  0.00     0.202 C 
BRANCH  26  27
ATOM     27  C   UNL A   1      44.614  25.776  25.160  1.00  0.00     0.261 C 
BRANCH  27  28
ATOM     28  O   UNL A   1      43.496  26.661  24.993  1.00  0.00    -0.460 OA
BRANCH  28  29
ATOM     29  C   UNL A   1      42.382  26.386  25.699  1.00  0.00     0.338 C 
ATOM     30  O   UNL A   1      41.504  25.590  25.395  1.00  0.00    -0.246 OA
BRANCH  29  31
ATOM     31  C   UNL A   1      42.477  27.052  27.014  1.00  0.00     0.060 A 
ATOM     32  C   UNL A   1      41.772  26.497  28.090  1.00  0.00     0.016 A 
ATOM     33  C   UNL A   1      43.214  28.228  27.182  1.00  0.00     0.016 A 
ATOM     34  C   UNL A   1      41.726  27.164  29.310  1.00  0.00     0.010 A 
ATOM     35  C   UNL A   1      43.152  28.906  28.403  1.00  0.00     0.010 A 
ATOM     36  C   UNL A   1      42.354  28.409  29.448  1.00  0.00    -0.014 A 
BRANCH  36  37
ATOM     37  C   UNL A   1      41.934  29.290  30.566  1.00  0.00     0.031 A 
ATOM     38  C   UNL A   1      42.828  29.366  31.778  1.00  0.00     0.074 A 
ATOM     39  C   UNL A   1      40.846  30.075  30.476  1.00  0.00     0.049 A 
ATOM     40  N   UNL A   1      42.702  30.087  32.861  1.00  0.00    -0.248 NA
ATOM     41  C   UNL A   1      44.031  28.516  31.761  1.00  0.00     0.031 C 
ATOM     42  C   UNL A   1      39.937  30.132  29.333  1.00  0.00     0.029 A 
ATOM     43  N   UNL A   1      40.331  30.989  31.363  1.00  0.00    -0.354 N 
ATOM     44  C   UNL A   1      43.807  29.780  33.648  1.00  0.00     0.074 A 
ATOM     45  C   UNL A   1      44.566  28.772  32.944  1.00  0.00     0.031 C 
ATOM     46  C   UNL A   1      38.976  31.037  29.587  1.00  0.00     0.029 A 
ATOM     47  C   UNL A   1      39.187  31.605  30.919  1.00  0.00     0.049 A 
ATOM     48  H   UNL A   1      40.745  31.183  32.235  1.00  0.00     0.167 HD
ATOM     49  C   UNL A   1      44.170  30.306  34.841  1.00  0.00     0.037 A 
ATOM     50  C   UNL A   1      38.397  32.516  31.523  1.00  0.00     0.037 A 
ATOM     51  C   UNL A   1      43.411  31.310  35.539  1.00  0.00     0.049 A 
ATOM     52  C   UNL A   1      38.778  33.035  32.886  1.00  0.00     0.074 A 
ATOM     53  C   UNL A   1      43.686  31.901  36.759  1.00  0.00     0.029 A 
ATOM     54  N   UNL A   1      42.228  31.871  35.077  1.00  0.00    -0.354 N 
ATOM     55  N   UNL A   1      39.821  32.732  33.624  1.00  0.00    -0.248 NA
ATOM     56  C   UNL A   1      37.883  34.028  33.497  1.00  0.00     0.031 C 
ATOM     57  C   UNL A   1      42.641  32.780  37.062  1.00  0.00     0.029 A 
ATOM     58  C   UNL A   1      41.752  32.790  35.998  1.00  0.00     0.049 A 
ATOM     59  H   UNL A   1      41.794  31.650  34.223  1.00  0.00     0.167 HD
ATOM     60  C   UNL A   1      39.726  33.522  34.766  1.00  0.00     0.074 A 
ATOM     61  C   UNL A   1      38.526  34.320  34.619  1.00  0.00     0.031 C 
ATOM     62  C   UNL A   1      40.559  33.585  35.835  1.00  0.00     0.037 A 
BRANCH  49  63
ATOM     63  C   UNL A   1      45.436  29.794  35.475  1.00  0.00     0.058 A 
ATOM     64  C   UNL A   1      45.409  28.659  36.302  1.00  0.00     0.135 A 
ATOM     65  C   UNL A   1      46.669  30.442  35.296  1.00  0.00     0.135 A 
ATOM     66  F   UNL A   1      44.260  27.993  36.500  1.00  0.00    -0.206 F 
ATOM     67  C   UNL A   1      46.554  28.195  36.940  1.00  0.00     0.059 A 
ATOM     68  C   UNL A   1      47.834  29.976  35.899  1.00  0.00     0.059 A 
ATOM     69  F   UNL A   1      46.758  31.514  34.494  1.00  0.00    -0.206 F 
ATOM     70  C   UNL A   1      47.763  28.859  36.731  1.00  0.00     0.060 A 
BRANCH  70  71
ATOM     71  S   UNL A   1      49.246  28.216  37.534  1.00  0.00     0.124 S 
ATOM     72  O   UNL A   1      50.306  28.772  36.699  1.00  0.00    -0.237 OA
ATOM     73  O   UNL A   1      49.132  28.776  38.877  1.00  0.00    -0.237 OA
ATOM     74  O   UNL A   1      49.075  26.768  37.452  1.00  0.00    -0.744 OA
ENDBRANCH  70  71
ENDBRANCH  49  63
BRANCH  50  75
ATOM     75  C   UNL A   1      37.176  33.007  30.827  1.00  0.00     0.058 A 
ATOM     76  C   UNL A   1      37.254  34.005  29.844  1.00  0.00     0.135 A 
ATOM     77  C   UNL A   1      35.904  32.511  31.153  1.00  0.00     0.135 A 
ATOM     78  F   UNL A   1      38.445  34.516  29.494  1.00  0.00    -0.206 F 
ATOM     79  C   UNL A   1      36.115  34.521  29.235  1.00  0.00     0.059 A 
ATOM     80  C   UNL A   1      34.751  32.991  30.537  1.00  0.00     0.059 A 
ATOM     81  F   UNL A   1      35.778  31.543  32.073  1.00  0.00    -0.206 F 
ATOM     82  C   UNL A   1      34.866  34.012  29.593  1.00  0.00     0.060 A 
BRANCH  82  83
ATOM     83  S   UNL A   1      33.399  34.719  28.814  1.00  0.00     0.124 S 
ATOM     84  O   UNL A   1      33.949  35.923  28.198  1.00  0.00    -0.237 OA
ATOM     85  O   UNL A   1      33.003  33.659  27.893  1.00  0.00    -0.237 OA
ATOM     86  O   UNL A   1      32.495  34.944  29.936  1.00  0.00    -0.744 OA
ENDBRANCH  82  83
ENDBRANCH  50  75
BRANCH  62  87
ATOM     87  C   UNL A   1      40.242  34.583  36.919  1.00  0.00     0.058 A 
ATOM     88  C   UNL A   1      40.865  35.842  36.924  1.00  0.00     0.135 A 
ATOM     89  C   UNL A   1      39.387  34.274  37.989  1.00  0.00     0.135 A 
ATOM     90  F   UNL A   1      41.701  36.188  35.933  1.00  0.00    -0.206 F 
ATOM     91  C   UNL A   1      40.660  36.754  37.953  1.00  0.00     0.059 A 
ATOM     92  C   UNL A   1      39.141  35.184  39.013  1.00  0.00     0.059 A 
ATOM     93  F   UNL A   1      38.763  33.085  38.033  1.00  0.00    -0.206 F 
ATOM     94  C   UNL A   1      39.793  36.417  38.993  1.00  0.00     0.060 A 
BRANCH  94  95
ATOM     95  S   UNL A   1      39.511  37.629  40.302  1.00  0.00     0.124 S 
ATOM     96  O   UNL A   1      40.554  38.612  40.030  1.00  0.00    -0.237 OA
ATOM     97  O   UNL A   1      38.144  38.062  40.029  1.00  0.00    -0.237 OA
ATOM     98  O   UNL A   1      39.682  36.853  41.526  1.00  0.00    -0.744 OA
ENDBRANCH  94  95
ENDBRANCH  62  87
ENDBRANCH  36  37
ENDBRANCH  29  31
ENDBRANCH  28  29
ENDBRANCH  27  28
ENDBRANCH  26  27
ENDBRANCH  25  26
ENDBRANCH  24  25
ENDBRANCH  23  24
ENDBRANCH   1  23
TORSDOF 26
ENDMDL
MODEL 3
REMARK VINA RESULT:      -7.9      5.809     14.465
REMARK SMILES C[C@H]([NH2+]Cc1ccccc1F)C(=O)OCCOCCOCCOCCOC(=O)c1ccc(-c2c3nc(c(-c4c(F)cc(S(=O)(=O)[O-])cc4F)c4ccc([nH]4)c(-c4c(F)cc(S(=O)(=O)[O-])cc4F)c4nc(c(-c5c(F)cc(S(=O)(=O)[O-])cc5F)c5ccc2[nH]5)C=C4)C=C3)cc1
REMARK SMILES IDX 20 1 19 2 18 3 17 4 16 5 15 6 14 7 12 8 13 9 2 10 1 11 3 12
REMARK SMILES IDX 4 15 5 16 6 17 10 18 7 19 9 20 11 21 8 22 21 23 22 24 23 25
REMARK SMILES IDX 24 26 25 27 26 28 27 29 28 30 29 31 30 32 94 33 31 34 93 35
REMARK SMILES IDX 32 36 33 37 34 38 87 39 35 40 92 41 86 42 88 43 36 44 91 45
REMARK SMILES IDX 85 46 84 47 37 49 71 50 50 51 70 52 51 53 54 54 69 55 89 56
REMARK SMILES IDX 52 57 53 58 68 60 90 61 55 62 38 63 39 64 48 65 40 66 41 67
REMARK SMILES IDX 47 68 49 69 42 70 43 71 44 72 45 73 46 74 72 75 73 76 82 77
REMARK SMILES IDX 74 78 75 79 81 80 83 81 76 82 77 83 78 84 79 85 80 86 56 87
REMARK SMILES IDX 57 88 66 89 58 90 59 91 65 92 67 93 60 94 61 95 62 96 63 97
REMARK SMILES IDX 64 98
REMARK H PARENT 3 13 3 14 88 48 54 59
REMARK Flexibility Score: inf
ROOT
ATOM      1  O   UNL A   1      44.334  43.585  25.095  1.00  0.00    -0.377 OA
ENDROOT
BRANCH   1   2
ATOM      2  C   UNL A   1      44.400  43.542  23.686  1.00  0.00     0.188 C 
BRANCH   2   3
ATOM      3  C   UNL A   1      43.501  42.476  23.038  1.00  0.00     0.188 C 
BRANCH   3   4
ATOM      4  O   UNL A   1      43.675  42.077  21.684  1.00  0.00    -0.376 OA
BRANCH   4   5
ATOM      5  C   UNL A   1      42.665  42.306  20.710  1.00  0.00     0.202 C 
BRANCH   5   6
ATOM      6  C   UNL A   1      42.400  43.698  20.106  1.00  0.00     0.261 C 
BRANCH   6   7
ATOM      7  O   UNL A   1      43.457  44.663  20.218  1.00  0.00    -0.459 OA
BRANCH   7   8
ATOM      8  C   UNL A   1      44.360  44.661  19.210  1.00  0.00     0.364 C 
ATOM      9  O   UNL A   1      44.090  44.361  18.048  1.00  0.00    -0.245 OA
BRANCH   8  10
ATOM     10  C   UNL A   1      45.784  45.081  19.615  1.00  0.00     0.290 C 
ATOM     11  C   UNL A   1      45.662  46.251  20.584  1.00  0.00     0.088 C 
BRANCH  10  12
ATOM     12  N   UNL A   1      46.722  45.368  18.498  1.00  0.00    -0.331 N 
ATOM     13  H   UNL A   1      46.927  46.367  18.489  1.00  0.00     0.347 HD
ATOM     14  H   UNL A   1      46.275  45.077  17.628  1.00  0.00     0.347 HD
BRANCH  12  15
ATOM     15  C   UNL A   1      47.977  44.627  18.634  1.00  0.00     0.301 C 
BRANCH  15  16
ATOM     16  C   UNL A   1      48.727  44.863  19.924  1.00  0.00     0.042 A 
ATOM     17  C   UNL A   1      49.402  46.068  20.181  1.00  0.00     0.012 A 
ATOM     18  C   UNL A   1      48.869  43.822  20.849  1.00  0.00     0.132 A 
ATOM     19  C   UNL A   1      50.218  46.200  21.314  1.00  0.00     0.001 A 
ATOM     20  C   UNL A   1      49.677  43.949  21.978  1.00  0.00     0.040 A 
ATOM     21  F   UNL A   1      48.255  42.649  20.636  1.00  0.00    -0.206 F 
ATOM     22  C   UNL A   1      50.362  45.139  22.208  1.00  0.00     0.003 A 
ENDBRANCH  15  16
ENDBRANCH  12  15
ENDBRANCH  10  12
ENDBRANCH   8  10
ENDBRANCH   7   8
ENDBRANCH   6   7
ENDBRANCH   5   6
ENDBRANCH   4   5
ENDBRANCH   3   4
ENDBRANCH   2   3
ENDBRANCH   1   2
BRANCH   1  23
ATOM     23  C   UNL A   1      45.261  42.771  25.798  1.00  0.00     0.188 C 
BRANCH  23  24
ATOM     24  C   UNL A   1      44.699  41.719  26.779  1.00  0.00     0.188 C 
BRANCH  24  25
ATOM     25  O   UNL A   1      45.686  40.894  27.390  1.00  0.00    -0.376 OA
BRANCH  25  26
ATOM     26  C   UNL A   1      45.986  39.641  26.792  1.00  0.00     0.202 C 
BRANCH  26  27
ATOM     27  C   UNL A   1      47.387  39.048  27.033  1.00  0.00     0.261 C 
BRANCH  27  28
ATOM     28  O   UNL A   1      47.492  38.058  28.067  1.00  0.00    -0.460 OA
BRANCH  28  29
ATOM     29  C   UNL A   1      48.252  36.976  27.808  1.00  0.00     0.338 C 
ATOM     30  O   UNL A   1      49.458  36.964  27.604  1.00  0.00    -0.246 OA
BRANCH  29  31
ATOM     31  C   UNL A   1      47.434  35.762  28.007  1.00  0.00     0.060 A 
ATOM     32  C   UNL A   1      47.802  34.876  29.028  1.00  0.00     0.016 A 
ATOM     33  C   UNL A   1      46.347  35.475  27.178  1.00  0.00     0.016 A 
ATOM     34  C   UNL A   1      47.142  33.658  29.164  1.00  0.00     0.010 A 
ATOM     35  C   UNL A   1      45.696  34.243  27.304  1.00  0.00     0.010 A 
ATOM     36  C   UNL A   1      46.136  33.305  28.255  1.00  0.00    -0.014 A 
BRANCH  36  37
ATOM     37  C   UNL A   1      45.767  31.874  28.134  1.00  0.00     0.031 A 
ATOM     38  C   UNL A   1      44.377  31.466  28.554  1.00  0.00     0.074 A 
ATOM     39  C   UNL A   1      46.598  30.973  27.579  1.00  0.00     0.049 A 
ATOM     40  N   UNL A   1      43.804  30.293  28.509  1.00  0.00    -0.248 NA
ATOM     41  C   UNL A   1      43.514  32.533  29.093  1.00  0.00     0.031 C 
ATOM     42  C   UNL A   1      47.942  31.259  27.083  1.00  0.00     0.029 A 
ATOM     43  N   UNL A   1      46.421  29.635  27.327  1.00  0.00    -0.354 N 
ATOM     44  C   UNL A   1      42.520  30.480  29.009  1.00  0.00     0.074 A 
ATOM     45  C   UNL A   1      42.412  31.867  29.399  1.00  0.00     0.031 C 
ATOM     46  C   UNL A   1      48.469  30.128  26.582  1.00  0.00     0.029 A 
ATOM     47  C   UNL A   1      47.510  29.034  26.745  1.00  0.00     0.049 A 
ATOM     48  H   UNL A   1      45.591  29.152  27.544  1.00  0.00     0.167 HD
ATOM     49  C   UNL A   1      41.512  29.584  29.115  1.00  0.00     0.037 A 
ATOM     50  C   UNL A   1      47.711  27.749  26.391  1.00  0.00     0.037 A 
ATOM     51  C   UNL A   1      41.624  28.202  28.726  1.00  0.00     0.049 A 
ATOM     52  C   UNL A   1      46.602  26.747  26.587  1.00  0.00     0.074 A 
ATOM     53  C   UNL A   1      40.665  27.208  28.802  1.00  0.00     0.029 A 
ATOM     54  N   UNL A   1      42.763  27.622  28.186  1.00  0.00    -0.354 N 
ATOM     55  N   UNL A   1      45.395  26.935  27.067  1.00  0.00    -0.248 NA
ATOM     56  C   UNL A   1      46.875  25.361  26.182  1.00  0.00     0.031 C 
ATOM     57  C   UNL A   1      41.241  26.013  28.361  1.00  0.00     0.029 A 
ATOM     58  C   UNL A   1      42.536  26.277  27.941  1.00  0.00     0.049 A 
ATOM     59  H   UNL A   1      43.606  28.094  28.004  1.00  0.00     0.167 HD
ATOM     60  C   UNL A   1      44.754  25.702  26.989  1.00  0.00     0.074 A 
ATOM     61  C   UNL A   1      45.707  24.777  26.410  1.00  0.00     0.031 C 
ATOM     62  C   UNL A   1      43.491  25.368  27.356  1.00  0.00     0.037 A 
BRANCH  49  63
ATOM     63  C   UNL A   1      40.205  30.064  29.688  1.00  0.00     0.058 A 
ATOM     64  C   UNL A   1      40.078  30.304  31.065  1.00  0.00     0.135 A 
ATOM     65  C   UNL A   1      39.069  30.254  28.885  1.00  0.00     0.135 A 
ATOM     66  F   UNL A   1      41.134  30.150  31.880  1.00  0.00    -0.206 F 
ATOM     67  C   UNL A   1      38.869  30.700  31.628  1.00  0.00     0.059 A 
ATOM     68  C   UNL A   1      37.857  30.680  29.421  1.00  0.00     0.059 A 
ATOM     69  F   UNL A   1      39.141  30.067  27.557  1.00  0.00    -0.206 F 
ATOM     70  C   UNL A   1      37.764  30.887  30.797  1.00  0.00     0.060 A 
BRANCH  70  71
ATOM     71  S   UNL A   1      36.216  31.441  31.540  1.00  0.00     0.124 S 
ATOM     72  O   UNL A   1      35.350  31.570  30.372  1.00  0.00    -0.237 OA
ATOM     73  O   UNL A   1      35.903  30.342  32.448  1.00  0.00    -0.237 OA
ATOM     74  O   UNL A   1      36.582  32.695  32.192  1.00  0.00    -0.744 OA
ENDBRANCH  70  71
ENDBRANCH  49  63
BRANCH  50  75
ATOM     75  C   UNL A   1      49.016  27.345  25.798  1.00  0.00     0.058 A 
ATOM     76  C   UNL A   1      50.122  27.053  26.611  1.00  0.00     0.135 A 
ATOM     77  C   UNL A   1      49.193  27.276  24.408  1.00  0.00     0.135 A 
ATOM     78  F   UNL A   1      50.008  27.106  27.948  1.00  0.00    -0.206 F 
ATOM     79  C   UNL A   1      51.364  26.742  26.070  1.00  0.00     0.059 A 
ATOM     80  C   UNL A   1      50.420  26.938  23.841  1.00  0.00     0.059 A 
ATOM     81  F   UNL A   1      48.162  27.528  23.587  1.00  0.00    -0.206 F 
ATOM     82  C   UNL A   1      51.505  26.692  24.683  1.00  0.00     0.060 A 
BRANCH  82  83
ATOM     83  S   UNL A   1      53.135  26.318  24.002  1.00  0.00     0.124 S 
ATOM     84  O   UNL A   1      53.928  27.431  24.517  1.00  0.00    -0.237 OA
ATOM     85  O   UNL A   1      53.417  25.012  24.590  1.00  0.00    -0.237 OA
ATOM     86  O   UNL A   1      52.910  26.321  22.561  1.00  0.00    -0.744 OA
ENDBRANCH  82  83
ENDBRANCH  50  75
BRANCH  62  87
ATOM     87  C   UNL A   1      43.033  23.954  27.105  1.00  0.00     0.058 A 
ATOM     88  C   UNL A   1      43.049  23.012  28.147  1.00  0.00     0.135 A 
ATOM     89  C   UNL A   1      42.652  23.510  25.829  1.00  0.00     0.135 A 
ATOM     90  F   UNL A   1      43.416  23.377  29.385  1.00  0.00    -0.206 F 
ATOM     91  C   UNL A   1      42.714  21.680  27.931  1.00  0.00     0.059 A 
ATOM     92  C   UNL A   1      42.281  22.188  25.597  1.00  0.00     0.059 A 
ATOM     93  F   UNL A   1      42.617  24.369  24.798  1.00  0.00    -0.206 F 
ATOM     94  C   UNL A   1      42.328  21.277  26.653  1.00  0.00     0.060 A 
BRANCH  94  95
ATOM     95  S   UNL A   1      41.860  19.552  26.401  1.00  0.00     0.124 S 
ATOM     96  O   UNL A   1      40.430  19.665  26.132  1.00  0.00    -0.237 OA
ATOM     97  O   UNL A   1      42.691  19.171  25.264  1.00  0.00    -0.237 OA
ATOM     98  O   UNL A   1      42.213  18.916  27.667  1.00  0.00    -0.744 OA
ENDBRANCH  94  95
ENDBRANCH  62  87
ENDBRANCH  36  37
ENDBRANCH  29  31
ENDBRANCH  28  29
ENDBRANCH  27  28
ENDBRANCH  26  27
ENDBRANCH  25  26
ENDBRANCH  24  25
ENDBRANCH  23  24
ENDBRANCH   1  23
TORSDOF 26
ENDMDL
