MODEL 1
REMARK VINA RESULT:      -6.8      0.000      0.000
REMARK SMILES NC(=O)C[NH+]1CCC([NH2+]Cc2cc(C(=O)OCCOCCOCCOCCOC(=O)c3ccc(-c4c5nc(c(-c6c(F)cc(S(=O)(=O)[O-])cc6F)c6ccc([nH]6)c(-c6c(F)cc(S(=O)(=O)[O-])cc6F)c6nc(c(-c7c(F)cc(S(=O)(=O)[O-])cc7F)c7ccc4[nH]7)C=C6)C=C5)cc3)cs2)CC1
REMARK SMILES IDX 21 1 20 2 19 3 18 4 17 5 16 6 14 7 15 8 13 9 11 10 12 11
REMARK SMILES IDX 98 12 97 13 10 14 9 15 8 18 5 19 6 20 100 21 7 23 99 24 4 25
REMARK SMILES IDX 2 26 1 27 3 30 22 31 23 32 24 33 25 34 26 35 27 36 28 37
REMARK SMILES IDX 29 38 30 39 31 40 32 41 96 42 33 43 95 44 34 45 35 46 36 47
REMARK SMILES IDX 89 48 37 49 94 50 88 51 90 52 38 53 93 54 87 55 86 56 39 58
REMARK SMILES IDX 73 59 52 60 72 61 53 62 56 63 71 64 91 65 54 66 55 67 70 69
REMARK SMILES IDX 92 70 57 71 40 72 41 73 50 74 42 75 43 76 49 77 51 78 44 79
REMARK SMILES IDX 45 80 46 81 47 82 48 83 74 84 75 85 84 86 76 87 77 88 83 89
REMARK SMILES IDX 85 90 78 91 79 92 80 93 81 94 82 95 58 96 59 97 68 98 60 99
REMARK SMILES IDX 61 100 67 101 69 102 62 103 63 104 64 105 65 106 66 107
REMARK H PARENT 9 16 9 17 5 22 1 28 1 29 90 57 56 68
REMARK Flexibility Score: inf
ROOT
ATOM      1  C   UNL A   1      48.333  27.241  24.879  1.00  0.00     0.188 C 
ENDROOT
BRANCH   1   2
ATOM      2  C   UNL A   1      49.120  25.940  25.146  1.00  0.00     0.188 C 
BRANCH   2   3
ATOM      3  O   UNL A   1      49.971  25.780  26.277  1.00  0.00    -0.376 OA
BRANCH   3   4
ATOM      4  C   UNL A   1      49.851  26.634  27.404  1.00  0.00     0.202 C 
BRANCH   4   5
ATOM      5  C   UNL A   1      48.992  26.179  28.586  1.00  0.00     0.261 C 
BRANCH   5   6
ATOM      6  O   UNL A   1      47.644  26.657  28.549  1.00  0.00    -0.460 OA
BRANCH   6   7
ATOM      7  C   UNL A   1      46.950  26.622  29.723  1.00  0.00     0.339 C 
ATOM      8  O   UNL A   1      46.648  25.602  30.331  1.00  0.00    -0.246 OA
BRANCH   7   9
ATOM      9  C   UNL A   1      46.569  27.961  30.174  1.00  0.00     0.071 A 
ATOM     10  C   UNL A   1      45.160  29.830  30.380  1.00  0.00     0.060 A 
ATOM     11  C   UNL A   1      45.636  28.842  29.544  1.00  0.00     0.037 A 
ATOM     12  S   UNL A   1      46.222  29.994  31.720  1.00  0.00    -0.142 S 
ATOM     13  C   UNL A   1      47.075  28.565  31.307  1.00  0.00     0.081 A 
BRANCH  10  14
ATOM     14  C   UNL A   1      43.926  30.693  30.266  1.00  0.00     0.308 C 
BRANCH  14  15
ATOM     15  N   UNL A   1      43.609  31.537  31.424  1.00  0.00    -0.339 N 
ATOM     16  H   UNL A   1      42.888  31.055  31.962  1.00  0.00     0.346 HD
ATOM     17  H   UNL A   1      44.504  31.665  31.898  1.00  0.00     0.346 HD
BRANCH  15  18
ATOM     18  C   UNL A   1      43.126  32.915  31.175  1.00  0.00     0.194 C 
ATOM     19  N   UNL A   1      42.893  34.892  29.018  1.00  0.00    -0.327 N 
ATOM     20  C   UNL A   1      43.920  35.105  30.048  1.00  0.00     0.268 C 
ATOM     21  C   UNL A   1      41.679  34.392  29.672  1.00  0.00     0.268 C 
ATOM     22  H   UNL A   1      43.239  34.208  28.345  1.00  0.00     0.348 HD
ATOM     23  C   UNL A   1      44.324  33.761  30.683  1.00  0.00     0.126 C 
ATOM     24  C   UNL A   1      41.986  32.991  30.158  1.00  0.00     0.126 C 
BRANCH  19  25
ATOM     25  C   UNL A   1      42.608  36.124  28.250  1.00  0.00     0.363 C 
BRANCH  25  26
ATOM     26  C   UNL A   1      43.144  35.981  26.814  1.00  0.00     0.272 C 
ATOM     27  N   UNL A   1      44.455  36.330  26.639  1.00  0.00    -0.365 N 
ATOM     28  H   UNL A   1      44.867  36.266  25.748  1.00  0.00     0.159 HD
ATOM     29  H   UNL A   1      44.986  36.647  27.405  1.00  0.00     0.159 HD
ATOM     30  O   UNL A   1      42.486  35.553  25.871  1.00  0.00    -0.269 OA
ENDBRANCH  25  26
ENDBRANCH  19  25
ENDBRANCH  15  18
ENDBRANCH  14  15
ENDBRANCH  10  14
ENDBRANCH   7   9
ENDBRANCH   6   7
ENDBRANCH   5   6
ENDBRANCH   4   5
ENDBRANCH   3   4
ENDBRANCH   2   3
ENDBRANCH   1   2
BRANCH   1  31
ATOM     31  O   UNL A   1      47.044  27.085  24.311  1.00  0.00    -0.377 OA
BRANCH  31  32
ATOM     32  C   UNL A   1      46.124  26.378  25.142  1.00  0.00     0.188 C 
BRANCH  32  33
ATOM     33  C   UNL A   1      45.288  27.266  26.080  1.00  0.00     0.188 C 
BRANCH  33  34
ATOM     34  O   UNL A   1      44.169  27.862  25.423  1.00  0.00    -0.376 OA
BRANCH  34  35
ATOM     35  C   UNL A   1      43.210  26.979  24.851  1.00  0.00     0.202 C 
BRANCH  35  36
ATOM     36  C   UNL A   1      41.769  27.196  25.336  1.00  0.00     0.261 C 
BRANCH  36  37
ATOM     37  O   UNL A   1      41.017  25.996  25.575  1.00  0.00    -0.460 OA
BRANCH  37  38
ATOM     38  C   UNL A   1      41.440  25.199  26.580  1.00  0.00     0.338 C 
ATOM     39  O   UNL A   1      41.963  24.105  26.481  1.00  0.00    -0.246 OA
BRANCH  38  40
ATOM     40  C   UNL A   1      41.342  25.962  27.838  1.00  0.00     0.060 A 
ATOM     41  C   UNL A   1      40.071  26.235  28.359  1.00  0.00     0.016 A 
ATOM     42  C   UNL A   1      42.492  26.433  28.476  1.00  0.00     0.016 A 
ATOM     43  C   UNL A   1      39.944  27.030  29.497  1.00  0.00     0.010 A 
ATOM     44  C   UNL A   1      42.362  27.244  29.605  1.00  0.00     0.010 A 
ATOM     45  C   UNL A   1      41.087  27.578  30.094  1.00  0.00    -0.014 A 
BRANCH  45  46
ATOM     46  C   UNL A   1      40.947  28.673  31.082  1.00  0.00     0.031 A 
ATOM     47  C   UNL A   1      41.854  28.661  32.283  1.00  0.00     0.074 A 
ATOM     48  C   UNL A   1      40.042  29.652  30.917  1.00  0.00     0.049 A 
ATOM     49  N   UNL A   1      41.878  29.465  33.313  1.00  0.00    -0.248 NA
ATOM     50  C   UNL A   1      42.869  27.594  32.328  1.00  0.00     0.031 C 
ATOM     51  C   UNL A   1      39.141  29.790  29.775  1.00  0.00     0.029 A 
ATOM     52  N   UNL A   1      39.730  30.714  31.726  1.00  0.00    -0.354 N 
ATOM     53  C   UNL A   1      42.903  29.001  34.129  1.00  0.00     0.074 A 
ATOM     54  C   UNL A   1      43.459  27.830  33.489  1.00  0.00     0.031 C 
ATOM     55  C   UNL A   1      38.362  30.869  29.966  1.00  0.00     0.029 A 
ATOM     56  C   UNL A   1      38.688  31.477  31.256  1.00  0.00     0.049 A 
ATOM     57  H   UNL A   1      40.205  30.911  32.566  1.00  0.00     0.167 HD
ATOM     58  C   UNL A   1      43.345  29.508  35.303  1.00  0.00     0.037 A 
ATOM     59  C   UNL A   1      38.058  32.527  31.818  1.00  0.00     0.037 A 
ATOM     60  C   UNL A   1      42.783  30.669  35.939  1.00  0.00     0.049 A 
ATOM     61  C   UNL A   1      38.521  33.035  33.161  1.00  0.00     0.074 A 
ATOM     62  C   UNL A   1      43.161  31.270  37.126  1.00  0.00     0.029 A 
ATOM     63  N   UNL A   1      41.715  31.402  35.442  1.00  0.00    -0.354 N 
ATOM     64  N   UNL A   1      39.501  32.597  33.915  1.00  0.00    -0.248 NA
ATOM     65  C   UNL A   1      37.793  34.180  33.727  1.00  0.00     0.031 C 
ATOM     66  C   UNL A   1      42.295  32.340  37.370  1.00  0.00     0.029 A 
ATOM     67  C   UNL A   1      41.408  32.436  36.308  1.00  0.00     0.049 A 
ATOM     68  H   UNL A   1      41.245  31.214  34.598  1.00  0.00     0.167 HD
ATOM     69  C   UNL A   1      39.526  33.430  35.030  1.00  0.00     0.074 A 
ATOM     70  C   UNL A   1      38.467  34.401  34.849  1.00  0.00     0.031 C 
ATOM     71  C   UNL A   1      40.354  33.400  36.105  1.00  0.00     0.037 A 
BRANCH  58  72
ATOM     72  C   UNL A   1      44.473  28.789  35.986  1.00  0.00     0.058 A 
ATOM     73  C   UNL A   1      45.811  29.179  35.809  1.00  0.00     0.135 A 
ATOM     74  C   UNL A   1      44.214  27.705  36.838  1.00  0.00     0.135 A 
ATOM     75  F   UNL A   1      46.116  30.195  34.986  1.00  0.00    -0.206 F 
ATOM     76  C   UNL A   1      46.853  28.501  36.433  1.00  0.00     0.059 A 
ATOM     77  C   UNL A   1      45.239  27.028  37.492  1.00  0.00     0.059 A 
ATOM     78  F   UNL A   1      42.954  27.287  37.036  1.00  0.00    -0.206 F 
ATOM     79  C   UNL A   1      46.557  27.425  37.271  1.00  0.00     0.060 A 
BRANCH  79  80
ATOM     80  S   UNL A   1      47.920  26.552  38.071  1.00  0.00     0.124 S 
ATOM     81  O   UNL A   1      47.204  25.708  39.022  1.00  0.00    -0.237 OA
ATOM     82  O   UNL A   1      48.545  25.855  36.951  1.00  0.00    -0.237 OA
ATOM     83  O   UNL A   1      48.712  27.627  38.659  1.00  0.00    -0.744 OA
ENDBRANCH  79  80
ENDBRANCH  58  72
BRANCH  59  84
ATOM     84  C   UNL A   1      36.907  33.162  31.121  1.00  0.00     0.058 A 
ATOM     85  C   UNL A   1      37.107  34.071  30.072  1.00  0.00     0.135 A 
ATOM     86  C   UNL A   1      35.586  32.875  31.496  1.00  0.00     0.135 A 
ATOM     87  F   UNL A   1      38.352  34.386  29.684  1.00  0.00    -0.206 F 
ATOM     88  C   UNL A   1      36.037  34.686  29.428  1.00  0.00     0.059 A 
ATOM     89  C   UNL A   1      34.500  33.459  30.853  1.00  0.00     0.059 A 
ATOM     90  F   UNL A   1      35.341  32.001  32.485  1.00  0.00    -0.206 F 
ATOM     91  C   UNL A   1      34.736  34.373  29.827  1.00  0.00     0.060 A 
BRANCH  91  92
ATOM     92  S   UNL A   1      33.350  35.145  28.964  1.00  0.00     0.124 S 
ATOM     93  O   UNL A   1      32.526  35.595  30.079  1.00  0.00    -0.237 OA
ATOM     94  O   UNL A   1      34.013  36.193  28.195  1.00  0.00    -0.237 OA
ATOM     95  O   UNL A   1      32.801  34.048  28.172  1.00  0.00    -0.744 OA
ENDBRANCH  91  92
ENDBRANCH  59  84
BRANCH  71  96
ATOM     96  C   UNL A   1      40.179  34.466  37.150  1.00  0.00     0.058 A 
ATOM     97  C   UNL A   1      40.990  35.610  37.183  1.00  0.00     0.135 A 
ATOM     98  C   UNL A   1      39.140  34.372  38.090  1.00  0.00     0.135 A 
ATOM     99  F   UNL A   1      41.999  35.747  36.308  1.00  0.00    -0.206 F 
ATOM    100  C   UNL A   1      40.790  36.615  38.124  1.00  0.00     0.059 A 
ATOM    101  C   UNL A   1      38.906  35.375  39.024  1.00  0.00     0.059 A 
ATOM    102  F   UNL A   1      38.327  33.303  38.094  1.00  0.00    -0.206 F 
ATOM    103  C   UNL A   1      39.743  36.490  39.040  1.00  0.00     0.060 A 
BRANCH 103 104
ATOM    104  S   UNL A   1      39.469  37.819  40.230  1.00  0.00     0.124 S 
ATOM    105  O   UNL A   1      40.487  38.785  39.831  1.00  0.00    -0.237 OA
ATOM    106  O   UNL A   1      38.088  38.204  39.958  1.00  0.00    -0.237 OA
ATOM    107  O   UNL A   1      39.690  37.170  41.520  1.00  0.00    -0.744 OA
ENDBRANCH 103 104
ENDBRANCH  71  96
ENDBRANCH  45  46
ENDBRANCH  38  40
ENDBRANCH  37  38
ENDBRANCH  36  37
ENDBRANCH  35  36
ENDBRANCH  34  35
ENDBRANCH  33  34
ENDBRANCH  32  33
ENDBRANCH  31  32
ENDBRANCH   1  31
TORSDOF 28
ENDMDL
MODEL 2
REMARK VINA RESULT:      -6.7      5.961     10.684
REMARK SMILES NC(=O)C[NH+]1CCC([NH2+]Cc2cc(C(=O)OCCOCCOCCOCCOC(=O)c3ccc(-c4c5nc(c(-c6c(F)cc(S(=O)(=O)[O-])cc6F)c6ccc([nH]6)c(-c6c(F)cc(S(=O)(=O)[O-])cc6F)c6nc(c(-c7c(F)cc(S(=O)(=O)[O-])cc7F)c7ccc4[nH]7)C=C6)C=C5)cc3)cs2)CC1
REMARK SMILES IDX 21 1 20 2 19 3 18 4 17 5 16 6 14 7 15 8 13 9 11 10 12 11
REMARK SMILES IDX 98 12 97 13 10 14 9 15 8 18 5 19 6 20 100 21 7 23 99 24 4 25
REMARK SMILES IDX 2 26 1 27 3 30 22 31 23 32 24 33 25 34 26 35 27 36 28 37
REMARK SMILES IDX 29 38 30 39 31 40 32 41 96 42 33 43 95 44 34 45 35 46 36 47
REMARK SMILES IDX 89 48 37 49 94 50 88 51 90 52 38 53 93 54 87 55 86 56 39 58
REMARK SMILES IDX 73 59 52 60 72 61 53 62 56 63 71 64 91 65 54 66 55 67 70 69
REMARK SMILES IDX 92 70 57 71 40 72 41 73 50 74 42 75 43 76 49 77 51 78 44 79
REMARK SMILES IDX 45 80 46 81 47 82 48 83 74 84 75 85 84 86 76 87 77 88 83 89
REMARK SMILES IDX 85 90 78 91 79 92 80 93 81 94 82 95 58 96 59 97 68 98 60 99
REMARK SMILES IDX 61 100 67 101 69 102 62 103 63 104 64 105 65 106 66 107
REMARK H PARENT 9 16 9 17 5 22 1 28 1 29 90 57 56 68
REMARK Flexibility Score: inf
ROOT
ATOM      1  C   UNL A   1      39.715  27.424  28.704  1.00  0.00     0.188 C 
ENDROOT
BRANCH   1   2
ATOM      2  C   UNL A   1      39.212  28.502  29.687  1.00  0.00     0.188 C 
BRANCH   2   3
ATOM      3  O   UNL A   1      38.018  28.347  30.447  1.00  0.00    -0.376 OA
BRANCH   3   4
ATOM      4  C   UNL A   1      37.052  29.385  30.504  1.00  0.00     0.202 C 
BRANCH   4   5
ATOM      5  C   UNL A   1      36.854  30.274  29.274  1.00  0.00     0.261 C 
BRANCH   5   6
ATOM      6  O   UNL A   1      36.072  29.674  28.237  1.00  0.00    -0.460 OA
BRANCH   6   7
ATOM      7  C   UNL A   1      34.894  30.288  27.925  1.00  0.00     0.339 C 
ATOM      8  O   UNL A   1      34.589  31.430  28.249  1.00  0.00    -0.246 OA
BRANCH   7   9
ATOM      9  C   UNL A   1      34.001  29.408  27.170  1.00  0.00     0.071 A 
ATOM     10  C   UNL A   1      33.297  27.377  26.223  1.00  0.00     0.060 A 
ATOM     11  C   UNL A   1      34.365  28.209  26.480  1.00  0.00     0.037 A 
ATOM     12  S   UNL A   1      31.838  28.277  26.342  1.00  0.00    -0.142 S 
ATOM     13  C   UNL A   1      32.647  29.626  27.024  1.00  0.00     0.081 A 
BRANCH  10  14
ATOM     14  C   UNL A   1      33.267  25.904  25.890  1.00  0.00     0.308 C 
BRANCH  14  15
ATOM     15  N   UNL A   1      34.336  25.410  25.014  1.00  0.00    -0.339 N 
ATOM     16  H   UNL A   1      34.569  26.163  24.366  1.00  0.00     0.346 HD
ATOM     17  H   UNL A   1      35.080  25.129  25.654  1.00  0.00     0.346 HD
BRANCH  15  18
ATOM     18  C   UNL A   1      34.072  24.198  24.203  1.00  0.00     0.194 C 
ATOM     19  N   UNL A   1      33.348  21.369  24.503  1.00  0.00    -0.327 N 
ATOM     20  C   UNL A   1      34.732  21.697  24.131  1.00  0.00     0.268 C 
ATOM     21  C   UNL A   1      32.448  22.271  23.774  1.00  0.00     0.268 C 
ATOM     22  H   UNL A   1      33.238  21.497  25.509  1.00  0.00     0.348 HD
ATOM     23  C   UNL A   1      35.093  23.112  24.618  1.00  0.00     0.126 C 
ATOM     24  C   UNL A   1      32.651  23.656  24.353  1.00  0.00     0.126 C 
BRANCH  19  25
ATOM     25  C   UNL A   1      33.014  19.955  24.225  1.00  0.00     0.363 C 
BRANCH  25  26
ATOM     26  C   UNL A   1      32.788  19.201  25.548  1.00  0.00     0.272 C 
ATOM     27  N   UNL A   1      33.177  19.868  26.677  1.00  0.00    -0.365 N 
ATOM     28  H   UNL A   1      33.063  19.447  27.560  1.00  0.00     0.159 HD
ATOM     29  H   UNL A   1      33.571  20.767  26.606  1.00  0.00     0.159 HD
ATOM     30  O   UNL A   1      32.265  18.094  25.631  1.00  0.00    -0.269 OA
ENDBRANCH  25  26
ENDBRANCH  19  25
ENDBRANCH  15  18
ENDBRANCH  14  15
ENDBRANCH  10  14
ENDBRANCH   7   9
ENDBRANCH   6   7
ENDBRANCH   5   6
ENDBRANCH   4   5
ENDBRANCH   3   4
ENDBRANCH   2   3
ENDBRANCH   1   2
BRANCH   1  31
ATOM     31  O   UNL A   1      39.443  26.079  29.060  1.00  0.00    -0.377 OA
BRANCH  31  32
ATOM     32  C   UNL A   1      39.568  25.155  27.980  1.00  0.00     0.188 C 
BRANCH  32  33
ATOM     33  C   UNL A   1      40.936  24.458  27.883  1.00  0.00     0.188 C 
BRANCH  33  34
ATOM     34  O   UNL A   1      41.272  24.089  26.545  1.00  0.00    -0.376 OA
BRANCH  34  35
ATOM     35  C   UNL A   1      42.612  24.325  26.126  1.00  0.00     0.202 C 
BRANCH  35  36
ATOM     36  C   UNL A   1      42.988  25.807  25.985  1.00  0.00     0.261 C 
BRANCH  36  37
ATOM     37  O   UNL A   1      44.288  26.158  26.485  1.00  0.00    -0.460 OA
BRANCH  37  38
ATOM     38  C   UNL A   1      44.870  27.256  25.957  1.00  0.00     0.338 C 
ATOM     39  O   UNL A   1      45.369  27.364  24.852  1.00  0.00    -0.246 OA
BRANCH  38  40
ATOM     40  C   UNL A   1      44.631  28.385  26.874  1.00  0.00     0.060 A 
ATOM     41  C   UNL A   1      43.732  29.386  26.485  1.00  0.00     0.016 A 
ATOM     42  C   UNL A   1      45.313  28.472  28.090  1.00  0.00     0.016 A 
ATOM     43  C   UNL A   1      43.553  30.509  27.290  1.00  0.00     0.010 A 
ATOM     44  C   UNL A   1      45.148  29.606  28.886  1.00  0.00     0.010 A 
ATOM     45  C   UNL A   1      44.298  30.646  28.469  1.00  0.00    -0.014 A 
BRANCH  45  46
ATOM     46  C   UNL A   1      44.366  31.960  29.149  1.00  0.00     0.031 A 
ATOM     47  C   UNL A   1      45.458  32.912  28.741  1.00  0.00     0.074 A 
ATOM     48  C   UNL A   1      43.481  32.301  30.100  1.00  0.00     0.049 A 
ATOM     49  N   UNL A   1      45.764  34.083  29.232  1.00  0.00    -0.248 NA
ATOM     50  C   UNL A   1      46.324  32.479  27.631  1.00  0.00     0.031 C 
ATOM     51  C   UNL A   1      42.357  31.480  30.547  1.00  0.00     0.029 A 
ATOM     52  N   UNL A   1      43.400  33.434  30.869  1.00  0.00    -0.354 N 
ATOM     53  C   UNL A   1      46.857  34.526  28.496  1.00  0.00     0.074 A 
ATOM     54  C   UNL A   1      47.178  33.486  27.544  1.00  0.00     0.031 C 
ATOM     55  C   UNL A   1      41.707  32.131  31.527  1.00  0.00     0.029 A 
ATOM     56  C   UNL A   1      42.387  33.398  31.798  1.00  0.00     0.049 A 
ATOM     57  H   UNL A   1      44.010  34.200  30.767  1.00  0.00     0.167 HD
ATOM     58  C   UNL A   1      47.530  35.695  28.601  1.00  0.00     0.037 A 
ATOM     59  C   UNL A   1      42.067  34.277  32.768  1.00  0.00     0.037 A 
ATOM     60  C   UNL A   1      47.211  36.723  29.555  1.00  0.00     0.049 A 
ATOM     61  C   UNL A   1      42.873  35.544  32.913  1.00  0.00     0.074 A 
ATOM     62  C   UNL A   1      47.825  37.949  29.740  1.00  0.00     0.029 A 
ATOM     63  N   UNL A   1      46.192  36.641  30.493  1.00  0.00    -0.354 N 
ATOM     64  N   UNL A   1      43.895  35.958  32.201  1.00  0.00    -0.248 NA
ATOM     65  C   UNL A   1      42.482  36.463  33.992  1.00  0.00     0.031 C 
ATOM     66  C   UNL A   1      47.206  38.589  30.818  1.00  0.00     0.029 A 
ATOM     67  C   UNL A   1      46.173  37.783  31.272  1.00  0.00     0.049 A 
ATOM     68  H   UNL A   1      45.574  35.881  30.590  1.00  0.00     0.167 HD
ATOM     69  C   UNL A   1      44.249  37.197  32.727  1.00  0.00     0.074 A 
ATOM     70  C   UNL A   1      43.329  37.468  33.812  1.00  0.00     0.031 C 
ATOM     71  C   UNL A   1      45.242  38.039  32.343  1.00  0.00     0.037 A 
BRANCH  58  72
ATOM     72  C   UNL A   1      48.694  35.909  27.677  1.00  0.00     0.058 A 
ATOM     73  C   UNL A   1      48.556  36.605  26.465  1.00  0.00     0.135 A 
ATOM     74  C   UNL A   1      49.967  35.421  28.011  1.00  0.00     0.135 A 
ATOM     75  F   UNL A   1      47.356  37.072  26.086  1.00  0.00    -0.206 F 
ATOM     76  C   UNL A   1      49.635  36.788  25.606  1.00  0.00     0.059 A 
ATOM     77  C   UNL A   1      51.065  35.615  27.179  1.00  0.00     0.059 A 
ATOM     78  F   UNL A   1      50.152  34.742  29.154  1.00  0.00    -0.206 F 
ATOM     79  C   UNL A   1      50.886  36.286  25.971  1.00  0.00     0.060 A 
BRANCH  79  80
ATOM     80  S   UNL A   1      52.276  36.527  24.844  1.00  0.00     0.124 S 
ATOM     81  O   UNL A   1      52.570  37.943  25.047  1.00  0.00    -0.237 OA
ATOM     82  O   UNL A   1      53.268  35.593  25.367  1.00  0.00    -0.237 OA
ATOM     83  O   UNL A   1      51.719  36.183  23.541  1.00  0.00    -0.744 OA
ENDBRANCH  79  80
ENDBRANCH  58  72
BRANCH  59  84
ATOM     84  C   UNL A   1      40.939  33.984  33.692  1.00  0.00     0.058 A 
ATOM     85  C   UNL A   1      39.612  34.237  33.319  1.00  0.00     0.135 A 
ATOM     86  C   UNL A   1      41.171  33.449  34.969  1.00  0.00     0.135 A 
ATOM     87  F   UNL A   1      39.341  34.757  32.113  1.00  0.00    -0.206 F 
ATOM     88  C   UNL A   1      38.552  33.985  34.186  1.00  0.00     0.059 A 
ATOM     89  C   UNL A   1      40.126  33.169  35.844  1.00  0.00     0.059 A 
ATOM     90  F   UNL A   1      42.423  33.177  35.369  1.00  0.00    -0.206 F 
ATOM     91  C   UNL A   1      38.820  33.450  35.447  1.00  0.00     0.060 A 
BRANCH  91  92
ATOM     92  S   UNL A   1      37.439  33.092  36.554  1.00  0.00     0.124 S 
ATOM     93  O   UNL A   1      37.858  33.772  37.774  1.00  0.00    -0.237 OA
ATOM     94  O   UNL A   1      36.313  33.689  35.844  1.00  0.00    -0.237 OA
ATOM     95  O   UNL A   1      37.432  31.633  36.612  1.00  0.00    -0.744 OA
ENDBRANCH  91  92
ENDBRANCH  59  84
BRANCH  71  96
ATOM     96  C   UNL A   1      45.365  39.349  33.071  1.00  0.00     0.058 A 
ATOM     97  C   UNL A   1      44.659  40.491  32.662  1.00  0.00     0.135 A 
ATOM     98  C   UNL A   1      46.147  39.443  34.234  1.00  0.00     0.135 A 
ATOM     99  F   UNL A   1      43.900  40.455  31.556  1.00  0.00    -0.206 F 
ATOM    100  C   UNL A   1      44.741  41.686  33.369  1.00  0.00     0.059 A 
ATOM    101  C   UNL A   1      46.224  40.620  34.970  1.00  0.00     0.059 A 
ATOM    102  F   UNL A   1      46.832  38.375  34.675  1.00  0.00    -0.206 F 
ATOM    103  C   UNL A   1      45.525  41.740  34.524  1.00  0.00     0.060 A 
BRANCH 103 104
ATOM    104  S   UNL A   1      45.591  43.286  35.455  1.00  0.00     0.124 S 
ATOM    105  O   UNL A   1      45.034  42.878  36.741  1.00  0.00    -0.237 OA
ATOM    106  O   UNL A   1      47.017  43.593  35.451  1.00  0.00    -0.237 OA
ATOM    107  O   UNL A   1      44.758  44.192  34.669  1.00  0.00    -0.744 OA
ENDBRANCH 103 104
ENDBRANCH  71  96
ENDBRANCH  45  46
ENDBRANCH  38  40
ENDBRANCH  37  38
ENDBRANCH  36  37
ENDBRANCH  35  36
ENDBRANCH  34  35
ENDBRANCH  33  34
ENDBRANCH  32  33
ENDBRANCH  31  32
ENDBRANCH   1  31
TORSDOF 28
ENDMDL
MODEL 3
REMARK VINA RESULT:      -6.2      4.919     12.249
REMARK SMILES NC(=O)C[NH+]1CCC([NH2+]Cc2cc(C(=O)OCCOCCOCCOCCOC(=O)c3ccc(-c4c5nc(c(-c6c(F)cc(S(=O)(=O)[O-])cc6F)c6ccc([nH]6)c(-c6c(F)cc(S(=O)(=O)[O-])cc6F)c6nc(c(-c7c(F)cc(S(=O)(=O)[O-])cc7F)c7ccc4[nH]7)C=C6)C=C5)cc3)cs2)CC1
REMARK SMILES IDX 21 1 20 2 19 3 18 4 17 5 16 6 14 7 15 8 13 9 11 10 12 11
REMARK SMILES IDX 98 12 97 13 10 14 9 15 8 18 5 19 6 20 100 21 7 23 99 24 4 25
REMARK SMILES IDX 2 26 1 27 3 30 22 31 23 32 24 33 25 34 26 35 27 36 28 37
REMARK SMILES IDX 29 38 30 39 31 40 32 41 96 42 33 43 95 44 34 45 35 46 36 47
REMARK SMILES IDX 89 48 37 49 94 50 88 51 90 52 38 53 93 54 87 55 86 56 39 58
REMARK SMILES IDX 73 59 52 60 72 61 53 62 56 63 71 64 91 65 54 66 55 67 70 69
REMARK SMILES IDX 92 70 57 71 40 72 41 73 50 74 42 75 43 76 49 77 51 78 44 79
REMARK SMILES IDX 45 80 46 81 47 82 48 83 74 84 75 85 84 86 76 87 77 88 83 89
REMARK SMILES IDX 85 90 78 91 79 92 80 93 81 94 82 95 58 96 59 97 68 98 60 99
REMARK SMILES IDX 61 100 67 101 69 102 62 103 63 104 64 105 65 106 66 107
REMARK H PARENT 9 16 9 17 5 22 1 28 1 29 90 57 56 68
REMARK Flexibility Score: inf
ROOT
ATOM      1  C   UNL A   1      42.282  34.096  32.399  1.00  0.00     0.188 C 
ENDROOT
BRANCH   1   2
ATOM      2  C   UNL A   1      42.544  32.861  33.287  1.00  0.00     0.188 C 
BRANCH   2   3
ATOM      3  O   UNL A   1      43.827  32.252  33.392  1.00  0.00    -0.376 OA
BRANCH   3   4
ATOM      4  C   UNL A   1      43.954  30.878  33.721  1.00  0.00     0.202 C 
BRANCH   4   5
ATOM      5  C   UNL A   1      43.556  29.831  32.678  1.00  0.00     0.261 C 
BRANCH   5   6
ATOM      6  O   UNL A   1      43.456  28.499  33.194  1.00  0.00    -0.460 OA
BRANCH   6   7
ATOM      7  C   UNL A   1      42.414  28.247  34.037  1.00  0.00     0.339 C 
ATOM      8  O   UNL A   1      41.576  29.070  34.387  1.00  0.00    -0.246 OA
BRANCH   7   9
ATOM      9  C   UNL A   1      42.419  26.864  34.515  1.00  0.00     0.071 A 
ATOM     10  C   UNL A   1      43.387  24.892  35.350  1.00  0.00     0.060 A 
ATOM     11  C   UNL A   1      43.519  25.951  34.477  1.00  0.00     0.037 A 
ATOM     12  S   UNL A   1      41.737  24.738  35.804  1.00  0.00    -0.142 S 
ATOM     13  C   UNL A   1      41.329  26.242  35.088  1.00  0.00     0.081 A 
BRANCH  10  14
ATOM     14  C   UNL A   1      44.428  23.950  35.906  1.00  0.00     0.308 C 
BRANCH  14  15
ATOM     15  N   UNL A   1      44.616  22.685  35.186  1.00  0.00    -0.339 N 
ATOM     16  H   UNL A   1      44.455  21.930  35.853  1.00  0.00     0.346 HD
ATOM     17  H   UNL A   1      43.959  22.736  34.406  1.00  0.00     0.346 HD
BRANCH  15  18
ATOM     18  C   UNL A   1      45.927  22.433  34.544  1.00  0.00     0.194 C 
ATOM     19  N   UNL A   1      48.796  22.387  35.164  1.00  0.00    -0.327 N 
ATOM     20  C   UNL A   1      48.274  23.511  34.373  1.00  0.00     0.268 C 
ATOM     21  C   UNL A   1      48.136  21.157  34.711  1.00  0.00     0.268 C 
ATOM     22  H   UNL A   1      48.592  22.555  36.150  1.00  0.00     0.348 HD
ATOM     23  C   UNL A   1      46.778  23.719  34.669  1.00  0.00     0.126 C 
ATOM     24  C   UNL A   1      46.688  21.250  35.145  1.00  0.00     0.126 C 
BRANCH  19  25
ATOM     25  C   UNL A   1      50.267  22.264  35.059  1.00  0.00     0.363 C 
BRANCH  25  26
ATOM     26  C   UNL A   1      50.911  23.662  35.068  1.00  0.00     0.272 C 
ATOM     27  N   UNL A   1      51.054  24.233  36.303  1.00  0.00    -0.365 N 
ATOM     28  H   UNL A   1      51.458  25.127  36.387  1.00  0.00     0.159 HD
ATOM     29  H   UNL A   1      50.752  23.751  37.106  1.00  0.00     0.159 HD
ATOM     30  O   UNL A   1      51.316  24.243  34.066  1.00  0.00    -0.269 OA
ENDBRANCH  25  26
ENDBRANCH  19  25
ENDBRANCH  15  18
ENDBRANCH  14  15
ENDBRANCH  10  14
ENDBRANCH   7   9
ENDBRANCH   6   7
ENDBRANCH   5   6
ENDBRANCH   4   5
ENDBRANCH   3   4
ENDBRANCH   2   3
ENDBRANCH   1   2
BRANCH   1  31
ATOM     31  O   UNL A   1      41.011  34.707  32.538  1.00  0.00    -0.377 OA
BRANCH  31  32
ATOM     32  C   UNL A   1      39.950  33.992  31.907  1.00  0.00     0.188 C 
BRANCH  32  33
ATOM     33  C   UNL A   1      38.547  34.584  32.133  1.00  0.00     0.188 C 
BRANCH  33  34
ATOM     34  O   UNL A   1      37.595  34.128  31.171  1.00  0.00    -0.376 OA
BRANCH  34  35
ATOM     35  C   UNL A   1      36.287  33.833  31.647  1.00  0.00     0.202 C 
BRANCH  35  36
ATOM     36  C   UNL A   1      35.437  32.976  30.698  1.00  0.00     0.261 C 
BRANCH  36  37
ATOM     37  O   UNL A   1      36.096  31.815  30.167  1.00  0.00    -0.460 OA
BRANCH  37  38
ATOM     38  C   UNL A   1      36.511  30.887  31.055  1.00  0.00     0.338 C 
ATOM     39  O   UNL A   1      35.909  30.484  32.033  1.00  0.00    -0.246 OA
BRANCH  38  40
ATOM     40  C   UNL A   1      37.753  30.285  30.538  1.00  0.00     0.060 A 
ATOM     41  C   UNL A   1      38.657  29.725  31.449  1.00  0.00     0.016 A 
ATOM     42  C   UNL A   1      38.037  30.303  29.170  1.00  0.00     0.016 A 
ATOM     43  C   UNL A   1      39.879  29.229  30.999  1.00  0.00     0.010 A 
ATOM     44  C   UNL A   1      39.269  29.823  28.723  1.00  0.00     0.010 A 
ATOM     45  C   UNL A   1      40.209  29.323  29.640  1.00  0.00    -0.014 A 
BRANCH  45  46
ATOM     46  C   UNL A   1      41.610  29.111  29.208  1.00  0.00     0.031 A 
ATOM     47  C   UNL A   1      41.997  27.744  28.710  1.00  0.00     0.074 A 
ATOM     48  C   UNL A   1      42.514  30.104  29.254  1.00  0.00     0.049 A 
ATOM     49  N   UNL A   1      43.168  27.295  28.344  1.00  0.00    -0.248 NA
ATOM     50  C   UNL A   1      40.914  26.749  28.619  1.00  0.00     0.031 C 
ATOM     51  C   UNL A   1      42.244  31.477  29.676  1.00  0.00     0.029 A 
ATOM     52  N   UNL A   1      43.850  30.099  28.946  1.00  0.00    -0.354 N 
ATOM     53  C   UNL A   1      42.966  25.968  27.982  1.00  0.00     0.074 A 
ATOM     54  C   UNL A   1      41.567  25.676  28.200  1.00  0.00     0.031 C 
ATOM     55  C   UNL A   1      43.389  32.180  29.617  1.00  0.00     0.029 A 
ATOM     56  C   UNL A   1      44.474  31.300  29.185  1.00  0.00     0.049 A 
ATOM     57  H   UNL A   1      44.319  29.310  28.589  1.00  0.00     0.167 HD
ATOM     58  C   UNL A   1      43.864  25.075  27.507  1.00  0.00     0.037 A 
ATOM     59  C   UNL A   1      45.775  31.637  29.088  1.00  0.00     0.037 A 
ATOM     60  C   UNL A   1      45.257  25.368  27.300  1.00  0.00     0.049 A 
ATOM     61  C   UNL A   1      46.773  30.606  28.622  1.00  0.00     0.074 A 
ATOM     62  C   UNL A   1      46.251  24.536  26.816  1.00  0.00     0.029 A 
ATOM     63  N   UNL A   1      45.856  26.590  27.574  1.00  0.00    -0.354 N 
ATOM     64  N   UNL A   1      46.567  29.359  28.268  1.00  0.00    -0.248 NA
ATOM     65  C   UNL A   1      48.179  31.029  28.540  1.00  0.00     0.031 C 
ATOM     66  C   UNL A   1      47.459  25.241  26.838  1.00  0.00     0.029 A 
ATOM     67  C   UNL A   1      47.208  26.528  27.288  1.00  0.00     0.049 A 
ATOM     68  H   UNL A   1      45.387  27.383  27.920  1.00  0.00     0.167 HD
ATOM     69  C   UNL A   1      47.811  28.858  27.895  1.00  0.00     0.074 A 
ATOM     70  C   UNL A   1      48.762  29.937  28.061  1.00  0.00     0.031 C 
ATOM     71  C   UNL A   1      48.138  27.618  27.450  1.00  0.00     0.037 A 
BRANCH  58  72
ATOM     72  C   UNL A   1      43.369  23.689  27.207  1.00  0.00     0.058 A 
ATOM     73  C   UNL A   1      43.212  22.726  28.218  1.00  0.00     0.135 A 
ATOM     74  C   UNL A   1      43.036  23.321  25.894  1.00  0.00     0.135 A 
ATOM     75  F   UNL A   1      43.540  23.019  29.487  1.00  0.00    -0.206 F 
ATOM     76  C   UNL A   1      42.766  21.440  27.933  1.00  0.00     0.059 A 
ATOM     77  C   UNL A   1      42.564  22.048  25.591  1.00  0.00     0.059 A 
ATOM     78  F   UNL A   1      43.174  24.200  24.890  1.00  0.00    -0.206 F 
ATOM     79  C   UNL A   1      42.447  21.109  26.614  1.00  0.00     0.060 A 
BRANCH  79  80
ATOM     80  S   UNL A   1      41.874  19.435  26.259  1.00  0.00     0.124 S 
ATOM     81  O   UNL A   1      42.292  18.724  27.463  1.00  0.00    -0.237 OA
ATOM     82  O   UNL A   1      40.435  19.624  26.102  1.00  0.00    -0.237 OA
ATOM     83  O   UNL A   1      42.594  19.082  25.040  1.00  0.00    -0.744 OA
ENDBRANCH  79  80
ENDBRANCH  58  72
BRANCH  59  84
ATOM     84  C   UNL A   1      46.216  33.009  29.455  1.00  0.00     0.058 A 
ATOM     85  C   UNL A   1      46.584  33.325  30.771  1.00  0.00     0.135 A 
ATOM     86  C   UNL A   1      46.274  34.032  28.495  1.00  0.00     0.135 A 
ATOM     87  F   UNL A   1      46.535  32.384  31.726  1.00  0.00    -0.206 F 
ATOM     88  C   UNL A   1      46.978  34.612  31.127  1.00  0.00     0.059 A 
ATOM     89  C   UNL A   1      46.685  35.319  28.823  1.00  0.00     0.059 A 
ATOM     90  F   UNL A   1      45.945  33.777  27.219  1.00  0.00    -0.206 F 
ATOM     91  C   UNL A   1      47.025  35.602  30.145  1.00  0.00     0.060 A 
BRANCH  91  92
ATOM     92  S   UNL A   1      47.572  37.261  30.605  1.00  0.00     0.124 S 
ATOM     93  O   UNL A   1      46.440  38.072  30.173  1.00  0.00    -0.237 OA
ATOM     94  O   UNL A   1      47.756  37.135  32.047  1.00  0.00    -0.237 OA
ATOM     95  O   UNL A   1      48.802  37.429  29.836  1.00  0.00    -0.744 OA
ENDBRANCH  91  92
ENDBRANCH  59  84
BRANCH  71  96
ATOM     96  C   UNL A   1      49.571  27.369  27.072  1.00  0.00     0.058 A 
ATOM     97  C   UNL A   1      50.036  27.568  25.763  1.00  0.00     0.135 A 
ATOM     98  C   UNL A   1      50.506  26.990  28.050  1.00  0.00     0.135 A 
ATOM     99  F   UNL A   1      49.183  27.926  24.792  1.00  0.00    -0.206 F 
ATOM    100  C   UNL A   1      51.374  27.381  25.432  1.00  0.00     0.059 A 
ATOM    101  C   UNL A   1      51.853  26.822  27.747  1.00  0.00     0.059 A 
ATOM    102  F   UNL A   1      50.115  26.799  29.320  1.00  0.00    -0.206 F 
ATOM    103  C   UNL A   1      52.276  27.010  26.432  1.00  0.00     0.060 A 
BRANCH 103 104
ATOM    104  S   UNL A   1      54.017  26.809  25.998  1.00  0.00     0.124 S 
ATOM    105  O   UNL A   1      54.485  28.191  26.014  1.00  0.00    -0.237 OA
ATOM    106  O   UNL A   1      54.513  25.960  27.076  1.00  0.00    -0.237 OA
ATOM    107  O   UNL A   1      53.969  26.177  24.682  1.00  0.00    -0.744 OA
ENDBRANCH 103 104
ENDBRANCH  71  96
ENDBRANCH  45  46
ENDBRANCH  38  40
ENDBRANCH  37  38
ENDBRANCH  36  37
ENDBRANCH  35  36
ENDBRANCH  34  35
ENDBRANCH  33  34
ENDBRANCH  32  33
ENDBRANCH  31  32
ENDBRANCH   1  31
TORSDOF 28
ENDMDL
