MODEL 1
REMARK VINA RESULT:      -8.5      0.000      0.000
REMARK SMILES C[C@@H](CNc1cccc(F)c1C(=O)OCCOCCOCCOCCOC(=O)c1ccc(-c2c3nc(c(-c4c(F)cc(S(=O)(=O)[O-])cc4F)c4ccc([nH]4)c(-c4c(F)cc(S(=O)(=O)[O-])cc4F)c4nc(c(-c5c(F)cc(S(=O)(=O)[O-])cc5F)c5ccc2[nH]5)C=C4)C=C3)cc1)[NH+]1CCCCC1
REMARK SMILES IDX 19 1 18 2 17 3 16 4 15 5 14 6 12 7 13 8 11 9 5 10 6 11 7 12
REMARK SMILES IDX 9 13 8 14 10 15 4 16 3 18 2 19 1 20 95 21 96 22 100 23 97 25
REMARK SMILES IDX 99 26 98 27 20 28 21 29 22 30 23 31 24 32 25 33 26 34 27 35
REMARK SMILES IDX 28 36 29 37 30 38 94 39 31 40 93 41 32 42 33 43 34 44 87 45
REMARK SMILES IDX 35 46 92 47 86 48 88 49 36 50 91 51 85 52 84 53 37 55 71 56
REMARK SMILES IDX 50 57 70 58 51 59 54 60 69 61 89 62 52 63 53 64 68 66 90 67
REMARK SMILES IDX 55 68 38 69 39 70 48 71 40 72 41 73 47 74 49 75 42 76 43 77
REMARK SMILES IDX 44 78 45 79 46 80 72 81 73 82 82 83 74 84 75 85 81 86 83 87
REMARK SMILES IDX 76 88 77 89 78 90 79 91 80 92 56 93 57 94 66 95 58 96 59 97
REMARK SMILES IDX 65 98 67 99 60 100 61 101 62 102 63 103 64 104
REMARK H PARENT 4 17 95 24 88 54 54 65
REMARK Flexibility Score: inf
ROOT
ATOM      1  C   UNL A   1      44.038  19.064  25.069  1.00  0.00     0.188 C 
ENDROOT
BRANCH   1   2
ATOM      2  C   UNL A   1      45.455  19.606  24.774  1.00  0.00     0.188 C 
BRANCH   2   3
ATOM      3  O   UNL A   1      45.746  20.910  25.258  1.00  0.00    -0.376 OA
BRANCH   3   4
ATOM      4  C   UNL A   1      45.932  21.947  24.311  1.00  0.00     0.202 C 
BRANCH   4   5
ATOM      5  C   UNL A   1      45.228  23.279  24.646  1.00  0.00     0.261 C 
BRANCH   5   6
ATOM      6  O   UNL A   1      46.043  24.464  24.560  1.00  0.00    -0.460 OA
BRANCH   6   7
ATOM      7  C   UNL A   1      46.590  24.834  25.734  1.00  0.00     0.343 C 
ATOM      8  O   UNL A   1      47.281  24.098  26.417  1.00  0.00    -0.246 OA
BRANCH   7   9
ATOM      9  C   UNL A   1      46.489  26.264  26.050  1.00  0.00     0.118 A 
ATOM     10  C   UNL A   1      46.904  27.219  25.079  1.00  0.00     0.052 A 
ATOM     11  C   UNL A   1      46.804  28.573  25.421  1.00  0.00     0.027 A 
ATOM     12  C   UNL A   1      46.362  28.965  26.691  1.00  0.00     0.005 A 
ATOM     13  C   UNL A   1      46.061  26.660  27.313  1.00  0.00     0.139 A 
ATOM     14  C   UNL A   1      46.001  28.008  27.639  1.00  0.00     0.040 A 
ATOM     15  F   UNL A   1      45.745  25.757  28.252  1.00  0.00    -0.206 F 
BRANCH  10  16
ATOM     16  N   UNL A   1      47.389  26.812  23.828  1.00  0.00    -0.378 N 
ATOM     17  H   UNL A   1      46.747  26.477  23.162  1.00  0.00     0.160 HD
BRANCH  16  18
ATOM     18  C   UNL A   1      48.807  26.862  23.470  1.00  0.00     0.177 C 
BRANCH  18  19
ATOM     19  C   UNL A   1      49.073  27.836  22.249  1.00  0.00     0.200 C 
ATOM     20  C   UNL A   1      48.382  27.259  20.993  1.00  0.00     0.077 C 
BRANCH  19  21
ATOM     21  N   UNL A   1      50.469  28.334  22.033  1.00  0.00    -0.331 N 
ATOM     22  C   UNL A   1      51.506  27.333  22.276  1.00  0.00     0.262 C 
ATOM     23  C   UNL A   1      50.680  29.246  20.905  1.00  0.00     0.262 C 
ATOM     24  H   UNL A   1      50.600  28.992  22.801  1.00  0.00     0.348 HD
ATOM     25  C   UNL A   1      52.936  27.790  22.015  1.00  0.00     0.062 C 
ATOM     26  C   UNL A   1      52.116  29.474  20.394  1.00  0.00     0.062 C 
ATOM     27  C   UNL A   1      53.077  28.314  20.601  1.00  0.00     0.012 C 
ENDBRANCH  19  21
ENDBRANCH  18  19
ENDBRANCH  16  18
ENDBRANCH  10  16
ENDBRANCH   7   9
ENDBRANCH   6   7
ENDBRANCH   5   6
ENDBRANCH   4   5
ENDBRANCH   3   4
ENDBRANCH   2   3
ENDBRANCH   1   2
BRANCH   1  28
ATOM     28  O   UNL A   1      43.069  19.802  25.801  1.00  0.00    -0.377 OA
BRANCH  28  29
ATOM     29  C   UNL A   1      41.866  19.168  26.192  1.00  0.00     0.188 C 
BRANCH  29  30
ATOM     30  C   UNL A   1      40.788  20.090  26.788  1.00  0.00     0.188 C 
BRANCH  30  31
ATOM     31  O   UNL A   1      40.681  21.346  26.120  1.00  0.00    -0.376 OA
BRANCH  31  32
ATOM     32  C   UNL A   1      40.495  22.482  26.953  1.00  0.00     0.202 C 
BRANCH  32  33
ATOM     33  C   UNL A   1      41.767  23.249  27.348  1.00  0.00     0.261 C 
BRANCH  33  34
ATOM     34  O   UNL A   1      42.213  24.252  26.422  1.00  0.00    -0.460 OA
BRANCH  34  35
ATOM     35  C   UNL A   1      41.410  25.314  26.190  1.00  0.00     0.338 C 
ATOM     36  O   UNL A   1      40.701  25.503  25.219  1.00  0.00    -0.246 OA
BRANCH  35  37
ATOM     37  C   UNL A   1      41.369  26.112  27.436  1.00  0.00     0.060 A 
ATOM     38  C   UNL A   1      40.244  26.013  28.266  1.00  0.00     0.016 A 
ATOM     39  C   UNL A   1      42.458  26.905  27.808  1.00  0.00     0.016 A 
ATOM     40  C   UNL A   1      40.193  26.735  29.460  1.00  0.00     0.010 A 
ATOM     41  C   UNL A   1      42.391  27.655  28.984  1.00  0.00     0.010 A 
ATOM     42  C   UNL A   1      41.244  27.601  29.794  1.00  0.00    -0.014 A 
BRANCH  42  43
ATOM     43  C   UNL A   1      41.027  28.651  30.816  1.00  0.00     0.031 A 
ATOM     44  C   UNL A   1      41.944  28.642  32.011  1.00  0.00     0.074 A 
ATOM     45  C   UNL A   1      40.074  29.592  30.691  1.00  0.00     0.049 A 
ATOM     46  N   UNL A   1      41.931  29.401  33.074  1.00  0.00    -0.248 NA
ATOM     47  C   UNL A   1      43.028  27.640  32.001  1.00  0.00     0.031 C 
ATOM     48  C   UNL A   1      39.170  29.741  29.553  1.00  0.00     0.029 A 
ATOM     49  N   UNL A   1      39.712  30.606  31.542  1.00  0.00    -0.354 N 
ATOM     50  C   UNL A   1      43.006  28.980  33.846  1.00  0.00     0.074 A 
ATOM     51  C   UNL A   1      43.634  27.880  33.153  1.00  0.00     0.031 C 
ATOM     52  C   UNL A   1      38.352  30.786  29.779  1.00  0.00     0.029 A 
ATOM     53  C   UNL A   1      38.653  31.359  31.092  1.00  0.00     0.049 A 
ATOM     54  H   UNL A   1      40.169  30.779  32.397  1.00  0.00     0.167 HD
ATOM     55  C   UNL A   1      43.440  29.475  35.026  1.00  0.00     0.037 A 
ATOM     56  C   UNL A   1      37.996  32.378  31.685  1.00  0.00     0.037 A 
ATOM     57  C   UNL A   1      42.806  30.558  35.724  1.00  0.00     0.049 A 
ATOM     58  C   UNL A   1      38.430  32.835  33.058  1.00  0.00     0.074 A 
ATOM     59  C   UNL A   1      43.147  31.108  36.946  1.00  0.00     0.029 A 
ATOM     60  N   UNL A   1      41.701  31.255  35.261  1.00  0.00    -0.354 N 
ATOM     61  N   UNL A   1      39.437  32.416  33.788  1.00  0.00    -0.248 NA
ATOM     62  C   UNL A   1      37.633  33.897  33.692  1.00  0.00     0.031 C 
ATOM     63  C   UNL A   1      42.227  32.118  37.239  1.00  0.00     0.029 A 
ATOM     64  C   UNL A   1      41.341  32.225  36.178  1.00  0.00     0.049 A 
ATOM     65  H   UNL A   1      41.242  31.086  34.406  1.00  0.00     0.167 HD
ATOM     66  C   UNL A   1      39.413  33.185  34.949  1.00  0.00     0.074 A 
ATOM     67  C   UNL A   1      38.297  34.098  34.823  1.00  0.00     0.031 C 
ATOM     68  C   UNL A   1      40.241  33.141  36.021  1.00  0.00     0.037 A 
BRANCH  55  69
ATOM     69  C   UNL A   1      44.658  28.853  35.641  1.00  0.00     0.058 A 
ATOM     70  C   UNL A   1      45.942  29.291  35.286  1.00  0.00     0.135 A 
ATOM     71  C   UNL A   1      44.551  27.770  36.527  1.00  0.00     0.135 A 
ATOM     72  F   UNL A   1      46.096  30.336  34.458  1.00  0.00    -0.206 F 
ATOM     73  C   UNL A   1      47.082  28.653  35.761  1.00  0.00     0.059 A 
ATOM     74  C   UNL A   1      45.679  27.129  37.032  1.00  0.00     0.059 A 
ATOM     75  F   UNL A   1      43.344  27.338  36.924  1.00  0.00    -0.206 F 
ATOM     76  C   UNL A   1      46.939  27.565  36.624  1.00  0.00     0.060 A 
BRANCH  76  77
ATOM     77  S   UNL A   1      48.429  26.736  37.215  1.00  0.00     0.124 S 
ATOM     78  O   UNL A   1      48.666  27.415  38.485  1.00  0.00    -0.237 OA
ATOM     79  O   UNL A   1      47.991  25.347  37.308  1.00  0.00    -0.237 OA
ATOM     80  O   UNL A   1      49.407  27.007  36.166  1.00  0.00    -0.744 OA
ENDBRANCH  76  77
ENDBRANCH  55  69
BRANCH  56  81
ATOM     81  C   UNL A   1      36.847  33.038  31.005  1.00  0.00     0.058 A 
ATOM     82  C   UNL A   1      35.528  32.843  31.443  1.00  0.00     0.135 A 
ATOM     83  C   UNL A   1      37.051  33.915  29.929  1.00  0.00     0.135 A 
ATOM     84  F   UNL A   1      35.274  32.018  32.470  1.00  0.00    -0.206 F 
ATOM     85  C   UNL A   1      34.454  33.484  30.834  1.00  0.00     0.059 A 
ATOM     86  C   UNL A   1      35.997  34.589  29.319  1.00  0.00     0.059 A 
ATOM     87  F   UNL A   1      38.296  34.152  29.486  1.00  0.00    -0.206 F 
ATOM     88  C   UNL A   1      34.699  34.357  29.773  1.00  0.00     0.060 A 
BRANCH  88  89
ATOM     89  S   UNL A   1      33.295  35.209  29.019  1.00  0.00     0.124 S 
ATOM     90  O   UNL A   1      33.951  36.346  28.383  1.00  0.00    -0.237 OA
ATOM     91  O   UNL A   1      32.768  34.192  28.114  1.00  0.00    -0.237 OA
ATOM     92  O   UNL A   1      32.443  35.530  30.160  1.00  0.00    -0.744 OA
ENDBRANCH  88  89
ENDBRANCH  56  81
BRANCH  68  93
ATOM     93  C   UNL A   1      40.013  34.127  37.133  1.00  0.00     0.058 A 
ATOM     94  C   UNL A   1      39.163  33.803  38.202  1.00  0.00     0.135 A 
ATOM     95  C   UNL A   1      40.544  35.425  37.084  1.00  0.00     0.135 A 
ATOM     96  F   UNL A   1      38.622  32.577  38.291  1.00  0.00    -0.206 F 
ATOM     97  C   UNL A   1      38.827  34.739  39.174  1.00  0.00     0.059 A 
ATOM     98  C   UNL A   1      40.242  36.371  38.060  1.00  0.00     0.059 A 
ATOM     99  F   UNL A   1      41.367  35.781  36.085  1.00  0.00    -0.206 F 
ATOM    100  C   UNL A   1      39.367  36.024  39.089  1.00  0.00     0.060 A 
BRANCH 100 101
ATOM    101  S   UNL A   1      38.915  37.230  40.354  1.00  0.00     0.124 S 
ATOM    102  O   UNL A   1      38.138  36.413  41.283  1.00  0.00    -0.237 OA
ATOM    103  O   UNL A   1      40.218  37.675  40.838  1.00  0.00    -0.237 OA
ATOM    104  O   UNL A   1      38.155  38.231  39.612  1.00  0.00    -0.744 OA
ENDBRANCH 100 101
ENDBRANCH  68  93
ENDBRANCH  42  43
ENDBRANCH  35  37
ENDBRANCH  34  35
ENDBRANCH  33  34
ENDBRANCH  32  33
ENDBRANCH  31  32
ENDBRANCH  30  31
ENDBRANCH  29  30
ENDBRANCH  28  29
ENDBRANCH   1  28
TORSDOF 27
ENDMDL
MODEL 2
REMARK VINA RESULT:      -8.5      6.801     10.872
REMARK SMILES C[C@@H](CNc1cccc(F)c1C(=O)OCCOCCOCCOCCOC(=O)c1ccc(-c2c3nc(c(-c4c(F)cc(S(=O)(=O)[O-])cc4F)c4ccc([nH]4)c(-c4c(F)cc(S(=O)(=O)[O-])cc4F)c4nc(c(-c5c(F)cc(S(=O)(=O)[O-])cc5F)c5ccc2[nH]5)C=C4)C=C3)cc1)[NH+]1CCCCC1
REMARK SMILES IDX 19 1 18 2 17 3 16 4 15 5 14 6 12 7 13 8 11 9 5 10 6 11 7 12
REMARK SMILES IDX 9 13 8 14 10 15 4 16 3 18 2 19 1 20 95 21 96 22 100 23 97 25
REMARK SMILES IDX 99 26 98 27 20 28 21 29 22 30 23 31 24 32 25 33 26 34 27 35
REMARK SMILES IDX 28 36 29 37 30 38 94 39 31 40 93 41 32 42 33 43 34 44 87 45
REMARK SMILES IDX 35 46 92 47 86 48 88 49 36 50 91 51 85 52 84 53 37 55 71 56
REMARK SMILES IDX 50 57 70 58 51 59 54 60 69 61 89 62 52 63 53 64 68 66 90 67
REMARK SMILES IDX 55 68 38 69 39 70 48 71 40 72 41 73 47 74 49 75 42 76 43 77
REMARK SMILES IDX 44 78 45 79 46 80 72 81 73 82 82 83 74 84 75 85 81 86 83 87
REMARK SMILES IDX 76 88 77 89 78 90 79 91 80 92 56 93 57 94 66 95 58 96 59 97
REMARK SMILES IDX 65 98 67 99 60 100 61 101 62 102 63 103 64 104
REMARK H PARENT 4 17 95 24 88 54 54 65
REMARK Flexibility Score: inf
ROOT
ATOM      1  C   UNL A   1      39.213  24.090  26.814  1.00  0.00     0.188 C 
ENDROOT
BRANCH   1   2
ATOM      2  C   UNL A   1      37.693  24.069  26.529  1.00  0.00     0.188 C 
BRANCH   2   3
ATOM      3  O   UNL A   1      37.151  22.833  26.083  1.00  0.00    -0.376 OA
BRANCH   3   4
ATOM      4  C   UNL A   1      37.637  22.293  24.867  1.00  0.00     0.202 C 
BRANCH   4   5
ATOM      5  C   UNL A   1      36.728  22.513  23.639  1.00  0.00     0.261 C 
BRANCH   5   6
ATOM      6  O   UNL A   1      36.061  23.788  23.567  1.00  0.00    -0.460 OA
BRANCH   6   7
ATOM      7  C   UNL A   1      34.744  23.700  23.301  1.00  0.00     0.343 C 
ATOM      8  O   UNL A   1      34.280  22.988  22.427  1.00  0.00    -0.246 OA
BRANCH   7   9
ATOM      9  C   UNL A   1      33.862  24.349  24.278  1.00  0.00     0.118 A 
ATOM     10  C   UNL A   1      33.615  23.706  25.524  1.00  0.00     0.052 A 
ATOM     11  C   UNL A   1      32.759  24.350  26.425  1.00  0.00     0.027 A 
ATOM     12  C   UNL A   1      32.130  25.555  26.087  1.00  0.00     0.005 A 
ATOM     13  C   UNL A   1      33.225  25.540  23.943  1.00  0.00     0.139 A 
ATOM     14  C   UNL A   1      32.356  26.143  24.842  1.00  0.00     0.040 A 
ATOM     15  F   UNL A   1      33.398  26.103  22.740  1.00  0.00    -0.206 F 
BRANCH  10  16
ATOM     16  N   UNL A   1      34.215  22.477  25.832  1.00  0.00    -0.378 N 
ATOM     17  H   UNL A   1      35.197  22.433  25.884  1.00  0.00     0.160 HD
BRANCH  16  18
ATOM     18  C   UNL A   1      33.445  21.256  26.080  1.00  0.00     0.177 C 
BRANCH  18  19
ATOM     19  C   UNL A   1      33.606  20.209  24.902  1.00  0.00     0.200 C 
ATOM     20  C   UNL A   1      32.539  20.504  23.824  1.00  0.00     0.077 C 
BRANCH  19  21
ATOM     21  N   UNL A   1      33.765  18.763  25.260  1.00  0.00    -0.331 N 
ATOM     22  C   UNL A   1      32.503  18.041  25.411  1.00  0.00     0.262 C 
ATOM     23  C   UNL A   1      34.868  18.040  24.620  1.00  0.00     0.262 C 
ATOM     24  H   UNL A   1      34.126  18.800  26.212  1.00  0.00     0.348 HD
ATOM     25  C   UNL A   1      32.628  16.555  25.723  1.00  0.00     0.062 C 
ATOM     26  C   UNL A   1      34.850  16.499  24.629  1.00  0.00     0.062 C 
ATOM     27  C   UNL A   1      33.470  15.860  24.673  1.00  0.00     0.012 C 
ENDBRANCH  19  21
ENDBRANCH  18  19
ENDBRANCH  16  18
ENDBRANCH  10  16
ENDBRANCH   7   9
ENDBRANCH   6   7
ENDBRANCH   5   6
ENDBRANCH   4   5
ENDBRANCH   3   4
ENDBRANCH   2   3
ENDBRANCH   1   2
BRANCH   1  28
ATOM     28  O   UNL A   1      40.104  24.989  26.169  1.00  0.00    -0.377 OA
BRANCH  28  29
ATOM     29  C   UNL A   1      41.173  25.551  26.906  1.00  0.00     0.188 C 
BRANCH  29  30
ATOM     30  C   UNL A   1      42.586  25.172  26.427  1.00  0.00     0.188 C 
BRANCH  30  31
ATOM     31  O   UNL A   1      42.659  23.871  25.846  1.00  0.00    -0.376 OA
BRANCH  31  32
ATOM     32  C   UNL A   1      43.375  23.772  24.623  1.00  0.00     0.202 C 
BRANCH  32  33
ATOM     33  C   UNL A   1      44.842  23.326  24.729  1.00  0.00     0.261 C 
BRANCH  33  34
ATOM     34  O   UNL A   1      45.819  24.377  24.790  1.00  0.00    -0.460 OA
BRANCH  34  35
ATOM     35  C   UNL A   1      46.532  24.524  25.929  1.00  0.00     0.338 C 
ATOM     36  O   UNL A   1      47.252  23.700  26.460  1.00  0.00    -0.246 OA
BRANCH  35  37
ATOM     37  C   UNL A   1      46.461  25.954  26.308  1.00  0.00     0.060 A 
ATOM     38  C   UNL A   1      46.971  26.350  27.553  1.00  0.00     0.016 A 
ATOM     39  C   UNL A   1      45.951  26.902  25.417  1.00  0.00     0.016 A 
ATOM     40  C   UNL A   1      46.940  27.696  27.921  1.00  0.00     0.010 A 
ATOM     41  C   UNL A   1      45.888  28.242  25.801  1.00  0.00     0.010 A 
ATOM     42  C   UNL A   1      46.348  28.638  27.068  1.00  0.00    -0.014 A 
BRANCH  42  43
ATOM     43  C   UNL A   1      45.949  29.959  27.606  1.00  0.00     0.031 A 
ATOM     44  C   UNL A   1      46.897  31.107  27.371  1.00  0.00     0.074 A 
ATOM     45  C   UNL A   1      44.789  30.152  28.257  1.00  0.00     0.049 A 
ATOM     46  N   UNL A   1      46.824  32.342  27.786  1.00  0.00    -0.248 NA
ATOM     47  C   UNL A   1      48.088  30.818  26.549  1.00  0.00     0.031 C 
ATOM     48  C   UNL A   1      43.764  29.136  28.489  1.00  0.00     0.029 A 
ATOM     49  N   UNL A   1      44.278  31.283  28.844  1.00  0.00    -0.354 N 
ATOM     50  C   UNL A   1      47.945  32.978  27.267  1.00  0.00     0.074 A 
ATOM     51  C   UNL A   1      48.702  31.991  26.534  1.00  0.00     0.031 C 
ATOM     52  C   UNL A   1      42.748  29.690  29.176  1.00  0.00     0.029 A 
ATOM     53  C   UNL A   1      43.063  31.091  29.459  1.00  0.00     0.049 A 
ATOM     54  H   UNL A   1      44.740  32.153  28.827  1.00  0.00     0.167 HD
ATOM     55  C   UNL A   1      48.307  34.274  27.382  1.00  0.00     0.037 A 
ATOM     56  C   UNL A   1      42.310  31.946  30.182  1.00  0.00     0.037 A 
ATOM     57  C   UNL A   1      47.563  35.252  28.126  1.00  0.00     0.049 A 
ATOM     58  C   UNL A   1      42.797  33.360  30.393  1.00  0.00     0.074 A 
ATOM     59  C   UNL A   1      47.868  36.585  28.335  1.00  0.00     0.029 A 
ATOM     60  N   UNL A   1      46.368  35.002  28.782  1.00  0.00    -0.354 N 
ATOM     61  N   UNL A   1      43.869  33.945  29.913  1.00  0.00    -0.248 NA
ATOM     62  C   UNL A   1      41.975  34.229  31.251  1.00  0.00     0.031 C 
ATOM     63  C   UNL A   1      46.871  37.135  29.146  1.00  0.00     0.029 A 
ATOM     64  C   UNL A   1      45.926  36.155  29.404  1.00  0.00     0.049 A 
ATOM     65  H   UNL A   1      45.903  34.135  28.801  1.00  0.00     0.167 HD
ATOM     66  C   UNL A   1      43.832  35.255  30.383  1.00  0.00     0.074 A 
ATOM     67  C   UNL A   1      42.631  35.380  31.180  1.00  0.00     0.031 C 
ATOM     68  C   UNL A   1      44.712  36.264  30.173  1.00  0.00     0.037 A 
BRANCH  55  69
ATOM     69  C   UNL A   1      49.562  34.716  26.690  1.00  0.00     0.058 A 
ATOM     70  C   UNL A   1      49.543  35.070  25.333  1.00  0.00     0.135 A 
ATOM     71  C   UNL A   1      50.798  34.713  27.356  1.00  0.00     0.135 A 
ATOM     72  F   UNL A   1      48.384  35.108  24.659  1.00  0.00    -0.206 F 
ATOM     73  C   UNL A   1      50.715  35.374  24.649  1.00  0.00     0.059 A 
ATOM     74  C   UNL A   1      51.979  35.033  26.696  1.00  0.00     0.059 A 
ATOM     75  F   UNL A   1      50.860  34.415  28.663  1.00  0.00    -0.206 F 
ATOM     76  C   UNL A   1      51.929  35.341  25.336  1.00  0.00     0.060 A 
BRANCH  76  77
ATOM     77  S   UNL A   1      53.442  35.719  24.427  1.00  0.00     0.124 S 
ATOM     78  O   UNL A   1      53.478  37.176  24.498  1.00  0.00    -0.237 OA
ATOM     79  O   UNL A   1      54.453  35.018  25.211  1.00  0.00    -0.237 OA
ATOM     80  O   UNL A   1      53.189  35.160  23.102  1.00  0.00    -0.744 OA
ENDBRANCH  76  77
ENDBRANCH  55  69
BRANCH  56  81
ATOM     81  C   UNL A   1      41.020  31.502  30.779  1.00  0.00     0.058 A 
ATOM     82  C   UNL A   1      39.790  31.830  30.190  1.00  0.00     0.135 A 
ATOM     83  C   UNL A   1      40.995  30.698  31.930  1.00  0.00     0.135 A 
ATOM     84  F   UNL A   1      39.754  32.593  29.086  1.00  0.00    -0.206 F 
ATOM     85  C   UNL A   1      38.583  31.389  30.723  1.00  0.00     0.059 A 
ATOM     86  C   UNL A   1      39.802  30.222  32.468  1.00  0.00     0.059 A 
ATOM     87  F   UNL A   1      42.145  30.338  32.519  1.00  0.00    -0.206 F 
ATOM     88  C   UNL A   1      38.599  30.583  31.862  1.00  0.00     0.060 A 
BRANCH  88  89
ATOM     89  S   UNL A   1      37.024  29.989  32.518  1.00  0.00     0.124 S 
ATOM     90  O   UNL A   1      36.568  31.149  33.276  1.00  0.00    -0.237 OA
ATOM     91  O   UNL A   1      36.277  29.691  31.301  1.00  0.00    -0.237 OA
ATOM     92  O   UNL A   1      37.407  28.827  33.315  1.00  0.00    -0.744 OA
ENDBRANCH  88  89
ENDBRANCH  56  81
BRANCH  68  93
ATOM     93  C   UNL A   1      44.404  37.609  30.770  1.00  0.00     0.058 A 
ATOM     94  C   UNL A   1      44.644  37.850  32.132  1.00  0.00     0.135 A 
ATOM     95  C   UNL A   1      43.772  38.616  30.025  1.00  0.00     0.135 A 
ATOM     96  F   UNL A   1      45.238  36.915  32.891  1.00  0.00    -0.206 F 
ATOM     97  C   UNL A   1      44.247  39.034  32.742  1.00  0.00     0.059 A 
ATOM     98  C   UNL A   1      43.389  39.820  30.609  1.00  0.00     0.059 A 
ATOM     99  F   UNL A   1      43.527  38.437  28.717  1.00  0.00    -0.206 F 
ATOM    100  C   UNL A   1      43.613  40.011  31.973  1.00  0.00     0.060 A 
BRANCH 100 101
ATOM    101  S   UNL A   1      43.097  41.540  32.782  1.00  0.00     0.124 S 
ATOM    102  O   UNL A   1      43.993  42.518  32.173  1.00  0.00    -0.237 OA
ATOM    103  O   UNL A   1      41.693  41.637  32.395  1.00  0.00    -0.237 OA
ATOM    104  O   UNL A   1      43.331  41.270  34.198  1.00  0.00    -0.744 OA
ENDBRANCH 100 101
ENDBRANCH  68  93
ENDBRANCH  42  43
ENDBRANCH  35  37
ENDBRANCH  34  35
ENDBRANCH  33  34
ENDBRANCH  32  33
ENDBRANCH  31  32
ENDBRANCH  30  31
ENDBRANCH  29  30
ENDBRANCH  28  29
ENDBRANCH   1  28
TORSDOF 27
ENDMDL
MODEL 3
REMARK VINA RESULT:      -8.3      3.582      9.291
REMARK SMILES C[C@@H](CNc1cccc(F)c1C(=O)OCCOCCOCCOCCOC(=O)c1ccc(-c2c3nc(c(-c4c(F)cc(S(=O)(=O)[O-])cc4F)c4ccc([nH]4)c(-c4c(F)cc(S(=O)(=O)[O-])cc4F)c4nc(c(-c5c(F)cc(S(=O)(=O)[O-])cc5F)c5ccc2[nH]5)C=C4)C=C3)cc1)[NH+]1CCCCC1
REMARK SMILES IDX 19 1 18 2 17 3 16 4 15 5 14 6 12 7 13 8 11 9 5 10 6 11 7 12
REMARK SMILES IDX 9 13 8 14 10 15 4 16 3 18 2 19 1 20 95 21 96 22 100 23 97 25
REMARK SMILES IDX 99 26 98 27 20 28 21 29 22 30 23 31 24 32 25 33 26 34 27 35
REMARK SMILES IDX 28 36 29 37 30 38 94 39 31 40 93 41 32 42 33 43 34 44 87 45
REMARK SMILES IDX 35 46 92 47 86 48 88 49 36 50 91 51 85 52 84 53 37 55 71 56
REMARK SMILES IDX 50 57 70 58 51 59 54 60 69 61 89 62 52 63 53 64 68 66 90 67
REMARK SMILES IDX 55 68 38 69 39 70 48 71 40 72 41 73 47 74 49 75 42 76 43 77
REMARK SMILES IDX 44 78 45 79 46 80 72 81 73 82 82 83 74 84 75 85 81 86 83 87
REMARK SMILES IDX 76 88 77 89 78 90 79 91 80 92 56 93 57 94 66 95 58 96 59 97
REMARK SMILES IDX 65 98 67 99 60 100 61 101 62 102 63 103 64 104
REMARK H PARENT 4 17 95 24 88 54 54 65
REMARK Flexibility Score: inf
ROOT
ATOM      1  C   UNL A   1      36.773  19.451  24.700  1.00  0.00     0.188 C 
ENDROOT
BRANCH   1   2
ATOM      2  C   UNL A   1      38.264  19.187  25.013  1.00  0.00     0.188 C 
BRANCH   2   3
ATOM      3  O   UNL A   1      38.936  20.184  25.772  1.00  0.00    -0.376 OA
BRANCH   3   4
ATOM      4  C   UNL A   1      40.254  19.910  26.214  1.00  0.00     0.202 C 
BRANCH   4   5
ATOM      5  C   UNL A   1      40.869  20.974  27.148  1.00  0.00     0.261 C 
BRANCH   5   6
ATOM      6  O   UNL A   1      42.300  21.129  27.074  1.00  0.00    -0.460 OA
BRANCH   6   7
ATOM      7  C   UNL A   1      42.749  21.458  25.848  1.00  0.00     0.343 C 
ATOM      8  O   UNL A   1      42.265  22.348  25.170  1.00  0.00    -0.246 OA
BRANCH   7   9
ATOM      9  C   UNL A   1      44.011  20.825  25.451  1.00  0.00     0.118 A 
ATOM     10  C   UNL A   1      45.167  21.636  25.270  1.00  0.00     0.052 A 
ATOM     11  C   UNL A   1      46.351  20.998  24.880  1.00  0.00     0.027 A 
ATOM     12  C   UNL A   1      46.377  19.620  24.627  1.00  0.00     0.005 A 
ATOM     13  C   UNL A   1      44.042  19.459  25.187  1.00  0.00     0.139 A 
ATOM     14  C   UNL A   1      45.220  18.854  24.771  1.00  0.00     0.040 A 
ATOM     15  F   UNL A   1      42.935  18.710  25.283  1.00  0.00    -0.206 F 
BRANCH  10  16
ATOM     16  N   UNL A   1      45.116  23.021  25.482  1.00  0.00    -0.378 N 
ATOM     17  H   UNL A   1      44.619  23.577  24.840  1.00  0.00     0.160 HD
BRANCH  16  18
ATOM     18  C   UNL A   1      45.771  23.677  26.615  1.00  0.00     0.177 C 
BRANCH  18  19
ATOM     19  C   UNL A   1      45.237  25.152  26.831  1.00  0.00     0.200 C 
ATOM     20  C   UNL A   1      43.826  25.267  26.212  1.00  0.00     0.077 C 
BRANCH  19  21
ATOM     21  N   UNL A   1      46.161  26.290  26.521  1.00  0.00    -0.331 N 
ATOM     22  C   UNL A   1      47.508  26.134  27.068  1.00  0.00     0.262 C 
ATOM     23  C   UNL A   1      46.054  26.886  25.186  1.00  0.00     0.262 C 
ATOM     24  H   UNL A   1      45.776  27.057  27.072  1.00  0.00     0.348 HD
ATOM     25  C   UNL A   1      48.489  27.248  26.727  1.00  0.00     0.062 C 
ATOM     26  C   UNL A   1      47.209  27.766  24.670  1.00  0.00     0.062 C 
ATOM     27  C   UNL A   1      48.585  27.433  25.227  1.00  0.00     0.012 C 
ENDBRANCH  19  21
ENDBRANCH  18  19
ENDBRANCH  16  18
ENDBRANCH  10  16
ENDBRANCH   7   9
ENDBRANCH   6   7
ENDBRANCH   5   6
ENDBRANCH   4   5
ENDBRANCH   3   4
ENDBRANCH   2   3
ENDBRANCH   1   2
BRANCH   1  28
ATOM     28  O   UNL A   1      36.033  20.499  25.312  1.00  0.00    -0.377 OA
BRANCH  28  29
ATOM     29  C   UNL A   1      34.622  20.506  25.198  1.00  0.00     0.188 C 
BRANCH  29  30
ATOM     30  C   UNL A   1      33.888  21.535  26.076  1.00  0.00     0.188 C 
BRANCH  30  31
ATOM     31  O   UNL A   1      33.580  22.749  25.393  1.00  0.00    -0.376 OA
BRANCH  31  32
ATOM     32  C   UNL A   1      34.363  23.880  25.746  1.00  0.00     0.202 C 
BRANCH  32  33
ATOM     33  C   UNL A   1      35.770  23.949  25.132  1.00  0.00     0.261 C 
BRANCH  33  34
ATOM     34  O   UNL A   1      36.778  24.589  25.931  1.00  0.00    -0.460 OA
BRANCH  34  35
ATOM     35  C   UNL A   1      37.968  23.967  26.080  1.00  0.00     0.338 C 
ATOM     36  O   UNL A   1      38.345  22.954  25.521  1.00  0.00    -0.246 OA
BRANCH  35  37
ATOM     37  C   UNL A   1      38.833  24.863  26.881  1.00  0.00     0.060 A 
ATOM     38  C   UNL A   1      38.670  24.894  28.273  1.00  0.00     0.016 A 
ATOM     39  C   UNL A   1      39.836  25.619  26.267  1.00  0.00     0.016 A 
ATOM     40  C   UNL A   1      39.491  25.710  29.052  1.00  0.00     0.010 A 
ATOM     41  C   UNL A   1      40.633  26.462  27.044  1.00  0.00     0.010 A 
ATOM     42  C   UNL A   1      40.439  26.537  28.434  1.00  0.00    -0.014 A 
BRANCH  42  43
ATOM     43  C   UNL A   1      41.015  27.675  29.186  1.00  0.00     0.031 A 
ATOM     44  C   UNL A   1      40.142  28.890  29.364  1.00  0.00     0.074 A 
ATOM     45  C   UNL A   1      42.252  27.637  29.714  1.00  0.00     0.049 A 
ATOM     46  N   UNL A   1      40.419  30.038  29.920  1.00  0.00    -0.248 NA
ATOM     47  C   UNL A   1      38.764  28.790  28.846  1.00  0.00     0.031 C 
ATOM     48  C   UNL A   1      43.164  26.498  29.664  1.00  0.00     0.029 A 
ATOM     49  N   UNL A   1      42.951  28.597  30.404  1.00  0.00    -0.354 N 
ATOM     50  C   UNL A   1      39.253  30.787  29.832  1.00  0.00     0.074 A 
ATOM     51  C   UNL A   1      38.272  29.983  29.143  1.00  0.00     0.031 C 
ATOM     52  C   UNL A   1      44.309  26.826  30.292  1.00  0.00     0.029 A 
ATOM     53  C   UNL A   1      44.222  28.210  30.761  1.00  0.00     0.049 A 
ATOM     54  H   UNL A   1      42.578  29.482  30.622  1.00  0.00     0.167 HD
ATOM     55  C   UNL A   1      39.015  32.033  30.296  1.00  0.00     0.037 A 
ATOM     56  C   UNL A   1      45.201  28.904  31.378  1.00  0.00     0.037 A 
ATOM     57  C   UNL A   1      39.996  32.840  30.967  1.00  0.00     0.049 A 
ATOM     58  C   UNL A   1      44.946  30.337  31.782  1.00  0.00     0.074 A 
ATOM     59  C   UNL A   1      39.864  34.133  31.442  1.00  0.00     0.029 A 
ATOM     60  N   UNL A   1      41.288  32.432  31.258  1.00  0.00    -0.354 N 
ATOM     61  N   UNL A   1      43.845  31.042  31.676  1.00  0.00    -0.248 NA
ATOM     62  C   UNL A   1      46.071  31.072  32.382  1.00  0.00     0.031 C 
ATOM     63  C   UNL A   1      41.090  34.519  31.992  1.00  0.00     0.029 A 
ATOM     64  C   UNL A   1      41.968  33.451  31.898  1.00  0.00     0.049 A 
ATOM     65  H   UNL A   1      41.664  31.548  31.042  1.00  0.00     0.167 HD
ATOM     66  C   UNL A   1      44.134  32.288  32.225  1.00  0.00     0.074 A 
ATOM     67  C   UNL A   1      45.512  32.241  32.666  1.00  0.00     0.031 C 
ATOM     68  C   UNL A   1      43.333  33.374  32.353  1.00  0.00     0.037 A 
BRANCH  55  69
ATOM     69  C   UNL A   1      37.643  32.606  30.097  1.00  0.00     0.058 A 
ATOM     70  C   UNL A   1      37.387  33.496  29.044  1.00  0.00     0.135 A 
ATOM     71  C   UNL A   1      36.603  32.330  30.998  1.00  0.00     0.135 A 
ATOM     72  F   UNL A   1      38.343  33.776  28.144  1.00  0.00    -0.206 F 
ATOM     73  C   UNL A   1      36.153  34.122  28.910  1.00  0.00     0.059 A 
ATOM     74  C   UNL A   1      35.354  32.929  30.871  1.00  0.00     0.059 A 
ATOM     75  F   UNL A   1      36.792  31.458  32.001  1.00  0.00    -0.206 F 
ATOM     76  C   UNL A   1      35.147  33.841  29.837  1.00  0.00     0.060 A 
BRANCH  76  77
ATOM     77  S   UNL A   1      33.557  34.677  29.659  1.00  0.00     0.124 S 
ATOM     78  O   UNL A   1      33.957  35.965  29.102  1.00  0.00    -0.237 OA
ATOM     79  O   UNL A   1      32.842  33.786  28.752  1.00  0.00    -0.237 OA
ATOM     80  O   UNL A   1      33.040  34.716  31.023  1.00  0.00    -0.744 OA
ENDBRANCH  76  77
ENDBRANCH  55  69
BRANCH  56  81
ATOM     81  C   UNL A   1      46.524  28.275  31.646  1.00  0.00     0.058 A 
ATOM     82  C   UNL A   1      47.541  28.270  30.680  1.00  0.00     0.135 A 
ATOM     83  C   UNL A   1      46.811  27.702  32.895  1.00  0.00     0.135 A 
ATOM     84  F   UNL A   1      47.323  28.806  29.470  1.00  0.00    -0.206 F 
ATOM     85  C   UNL A   1      48.791  27.715  30.938  1.00  0.00     0.059 A 
ATOM     86  C   UNL A   1      48.062  27.163  33.187  1.00  0.00     0.059 A 
ATOM     87  F   UNL A   1      45.879  27.701  33.861  1.00  0.00    -0.206 F 
ATOM     88  C   UNL A   1      49.042  27.165  32.195  1.00  0.00     0.060 A 
BRANCH  88  89
ATOM     89  S   UNL A   1      50.682  26.481  32.523  1.00  0.00     0.124 S 
ATOM     90  O   UNL A   1      50.966  25.790  31.270  1.00  0.00    -0.237 OA
ATOM     91  O   UNL A   1      51.470  27.683  32.778  1.00  0.00    -0.237 OA
ATOM     92  O   UNL A   1      50.464  25.620  33.681  1.00  0.00    -0.744 OA
ENDBRANCH  88  89
ENDBRANCH  56  81
BRANCH  68  93
ATOM     93  C   UNL A   1      43.894  34.593  33.032  1.00  0.00     0.058 A 
ATOM     94  C   UNL A   1      43.708  34.782  34.411  1.00  0.00     0.135 A 
ATOM     95  C   UNL A   1      44.513  35.619  32.303  1.00  0.00     0.135 A 
ATOM     96  F   UNL A   1      43.112  33.834  35.151  1.00  0.00    -0.206 F 
ATOM     97  C   UNL A   1      44.096  35.959  35.041  1.00  0.00     0.059 A 
ATOM     98  C   UNL A   1      44.933  36.795  32.919  1.00  0.00     0.059 A 
ATOM     99  F   UNL A   1      44.719  35.482  30.984  1.00  0.00    -0.206 F 
ATOM    100  C   UNL A   1      44.702  36.964  34.284  1.00  0.00     0.060 A 
BRANCH 100 101
ATOM    101  S   UNL A   1      45.192  38.488  35.116  1.00  0.00     0.124 S 
ATOM    102  O   UNL A   1      43.953  39.259  35.085  1.00  0.00    -0.237 OA
ATOM    103  O   UNL A   1      45.606  38.004  36.430  1.00  0.00    -0.237 OA
ATOM    104  O   UNL A   1      46.272  39.000  34.277  1.00  0.00    -0.744 OA
ENDBRANCH 100 101
ENDBRANCH  68  93
ENDBRANCH  42  43
ENDBRANCH  35  37
ENDBRANCH  34  35
ENDBRANCH  33  34
ENDBRANCH  32  33
ENDBRANCH  31  32
ENDBRANCH  30  31
ENDBRANCH  29  30
ENDBRANCH  28  29
ENDBRANCH   1  28
TORSDOF 27
ENDMDL
