MODEL 1
REMARK VINA RESULT:      -9.9      0.000      0.000
REMARK SMILES O=C(OCCOCCOCCOCCOC(=O)[C@H](Cc1ccc(O)cc1)NC(=O)c1ccc(Cl)s1)c1ccc(-c2c3nc(c(-c4c(F)cc(S(=O)(=O)[O-])cc4F)c4ccc([nH]4)c(-c4c(F)cc(S(=O)(=O)[O-])cc4F)c4nc(c(-c5c(F)cc(S(=O)(=O)[O-])cc5F)c5ccc2[nH]5)C=C4)C=C3)cc1
REMARK SMILES IDX 9 1 8 2 7 3 6 4 5 5 4 6 3 7 2 8 1 9 36 10 37 11 101 12 38 13
REMARK SMILES IDX 100 14 39 15 40 16 41 17 94 18 42 19 99 20 93 21 95 22 43 23
REMARK SMILES IDX 98 24 92 25 91 26 44 28 78 29 57 30 77 31 58 32 61 33 76 34
REMARK SMILES IDX 96 35 59 36 60 37 75 39 97 40 62 41 45 42 46 43 55 44 47 45
REMARK SMILES IDX 48 46 54 47 56 48 49 49 50 50 51 51 52 52 53 53 79 54 80 55
REMARK SMILES IDX 89 56 81 57 82 58 88 59 90 60 83 61 84 62 85 63 86 64 87 65
REMARK SMILES IDX 63 66 64 67 73 68 65 69 66 70 72 71 74 72 67 73 68 74 69 75
REMARK SMILES IDX 70 76 71 77 10 78 11 79 12 80 13 81 14 82 15 83 16 84 17 85
REMARK SMILES IDX 18 86 27 87 28 88 29 90 30 91 31 92 35 93 32 94 33 95 34 96
REMARK SMILES IDX 19 97 20 98 21 99 26 100 22 101 25 102 23 103 24 104
REMARK H PARENT 95 27 61 38 27 89 24 105
REMARK Flexibility Score: inf
ROOT
ATOM      1  O   UNL A   1      39.793  20.926  25.886  1.00  0.00    -0.377 OA
ENDROOT
BRANCH   1   2
ATOM      2  C   UNL A   1      40.711  20.769  26.969  1.00  0.00     0.188 C 
BRANCH   2   3
ATOM      3  C   UNL A   1      41.272  22.093  27.489  1.00  0.00     0.188 C 
BRANCH   3   4
ATOM      4  O   UNL A   1      42.689  22.111  27.298  1.00  0.00    -0.376 OA
BRANCH   4   5
ATOM      5  C   UNL A   1      43.130  21.939  25.956  1.00  0.00     0.202 C 
BRANCH   5   6
ATOM      6  C   UNL A   1      43.473  23.261  25.271  1.00  0.00     0.261 C 
BRANCH   6   7
ATOM      7  O   UNL A   1      43.514  24.340  26.213  1.00  0.00    -0.460 OA
BRANCH   7   8
ATOM      8  C   UNL A   1      42.938  25.564  26.106  1.00  0.00     0.338 C 
ATOM      9  O   UNL A   1      42.651  25.959  24.975  1.00  0.00    -0.246 OA
BRANCH   8  10
ATOM     10  C   UNL A   1      42.590  26.458  27.262  1.00  0.00     0.060 A 
ATOM     11  C   UNL A   1      43.149  27.710  27.544  1.00  0.00     0.016 A 
ATOM     12  C   UNL A   1      41.554  26.009  28.102  1.00  0.00     0.016 A 
ATOM     13  C   UNL A   1      42.737  28.465  28.642  1.00  0.00     0.010 A 
ATOM     14  C   UNL A   1      41.121  26.767  29.194  1.00  0.00     0.010 A 
ATOM     15  C   UNL A   1      41.731  27.992  29.479  1.00  0.00    -0.014 A 
BRANCH  15  16
ATOM     16  C   UNL A   1      41.417  28.731  30.716  1.00  0.00     0.031 A 
ATOM     17  C   UNL A   1      40.249  29.671  30.697  1.00  0.00     0.074 A 
ATOM     18  C   UNL A   1      42.132  28.515  31.836  1.00  0.00     0.049 A 
ATOM     19  N   UNL A   1      39.843  30.504  31.613  1.00  0.00    -0.248 NA
ATOM     20  C   UNL A   1      39.416  29.659  29.480  1.00  0.00     0.031 C 
ATOM     21  C   UNL A   1      43.222  27.546  31.968  1.00  0.00     0.029 A 
ATOM     22  N   UNL A   1      42.052  29.097  33.073  1.00  0.00    -0.354 N 
ATOM     23  C   UNL A   1      38.734  31.143  31.073  1.00  0.00     0.074 A 
ATOM     24  C   UNL A   1      38.515  30.590  29.756  1.00  0.00     0.031 C 
ATOM     25  C   UNL A   1      43.722  27.615  33.213  1.00  0.00     0.029 A 
ATOM     26  C   UNL A   1      43.025  28.669  33.946  1.00  0.00     0.049 A 
ATOM     27  H   UNL A   1      41.363  29.758  33.316  1.00  0.00     0.167 HD
ATOM     28  C   UNL A   1      37.980  32.116  31.631  1.00  0.00     0.037 A 
ATOM     29  C   UNL A   1      43.344  29.123  35.174  1.00  0.00     0.037 A 
ATOM     30  C   UNL A   1      38.221  32.643  32.945  1.00  0.00     0.049 A 
ATOM     31  C   UNL A   1      42.540  30.268  35.737  1.00  0.00     0.074 A 
ATOM     32  C   UNL A   1      37.536  33.638  33.616  1.00  0.00     0.029 A 
ATOM     33  N   UNL A   1      39.242  32.217  33.785  1.00  0.00    -0.354 N 
ATOM     34  N   UNL A   1      41.498  30.877  35.217  1.00  0.00    -0.248 NA
ATOM     35  C   UNL A   1      42.966  30.808  37.035  1.00  0.00     0.031 C 
ATOM     36  C   UNL A   1      38.173  33.844  34.845  1.00  0.00     0.029 A 
ATOM     37  C   UNL A   1      39.229  32.952  34.954  1.00  0.00     0.049 A 
ATOM     38  H   UNL A   1      39.881  31.498  33.576  1.00  0.00     0.167 HD
ATOM     39  C   UNL A   1      41.147  31.872  36.122  1.00  0.00     0.074 A 
ATOM     40  C   UNL A   1      42.067  31.763  37.237  1.00  0.00     0.031 C 
ATOM     41  C   UNL A   1      40.165  32.803  36.040  1.00  0.00     0.037 A 
BRANCH  28  42
ATOM     42  C   UNL A   1      36.882  32.710  30.800  1.00  0.00     0.058 A 
ATOM     43  C   UNL A   1      37.123  33.716  29.854  1.00  0.00     0.135 A 
ATOM     44  C   UNL A   1      35.564  32.246  30.945  1.00  0.00     0.135 A 
ATOM     45  F   UNL A   1      38.359  34.215  29.698  1.00  0.00    -0.206 F 
ATOM     46  C   UNL A   1      36.094  34.247  29.082  1.00  0.00     0.059 A 
ATOM     47  C   UNL A   1      34.522  32.751  30.172  1.00  0.00     0.059 A 
ATOM     48  F   UNL A   1      35.277  31.298  31.850  1.00  0.00    -0.206 F 
ATOM     49  C   UNL A   1      34.797  33.758  29.248  1.00  0.00     0.060 A 
BRANCH  49  50
ATOM     50  S   UNL A   1      33.475  34.446  28.228  1.00  0.00     0.124 S 
ATOM     51  O   UNL A   1      32.928  33.242  27.611  1.00  0.00    -0.237 OA
ATOM     52  O   UNL A   1      32.623  35.094  29.218  1.00  0.00    -0.237 OA
ATOM     53  O   UNL A   1      34.179  35.350  27.323  1.00  0.00    -0.744 OA
ENDBRANCH  49  50
ENDBRANCH  28  42
BRANCH  29  54
ATOM     54  C   UNL A   1      44.517  28.574  35.909  1.00  0.00     0.058 A 
ATOM     55  C   UNL A   1      45.806  29.104  35.739  1.00  0.00     0.135 A 
ATOM     56  C   UNL A   1      44.379  27.474  36.773  1.00  0.00     0.135 A 
ATOM     57  F   UNL A   1      45.998  30.147  34.919  1.00  0.00    -0.206 F 
ATOM     58  C   UNL A   1      46.914  28.549  36.375  1.00  0.00     0.059 A 
ATOM     59  C   UNL A   1      45.467  26.920  37.441  1.00  0.00     0.059 A 
ATOM     60  F   UNL A   1      43.170  26.929  36.981  1.00  0.00    -0.206 F 
ATOM     61  C   UNL A   1      46.735  27.453  37.220  1.00  0.00     0.060 A 
BRANCH  61  62
ATOM     62  S   UNL A   1      48.173  26.741  38.049  1.00  0.00     0.124 S 
ATOM     63  O   UNL A   1      47.688  25.408  38.385  1.00  0.00    -0.237 OA
ATOM     64  O   UNL A   1      49.194  26.807  37.009  1.00  0.00    -0.237 OA
ATOM     65  O   UNL A   1      48.385  27.641  39.180  1.00  0.00    -0.744 OA
ENDBRANCH  61  62
ENDBRANCH  29  54
BRANCH  41  66
ATOM     66  C   UNL A   1      40.041  33.770  37.179  1.00  0.00     0.058 A 
ATOM     67  C   UNL A   1      40.644  35.034  37.124  1.00  0.00     0.135 A 
ATOM     68  C   UNL A   1      39.240  33.463  38.290  1.00  0.00     0.135 A 
ATOM     69  F   UNL A   1      41.425  35.367  36.084  1.00  0.00    -0.206 F 
ATOM     70  C   UNL A   1      40.460  35.966  38.138  1.00  0.00     0.059 A 
ATOM     71  C   UNL A   1      39.024  34.389  39.305  1.00  0.00     0.059 A 
ATOM     72  F   UNL A   1      38.635  32.268  38.379  1.00  0.00    -0.206 F 
ATOM     73  C   UNL A   1      39.642  35.636  39.220  1.00  0.00     0.060 A 
BRANCH  73  74
ATOM     74  S   UNL A   1      39.354  36.879  40.496  1.00  0.00     0.124 S 
ATOM     75  O   UNL A   1      38.824  37.988  39.711  1.00  0.00    -0.237 OA
ATOM     76  O   UNL A   1      38.401  36.211  41.377  1.00  0.00    -0.237 OA
ATOM     77  O   UNL A   1      40.682  37.091  41.068  1.00  0.00    -0.744 OA
ENDBRANCH  73  74
ENDBRANCH  41  66
ENDBRANCH  15  16
ENDBRANCH   8  10
ENDBRANCH   7   8
ENDBRANCH   6   7
ENDBRANCH   5   6
ENDBRANCH   4   5
ENDBRANCH   3   4
ENDBRANCH   2   3
ENDBRANCH   1   2
BRANCH   1  78
ATOM     78  C   UNL A   1      38.978  19.797  25.583  1.00  0.00     0.188 C 
BRANCH  78  79
ATOM     79  C   UNL A   1      37.620  20.047  24.889  1.00  0.00     0.188 C 
BRANCH  79  80
ATOM     80  O   UNL A   1      37.017  21.288  25.230  1.00  0.00    -0.376 OA
BRANCH  80  81
ATOM     81  C   UNL A   1      35.985  21.731  24.353  1.00  0.00     0.202 C 
BRANCH  81  82
ATOM     82  C   UNL A   1      35.431  23.099  24.748  1.00  0.00     0.261 C 
BRANCH  82  83
ATOM     83  O   UNL A   1      34.040  23.081  25.125  1.00  0.00    -0.462 OA
BRANCH  83  84
ATOM     84  C   UNL A   1      33.698  22.595  26.347  1.00  0.00     0.329 C 
ATOM     85  O   UNL A   1      34.237  22.885  27.404  1.00  0.00    -0.250 OA
BRANCH  84  86
ATOM     86  C   UNL A   1      32.533  21.604  26.199  1.00  0.00     0.197 C 
BRANCH  86  87
ATOM     87  N   UNL A   1      31.384  22.217  26.863  1.00  0.00    -0.338 N 
ATOM     88  C   UNL A   1      30.651  23.327  26.529  1.00  0.00     0.262 C 
ATOM     89  H   UNL A   1      31.087  21.757  27.682  1.00  0.00     0.164 HD
ATOM     90  O   UNL A   1      29.709  23.622  27.266  1.00  0.00    -0.268 OA
BRANCH  88  91
ATOM     91  C   UNL A   1      31.036  24.118  25.374  1.00  0.00     0.093 A 
ATOM     92  C   UNL A   1      30.847  23.901  24.019  1.00  0.00     0.027 A 
ATOM     93  S   UNL A   1      31.861  25.603  25.652  1.00  0.00    -0.118 S 
ATOM     94  C   UNL A   1      31.498  24.886  23.216  1.00  0.00     0.033 A 
ATOM     95  C   UNL A   1      32.086  25.847  23.996  1.00  0.00     0.094 A 
ATOM     96  Cl  UNL A   1      32.984  27.204  23.450  1.00  0.00    -0.072 Cl
ENDBRANCH  88  91
ENDBRANCH  86  87
BRANCH  86  97
ATOM     97  C   UNL A   1      32.260  21.289  24.712  1.00  0.00     0.072 C 
BRANCH  97  98
ATOM     98  C   UNL A   1      32.678  19.923  24.188  1.00  0.00    -0.045 A 
ATOM     99  C   UNL A   1      33.537  19.133  24.973  1.00  0.00     0.007 A 
ATOM    100  C   UNL A   1      32.208  19.375  22.986  1.00  0.00     0.007 A 
ATOM    101  C   UNL A   1      33.975  17.879  24.530  1.00  0.00     0.046 A 
ATOM    102  C   UNL A   1      32.661  18.134  22.529  1.00  0.00     0.046 A 
ATOM    103  C   UNL A   1      33.553  17.402  23.296  1.00  0.00     0.115 A 
BRANCH 103 104
ATOM    104  O   UNL A   1      33.988  16.210  22.800  1.00  0.00    -0.508 OA
ATOM    105  H   UNL A   1      34.192  15.507  23.385  1.00  0.00     0.293 HD
ENDBRANCH 103 104
ENDBRANCH  97  98
ENDBRANCH  86  97
ENDBRANCH  84  86
ENDBRANCH  83  84
ENDBRANCH  82  83
ENDBRANCH  81  82
ENDBRANCH  80  81
ENDBRANCH  79  80
ENDBRANCH  78  79
ENDBRANCH   1  78
TORSDOF 28
ENDMDL
MODEL 2
REMARK VINA RESULT:      -9.1      6.074     12.058
REMARK SMILES O=C(OCCOCCOCCOCCOC(=O)[C@H](Cc1ccc(O)cc1)NC(=O)c1ccc(Cl)s1)c1ccc(-c2c3nc(c(-c4c(F)cc(S(=O)(=O)[O-])cc4F)c4ccc([nH]4)c(-c4c(F)cc(S(=O)(=O)[O-])cc4F)c4nc(c(-c5c(F)cc(S(=O)(=O)[O-])cc5F)c5ccc2[nH]5)C=C4)C=C3)cc1
REMARK SMILES IDX 9 1 8 2 7 3 6 4 5 5 4 6 3 7 2 8 1 9 36 10 37 11 101 12 38 13
REMARK SMILES IDX 100 14 39 15 40 16 41 17 94 18 42 19 99 20 93 21 95 22 43 23
REMARK SMILES IDX 98 24 92 25 91 26 44 28 78 29 57 30 77 31 58 32 61 33 76 34
REMARK SMILES IDX 96 35 59 36 60 37 75 39 97 40 62 41 45 42 46 43 55 44 47 45
REMARK SMILES IDX 48 46 54 47 56 48 49 49 50 50 51 51 52 52 53 53 79 54 80 55
REMARK SMILES IDX 89 56 81 57 82 58 88 59 90 60 83 61 84 62 85 63 86 64 87 65
REMARK SMILES IDX 63 66 64 67 73 68 65 69 66 70 72 71 74 72 67 73 68 74 69 75
REMARK SMILES IDX 70 76 71 77 10 78 11 79 12 80 13 81 14 82 15 83 16 84 17 85
REMARK SMILES IDX 18 86 27 87 28 88 29 90 30 91 31 92 35 93 32 94 33 95 34 96
REMARK SMILES IDX 19 97 20 98 21 99 26 100 22 101 25 102 23 103 24 104
REMARK H PARENT 95 27 61 38 27 89 24 105
REMARK Flexibility Score: inf
ROOT
ATOM      1  O   UNL A   1      34.195  33.237  27.682  1.00  0.00    -0.377 OA
ENDROOT
BRANCH   1   2
ATOM      2  C   UNL A   1      33.730  34.063  28.751  1.00  0.00     0.188 C 
BRANCH   2   3
ATOM      3  C   UNL A   1      34.820  34.423  29.761  1.00  0.00     0.188 C 
BRANCH   3   4
ATOM      4  O   UNL A   1      34.376  34.078  31.075  1.00  0.00    -0.376 OA
BRANCH   4   5
ATOM      5  C   UNL A   1      34.579  32.721  31.456  1.00  0.00     0.202 C 
BRANCH   5   6
ATOM      6  C   UNL A   1      35.808  32.098  30.795  1.00  0.00     0.261 C 
BRANCH   6   7
ATOM      7  O   UNL A   1      36.594  31.367  31.744  1.00  0.00    -0.460 OA
BRANCH   7   8
ATOM      8  C   UNL A   1      37.240  30.188  31.561  1.00  0.00     0.338 C 
ATOM      9  O   UNL A   1      36.707  29.173  32.011  1.00  0.00    -0.246 OA
BRANCH   8  10
ATOM     10  C   UNL A   1      38.537  30.020  30.822  1.00  0.00     0.060 A 
ATOM     11  C   UNL A   1      38.748  30.220  29.452  1.00  0.00     0.016 A 
ATOM     12  C   UNL A   1      39.659  29.691  31.606  1.00  0.00     0.016 A 
ATOM     13  C   UNL A   1      40.004  30.051  28.872  1.00  0.00     0.010 A 
ATOM     14  C   UNL A   1      40.926  29.537  31.037  1.00  0.00     0.010 A 
ATOM     15  C   UNL A   1      41.096  29.696  29.659  1.00  0.00    -0.014 A 
BRANCH  15  16
ATOM     16  C   UNL A   1      42.379  29.374  29.006  1.00  0.00     0.031 A 
ATOM     17  C   UNL A   1      42.578  27.976  28.499  1.00  0.00     0.074 A 
ATOM     18  C   UNL A   1      43.308  30.330  28.827  1.00  0.00     0.049 A 
ATOM     19  N   UNL A   1      43.646  27.425  27.994  1.00  0.00    -0.248 NA
ATOM     20  C   UNL A   1      41.408  27.081  28.561  1.00  0.00     0.031 C 
ATOM     21  C   UNL A   1      43.155  31.737  29.202  1.00  0.00     0.029 A 
ATOM     22  N   UNL A   1      44.567  30.263  28.289  1.00  0.00    -0.354 N 
ATOM     23  C   UNL A   1      43.291  26.112  27.711  1.00  0.00     0.074 A 
ATOM     24  C   UNL A   1      41.904  25.950  28.083  1.00  0.00     0.031 C 
ATOM     25  C   UNL A   1      44.286  32.398  28.899  1.00  0.00     0.029 A 
ATOM     26  C   UNL A   1      45.259  31.450  28.362  1.00  0.00     0.049 A 
ATOM     27  H   UNL A   1      44.940  29.445  27.887  1.00  0.00     0.167 HD
ATOM     28  C   UNL A   1      44.068  25.131  27.200  1.00  0.00     0.037 A 
ATOM     29  C   UNL A   1      46.548  31.716  28.077  1.00  0.00     0.037 A 
ATOM     30  C   UNL A   1      45.444  25.326  26.836  1.00  0.00     0.049 A 
ATOM     31  C   UNL A   1      47.416  30.582  27.590  1.00  0.00     0.074 A 
ATOM     32  C   UNL A   1      46.338  24.408  26.321  1.00  0.00     0.029 A 
ATOM     33  N   UNL A   1      46.125  26.528  26.964  1.00  0.00    -0.354 N 
ATOM     34  N   UNL A   1      47.078  29.338  27.335  1.00  0.00    -0.248 NA
ATOM     35  C   UNL A   1      48.840  30.873  27.377  1.00  0.00     0.031 C 
ATOM     36  C   UNL A   1      47.575  25.046  26.179  1.00  0.00     0.029 A 
ATOM     37  C   UNL A   1      47.440  26.370  26.570  1.00  0.00     0.049 A 
ATOM     38  H   UNL A   1      45.729  27.370  27.288  1.00  0.00     0.167 HD
ATOM     39  C   UNL A   1      48.245  28.700  26.936  1.00  0.00     0.074 A 
ATOM     40  C   UNL A   1      49.293  29.701  26.952  1.00  0.00     0.031 C 
ATOM     41  C   UNL A   1      48.446  27.402  26.599  1.00  0.00     0.037 A 
BRANCH  28  42
ATOM     42  C   UNL A   1      43.469  23.762  27.072  1.00  0.00     0.058 A 
ATOM     43  C   UNL A   1      43.242  22.940  28.186  1.00  0.00     0.135 A 
ATOM     44  C   UNL A   1      43.098  23.274  25.809  1.00  0.00     0.135 A 
ATOM     45  F   UNL A   1      43.607  23.347  29.411  1.00  0.00    -0.206 F 
ATOM     46  C   UNL A   1      42.673  21.677  28.051  1.00  0.00     0.059 A 
ATOM     47  C   UNL A   1      42.512  22.021  25.652  1.00  0.00     0.059 A 
ATOM     48  F   UNL A   1      43.310  24.015  24.710  1.00  0.00    -0.206 F 
ATOM     49  C   UNL A   1      42.311  21.227  26.780  1.00  0.00     0.060 A 
BRANCH  49  50
ATOM     50  S   UNL A   1      41.559  19.593  26.623  1.00  0.00     0.124 S 
ATOM     51  O   UNL A   1      42.167  18.884  27.744  1.00  0.00    -0.237 OA
ATOM     52  O   UNL A   1      40.137  19.890  26.758  1.00  0.00    -0.237 OA
ATOM     53  O   UNL A   1      41.981  19.150  25.298  1.00  0.00    -0.744 OA
ENDBRANCH  49  50
ENDBRANCH  28  42
BRANCH  29  54
ATOM     54  C   UNL A   1      47.123  33.067  28.331  1.00  0.00     0.058 A 
ATOM     55  C   UNL A   1      47.077  34.080  27.361  1.00  0.00     0.135 A 
ATOM     56  C   UNL A   1      47.771  33.360  29.543  1.00  0.00     0.135 A 
ATOM     57  F   UNL A   1      46.480  33.851  26.182  1.00  0.00    -0.206 F 
ATOM     58  C   UNL A   1      47.673  35.321  27.571  1.00  0.00     0.059 A 
ATOM     59  C   UNL A   1      48.350  34.602  29.787  1.00  0.00     0.059 A 
ATOM     60  F   UNL A   1      47.841  32.433  30.510  1.00  0.00    -0.206 F 
ATOM     61  C   UNL A   1      48.312  35.571  28.787  1.00  0.00     0.060 A 
BRANCH  61  62
ATOM     62  S   UNL A   1      49.077  37.184  29.060  1.00  0.00     0.124 S 
ATOM     63  O   UNL A   1      48.686  37.902  27.853  1.00  0.00    -0.237 OA
ATOM     64  O   UNL A   1      48.443  37.622  30.298  1.00  0.00    -0.237 OA
ATOM     65  O   UNL A   1      50.498  36.864  29.173  1.00  0.00    -0.744 OA
ENDBRANCH  61  62
ENDBRANCH  29  54
BRANCH  41  66
ATOM     66  C   UNL A   1      49.841  26.998  26.226  1.00  0.00     0.058 A 
ATOM     67  C   UNL A   1      50.735  26.509  27.189  1.00  0.00     0.135 A 
ATOM     68  C   UNL A   1      50.253  27.016  24.884  1.00  0.00     0.135 A 
ATOM     69  F   UNL A   1      50.385  26.481  28.485  1.00  0.00    -0.206 F 
ATOM     70  C   UNL A   1      51.998  26.052  26.835  1.00  0.00     0.059 A 
ATOM     71  C   UNL A   1      51.504  26.542  24.505  1.00  0.00     0.059 A 
ATOM     72  F   UNL A   1      49.426  27.466  23.928  1.00  0.00    -0.206 F 
ATOM     73  C   UNL A   1      52.370  26.066  25.489  1.00  0.00     0.060 A 
BRANCH  73  74
ATOM     74  S   UNL A   1      53.986  25.406  25.033  1.00  0.00     0.124 S 
ATOM     75  O   UNL A   1      53.648  24.038  24.656  1.00  0.00    -0.237 OA
ATOM     76  O   UNL A   1      54.388  26.285  23.939  1.00  0.00    -0.237 OA
ATOM     77  O   UNL A   1      54.767  25.546  26.259  1.00  0.00    -0.744 OA
ENDBRANCH  73  74
ENDBRANCH  41  66
ENDBRANCH  15  16
ENDBRANCH   8  10
ENDBRANCH   7   8
ENDBRANCH   6   7
ENDBRANCH   5   6
ENDBRANCH   4   5
ENDBRANCH   3   4
ENDBRANCH   2   3
ENDBRANCH   1   2
BRANCH   1  78
ATOM     78  C   UNL A   1      33.808  31.866  27.729  1.00  0.00     0.188 C 
BRANCH  78  79
ATOM     79  C   UNL A   1      32.586  31.427  26.893  1.00  0.00     0.188 C 
BRANCH  79  80
ATOM     80  O   UNL A   1      32.671  30.097  26.399  1.00  0.00    -0.376 OA
BRANCH  80  81
ATOM     81  C   UNL A   1      33.427  29.192  27.197  1.00  0.00     0.202 C 
BRANCH  81  82
ATOM     82  C   UNL A   1      33.199  27.733  26.799  1.00  0.00     0.261 C 
BRANCH  82  83
ATOM     83  O   UNL A   1      34.275  27.161  26.030  1.00  0.00    -0.462 OA
BRANCH  83  84
ATOM     84  C   UNL A   1      34.011  26.693  24.781  1.00  0.00     0.329 C 
ATOM     85  O   UNL A   1      33.716  27.377  23.813  1.00  0.00    -0.250 OA
BRANCH  84  86
ATOM     86  C   UNL A   1      34.124  25.161  24.772  1.00  0.00     0.197 C 
BRANCH  86  87
ATOM     87  N   UNL A   1      35.398  24.838  25.412  1.00  0.00    -0.338 N 
ATOM     88  C   UNL A   1      35.868  23.648  25.905  1.00  0.00     0.262 C 
ATOM     89  H   UNL A   1      36.019  25.597  25.503  1.00  0.00     0.164 HD
ATOM     90  O   UNL A   1      37.001  23.648  26.390  1.00  0.00    -0.268 OA
BRANCH  88  91
ATOM     91  C   UNL A   1      35.014  22.474  25.880  1.00  0.00     0.093 A 
ATOM     92  C   UNL A   1      34.164  21.948  26.839  1.00  0.00     0.027 A 
ATOM     93  S   UNL A   1      34.987  21.526  24.444  1.00  0.00    -0.118 S 
ATOM     94  C   UNL A   1      33.599  20.699  26.437  1.00  0.00     0.033 A 
ATOM     95  C   UNL A   1      33.986  20.371  25.164  1.00  0.00     0.094 A 
ATOM     96  Cl  UNL A   1      33.557  18.956  24.293  1.00  0.00    -0.072 Cl
ENDBRANCH  88  91
ENDBRANCH  86  87
BRANCH  86  97
ATOM     97  C   UNL A   1      32.919  24.513  25.488  1.00  0.00     0.072 C 
BRANCH  97  98
ATOM     98  C   UNL A   1      31.525  24.973  25.089  1.00  0.00    -0.045 A 
ATOM     99  C   UNL A   1      31.157  24.913  23.733  1.00  0.00     0.007 A 
ATOM    100  C   UNL A   1      30.556  25.402  26.007  1.00  0.00     0.007 A 
ATOM    101  C   UNL A   1      29.897  25.346  23.304  1.00  0.00     0.046 A 
ATOM    102  C   UNL A   1      29.305  25.858  25.581  1.00  0.00     0.046 A 
ATOM    103  C   UNL A   1      28.990  25.842  24.232  1.00  0.00     0.115 A 
BRANCH 103 104
ATOM    104  O   UNL A   1      27.770  26.320  23.858  1.00  0.00    -0.508 OA
ATOM    105  H   UNL A   1      27.036  25.739  23.804  1.00  0.00     0.293 HD
ENDBRANCH 103 104
ENDBRANCH  97  98
ENDBRANCH  86  97
ENDBRANCH  84  86
ENDBRANCH  83  84
ENDBRANCH  82  83
ENDBRANCH  81  82
ENDBRANCH  80  81
ENDBRANCH  79  80
ENDBRANCH  78  79
ENDBRANCH   1  78
TORSDOF 28
ENDMDL
MODEL 3
REMARK VINA RESULT:      -9.0      6.276     10.844
REMARK SMILES O=C(OCCOCCOCCOCCOC(=O)[C@H](Cc1ccc(O)cc1)NC(=O)c1ccc(Cl)s1)c1ccc(-c2c3nc(c(-c4c(F)cc(S(=O)(=O)[O-])cc4F)c4ccc([nH]4)c(-c4c(F)cc(S(=O)(=O)[O-])cc4F)c4nc(c(-c5c(F)cc(S(=O)(=O)[O-])cc5F)c5ccc2[nH]5)C=C4)C=C3)cc1
REMARK SMILES IDX 9 1 8 2 7 3 6 4 5 5 4 6 3 7 2 8 1 9 36 10 37 11 101 12 38 13
REMARK SMILES IDX 100 14 39 15 40 16 41 17 94 18 42 19 99 20 93 21 95 22 43 23
REMARK SMILES IDX 98 24 92 25 91 26 44 28 78 29 57 30 77 31 58 32 61 33 76 34
REMARK SMILES IDX 96 35 59 36 60 37 75 39 97 40 62 41 45 42 46 43 55 44 47 45
REMARK SMILES IDX 48 46 54 47 56 48 49 49 50 50 51 51 52 52 53 53 79 54 80 55
REMARK SMILES IDX 89 56 81 57 82 58 88 59 90 60 83 61 84 62 85 63 86 64 87 65
REMARK SMILES IDX 63 66 64 67 73 68 65 69 66 70 72 71 74 72 67 73 68 74 69 75
REMARK SMILES IDX 70 76 71 77 10 78 11 79 12 80 13 81 14 82 15 83 16 84 17 85
REMARK SMILES IDX 18 86 27 87 28 88 29 90 30 91 31 92 35 93 32 94 33 95 34 96
REMARK SMILES IDX 19 97 20 98 21 99 26 100 22 101 25 102 23 103 24 104
REMARK H PARENT 95 27 61 38 27 89 24 105
REMARK Flexibility Score: inf
ROOT
ATOM      1  O   UNL A   1      32.578  34.434  28.930  1.00  0.00    -0.377 OA
ENDROOT
BRANCH   1   2
ATOM      2  C   UNL A   1      33.272  35.629  29.295  1.00  0.00     0.188 C 
BRANCH   2   3
ATOM      3  C   UNL A   1      33.275  35.896  30.800  1.00  0.00     0.188 C 
BRANCH   3   4
ATOM      4  O   UNL A   1      33.296  34.649  31.499  1.00  0.00    -0.376 OA
BRANCH   4   5
ATOM      5  C   UNL A   1      34.586  34.091  31.723  1.00  0.00     0.202 C 
BRANCH   5   6
ATOM      6  C   UNL A   1      34.794  32.766  30.990  1.00  0.00     0.261 C 
BRANCH   6   7
ATOM      7  O   UNL A   1      35.363  31.776  31.857  1.00  0.00    -0.460 OA
BRANCH   7   8
ATOM      8  C   UNL A   1      36.438  31.903  32.675  1.00  0.00     0.338 C 
ATOM      9  O   UNL A   1      36.224  31.976  33.886  1.00  0.00    -0.246 OA
BRANCH   8  10
ATOM     10  C   UNL A   1      37.870  31.925  32.221  1.00  0.00     0.060 A 
ATOM     11  C   UNL A   1      38.995  31.621  32.998  1.00  0.00     0.016 A 
ATOM     12  C   UNL A   1      38.084  32.219  30.862  1.00  0.00     0.016 A 
ATOM     13  C   UNL A   1      40.283  31.658  32.466  1.00  0.00     0.010 A 
ATOM     14  C   UNL A   1      39.371  32.240  30.315  1.00  0.00     0.010 A 
ATOM     15  C   UNL A   1      40.478  31.980  31.126  1.00  0.00    -0.014 A 
BRANCH  15  16
ATOM     16  C   UNL A   1      41.853  32.163  30.623  1.00  0.00     0.031 A 
ATOM     17  C   UNL A   1      42.499  33.503  30.813  1.00  0.00     0.074 A 
ATOM     18  C   UNL A   1      42.513  31.132  30.063  1.00  0.00     0.049 A 
ATOM     19  N   UNL A   1      43.644  33.939  30.367  1.00  0.00    -0.248 NA
ATOM     20  C   UNL A   1      41.757  34.481  31.629  1.00  0.00     0.031 C 
ATOM     21  C   UNL A   1      41.993  29.770  29.928  1.00  0.00     0.029 A 
ATOM     22  N   UNL A   1      43.761  31.070  29.501  1.00  0.00    -0.354 N 
ATOM     23  C   UNL A   1      43.744  35.250  30.815  1.00  0.00     0.074 A 
ATOM     24  C   UNL A   1      42.555  35.537  31.583  1.00  0.00     0.031 C 
ATOM     25  C   UNL A   1      42.910  29.011  29.304  1.00  0.00     0.029 A 
ATOM     26  C   UNL A   1      44.054  29.846  28.947  1.00  0.00     0.049 A 
ATOM     27  H   UNL A   1      44.389  31.829  29.496  1.00  0.00     0.167 HD
ATOM     28  C   UNL A   1      44.741  36.134  30.585  1.00  0.00     0.037 A 
ATOM     29  C   UNL A   1      45.104  29.469  28.192  1.00  0.00     0.037 A 
ATOM     30  C   UNL A   1      45.913  35.817  29.819  1.00  0.00     0.049 A 
ATOM     31  C   UNL A   1      46.159  30.500  27.879  1.00  0.00     0.074 A 
ATOM     32  C   UNL A   1      46.986  36.629  29.506  1.00  0.00     0.029 A 
ATOM     33  N   UNL A   1      46.158  34.580  29.236  1.00  0.00    -0.354 N 
ATOM     34  N   UNL A   1      46.244  31.744  28.295  1.00  0.00    -0.248 NA
ATOM     35  C   UNL A   1      47.244  30.094  26.977  1.00  0.00     0.031 C 
ATOM     36  C   UNL A   1      47.858  35.896  28.694  1.00  0.00     0.029 A 
ATOM     37  C   UNL A   1      47.347  34.616  28.535  1.00  0.00     0.049 A 
ATOM     38  H   UNL A   1      45.569  33.794  29.312  1.00  0.00     0.167 HD
ATOM     39  C   UNL A   1      47.386  32.267  27.703  1.00  0.00     0.074 A 
ATOM     40  C   UNL A   1      47.979  31.197  26.926  1.00  0.00     0.031 C 
ATOM     41  C   UNL A   1      47.899  33.520  27.779  1.00  0.00     0.037 A 
BRANCH  28  42
ATOM     42  C   UNL A   1      44.569  37.529  31.107  1.00  0.00     0.058 A 
ATOM     43  C   UNL A   1      43.992  38.549  30.335  1.00  0.00     0.135 A 
ATOM     44  C   UNL A   1      44.975  37.844  32.414  1.00  0.00     0.135 A 
ATOM     45  F   UNL A   1      43.616  38.308  29.070  1.00  0.00    -0.206 F 
ATOM     46  C   UNL A   1      43.829  39.835  30.840  1.00  0.00     0.059 A 
ATOM     47  C   UNL A   1      44.805  39.120  32.945  1.00  0.00     0.059 A 
ATOM     48  F   UNL A   1      45.549  36.909  33.187  1.00  0.00    -0.206 F 
ATOM     49  C   UNL A   1      44.238  40.111  32.145  1.00  0.00     0.060 A 
BRANCH  49  50
ATOM     50  S   UNL A   1      44.004  41.781  32.791  1.00  0.00     0.124 S 
ATOM     51  O   UNL A   1      45.037  41.842  33.821  1.00  0.00    -0.237 OA
ATOM     52  O   UNL A   1      44.237  42.607  31.612  1.00  0.00    -0.237 OA
ATOM     53  O   UNL A   1      42.630  41.767  33.283  1.00  0.00    -0.744 OA
ENDBRANCH  49  50
ENDBRANCH  28  42
BRANCH  29  54
ATOM     54  C   UNL A   1      45.169  28.102  27.603  1.00  0.00     0.058 A 
ATOM     55  C   UNL A   1      46.003  27.109  28.138  1.00  0.00     0.135 A 
ATOM     56  C   UNL A   1      44.422  27.772  26.459  1.00  0.00     0.135 A 
ATOM     57  F   UNL A   1      46.747  27.372  29.223  1.00  0.00    -0.206 F 
ATOM     58  C   UNL A   1      46.116  25.852  27.548  1.00  0.00     0.059 A 
ATOM     59  C   UNL A   1      44.496  26.515  25.868  1.00  0.00     0.059 A 
ATOM     60  F   UNL A   1      43.601  28.679  25.907  1.00  0.00    -0.206 F 
ATOM     61  C   UNL A   1      45.361  25.566  26.410  1.00  0.00     0.060 A 
BRANCH  61  62
ATOM     62  S   UNL A   1      45.502  23.932  25.652  1.00  0.00     0.124 S 
ATOM     63  O   UNL A   1      44.120  23.472  25.687  1.00  0.00    -0.237 OA
ATOM     64  O   UNL A   1      46.038  24.249  24.332  1.00  0.00    -0.237 OA
ATOM     65  O   UNL A   1      46.426  23.232  26.541  1.00  0.00    -0.744 OA
ENDBRANCH  61  62
ENDBRANCH  29  54
BRANCH  41  66
ATOM     66  C   UNL A   1      49.152  33.795  27.003  1.00  0.00     0.058 A 
ATOM     67  C   UNL A   1      49.102  34.388  25.733  1.00  0.00     0.135 A 
ATOM     68  C   UNL A   1      50.412  33.547  27.571  1.00  0.00     0.135 A 
ATOM     69  F   UNL A   1      47.919  34.636  25.148  1.00  0.00    -0.206 F 
ATOM     70  C   UNL A   1      50.262  34.725  25.048  1.00  0.00     0.059 A 
ATOM     71  C   UNL A   1      51.585  33.897  26.913  1.00  0.00     0.059 A 
ATOM     72  F   UNL A   1      50.506  32.991  28.789  1.00  0.00    -0.206 F 
ATOM     73  C   UNL A   1      51.499  34.482  25.650  1.00  0.00     0.060 A 
BRANCH  73  74
ATOM     74  S   UNL A   1      52.997  34.987  24.781  1.00  0.00     0.124 S 
ATOM     75  O   UNL A   1      52.476  35.297  23.453  1.00  0.00    -0.237 OA
ATOM     76  O   UNL A   1      53.447  36.130  25.568  1.00  0.00    -0.237 OA
ATOM     77  O   UNL A   1      53.850  33.805  24.861  1.00  0.00    -0.744 OA
ENDBRANCH  73  74
ENDBRANCH  41  66
ENDBRANCH  15  16
ENDBRANCH   8  10
ENDBRANCH   7   8
ENDBRANCH   6   7
ENDBRANCH   5   6
ENDBRANCH   4   5
ENDBRANCH   3   4
ENDBRANCH   2   3
ENDBRANCH   1   2
BRANCH   1  78
ATOM     78  C   UNL A   1      33.092  33.726  27.804  1.00  0.00     0.188 C 
BRANCH  78  79
ATOM     79  C   UNL A   1      32.973  32.186  27.799  1.00  0.00     0.188 C 
BRANCH  79  80
ATOM     80  O   UNL A   1      32.789  31.624  26.507  1.00  0.00    -0.376 OA
BRANCH  80  81
ATOM     81  C   UNL A   1      31.475  31.152  26.223  1.00  0.00     0.202 C 
BRANCH  81  82
ATOM     82  C   UNL A   1      31.483  29.830  25.456  1.00  0.00     0.261 C 
BRANCH  82  83
ATOM     83  O   UNL A   1      32.800  29.283  25.244  1.00  0.00    -0.462 OA
BRANCH  83  84
ATOM     84  C   UNL A   1      33.227  28.274  26.049  1.00  0.00     0.329 C 
ATOM     85  O   UNL A   1      33.601  28.396  27.205  1.00  0.00    -0.250 OA
BRANCH  84  86
ATOM     86  C   UNL A   1      33.186  26.947  25.275  1.00  0.00     0.197 C 
BRANCH  86  87
ATOM     87  N   UNL A   1      33.579  27.258  23.901  1.00  0.00    -0.338 N 
ATOM     88  C   UNL A   1      33.290  26.613  22.726  1.00  0.00     0.262 C 
ATOM     89  H   UNL A   1      34.141  28.061  23.804  1.00  0.00     0.164 HD
ATOM     90  O   UNL A   1      33.744  27.101  21.690  1.00  0.00    -0.268 OA
BRANCH  88  91
ATOM     91  C   UNL A   1      32.520  25.383  22.755  1.00  0.00     0.093 A 
ATOM     92  C   UNL A   1      31.199  25.145  23.099  1.00  0.00     0.027 A 
ATOM     93  S   UNL A   1      33.306  23.927  22.280  1.00  0.00    -0.118 S 
ATOM     94  C   UNL A   1      30.881  23.752  23.100  1.00  0.00     0.033 A 
ATOM     95  C   UNL A   1      31.950  23.003  22.684  1.00  0.00     0.094 A 
ATOM     96  Cl  UNL A   1      32.015  21.293  22.548  1.00  0.00    -0.072 Cl
ENDBRANCH  88  91
ENDBRANCH  86  87
BRANCH  86  97
ATOM     97  C   UNL A   1      34.105  25.894  25.931  1.00  0.00     0.072 C 
BRANCH  97  98
ATOM     98  C   UNL A   1      33.601  24.461  26.008  1.00  0.00    -0.045 A 
ATOM     99  C   UNL A   1      34.472  23.419  25.643  1.00  0.00     0.007 A 
ATOM    100  C   UNL A   1      32.329  24.109  26.480  1.00  0.00     0.007 A 
ATOM    101  C   UNL A   1      34.055  22.083  25.669  1.00  0.00     0.046 A 
ATOM    102  C   UNL A   1      31.899  22.779  26.485  1.00  0.00     0.046 A 
ATOM    103  C   UNL A   1      32.759  21.777  26.065  1.00  0.00     0.115 A 
BRANCH 103 104
ATOM    104  O   UNL A   1      32.291  20.497  26.063  1.00  0.00    -0.508 OA
ATOM    105  H   UNL A   1      32.655  19.867  25.472  1.00  0.00     0.293 HD
ENDBRANCH 103 104
ENDBRANCH  97  98
ENDBRANCH  86  97
ENDBRANCH  84  86
ENDBRANCH  83  84
ENDBRANCH  82  83
ENDBRANCH  81  82
ENDBRANCH  80  81
ENDBRANCH  79  80
ENDBRANCH  78  79
ENDBRANCH   1  78
TORSDOF 28
ENDMDL
