MODEL 1
REMARK VINA RESULT:      -8.3      0.000      0.000
REMARK SMILES NS(=O)(=O)c1ccc(-n2nc(NC(=O)NCCCC(=O)OCCOCCOCCOCCOC(=O)c3ccc(-c4c5nc(c(-c6c(F)cc(S(=O)(=O)[O-])cc6F)c6ccc([nH]6)c(-c6c(F)cc(S(=O)(=O)[O-])cc6F)c6nc(c(-c7c(F)cc(S(=O)(=O)[O-])cc7F)c7ccc4[nH]7)C=C6)C=C5)cc3)cc2-c2ccccc2)cc1
REMARK SMILES IDX 25 1 24 2 23 3 22 4 21 5 19 6 20 7 18 8 17 9 16 10 15 11
REMARK SMILES IDX 12 12 13 13 14 15 11 17 9 18 10 19 103 20 102 21 8 22 5 23
REMARK SMILES IDX 6 24 111 25 7 26 110 27 2 28 3 29 4 30 1 31 104 34 105 35
REMARK SMILES IDX 109 36 106 37 108 38 107 39 26 40 27 41 28 42 29 43 30 44
REMARK SMILES IDX 31 45 32 46 33 47 34 48 35 49 36 50 37 51 101 52 38 53
REMARK SMILES IDX 100 54 39 55 40 56 41 57 94 58 42 59 99 60 93 61 95 62 43 63
REMARK SMILES IDX 98 64 92 65 91 66 44 68 78 69 57 70 77 71 58 72 61 73 76 74
REMARK SMILES IDX 96 75 59 76 60 77 75 79 97 80 62 81 45 82 46 83 55 84 47 85
REMARK SMILES IDX 48 86 54 87 56 88 49 89 50 90 51 91 52 92 53 93 79 94 80 95
REMARK SMILES IDX 89 96 81 97 82 98 88 99 90 100 83 101 84 102 85 103 86 104
REMARK SMILES IDX 87 105 63 106 64 107 73 108 65 109 66 110 72 111 74 112
REMARK SMILES IDX 67 113 68 114 69 115 70 116 71 117
REMARK H PARENT 12 14 15 16 1 32 1 33 95 67 61 78
REMARK Flexibility Score: inf
ROOT
ATOM      1  C   UNL A   1      44.943  24.224  37.880  1.00  0.00     0.188 C 
ENDROOT
BRANCH   1   2
ATOM      2  O   UNL A   1      45.691  23.807  36.738  1.00  0.00    -0.376 OA
BRANCH   2   3
ATOM      3  C   UNL A   1      46.723  22.856  36.940  1.00  0.00     0.202 C 
BRANCH   3   4
ATOM      4  C   UNL A   1      48.153  23.357  36.592  1.00  0.00     0.261 C 
BRANCH   4   5
ATOM      5  O   UNL A   1      48.473  23.627  35.198  1.00  0.00    -0.463 OA
BRANCH   5   6
ATOM      6  C   UNL A   1      48.496  24.925  34.814  1.00  0.00     0.305 C 
ATOM      7  O   UNL A   1      48.835  25.844  35.556  1.00  0.00    -0.252 OA
BRANCH   6   8
ATOM      8  C   UNL A   1      47.989  25.210  33.393  1.00  0.00     0.124 C 
BRANCH   8   9
ATOM      9  C   UNL A   1      47.050  26.330  32.929  1.00  0.00     0.033 C 
BRANCH   9  10
ATOM     10  C   UNL A   1      47.118  26.954  31.541  1.00  0.00     0.118 C 
BRANCH  10  11
ATOM     11  N   UNL A   1      48.359  27.512  31.107  1.00  0.00    -0.338 N 
ATOM     12  N   UNL A   1      48.071  27.351  28.744  1.00  0.00    -0.291 N 
ATOM     13  C   UNL A   1      48.752  27.744  29.839  1.00  0.00     0.320 C 
ATOM     14  H   UNL A   1      48.605  27.446  27.922  1.00  0.00     0.173 HD
ATOM     15  O   UNL A   1      49.873  28.243  29.678  1.00  0.00    -0.248 OA
ATOM     16  H   UNL A   1      48.998  27.755  31.815  1.00  0.00     0.165 HD
BRANCH  12  17
ATOM     17  C   UNL A   1      46.808  26.847  28.486  1.00  0.00     0.157 A 
ATOM     18  N   UNL A   1      45.112  25.618  27.987  1.00  0.00    -0.231 N 
ATOM     19  N   UNL A   1      46.348  25.581  28.559  1.00  0.00    -0.149 NA
ATOM     20  C   UNL A   1      44.726  26.941  27.750  1.00  0.00     0.076 A 
ATOM     21  C   UNL A   1      45.783  27.735  28.118  1.00  0.00     0.078 A 
BRANCH  18  22
ATOM     22  C   UNL A   1      44.359  24.419  27.657  1.00  0.00     0.065 A 
ATOM     23  C   UNL A   1      42.552  21.397  26.668  1.00  0.00     0.082 A 
ATOM     24  C   UNL A   1      43.756  22.165  25.589  1.00  0.00     0.024 A 
ATOM     25  C   UNL A   1      42.178  22.171  28.234  1.00  0.00     0.024 A 
ATOM     26  C   UNL A   1      44.659  23.621  26.091  1.00  0.00     0.030 A 
ATOM     27  C   UNL A   1      43.166  23.666  28.763  1.00  0.00     0.030 A 
BRANCH  23  28
ATOM     28  S   UNL A   1      41.929  19.792  26.352  1.00  0.00     0.238 S 
ATOM     29  O   UNL A   1      42.572  19.242  25.186  1.00  0.00    -0.207 OA
ATOM     30  O   UNL A   1      40.495  19.827  26.518  1.00  0.00    -0.207 OA
BRANCH  28  31
ATOM     31  N   UNL A   1      42.520  18.911  27.654  1.00  0.00    -0.225 NA
ATOM     32  H   UNL A   1      43.233  18.259  27.328  1.00  0.00     0.137 HD
ATOM     33  H   UNL A   1      41.756  18.391  28.087  1.00  0.00     0.137 HD
ENDBRANCH  28  31
ENDBRANCH  23  28
ENDBRANCH  18  22
BRANCH  20  34
ATOM     34  C   UNL A   1      43.355  27.349  27.579  1.00  0.00     0.000 A 
ATOM     35  C   UNL A   1      42.599  26.465  26.843  1.00  0.00     0.010 A 
ATOM     36  C   UNL A   1      42.771  28.508  28.078  1.00  0.00     0.010 A 
ATOM     37  C   UNL A   1      41.376  26.833  26.371  1.00  0.00     0.001 A 
ATOM     38  C   UNL A   1      41.481  28.844  27.662  1.00  0.00     0.001 A 
ATOM     39  C   UNL A   1      40.827  28.043  26.734  1.00  0.00     0.000 A 
ENDBRANCH  20  34
ENDBRANCH  12  17
ENDBRANCH  10  11
ENDBRANCH   9  10
ENDBRANCH   8   9
ENDBRANCH   6   8
ENDBRANCH   5   6
ENDBRANCH   4   5
ENDBRANCH   3   4
ENDBRANCH   2   3
ENDBRANCH   1   2
BRANCH   1  40
ATOM     40  C   UNL A   1      45.626  25.136  38.902  1.00  0.00     0.188 C 
BRANCH  40  41
ATOM     41  O   UNL A   1      45.003  25.359  40.145  1.00  0.00    -0.377 OA
BRANCH  41  42
ATOM     42  C   UNL A   1      44.930  26.700  40.546  1.00  0.00     0.188 C 
BRANCH  42  43
ATOM     43  C   UNL A   1      45.726  27.703  39.695  1.00  0.00     0.188 C 
BRANCH  43  44
ATOM     44  O   UNL A   1      45.160  28.998  39.261  1.00  0.00    -0.376 OA
BRANCH  44  45
ATOM     45  C   UNL A   1      45.434  29.930  37.904  1.00  0.00     0.202 C 
BRANCH  45  46
ATOM     46  C   UNL A   1      45.938  29.269  35.891  1.00  0.00     0.261 C 
BRANCH  46  47
ATOM     47  O   UNL A   1      45.002  28.270  34.941  1.00  0.00    -0.460 OA
BRANCH  47  48
ATOM     48  C   UNL A   1      43.900  27.542  35.328  1.00  0.00     0.338 C 
ATOM     49  O   UNL A   1      43.499  27.408  36.474  1.00  0.00    -0.246 OA
BRANCH  48  50
ATOM     50  C   UNL A   1      43.081  27.072  34.085  1.00  0.00     0.060 A 
ATOM     51  C   UNL A   1      43.333  27.924  33.028  1.00  0.00     0.016 A 
ATOM     52  C   UNL A   1      41.731  26.976  34.348  1.00  0.00     0.016 A 
ATOM     53  C   UNL A   1      42.759  29.176  33.127  1.00  0.00     0.010 A 
ATOM     54  C   UNL A   1      41.118  28.181  34.504  1.00  0.00     0.010 A 
ATOM     55  C   UNL A   1      41.790  29.339  34.111  1.00  0.00    -0.014 A 
BRANCH  55  56
ATOM     56  C   UNL A   1      41.149  30.598  34.425  1.00  0.00     0.031 A 
ATOM     57  C   UNL A   1      40.169  30.860  33.348  1.00  0.00     0.074 A 
ATOM     58  C   UNL A   1      41.290  31.348  35.541  1.00  0.00     0.049 A 
ATOM     59  N   UNL A   1      40.532  31.229  32.158  1.00  0.00    -0.248 NA
ATOM     60  C   UNL A   1      38.831  30.232  33.383  1.00  0.00     0.031 C 
ATOM     61  C   UNL A   1      42.068  31.168  36.775  1.00  0.00     0.029 A 
ATOM     62  N   UNL A   1      40.646  32.528  35.787  1.00  0.00    -0.354 N 
ATOM     63  C   UNL A   1      39.360  31.207  31.437  1.00  0.00     0.074 A 
ATOM     64  C   UNL A   1      38.557  30.205  32.072  1.00  0.00     0.031 C 
ATOM     65  C   UNL A   1      41.648  32.057  37.721  1.00  0.00     0.029 A 
ATOM     66  C   UNL A   1      40.729  33.000  37.106  1.00  0.00     0.049 A 
ATOM     67  H   UNL A   1      40.157  33.014  35.085  1.00  0.00     0.167 HD
ATOM     68  C   UNL A   1      38.973  32.319  30.753  1.00  0.00     0.037 A 
ATOM     69  C   UNL A   1      40.144  34.147  37.576  1.00  0.00     0.037 A 
ATOM     70  C   UNL A   1      40.078  33.257  30.660  1.00  0.00     0.049 A 
ATOM     71  C   UNL A   1      39.961  35.011  36.370  1.00  0.00     0.074 A 
ATOM     72  C   UNL A   1      41.372  33.191  30.173  1.00  0.00     0.029 A 
ATOM     73  N   UNL A   1      40.071  34.311  31.548  1.00  0.00    -0.354 N 
ATOM     74  N   UNL A   1      40.976  35.467  35.678  1.00  0.00    -0.248 NA
ATOM     75  C   UNL A   1      38.716  34.858  35.630  1.00  0.00     0.031 C 
ATOM     76  C   UNL A   1      42.172  33.896  31.125  1.00  0.00     0.029 A 
ATOM     77  C   UNL A   1      41.328  34.452  32.086  1.00  0.00     0.049 A 
ATOM     78  H   UNL A   1      39.291  34.872  31.763  1.00  0.00     0.167 HD
ATOM     79  C   UNL A   1      40.632  35.249  34.349  1.00  0.00     0.074 A 
ATOM     80  C   UNL A   1      39.208  34.894  34.386  1.00  0.00     0.031 C 
ATOM     81  C   UNL A   1      41.586  35.038  33.389  1.00  0.00     0.037 A 
BRANCH  68  82
ATOM     82  C   UNL A   1      37.529  32.743  30.606  1.00  0.00     0.058 A 
ATOM     83  C   UNL A   1      37.035  32.962  29.308  1.00  0.00     0.135 A 
ATOM     84  C   UNL A   1      36.675  33.169  31.655  1.00  0.00     0.135 A 
ATOM     85  F   UNL A   1      37.753  32.591  28.235  1.00  0.00    -0.206 F 
ATOM     86  C   UNL A   1      35.830  33.620  29.070  1.00  0.00     0.059 A 
ATOM     87  C   UNL A   1      35.453  33.783  31.440  1.00  0.00     0.059 A 
ATOM     88  F   UNL A   1      36.991  33.103  32.949  1.00  0.00    -0.206 F 
ATOM     89  C   UNL A   1      35.053  34.036  30.146  1.00  0.00     0.060 A 
BRANCH  89  90
ATOM     90  S   UNL A   1      33.533  34.945  29.857  1.00  0.00     0.124 S 
ATOM     91  O   UNL A   1      32.836  34.059  28.934  1.00  0.00    -0.237 OA
ATOM     92  O   UNL A   1      32.982  35.034  31.205  1.00  0.00    -0.237 OA
ATOM     93  O   UNL A   1      33.998  36.209  29.291  1.00  0.00    -0.744 OA
ENDBRANCH  89  90
ENDBRANCH  68  82
BRANCH  69  94
ATOM     94  C   UNL A   1      39.329  34.353  38.820  1.00  0.00     0.058 A 
ATOM     95  C   UNL A   1      38.137  33.659  39.106  1.00  0.00     0.135 A 
ATOM     96  C   UNL A   1      39.881  35.038  39.913  1.00  0.00     0.135 A 
ATOM     97  F   UNL A   1      37.560  32.903  38.160  1.00  0.00    -0.206 F 
ATOM     98  C   UNL A   1      37.539  33.663  40.387  1.00  0.00     0.059 A 
ATOM     99  C   UNL A   1      39.301  35.090  41.183  1.00  0.00     0.059 A 
ATOM    100  F   UNL A   1      41.094  35.575  39.805  1.00  0.00    -0.206 F 
ATOM    101  C   UNL A   1      38.135  34.382  41.424  1.00  0.00     0.060 A 
BRANCH 101 102
ATOM    102  S   UNL A   1      37.469  34.307  43.111  1.00  0.00     0.124 S 
ATOM    103  O   UNL A   1      36.051  34.066  42.871  1.00  0.00    -0.237 OA
ATOM    104  O   UNL A   1      38.216  33.196  43.691  1.00  0.00    -0.237 OA
ATOM    105  O   UNL A   1      37.788  35.623  43.660  1.00  0.00    -0.744 OA
ENDBRANCH 101 102
ENDBRANCH  69  94
BRANCH  81 106
ATOM    106  C   UNL A   1      43.041  35.274  33.755  1.00  0.00     0.058 A 
ATOM    107  C   UNL A   1      43.957  34.272  34.133  1.00  0.00     0.135 A 
ATOM    108  C   UNL A   1      43.569  36.554  33.550  1.00  0.00     0.135 A 
ATOM    109  F   UNL A   1      43.567  33.001  34.260  1.00  0.00    -0.206 F 
ATOM    110  C   UNL A   1      45.319  34.533  34.328  1.00  0.00     0.059 A 
ATOM    111  C   UNL A   1      44.925  36.837  33.715  1.00  0.00     0.059 A 
ATOM    112  F   UNL A   1      42.769  37.545  33.129  1.00  0.00    -0.206 F 
ATOM    113  C   UNL A   1      45.795  35.824  34.115  1.00  0.00     0.060 A 
BRANCH 113 114
ATOM    114  S   UNL A   1      47.559  36.164  34.311  1.00  0.00     0.124 S 
ATOM    115  O   UNL A   1      48.096  35.767  33.015  1.00  0.00    -0.237 OA
ATOM    116  O   UNL A   1      47.577  37.597  34.593  1.00  0.00    -0.237 OA
ATOM    117  O   UNL A   1      47.946  35.314  35.434  1.00  0.00    -0.744 OA
ENDBRANCH 113 114
ENDBRANCH  81 106
ENDBRANCH  55  56
ENDBRANCH  48  50
ENDBRANCH  47  48
ENDBRANCH  46  47
ENDBRANCH  45  46
ENDBRANCH  44  45
ENDBRANCH  43  44
ENDBRANCH  42  43
ENDBRANCH  41  42
ENDBRANCH  40  41
ENDBRANCH   1  40
TORSDOF 31
ENDMDL
MODEL 2
REMARK VINA RESULT:      -8.2      5.614      8.743
REMARK SMILES NS(=O)(=O)c1ccc(-n2nc(NC(=O)NCCCC(=O)OCCOCCOCCOCCOC(=O)c3ccc(-c4c5nc(c(-c6c(F)cc(S(=O)(=O)[O-])cc6F)c6ccc([nH]6)c(-c6c(F)cc(S(=O)(=O)[O-])cc6F)c6nc(c(-c7c(F)cc(S(=O)(=O)[O-])cc7F)c7ccc4[nH]7)C=C6)C=C5)cc3)cc2-c2ccccc2)cc1
REMARK SMILES IDX 25 1 24 2 23 3 22 4 21 5 19 6 20 7 18 8 17 9 16 10 15 11
REMARK SMILES IDX 12 12 13 13 14 15 11 17 9 18 10 19 103 20 102 21 8 22 5 23
REMARK SMILES IDX 6 24 111 25 7 26 110 27 2 28 3 29 4 30 1 31 104 34 105 35
REMARK SMILES IDX 109 36 106 37 108 38 107 39 26 40 27 41 28 42 29 43 30 44
REMARK SMILES IDX 31 45 32 46 33 47 34 48 35 49 36 50 37 51 101 52 38 53
REMARK SMILES IDX 100 54 39 55 40 56 41 57 94 58 42 59 99 60 93 61 95 62 43 63
REMARK SMILES IDX 98 64 92 65 91 66 44 68 78 69 57 70 77 71 58 72 61 73 76 74
REMARK SMILES IDX 96 75 59 76 60 77 75 79 97 80 62 81 45 82 46 83 55 84 47 85
REMARK SMILES IDX 48 86 54 87 56 88 49 89 50 90 51 91 52 92 53 93 79 94 80 95
REMARK SMILES IDX 89 96 81 97 82 98 88 99 90 100 83 101 84 102 85 103 86 104
REMARK SMILES IDX 87 105 63 106 64 107 73 108 65 109 66 110 72 111 74 112
REMARK SMILES IDX 67 113 68 114 69 115 70 116 71 117
REMARK H PARENT 12 14 15 16 1 32 1 33 95 67 61 78
REMARK Flexibility Score: inf
ROOT
ATOM      1  C   UNL A   1      46.059  26.071  33.811  1.00  0.00     0.188 C 
ENDROOT
BRANCH   1   2
ATOM      2  O   UNL A   1      46.861  26.033  34.991  1.00  0.00    -0.376 OA
BRANCH   2   3
ATOM      3  C   UNL A   1      48.255  26.240  34.846  1.00  0.00     0.202 C 
BRANCH   3   4
ATOM      4  C   UNL A   1      49.042  25.028  34.273  1.00  0.00     0.261 C 
BRANCH   4   5
ATOM      5  O   UNL A   1      49.051  24.825  32.832  1.00  0.00    -0.463 OA
BRANCH   5   6
ATOM      6  C   UNL A   1      50.256  24.632  32.246  1.00  0.00     0.305 C 
ATOM      7  O   UNL A   1      51.162  23.984  32.762  1.00  0.00    -0.252 OA
BRANCH   6   8
ATOM      8  C   UNL A   1      50.469  25.350  30.905  1.00  0.00     0.124 C 
BRANCH   8   9
ATOM      9  C   UNL A   1      49.594  25.287  29.647  1.00  0.00     0.033 C 
BRANCH   9  10
ATOM     10  C   UNL A   1      49.584  26.377  28.584  1.00  0.00     0.118 C 
BRANCH  10  11
ATOM     11  N   UNL A   1      50.696  26.468  27.693  1.00  0.00    -0.338 N 
ATOM     12  N   UNL A   1      49.644  25.795  25.660  1.00  0.00    -0.291 N 
ATOM     13  C   UNL A   1      50.697  26.263  26.361  1.00  0.00     0.320 C 
ATOM     14  H   UNL A   1      49.896  25.539  24.743  1.00  0.00     0.173 HD
ATOM     15  O   UNL A   1      51.775  26.400  25.769  1.00  0.00    -0.248 OA
ATOM     16  H   UNL A   1      51.560  26.709  28.099  1.00  0.00     0.165 HD
BRANCH  12  17
ATOM     17  C   UNL A   1      48.299  25.585  25.907  1.00  0.00     0.157 A 
ATOM     18  N   UNL A   1      46.325  24.762  26.156  1.00  0.00    -0.231 N 
ATOM     19  N   UNL A   1      47.649  24.460  26.272  1.00  0.00    -0.149 NA
ATOM     20  C   UNL A   1      46.157  26.129  25.922  1.00  0.00     0.076 A 
ATOM     21  C   UNL A   1      47.412  26.672  25.817  1.00  0.00     0.078 A 
BRANCH  18  22
ATOM     22  C   UNL A   1      45.278  23.756  26.238  1.00  0.00     0.065 A 
ATOM     23  C   UNL A   1      42.604  21.290  26.609  1.00  0.00     0.082 A 
ATOM     24  C   UNL A   1      42.988  22.457  27.909  1.00  0.00     0.024 A 
ATOM     25  C   UNL A   1      43.601  21.288  25.126  1.00  0.00     0.024 A 
ATOM     26  C   UNL A   1      44.273  23.681  27.709  1.00  0.00     0.030 A 
ATOM     27  C   UNL A   1      44.908  22.605  24.915  1.00  0.00     0.030 A 
BRANCH  23  28
ATOM     28  S   UNL A   1      41.136  20.335  26.638  1.00  0.00     0.238 S 
ATOM     29  O   UNL A   1      41.314  19.147  25.845  1.00  0.00    -0.207 OA
ATOM     30  O   UNL A   1      40.016  21.232  26.475  1.00  0.00    -0.207 OA
BRANCH  28  31
ATOM     31  N   UNL A   1      41.076  19.812  28.233  1.00  0.00    -0.225 NA
ATOM     32  H   UNL A   1      41.385  20.564  28.849  1.00  0.00     0.137 HD
ATOM     33  H   UNL A   1      41.686  19.004  28.349  1.00  0.00     0.137 HD
ENDBRANCH  28  31
ENDBRANCH  23  28
ENDBRANCH  18  22
BRANCH  20  34
ATOM     34  C   UNL A   1      44.929  26.834  26.188  1.00  0.00     0.000 A 
ATOM     35  C   UNL A   1      44.910  27.482  27.402  1.00  0.00     0.010 A 
ATOM     36  C   UNL A   1      43.820  26.904  25.352  1.00  0.00     0.010 A 
ATOM     37  C   UNL A   1      43.739  27.959  27.910  1.00  0.00     0.001 A 
ATOM     38  C   UNL A   1      42.642  27.471  25.842  1.00  0.00     0.001 A 
ATOM     39  C   UNL A   1      42.587  27.913  27.157  1.00  0.00     0.000 A 
ENDBRANCH  20  34
ENDBRANCH  12  17
ENDBRANCH  10  11
ENDBRANCH   9  10
ENDBRANCH   8   9
ENDBRANCH   6   8
ENDBRANCH   5   6
ENDBRANCH   4   5
ENDBRANCH   3   4
ENDBRANCH   2   3
ENDBRANCH   1   2
BRANCH   1  40
ATOM     40  C   UNL A   1      45.672  27.438  33.240  1.00  0.00     0.188 C 
BRANCH  40  41
ATOM     41  O   UNL A   1      46.088  28.604  33.912  1.00  0.00    -0.377 OA
BRANCH  41  42
ATOM     42  C   UNL A   1      47.077  29.351  33.259  1.00  0.00     0.188 C 
BRANCH  42  43
ATOM     43  C   UNL A   1      46.581  30.335  32.186  1.00  0.00     0.188 C 
BRANCH  43  44
ATOM     44  O   UNL A   1      46.649  30.031  30.741  1.00  0.00    -0.376 OA
BRANCH  44  45
ATOM     45  C   UNL A   1      47.463  30.775  29.489  1.00  0.00     0.202 C 
BRANCH  45  46
ATOM     46  C   UNL A   1      48.436  32.725  29.479  1.00  0.00     0.261 C 
BRANCH  46  47
ATOM     47  O   UNL A   1      49.166  33.431  28.158  1.00  0.00    -0.460 OA
BRANCH  47  48
ATOM     48  C   UNL A   1      48.598  34.303  27.257  1.00  0.00     0.338 C 
ATOM     49  O   UNL A   1      47.440  34.275  26.868  1.00  0.00    -0.246 OA
BRANCH  48  50
ATOM     50  C   UNL A   1      49.568  35.485  26.944  1.00  0.00     0.060 A 
ATOM     51  C   UNL A   1      50.109  35.953  28.125  1.00  0.00     0.016 A 
ATOM     52  C   UNL A   1      48.956  36.495  26.231  1.00  0.00     0.016 A 
ATOM     53  C   UNL A   1      49.244  36.671  28.928  1.00  0.00     0.010 A 
ATOM     54  C   UNL A   1      48.055  37.209  26.960  1.00  0.00     0.010 A 
ATOM     55  C   UNL A   1      48.046  37.071  28.349  1.00  0.00    -0.014 A 
BRANCH  55  56
ATOM     56  C   UNL A   1      46.980  37.747  29.059  1.00  0.00     0.031 A 
ATOM     57  C   UNL A   1      46.038  36.701  29.512  1.00  0.00     0.074 A 
ATOM     58  C   UNL A   1      46.897  39.057  29.383  1.00  0.00     0.049 A 
ATOM     59  N   UNL A   1      45.238  36.089  28.693  1.00  0.00    -0.248 NA
ATOM     60  C   UNL A   1      46.304  35.938  30.750  1.00  0.00     0.031 C 
ATOM     61  C   UNL A   1      47.800  40.197  29.177  1.00  0.00     0.029 A 
ATOM     62  N   UNL A   1      45.866  39.637  30.066  1.00  0.00    -0.354 N 
ATOM     63  C   UNL A   1      44.665  35.106  29.469  1.00  0.00     0.074 A 
ATOM     64  C   UNL A   1      45.649  34.805  30.466  1.00  0.00     0.031 C 
ATOM     65  C   UNL A   1      47.396  41.252  29.943  1.00  0.00     0.029 A 
ATOM     66  C   UNL A   1      46.103  40.941  30.528  1.00  0.00     0.049 A 
ATOM     67  H   UNL A   1      45.013  39.171  30.224  1.00  0.00     0.167 HD
ATOM     68  C   UNL A   1      43.309  35.014  29.539  1.00  0.00     0.037 A 
ATOM     69  C   UNL A   1      45.218  41.700  31.249  1.00  0.00     0.037 A 
ATOM     70  C   UNL A   1      42.699  35.812  28.488  1.00  0.00     0.049 A 
ATOM     71  C   UNL A   1      43.871  41.142  30.921  1.00  0.00     0.074 A 
ATOM     72  C   UNL A   1      42.804  35.847  27.109  1.00  0.00     0.029 A 
ATOM     73  N   UNL A   1      42.216  37.051  28.854  1.00  0.00    -0.354 N 
ATOM     74  N   UNL A   1      43.372  41.190  29.710  1.00  0.00    -0.248 NA
ATOM     75  C   UNL A   1      43.385  40.053  31.756  1.00  0.00     0.031 C 
ATOM     76  C   UNL A   1      42.822  37.235  26.765  1.00  0.00     0.029 A 
ATOM     77  C   UNL A   1      42.619  37.981  27.926  1.00  0.00     0.049 A 
ATOM     78  H   UNL A   1      41.670  37.238  29.652  1.00  0.00     0.167 HD
ATOM     79  C   UNL A   1      42.857  39.920  29.482  1.00  0.00     0.074 A 
ATOM     80  C   UNL A   1      42.872  39.271  30.799  1.00  0.00     0.031 C 
ATOM     81  C   UNL A   1      42.789  39.392  28.220  1.00  0.00     0.037 A 
BRANCH  68  82
ATOM     82  C   UNL A   1      42.567  34.618  30.796  1.00  0.00     0.058 A 
ATOM     83  C   UNL A   1      41.586  33.615  30.693  1.00  0.00     0.135 A 
ATOM     84  C   UNL A   1      42.590  35.313  32.031  1.00  0.00     0.135 A 
ATOM     85  F   UNL A   1      41.474  32.885  29.572  1.00  0.00    -0.206 F 
ATOM     86  C   UNL A   1      40.657  33.376  31.704  1.00  0.00     0.059 A 
ATOM     87  C   UNL A   1      41.707  35.058  33.066  1.00  0.00     0.059 A 
ATOM     88  F   UNL A   1      43.405  36.335  32.298  1.00  0.00    -0.206 F 
ATOM     89  C   UNL A   1      40.721  34.113  32.882  1.00  0.00     0.060 A 
BRANCH  89  90
ATOM     90  S   UNL A   1      39.491  33.864  34.165  1.00  0.00     0.124 S 
ATOM     91  O   UNL A   1      40.299  33.994  35.371  1.00  0.00    -0.237 OA
ATOM     92  O   UNL A   1      38.558  34.952  33.893  1.00  0.00    -0.237 OA
ATOM     93  O   UNL A   1      38.981  32.523  33.887  1.00  0.00    -0.744 OA
ENDBRANCH  89  90
ENDBRANCH  68  82
BRANCH  69  94
ATOM     94  C   UNL A   1      45.455  42.495  32.501  1.00  0.00     0.058 A 
ATOM     95  C   UNL A   1      46.303  42.085  33.548  1.00  0.00     0.135 A 
ATOM     96  C   UNL A   1      45.071  43.844  32.556  1.00  0.00     0.135 A 
ATOM     97  F   UNL A   1      46.798  40.838  33.558  1.00  0.00    -0.206 F 
ATOM     98  C   UNL A   1      46.723  42.958  34.577  1.00  0.00     0.059 A 
ATOM     99  C   UNL A   1      45.442  44.726  33.574  1.00  0.00     0.059 A 
ATOM    100  F   UNL A   1      44.423  44.384  31.526  1.00  0.00    -0.206 F 
ATOM    101  C   UNL A   1      46.288  44.284  34.578  1.00  0.00     0.060 A 
BRANCH 101 102
ATOM    102  S   UNL A   1      46.908  45.467  35.807  1.00  0.00     0.124 S 
ATOM    103  O   UNL A   1      46.139  46.666  35.493  1.00  0.00    -0.237 OA
ATOM    104  O   UNL A   1      46.577  44.809  37.066  1.00  0.00    -0.237 OA
ATOM    105  O   UNL A   1      48.335  45.551  35.507  1.00  0.00    -0.744 OA
ENDBRANCH 101 102
ENDBRANCH  69  94
BRANCH  81 106
ATOM    106  C   UNL A   1      43.072  40.306  27.040  1.00  0.00     0.058 A 
ATOM    107  C   UNL A   1      44.339  40.515  26.461  1.00  0.00     0.135 A 
ATOM    108  C   UNL A   1      41.979  40.863  26.366  1.00  0.00     0.135 A 
ATOM    109  F   UNL A   1      45.431  39.945  26.977  1.00  0.00    -0.206 F 
ATOM    110  C   UNL A   1      44.516  41.265  25.291  1.00  0.00     0.059 A 
ATOM    111  C   UNL A   1      42.125  41.594  25.187  1.00  0.00     0.059 A 
ATOM    112  F   UNL A   1      40.736  40.653  26.824  1.00  0.00    -0.206 F 
ATOM    113  C   UNL A   1      43.398  41.801  24.659  1.00  0.00     0.060 A 
BRANCH 113 114
ATOM    114  S   UNL A   1      43.605  42.726  23.120  1.00  0.00     0.124 S 
ATOM    115  O   UNL A   1      42.561  42.157  22.275  1.00  0.00    -0.237 OA
ATOM    116  O   UNL A   1      43.393  44.106  23.547  1.00  0.00    -0.237 OA
ATOM    117  O   UNL A   1      44.974  42.411  22.716  1.00  0.00    -0.744 OA
ENDBRANCH 113 114
ENDBRANCH  81 106
ENDBRANCH  55  56
ENDBRANCH  48  50
ENDBRANCH  47  48
ENDBRANCH  46  47
ENDBRANCH  45  46
ENDBRANCH  44  45
ENDBRANCH  43  44
ENDBRANCH  42  43
ENDBRANCH  41  42
ENDBRANCH  40  41
ENDBRANCH   1  40
TORSDOF 31
ENDMDL
MODEL 3
REMARK VINA RESULT:      -8.1      5.319     11.304
REMARK SMILES NS(=O)(=O)c1ccc(-n2nc(NC(=O)NCCCC(=O)OCCOCCOCCOCCOC(=O)c3ccc(-c4c5nc(c(-c6c(F)cc(S(=O)(=O)[O-])cc6F)c6ccc([nH]6)c(-c6c(F)cc(S(=O)(=O)[O-])cc6F)c6nc(c(-c7c(F)cc(S(=O)(=O)[O-])cc7F)c7ccc4[nH]7)C=C6)C=C5)cc3)cc2-c2ccccc2)cc1
REMARK SMILES IDX 25 1 24 2 23 3 22 4 21 5 19 6 20 7 18 8 17 9 16 10 15 11
REMARK SMILES IDX 12 12 13 13 14 15 11 17 9 18 10 19 103 20 102 21 8 22 5 23
REMARK SMILES IDX 6 24 111 25 7 26 110 27 2 28 3 29 4 30 1 31 104 34 105 35
REMARK SMILES IDX 109 36 106 37 108 38 107 39 26 40 27 41 28 42 29 43 30 44
REMARK SMILES IDX 31 45 32 46 33 47 34 48 35 49 36 50 37 51 101 52 38 53
REMARK SMILES IDX 100 54 39 55 40 56 41 57 94 58 42 59 99 60 93 61 95 62 43 63
REMARK SMILES IDX 98 64 92 65 91 66 44 68 78 69 57 70 77 71 58 72 61 73 76 74
REMARK SMILES IDX 96 75 59 76 60 77 75 79 97 80 62 81 45 82 46 83 55 84 47 85
REMARK SMILES IDX 48 86 54 87 56 88 49 89 50 90 51 91 52 92 53 93 79 94 80 95
REMARK SMILES IDX 89 96 81 97 82 98 88 99 90 100 83 101 84 102 85 103 86 104
REMARK SMILES IDX 87 105 63 106 64 107 73 108 65 109 66 110 72 111 74 112
REMARK SMILES IDX 67 113 68 114 69 115 70 116 71 117
REMARK H PARENT 12 14 15 16 1 32 1 33 95 67 61 78
REMARK Flexibility Score: inf
ROOT
ATOM      1  C   UNL A   1      45.693  42.218  32.921  1.00  0.00     0.188 C 
ENDROOT
BRANCH   1   2
ATOM      2  O   UNL A   1      45.546  43.085  31.796  1.00  0.00    -0.376 OA
BRANCH   2   3
ATOM      3  C   UNL A   1      44.264  43.172  31.197  1.00  0.00     0.202 C 
BRANCH   3   4
ATOM      4  C   UNL A   1      44.248  42.987  29.654  1.00  0.00     0.261 C 
BRANCH   4   5
ATOM      5  O   UNL A   1      44.385  41.642  29.115  1.00  0.00    -0.463 OA
BRANCH   5   6
ATOM      6  C   UNL A   1      43.721  41.369  27.968  1.00  0.00     0.305 C 
ATOM      7  O   UNL A   1      42.768  40.597  27.905  1.00  0.00    -0.252 OA
BRANCH   6   8
ATOM      8  C   UNL A   1      44.281  42.028  26.699  1.00  0.00     0.124 C 
BRANCH   8   9
ATOM      9  C   UNL A   1      45.715  41.973  26.156  1.00  0.00     0.033 C 
BRANCH   9  10
ATOM     10  C   UNL A   1      46.903  41.506  26.986  1.00  0.00     0.118 C 
BRANCH  10  11
ATOM     11  N   UNL A   1      47.244  42.244  28.159  1.00  0.00    -0.338 N 
ATOM     12  N   UNL A   1      48.613  40.634  29.268  1.00  0.00    -0.291 N 
ATOM     13  C   UNL A   1      48.069  41.863  29.155  1.00  0.00     0.320 C 
ATOM     14  H   UNL A   1      49.029  40.494  30.148  1.00  0.00     0.173 HD
ATOM     15  O   UNL A   1      48.236  42.660  30.086  1.00  0.00    -0.248 OA
ATOM     16  H   UNL A   1      46.830  43.133  28.250  1.00  0.00     0.165 HD
BRANCH  12  17
ATOM     17  C   UNL A   1      48.732  39.521  28.454  1.00  0.00     0.157 A 
ATOM     18  N   UNL A   1      48.527  37.604  27.494  1.00  0.00    -0.231 N 
ATOM     19  N   UNL A   1      47.821  38.576  28.138  1.00  0.00    -0.149 NA
ATOM     20  C   UNL A   1      49.828  38.042  27.231  1.00  0.00     0.076 A 
ATOM     21  C   UNL A   1      49.950  39.288  27.792  1.00  0.00     0.078 A 
BRANCH  18  22
ATOM     22  C   UNL A   1      47.967  36.299  27.182  1.00  0.00     0.065 A 
ATOM     23  C   UNL A   1      46.647  32.950  26.541  1.00  0.00     0.082 A 
ATOM     24  C   UNL A   1      47.759  33.273  27.906  1.00  0.00     0.024 A 
ATOM     25  C   UNL A   1      46.234  34.285  25.428  1.00  0.00     0.024 A 
ATOM     26  C   UNL A   1      48.373  34.917  28.234  1.00  0.00     0.030 A 
ATOM     27  C   UNL A   1      46.847  36.006  25.814  1.00  0.00     0.030 A 
BRANCH  23  28
ATOM     28  S   UNL A   1      45.761  31.445  26.417  1.00  0.00     0.238 S 
ATOM     29  O   UNL A   1      46.443  30.552  25.518  1.00  0.00    -0.207 OA
ATOM     30  O   UNL A   1      44.357  31.761  26.299  1.00  0.00    -0.207 OA
BRANCH  28  31
ATOM     31  N   UNL A   1      45.954  30.783  27.949  1.00  0.00    -0.225 NA
ATOM     32  H   UNL A   1      45.865  29.769  27.894  1.00  0.00     0.137 HD
ATOM     33  H   UNL A   1      45.237  31.154  28.572  1.00  0.00     0.137 HD
ENDBRANCH  28  31
ENDBRANCH  23  28
ENDBRANCH  18  22
BRANCH  20  34
ATOM     34  C   UNL A   1      50.667  37.467  26.210  1.00  0.00     0.000 A 
ATOM     35  C   UNL A   1      52.000  37.784  26.342  1.00  0.00     0.010 A 
ATOM     36  C   UNL A   1      50.250  36.657  25.159  1.00  0.00     0.010 A 
ATOM     37  C   UNL A   1      52.868  37.545  25.320  1.00  0.00     0.001 A 
ATOM     38  C   UNL A   1      51.164  36.339  24.153  1.00  0.00     0.001 A 
ATOM     39  C   UNL A   1      52.448  36.866  24.197  1.00  0.00     0.000 A 
ENDBRANCH  20  34
ENDBRANCH  12  17
ENDBRANCH  10  11
ENDBRANCH   9  10
ENDBRANCH   8   9
ENDBRANCH   6   8
ENDBRANCH   5   6
ENDBRANCH   4   5
ENDBRANCH   3   4
ENDBRANCH   2   3
ENDBRANCH   1   2
BRANCH   1  40
ATOM     40  C   UNL A   1      44.646  42.291  34.035  1.00  0.00     0.188 C 
BRANCH  40  41
ATOM     41  O   UNL A   1      43.901  41.139  34.353  1.00  0.00    -0.377 OA
BRANCH  41  42
ATOM     42  C   UNL A   1      44.372  40.405  35.450  1.00  0.00     0.188 C 
BRANCH  42  43
ATOM     43  C   UNL A   1      44.598  38.903  35.210  1.00  0.00     0.188 C 
BRANCH  43  44
ATOM     44  O   UNL A   1      43.671  38.082  34.402  1.00  0.00    -0.376 OA
BRANCH  44  45
ATOM     45  C   UNL A   1      43.817  37.418  32.879  1.00  0.00     0.202 C 
BRANCH  45  46
ATOM     46  C   UNL A   1      44.044  38.447  30.972  1.00  0.00     0.261 C 
BRANCH  46  47
ATOM     47  O   UNL A   1      43.800  37.764  29.472  1.00  0.00    -0.460 OA
BRANCH  47  48
ATOM     48  C   UNL A   1      43.356  36.490  29.198  1.00  0.00     0.338 C 
ATOM     49  O   UNL A   1      42.191  36.157  29.041  1.00  0.00    -0.246 OA
BRANCH  48  50
ATOM     50  C   UNL A   1      44.556  35.539  28.893  1.00  0.00     0.060 A 
ATOM     51  C   UNL A   1      44.090  34.415  28.241  1.00  0.00     0.016 A 
ATOM     52  C   UNL A   1      45.268  35.208  30.027  1.00  0.00     0.016 A 
ATOM     53  C   UNL A   1      43.383  33.525  29.025  1.00  0.00     0.010 A 
ATOM     54  C   UNL A   1      44.600  34.368  30.865  1.00  0.00     0.010 A 
ATOM     55  C   UNL A   1      43.458  33.714  30.400  1.00  0.00    -0.014 A 
BRANCH  55  56
ATOM     56  C   UNL A   1      42.714  32.943  31.373  1.00  0.00     0.031 A 
ATOM     57  C   UNL A   1      43.315  31.592  31.399  1.00  0.00     0.074 A 
ATOM     58  C   UNL A   1      41.743  33.375  32.210  1.00  0.00     0.049 A 
ATOM     59  N   UNL A   1      43.136  30.737  30.440  1.00  0.00    -0.248 NA
ATOM     60  C   UNL A   1      44.529  31.328  32.201  1.00  0.00     0.031 C 
ATOM     61  C   UNL A   1      41.144  34.695  32.450  1.00  0.00     0.029 A 
ATOM     62  N   UNL A   1      41.080  32.599  33.119  1.00  0.00    -0.354 N 
ATOM     63  C   UNL A   1      43.975  29.696  30.769  1.00  0.00     0.074 A 
ATOM     64  C   UNL A   1      45.042  30.304  31.507  1.00  0.00     0.031 C 
ATOM     65  C   UNL A   1      40.409  34.669  33.599  1.00  0.00     0.029 A 
ATOM     66  C   UNL A   1      40.311  33.295  34.064  1.00  0.00     0.049 A 
ATOM     67  H   UNL A   1      41.139  31.617  33.110  1.00  0.00     0.167 HD
ATOM     68  C   UNL A   1      43.474  28.434  30.858  1.00  0.00     0.037 A 
ATOM     69  C   UNL A   1      39.584  32.719  35.073  1.00  0.00     0.037 A 
ATOM     70  C   UNL A   1      42.151  28.379  30.257  1.00  0.00     0.049 A 
ATOM     71  C   UNL A   1      39.308  31.327  34.607  1.00  0.00     0.074 A 
ATOM     72  C   UNL A   1      41.636  28.688  29.010  1.00  0.00     0.029 A 
ATOM     73  N   UNL A   1      41.078  28.417  31.120  1.00  0.00    -0.354 N 
ATOM     74  N   UNL A   1      38.579  31.077  33.547  1.00  0.00    -0.248 NA
ATOM     75  C   UNL A   1      40.295  30.310  34.942  1.00  0.00     0.031 C 
ATOM     76  C   UNL A   1      40.390  29.340  29.266  1.00  0.00     0.029 A 
ATOM     77  C   UNL A   1      40.146  29.306  30.639  1.00  0.00     0.049 A 
ATOM     78  H   UNL A   1      40.992  27.892  31.949  1.00  0.00     0.167 HD
ATOM     79  C   UNL A   1      39.288  30.112  32.841  1.00  0.00     0.074 A 
ATOM     80  C   UNL A   1      40.329  29.660  33.773  1.00  0.00     0.031 C 
ATOM     81  C   UNL A   1      39.195  30.012  31.479  1.00  0.00     0.037 A 
BRANCH  68  82
ATOM     82  C   UNL A   1      43.950  27.420  31.873  1.00  0.00     0.058 A 
ATOM     83  C   UNL A   1      44.352  26.156  31.404  1.00  0.00     0.135 A 
ATOM     84  C   UNL A   1      43.818  27.525  33.281  1.00  0.00     0.135 A 
ATOM     85  F   UNL A   1      44.518  25.939  30.090  1.00  0.00    -0.206 F 
ATOM     86  C   UNL A   1      44.532  25.068  32.256  1.00  0.00     0.059 A 
ATOM     87  C   UNL A   1      44.039  26.469  34.148  1.00  0.00     0.059 A 
ATOM     88  F   UNL A   1      43.391  28.621  33.911  1.00  0.00    -0.206 F 
ATOM     89  C   UNL A   1      44.361  25.235  33.627  1.00  0.00     0.060 A 
BRANCH  89  90
ATOM     90  S   UNL A   1      44.522  23.829  34.730  1.00  0.00     0.124 S 
ATOM     91  O   UNL A   1      44.456  22.715  33.791  1.00  0.00    -0.237 OA
ATOM     92  O   UNL A   1      45.822  24.082  35.341  1.00  0.00    -0.237 OA
ATOM     93  O   UNL A   1      43.376  23.969  35.625  1.00  0.00    -0.744 OA
ENDBRANCH  89  90
ENDBRANCH  68  82
BRANCH  69  94
ATOM     94  C   UNL A   1      39.531  33.086  36.528  1.00  0.00     0.058 A 
ATOM     95  C   UNL A   1      38.340  33.179  37.275  1.00  0.00     0.135 A 
ATOM     96  C   UNL A   1      40.703  33.059  37.300  1.00  0.00     0.135 A 
ATOM     97  F   UNL A   1      37.154  33.134  36.651  1.00  0.00    -0.206 F 
ATOM     98  C   UNL A   1      38.328  33.252  38.686  1.00  0.00     0.059 A 
ATOM     99  C   UNL A   1      40.729  33.161  38.693  1.00  0.00     0.059 A 
ATOM    100  F   UNL A   1      41.867  32.790  36.714  1.00  0.00    -0.206 F 
ATOM    101  C   UNL A   1      39.533  33.239  39.389  1.00  0.00     0.060 A 
BRANCH 101 102
ATOM    102  S   UNL A   1      39.554  33.201  41.204  1.00  0.00     0.124 S 
ATOM    103  O   UNL A   1      38.401  34.029  41.540  1.00  0.00    -0.237 OA
ATOM    104  O   UNL A   1      39.421  31.777  41.487  1.00  0.00    -0.237 OA
ATOM    105  O   UNL A   1      40.851  33.783  41.540  1.00  0.00    -0.744 OA
ENDBRANCH 101 102
ENDBRANCH  69  94
BRANCH  81 106
ATOM    106  C   UNL A   1      38.127  30.823  30.767  1.00  0.00     0.058 A 
ATOM    107  C   UNL A   1      38.327  32.084  30.171  1.00  0.00     0.135 A 
ATOM    108  C   UNL A   1      36.887  30.215  30.536  1.00  0.00     0.135 A 
ATOM    109  F   UNL A   1      39.508  32.702  30.254  1.00  0.00    -0.206 F 
ATOM    110  C   UNL A   1      37.337  32.722  29.412  1.00  0.00     0.059 A 
ATOM    111  C   UNL A   1      35.894  30.817  29.766  1.00  0.00     0.059 A 
ATOM    112  F   UNL A   1      36.648  28.986  31.019  1.00  0.00    -0.206 F 
ATOM    113  C   UNL A   1      36.119  32.077  29.214  1.00  0.00     0.060 A 
BRANCH 113 114
ATOM    114  S   UNL A   1      34.853  32.865  28.194  1.00  0.00     0.124 S 
ATOM    115  O   UNL A   1      34.226  31.721  27.542  1.00  0.00    -0.237 OA
ATOM    116  O   UNL A   1      34.033  33.558  29.184  1.00  0.00    -0.237 OA
ATOM    117  O   UNL A   1      35.622  33.740  27.313  1.00  0.00    -0.744 OA
ENDBRANCH 113 114
ENDBRANCH  81 106
ENDBRANCH  55  56
ENDBRANCH  48  50
ENDBRANCH  47  48
ENDBRANCH  46  47
ENDBRANCH  45  46
ENDBRANCH  44  45
ENDBRANCH  43  44
ENDBRANCH  42  43
ENDBRANCH  41  42
ENDBRANCH  40  41
ENDBRANCH   1  40
TORSDOF 31
ENDMDL
