MODEL 1
REMARK VINA RESULT:      -8.8      0.000      0.000
REMARK SMILES COc1ccccc1Nc1nc(OCC(=O)OCCOCCOCCOCCOC(=O)c2ccc(-c3c4nc(c(-c5c(F)cc(S(=O)(=O)[O-])cc5F)c5ccc([nH]5)c(-c5c(F)cc(S(=O)(=O)[O-])cc5F)c5nc(c(-c6c(F)cc(S(=O)(=O)[O-])cc6F)c6ccc3[nH]6)C=C5)C=C4)cc2)cc(-c2ccc(C)cc2)n1
REMARK SMILES IDX 22 1 21 2 20 3 19 4 18 5 17 6 15 7 16 8 14 9 13 10 12 11
REMARK SMILES IDX 10 12 11 13 107 14 99 15 98 16 9 17 8 19 3 20 4 21 5 22 7 23
REMARK SMILES IDX 6 24 2 25 1 26 100 27 101 28 106 29 102 30 105 31 103 32
REMARK SMILES IDX 104 33 23 34 24 35 25 36 26 37 27 38 28 39 29 40 30 41 31 42
REMARK SMILES IDX 32 43 33 44 97 45 34 46 96 47 35 48 36 49 37 50 90 51 38 52
REMARK SMILES IDX 95 53 89 54 91 55 39 56 94 57 88 58 87 59 40 61 74 62 53 63
REMARK SMILES IDX 73 64 54 65 57 66 72 67 92 68 55 69 56 70 71 72 93 73 58 74
REMARK SMILES IDX 41 75 42 76 51 77 43 78 44 79 50 80 52 81 45 82 46 83 47 84
REMARK SMILES IDX 48 85 49 86 75 87 76 88 85 89 77 90 78 91 84 92 86 93 79 94
REMARK SMILES IDX 80 95 81 96 82 97 83 98 59 99 60 100 69 101 61 102 62 103
REMARK SMILES IDX 68 104 70 105 63 106 64 107 65 108 66 109 67 110
REMARK H PARENT 9 18 91 60 57 71
REMARK Flexibility Score: inf
ROOT
ATOM      1  C   UNL A   1      34.193  31.521  28.479  1.00  0.00     0.188 C 
ENDROOT
BRANCH   1   2
ATOM      2  C   UNL A   1      33.871  30.754  27.180  1.00  0.00     0.188 C 
BRANCH   2   3
ATOM      3  O   UNL A   1      33.826  29.338  27.101  1.00  0.00    -0.376 OA
BRANCH   3   4
ATOM      4  C   UNL A   1      32.667  28.748  26.544  1.00  0.00     0.202 C 
BRANCH   4   5
ATOM      5  C   UNL A   1      32.808  27.343  25.922  1.00  0.00     0.261 C 
BRANCH   5   6
ATOM      6  O   UNL A   1      32.251  26.249  26.695  1.00  0.00    -0.461 OA
BRANCH   6   7
ATOM      7  C   UNL A   1      31.666  25.230  26.013  1.00  0.00     0.344 C 
ATOM      8  O   UNL A   1      30.462  25.158  25.787  1.00  0.00    -0.248 OA
BRANCH   7   9
ATOM      9  C   UNL A   1      32.664  24.138  25.513  1.00  0.00     0.353 C 
BRANCH   9  10
ATOM     10  O   UNL A   1      33.940  24.395  24.944  1.00  0.00    -0.466 OA
BRANCH  10  11
ATOM     11  C   UNL A   1      35.008  23.536  25.032  1.00  0.00     0.219 A 
ATOM     12  C   UNL A   1      35.514  21.299  25.433  1.00  0.00     0.231 A 
ATOM     13  N   UNL A   1      34.628  22.245  25.065  1.00  0.00    -0.177 NA
ATOM     14  N   UNL A   1      36.776  21.589  25.783  1.00  0.00    -0.212 NA
ATOM     15  C   UNL A   1      37.169  22.892  25.705  1.00  0.00     0.080 A 
ATOM     16  C   UNL A   1      36.314  23.894  25.253  1.00  0.00     0.097 A 
BRANCH  12  17
ATOM     17  N   UNL A   1      35.008  19.992  25.392  1.00  0.00    -0.321 N 
ATOM     18  H   UNL A   1      35.390  19.417  26.094  1.00  0.00     0.170 HD
BRANCH  17  19
ATOM     19  C   UNL A   1      34.078  19.308  24.580  1.00  0.00     0.083 A 
ATOM     20  C   UNL A   1      34.338  17.966  24.227  1.00  0.00     0.142 A 
ATOM     21  C   UNL A   1      33.636  17.304  23.215  1.00  0.00     0.048 A 
ATOM     22  C   UNL A   1      32.566  17.940  22.603  1.00  0.00     0.004 A 
ATOM     23  C   UNL A   1      32.898  19.845  24.084  1.00  0.00     0.030 A 
ATOM     24  C   UNL A   1      32.167  19.190  23.074  1.00  0.00     0.002 A 
BRANCH  20  25
ATOM     25  O   UNL A   1      35.294  17.239  24.900  1.00  0.00    -0.495 OA
ATOM     26  C   UNL A   1      34.840  15.883  25.016  1.00  0.00     0.278 C 
ENDBRANCH  20  25
ENDBRANCH  17  19
ENDBRANCH  12  17
BRANCH  15  27
ATOM     27  C   UNL A   1      38.481  23.210  26.343  1.00  0.00     0.000 A 
ATOM     28  C   UNL A   1      38.829  24.512  26.740  1.00  0.00     0.010 A 
ATOM     29  C   UNL A   1      39.491  22.234  26.463  1.00  0.00     0.010 A 
ATOM     30  C   UNL A   1      40.141  24.832  27.139  1.00  0.00     0.004 A 
ATOM     31  C   UNL A   1      40.809  22.557  26.802  1.00  0.00     0.004 A 
ATOM     32  C   UNL A   1      41.154  23.869  27.110  1.00  0.00    -0.051 A 
ATOM     33  C   UNL A   1      42.582  24.209  27.425  1.00  0.00     0.044 C 
ENDBRANCH  15  27
ENDBRANCH  10  11
ENDBRANCH   9  10
ENDBRANCH   7   9
ENDBRANCH   6   7
ENDBRANCH   5   6
ENDBRANCH   4   5
ENDBRANCH   3   4
ENDBRANCH   2   3
ENDBRANCH   1   2
BRANCH   1  34
ATOM     34  O   UNL A   1      35.580  31.735  28.685  1.00  0.00    -0.377 OA
BRANCH  34  35
ATOM     35  C   UNL A   1      36.396  31.090  27.722  1.00  0.00     0.188 C 
BRANCH  35  36
ATOM     36  C   UNL A   1      37.345  30.011  28.282  1.00  0.00     0.188 C 
BRANCH  36  37
ATOM     37  O   UNL A   1      36.742  29.167  29.248  1.00  0.00    -0.376 OA
BRANCH  37  38
ATOM     38  C   UNL A   1      37.399  28.937  30.478  1.00  0.00     0.202 C 
BRANCH  38  39
ATOM     39  C   UNL A   1      38.757  28.255  30.411  1.00  0.00     0.261 C 
BRANCH  39  40
ATOM     40  O   UNL A   1      39.882  29.086  30.673  1.00  0.00    -0.460 OA
BRANCH  40  41
ATOM     41  C   UNL A   1      40.621  29.466  29.616  1.00  0.00     0.338 C 
ATOM     42  O   UNL A   1      40.740  28.891  28.547  1.00  0.00    -0.246 OA
BRANCH  41  43
ATOM     43  C   UNL A   1      41.086  30.828  29.917  1.00  0.00     0.060 A 
ATOM     44  C   UNL A   1      42.459  31.080  29.818  1.00  0.00     0.016 A 
ATOM     45  C   UNL A   1      40.177  31.856  30.190  1.00  0.00     0.016 A 
ATOM     46  C   UNL A   1      42.937  32.365  30.031  1.00  0.00     0.010 A 
ATOM     47  C   UNL A   1      40.660  33.135  30.449  1.00  0.00     0.010 A 
ATOM     48  C   UNL A   1      42.044  33.374  30.410  1.00  0.00    -0.014 A 
BRANCH  48  49
ATOM     49  C   UNL A   1      42.595  34.588  31.038  1.00  0.00     0.031 A 
ATOM     50  C   UNL A   1      42.824  34.540  32.521  1.00  0.00     0.074 A 
ATOM     51  C   UNL A   1      42.915  35.661  30.299  1.00  0.00     0.049 A 
ATOM     52  N   UNL A   1      43.279  35.463  33.322  1.00  0.00    -0.248 NA
ATOM     53  C   UNL A   1      42.495  33.269  33.195  1.00  0.00     0.031 C 
ATOM     54  C   UNL A   1      42.765  35.762  28.847  1.00  0.00     0.029 A 
ATOM     55  N   UNL A   1      43.427  36.874  30.672  1.00  0.00    -0.354 N 
ATOM     56  C   UNL A   1      43.290  34.888  34.587  1.00  0.00     0.074 A 
ATOM     57  C   UNL A   1      42.766  33.548  34.459  1.00  0.00     0.031 C 
ATOM     58  C   UNL A   1      43.161  36.985  28.454  1.00  0.00     0.029 A 
ATOM     59  C   UNL A   1      43.559  37.756  29.628  1.00  0.00     0.049 A 
ATOM     60  H   UNL A   1      43.676  37.093  31.599  1.00  0.00     0.167 HD
ATOM     61  C   UNL A   1      43.708  35.435  35.750  1.00  0.00     0.037 A 
ATOM     62  C   UNL A   1      43.938  39.049  29.641  1.00  0.00     0.037 A 
ATOM     63  C   UNL A   1      44.202  36.781  35.845  1.00  0.00     0.049 A 
ATOM     64  C   UNL A   1      44.325  39.664  30.963  1.00  0.00     0.074 A 
ATOM     65  C   UNL A   1      44.648  37.460  36.962  1.00  0.00     0.029 A 
ATOM     66  N   UNL A   1      44.302  37.657  34.771  1.00  0.00    -0.354 N 
ATOM     67  N   UNL A   1      44.349  39.111  32.154  1.00  0.00    -0.248 NA
ATOM     68  C   UNL A   1      44.746  41.070  30.944  1.00  0.00     0.031 C 
ATOM     69  C   UNL A   1      44.964  38.766  36.573  1.00  0.00     0.029 A 
ATOM     70  C   UNL A   1      44.784  38.879  35.203  1.00  0.00     0.049 A 
ATOM     71  H   UNL A   1      44.066  37.440  33.841  1.00  0.00     0.167 HD
ATOM     72  C   UNL A   1      44.824  40.088  33.022  1.00  0.00     0.074 A 
ATOM     73  C   UNL A   1      45.077  41.266  32.214  1.00  0.00     0.031 C 
ATOM     74  C   UNL A   1      45.040  40.022  34.360  1.00  0.00     0.037 A 
BRANCH  61  75
ATOM     75  C   UNL A   1      43.609  34.597  36.995  1.00  0.00     0.058 A 
ATOM     76  C   UNL A   1      42.517  34.699  37.874  1.00  0.00     0.135 A 
ATOM     77  C   UNL A   1      44.613  33.668  37.308  1.00  0.00     0.135 A 
ATOM     78  F   UNL A   1      41.541  35.591  37.642  1.00  0.00    -0.206 F 
ATOM     79  C   UNL A   1      42.435  33.923  39.027  1.00  0.00     0.059 A 
ATOM     80  C   UNL A   1      44.538  32.861  38.440  1.00  0.00     0.059 A 
ATOM     81  F   UNL A   1      45.687  33.540  36.513  1.00  0.00    -0.206 F 
ATOM     82  C   UNL A   1      43.449  33.003  39.299  1.00  0.00     0.060 A 
BRANCH  82  83
ATOM     83  S   UNL A   1      43.319  31.992  40.789  1.00  0.00     0.124 S 
ATOM     84  O   UNL A   1      44.249  30.908  40.489  1.00  0.00    -0.237 OA
ATOM     85  O   UNL A   1      43.745  32.921  41.831  1.00  0.00    -0.237 OA
ATOM     86  O   UNL A   1      41.909  31.617  40.825  1.00  0.00    -0.744 OA
ENDBRANCH  82  83
ENDBRANCH  61  75
BRANCH  62  87
ATOM     87  C   UNL A   1      43.962  39.834  28.378  1.00  0.00     0.058 A 
ATOM     88  C   UNL A   1      45.159  40.062  27.686  1.00  0.00     0.135 A 
ATOM     89  C   UNL A   1      42.782  40.365  27.830  1.00  0.00     0.135 A 
ATOM     90  F   UNL A   1      46.315  39.579  28.167  1.00  0.00    -0.206 F 
ATOM     91  C   UNL A   1      45.193  40.801  26.506  1.00  0.00     0.059 A 
ATOM     92  C   UNL A   1      42.785  41.084  26.639  1.00  0.00     0.059 A 
ATOM     93  F   UNL A   1      41.606  40.166  28.445  1.00  0.00    -0.206 F 
ATOM     94  C   UNL A   1      43.998  41.307  25.990  1.00  0.00     0.060 A 
BRANCH  94  95
ATOM     95  S   UNL A   1      44.051  42.234  24.441  1.00  0.00     0.124 S 
ATOM     96  O   UNL A   1      44.117  43.609  24.924  1.00  0.00    -0.237 OA
ATOM     97  O   UNL A   1      45.264  41.718  23.816  1.00  0.00    -0.237 OA
ATOM     98  O   UNL A   1      42.804  41.858  23.780  1.00  0.00    -0.744 OA
ENDBRANCH  94  95
ENDBRANCH  62  87
BRANCH  74  99
ATOM     99  C   UNL A   1      45.634  41.232  35.023  1.00  0.00     0.058 A 
ATOM    100  C   UNL A   1      44.836  42.255  35.556  1.00  0.00     0.135 A 
ATOM    101  C   UNL A   1      47.026  41.322  35.196  1.00  0.00     0.135 A 
ATOM    102  F   UNL A   1      43.502  42.217  35.412  1.00  0.00    -0.206 F 
ATOM    103  C   UNL A   1      45.400  43.339  36.220  1.00  0.00     0.059 A 
ATOM    104  C   UNL A   1      47.607  42.379  35.887  1.00  0.00     0.059 A 
ATOM    105  F   UNL A   1      47.831  40.361  34.716  1.00  0.00    -0.206 F 
ATOM    106  C   UNL A   1      46.786  43.387  36.387  1.00  0.00     0.060 A 
BRANCH 106 107
ATOM    107  S   UNL A   1      47.497  44.774  37.296  1.00  0.00     0.124 S 
ATOM    108  O   UNL A   1      46.325  45.311  37.977  1.00  0.00    -0.237 OA
ATOM    109  O   UNL A   1      48.481  44.114  38.149  1.00  0.00    -0.237 OA
ATOM    110  O   UNL A   1      48.055  45.619  36.244  1.00  0.00    -0.744 OA
ENDBRANCH 106 107
ENDBRANCH  74  99
ENDBRANCH  48  49
ENDBRANCH  41  43
ENDBRANCH  40  41
ENDBRANCH  39  40
ENDBRANCH  38  39
ENDBRANCH  37  38
ENDBRANCH  36  37
ENDBRANCH  35  36
ENDBRANCH  34  35
ENDBRANCH   1  34
TORSDOF 29
ENDMDL
MODEL 2
REMARK VINA RESULT:      -8.7      6.607     12.272
REMARK SMILES COc1ccccc1Nc1nc(OCC(=O)OCCOCCOCCOCCOC(=O)c2ccc(-c3c4nc(c(-c5c(F)cc(S(=O)(=O)[O-])cc5F)c5ccc([nH]5)c(-c5c(F)cc(S(=O)(=O)[O-])cc5F)c5nc(c(-c6c(F)cc(S(=O)(=O)[O-])cc6F)c6ccc3[nH]6)C=C5)C=C4)cc2)cc(-c2ccc(C)cc2)n1
REMARK SMILES IDX 22 1 21 2 20 3 19 4 18 5 17 6 15 7 16 8 14 9 13 10 12 11
REMARK SMILES IDX 10 12 11 13 107 14 99 15 98 16 9 17 8 19 3 20 4 21 5 22 7 23
REMARK SMILES IDX 6 24 2 25 1 26 100 27 101 28 106 29 102 30 105 31 103 32
REMARK SMILES IDX 104 33 23 34 24 35 25 36 26 37 27 38 28 39 29 40 30 41 31 42
REMARK SMILES IDX 32 43 33 44 97 45 34 46 96 47 35 48 36 49 37 50 90 51 38 52
REMARK SMILES IDX 95 53 89 54 91 55 39 56 94 57 88 58 87 59 40 61 74 62 53 63
REMARK SMILES IDX 73 64 54 65 57 66 72 67 92 68 55 69 56 70 71 72 93 73 58 74
REMARK SMILES IDX 41 75 42 76 51 77 43 78 44 79 50 80 52 81 45 82 46 83 47 84
REMARK SMILES IDX 48 85 49 86 75 87 76 88 85 89 77 90 78 91 84 92 86 93 79 94
REMARK SMILES IDX 80 95 81 96 82 97 83 98 59 99 60 100 69 101 61 102 62 103
REMARK SMILES IDX 68 104 70 105 63 106 64 107 65 108 66 109 67 110
REMARK H PARENT 9 18 91 60 57 71
REMARK Flexibility Score: inf
ROOT
ATOM      1  C   UNL A   1      34.938  33.107  29.580  1.00  0.00     0.188 C 
ENDROOT
BRANCH   1   2
ATOM      2  C   UNL A   1      33.981  33.133  28.370  1.00  0.00     0.188 C 
BRANCH   2   3
ATOM      3  O   UNL A   1      33.492  31.961  27.737  1.00  0.00    -0.376 OA
BRANCH   3   4
ATOM      4  C   UNL A   1      32.309  32.074  26.969  1.00  0.00     0.202 C 
BRANCH   4   5
ATOM      5  C   UNL A   1      31.739  30.787  26.340  1.00  0.00     0.261 C 
BRANCH   5   6
ATOM      6  O   UNL A   1      32.713  29.873  25.774  1.00  0.00    -0.461 OA
BRANCH   6   7
ATOM      7  C   UNL A   1      33.234  28.922  26.593  1.00  0.00     0.344 C 
ATOM      8  O   UNL A   1      34.420  28.607  26.612  1.00  0.00    -0.248 OA
BRANCH   7   9
ATOM      9  C   UNL A   1      32.190  28.252  27.542  1.00  0.00     0.353 C 
BRANCH   9  10
ATOM     10  O   UNL A   1      31.584  26.985  27.325  1.00  0.00    -0.466 OA
BRANCH  10  11
ATOM     11  C   UNL A   1      31.608  26.317  26.125  1.00  0.00     0.219 A 
ATOM     12  C   UNL A   1      30.296  25.907  24.246  1.00  0.00     0.231 A 
ATOM     13  N   UNL A   1      30.582  26.663  25.325  1.00  0.00    -0.177 NA
ATOM     14  N   UNL A   1      30.990  24.803  23.933  1.00  0.00    -0.212 NA
ATOM     15  C   UNL A   1      32.055  24.483  24.721  1.00  0.00     0.080 A 
ATOM     16  C   UNL A   1      32.440  25.277  25.799  1.00  0.00     0.097 A 
BRANCH  12  17
ATOM     17  N   UNL A   1      29.231  26.390  23.473  1.00  0.00    -0.321 N 
ATOM     18  H   UNL A   1      28.743  25.671  23.010  1.00  0.00     0.170 HD
BRANCH  17  19
ATOM     19  C   UNL A   1      28.693  27.668  23.205  1.00  0.00     0.083 A 
ATOM     20  C   UNL A   1      29.512  28.636  22.586  1.00  0.00     0.142 A 
ATOM     21  C   UNL A   1      29.171  29.992  22.537  1.00  0.00     0.048 A 
ATOM     22  C   UNL A   1      27.931  30.396  23.010  1.00  0.00     0.004 A 
ATOM     23  C   UNL A   1      27.398  28.071  23.498  1.00  0.00     0.030 A 
ATOM     24  C   UNL A   1      27.026  29.428  23.443  1.00  0.00     0.002 A 
BRANCH  20  25
ATOM     25  O   UNL A   1      30.688  28.268  21.972  1.00  0.00    -0.495 OA
ATOM     26  C   UNL A   1      31.780  28.891  22.664  1.00  0.00     0.278 C 
ENDBRANCH  20  25
ENDBRANCH  17  19
ENDBRANCH  12  17
BRANCH  15  27
ATOM     27  C   UNL A   1      32.637  23.125  24.501  1.00  0.00     0.000 A 
ATOM     28  C   UNL A   1      31.935  22.103  23.842  1.00  0.00     0.010 A 
ATOM     29  C   UNL A   1      33.879  22.764  25.061  1.00  0.00     0.010 A 
ATOM     30  C   UNL A   1      32.407  20.776  23.833  1.00  0.00     0.004 A 
ATOM     31  C   UNL A   1      34.325  21.439  25.106  1.00  0.00     0.004 A 
ATOM     32  C   UNL A   1      33.573  20.425  24.520  1.00  0.00    -0.051 A 
ATOM     33  C   UNL A   1      34.039  19.002  24.617  1.00  0.00     0.044 C 
ENDBRANCH  15  27
ENDBRANCH  10  11
ENDBRANCH   9  10
ENDBRANCH   7   9
ENDBRANCH   6   7
ENDBRANCH   5   6
ENDBRANCH   4   5
ENDBRANCH   3   4
ENDBRANCH   2   3
ENDBRANCH   1   2
BRANCH   1  34
ATOM     34  O   UNL A   1      35.593  34.343  29.815  1.00  0.00    -0.377 OA
BRANCH  34  35
ATOM     35  C   UNL A   1      36.448  34.318  30.944  1.00  0.00     0.188 C 
BRANCH  35  36
ATOM     36  C   UNL A   1      35.893  33.574  32.175  1.00  0.00     0.188 C 
BRANCH  36  37
ATOM     37  O   UNL A   1      35.976  32.162  32.073  1.00  0.00    -0.376 OA
BRANCH  37  38
ATOM     38  C   UNL A   1      36.484  31.415  33.160  1.00  0.00     0.202 C 
BRANCH  38  39
ATOM     39  C   UNL A   1      37.685  30.526  32.876  1.00  0.00     0.261 C 
BRANCH  39  40
ATOM     40  O   UNL A   1      37.395  29.254  32.309  1.00  0.00    -0.460 OA
BRANCH  40  41
ATOM     41  C   UNL A   1      37.122  29.217  30.994  1.00  0.00     0.338 C 
ATOM     42  O   UNL A   1      36.100  29.580  30.436  1.00  0.00    -0.246 OA
BRANCH  41  43
ATOM     43  C   UNL A   1      38.384  28.860  30.329  1.00  0.00     0.060 A 
ATOM     44  C   UNL A   1      39.345  28.181  31.086  1.00  0.00     0.016 A 
ATOM     45  C   UNL A   1      38.572  29.100  28.964  1.00  0.00     0.016 A 
ATOM     46  C   UNL A   1      40.525  27.769  30.485  1.00  0.00     0.010 A 
ATOM     47  C   UNL A   1      39.775  28.727  28.371  1.00  0.00     0.010 A 
ATOM     48  C   UNL A   1      40.765  28.100  29.146  1.00  0.00    -0.014 A 
BRANCH  48  49
ATOM     49  C   UNL A   1      42.153  28.044  28.656  1.00  0.00     0.031 A 
ATOM     50  C   UNL A   1      42.991  29.275  28.849  1.00  0.00     0.074 A 
ATOM     51  C   UNL A   1      42.644  26.923  28.105  1.00  0.00     0.049 A 
ATOM     52  N   UNL A   1      44.227  29.501  28.501  1.00  0.00    -0.248 NA
ATOM     53  C   UNL A   1      42.343  30.409  29.535  1.00  0.00     0.031 C 
ATOM     54  C   UNL A   1      41.903  25.674  27.929  1.00  0.00     0.029 A 
ATOM     55  N   UNL A   1      43.883  26.659  27.589  1.00  0.00    -0.354 N 
ATOM     56  C   UNL A   1      44.502  30.797  28.923  1.00  0.00     0.074 A 
ATOM     57  C   UNL A   1      43.299  31.323  29.524  1.00  0.00     0.031 C 
ATOM     58  C   UNL A   1      42.701  24.778  27.324  1.00  0.00     0.029 A 
ATOM     59  C   UNL A   1      43.992  25.401  27.045  1.00  0.00     0.049 A 
ATOM     60  H   UNL A   1      44.624  27.306  27.604  1.00  0.00     0.167 HD
ATOM     61  C   UNL A   1      45.664  31.480  28.819  1.00  0.00     0.037 A 
ATOM     62  C   UNL A   1      45.020  24.843  26.378  1.00  0.00     0.037 A 
ATOM     63  C   UNL A   1      46.837  30.933  28.194  1.00  0.00     0.049 A 
ATOM     64  C   UNL A   1      46.281  25.652  26.205  1.00  0.00     0.074 A 
ATOM     65  C   UNL A   1      48.073  31.523  28.015  1.00  0.00     0.029 A 
ATOM     66  N   UNL A   1      46.907  29.664  27.633  1.00  0.00    -0.354 N 
ATOM     67  N   UNL A   1      46.541  26.872  26.619  1.00  0.00    -0.248 NA
ATOM     68  C   UNL A   1      47.388  25.012  25.485  1.00  0.00     0.031 C 
ATOM     69  C   UNL A   1      48.874  30.630  27.295  1.00  0.00     0.029 A 
ATOM     70  C   UNL A   1      48.160  29.458  27.088  1.00  0.00     0.049 A 
ATOM     71  H   UNL A   1      46.173  29.009  27.625  1.00  0.00     0.167 HD
ATOM     72  C   UNL A   1      47.855  27.131  26.245  1.00  0.00     0.074 A 
ATOM     73  C   UNL A   1      48.334  25.938  25.574  1.00  0.00     0.031 C 
ATOM     74  C   UNL A   1      48.604  28.246  26.443  1.00  0.00     0.037 A 
BRANCH  61  75
ATOM     75  C   UNL A   1      45.701  32.886  29.354  1.00  0.00     0.058 A 
ATOM     76  C   UNL A   1      45.231  33.978  28.604  1.00  0.00     0.135 A 
ATOM     77  C   UNL A   1      46.200  33.144  30.640  1.00  0.00     0.135 A 
ATOM     78  F   UNL A   1      44.771  33.796  27.357  1.00  0.00    -0.206 F 
ATOM     79  C   UNL A   1      45.274  35.277  29.104  1.00  0.00     0.059 A 
ATOM     80  C   UNL A   1      46.224  34.431  31.171  1.00  0.00     0.059 A 
ATOM     81  F   UNL A   1      46.676  32.142  31.394  1.00  0.00    -0.206 F 
ATOM     82  C   UNL A   1      45.768  35.492  30.391  1.00  0.00     0.060 A 
BRANCH  82  83
ATOM     83  S   UNL A   1      45.799  37.180  31.031  1.00  0.00     0.124 S 
ATOM     84  O   UNL A   1      45.981  36.947  32.460  1.00  0.00    -0.237 OA
ATOM     85  O   UNL A   1      46.945  37.755  30.333  1.00  0.00    -0.237 OA
ATOM     86  O   UNL A   1      44.499  37.716  30.644  1.00  0.00    -0.744 OA
ENDBRANCH  82  83
ENDBRANCH  61  75
BRANCH  62  87
ATOM     87  C   UNL A   1      44.895  23.466  25.829  1.00  0.00     0.058 A 
ATOM     88  C   UNL A   1      44.033  23.185  24.759  1.00  0.00     0.135 A 
ATOM     89  C   UNL A   1      45.644  22.401  26.358  1.00  0.00     0.135 A 
ATOM     90  F   UNL A   1      43.293  24.165  24.219  1.00  0.00    -0.206 F 
ATOM     91  C   UNL A   1      43.904  21.898  24.244  1.00  0.00     0.059 A 
ATOM     92  C   UNL A   1      45.553  21.112  25.843  1.00  0.00     0.059 A 
ATOM     93  F   UNL A   1      46.493  22.617  27.375  1.00  0.00    -0.206 F 
ATOM     94  C   UNL A   1      44.671  20.868  24.792  1.00  0.00     0.060 A 
BRANCH  94  95
ATOM     95  S   UNL A   1      44.519  19.210  24.092  1.00  0.00     0.124 S 
ATOM     96  O   UNL A   1      44.403  19.502  22.668  1.00  0.00    -0.237 OA
ATOM     97  O   UNL A   1      45.767  18.584  24.516  1.00  0.00    -0.237 OA
ATOM     98  O   UNL A   1      43.314  18.685  24.728  1.00  0.00    -0.744 OA
ENDBRANCH  94  95
ENDBRANCH  62  87
BRANCH  74  99
ATOM     99  C   UNL A   1      50.034  28.207  25.985  1.00  0.00     0.058 A 
ATOM    100  C   UNL A   1      50.386  28.354  24.636  1.00  0.00     0.135 A 
ATOM    101  C   UNL A   1      51.068  28.101  26.930  1.00  0.00     0.135 A 
ATOM    102  F   UNL A   1      49.435  28.453  23.695  1.00  0.00    -0.206 F 
ATOM    103  C   UNL A   1      51.718  28.375  24.236  1.00  0.00     0.059 A 
ATOM    104  C   UNL A   1      52.406  28.155  26.556  1.00  0.00     0.059 A 
ATOM    105  F   UNL A   1      50.781  27.972  28.236  1.00  0.00    -0.206 F 
ATOM    106  C   UNL A   1      52.720  28.284  25.205  1.00  0.00     0.060 A 
BRANCH 106 107
ATOM    107  S   UNL A   1      54.442  28.366  24.675  1.00  0.00     0.124 S 
ATOM    108  O   UNL A   1      54.449  29.592  23.884  1.00  0.00    -0.237 OA
ATOM    109  O   UNL A   1      55.156  28.426  25.947  1.00  0.00    -0.237 OA
ATOM    110  O   UNL A   1      54.625  27.130  23.918  1.00  0.00    -0.744 OA
ENDBRANCH 106 107
ENDBRANCH  74  99
ENDBRANCH  48  49
ENDBRANCH  41  43
ENDBRANCH  40  41
ENDBRANCH  39  40
ENDBRANCH  38  39
ENDBRANCH  37  38
ENDBRANCH  36  37
ENDBRANCH  35  36
ENDBRANCH  34  35
ENDBRANCH   1  34
TORSDOF 29
ENDMDL
MODEL 3
REMARK VINA RESULT:      -8.2      8.489     11.170
REMARK SMILES COc1ccccc1Nc1nc(OCC(=O)OCCOCCOCCOCCOC(=O)c2ccc(-c3c4nc(c(-c5c(F)cc(S(=O)(=O)[O-])cc5F)c5ccc([nH]5)c(-c5c(F)cc(S(=O)(=O)[O-])cc5F)c5nc(c(-c6c(F)cc(S(=O)(=O)[O-])cc6F)c6ccc3[nH]6)C=C5)C=C4)cc2)cc(-c2ccc(C)cc2)n1
REMARK SMILES IDX 22 1 21 2 20 3 19 4 18 5 17 6 15 7 16 8 14 9 13 10 12 11
REMARK SMILES IDX 10 12 11 13 107 14 99 15 98 16 9 17 8 19 3 20 4 21 5 22 7 23
REMARK SMILES IDX 6 24 2 25 1 26 100 27 101 28 106 29 102 30 105 31 103 32
REMARK SMILES IDX 104 33 23 34 24 35 25 36 26 37 27 38 28 39 29 40 30 41 31 42
REMARK SMILES IDX 32 43 33 44 97 45 34 46 96 47 35 48 36 49 37 50 90 51 38 52
REMARK SMILES IDX 95 53 89 54 91 55 39 56 94 57 88 58 87 59 40 61 74 62 53 63
REMARK SMILES IDX 73 64 54 65 57 66 72 67 92 68 55 69 56 70 71 72 93 73 58 74
REMARK SMILES IDX 41 75 42 76 51 77 43 78 44 79 50 80 52 81 45 82 46 83 47 84
REMARK SMILES IDX 48 85 49 86 75 87 76 88 85 89 77 90 78 91 84 92 86 93 79 94
REMARK SMILES IDX 80 95 81 96 82 97 83 98 59 99 60 100 69 101 61 102 62 103
REMARK SMILES IDX 68 104 70 105 63 106 64 107 65 108 66 109 67 110
REMARK H PARENT 9 18 91 60 57 71
REMARK Flexibility Score: inf
ROOT
ATOM      1  C   UNL A   1      34.133  30.829  28.395  1.00  0.00     0.188 C 
ENDROOT
BRANCH   1   2
ATOM      2  C   UNL A   1      34.221  30.302  26.948  1.00  0.00     0.188 C 
BRANCH   2   3
ATOM      3  O   UNL A   1      34.629  28.982  26.623  1.00  0.00    -0.376 OA
BRANCH   3   4
ATOM      4  C   UNL A   1      33.617  28.026  26.369  1.00  0.00     0.202 C 
BRANCH   4   5
ATOM      5  C   UNL A   1      34.006  26.770  25.563  1.00  0.00     0.261 C 
BRANCH   5   6
ATOM      6  O   UNL A   1      33.324  25.544  25.931  1.00  0.00    -0.461 OA
BRANCH   6   7
ATOM      7  C   UNL A   1      32.500  24.980  25.010  1.00  0.00     0.344 C 
ATOM      8  O   UNL A   1      31.283  25.138  24.988  1.00  0.00    -0.248 OA
BRANCH   7   9
ATOM      9  C   UNL A   1      33.234  24.105  23.944  1.00  0.00     0.353 C 
BRANCH   9  10
ATOM     10  O   UNL A   1      34.634  24.117  23.701  1.00  0.00    -0.466 OA
BRANCH  10  11
ATOM     11  C   UNL A   1      35.512  23.199  24.222  1.00  0.00     0.219 A 
ATOM     12  C   UNL A   1      35.566  21.097  25.221  1.00  0.00     0.231 A 
ATOM     13  N   UNL A   1      34.932  22.008  24.456  1.00  0.00    -0.177 NA
ATOM     14  N   UNL A   1      36.765  21.329  25.776  1.00  0.00    -0.212 NA
ATOM     15  C   UNL A   1      37.368  22.519  25.499  1.00  0.00     0.080 A 
ATOM     16  C   UNL A   1      36.790  23.460  24.650  1.00  0.00     0.097 A 
BRANCH  12  17
ATOM     17  N   UNL A   1      34.876  19.884  25.360  1.00  0.00    -0.321 N 
ATOM     18  H   UNL A   1      35.018  19.468  26.240  1.00  0.00     0.170 HD
BRANCH  17  19
ATOM     19  C   UNL A   1      34.024  19.122  24.532  1.00  0.00     0.083 A 
ATOM     20  C   UNL A   1      34.407  17.807  24.186  1.00  0.00     0.142 A 
ATOM     21  C   UNL A   1      33.784  17.086  23.162  1.00  0.00     0.048 A 
ATOM     22  C   UNL A   1      32.673  17.626  22.531  1.00  0.00     0.004 A 
ATOM     23  C   UNL A   1      32.811  19.552  24.015  1.00  0.00     0.030 A 
ATOM     24  C   UNL A   1      32.158  18.836  22.993  1.00  0.00     0.002 A 
BRANCH  20  25
ATOM     25  O   UNL A   1      35.411  17.167  24.877  1.00  0.00    -0.495 OA
ATOM     26  C   UNL A   1      34.927  15.886  25.305  1.00  0.00     0.278 C 
ENDBRANCH  20  25
ENDBRANCH  17  19
ENDBRANCH  12  17
BRANCH  15  27
ATOM     27  C   UNL A   1      38.564  22.847  26.332  1.00  0.00     0.000 A 
ATOM     28  C   UNL A   1      38.795  24.134  26.843  1.00  0.00     0.010 A 
ATOM     29  C   UNL A   1      39.589  21.903  26.541  1.00  0.00     0.010 A 
ATOM     30  C   UNL A   1      40.024  24.478  27.440  1.00  0.00     0.004 A 
ATOM     31  C   UNL A   1      40.832  22.252  27.079  1.00  0.00     0.004 A 
ATOM     32  C   UNL A   1      41.073  23.556  27.503  1.00  0.00    -0.051 A 
ATOM     33  C   UNL A   1      42.426  23.927  28.034  1.00  0.00     0.044 C 
ENDBRANCH  15  27
ENDBRANCH  10  11
ENDBRANCH   9  10
ENDBRANCH   7   9
ENDBRANCH   6   7
ENDBRANCH   5   6
ENDBRANCH   4   5
ENDBRANCH   3   4
ENDBRANCH   2   3
ENDBRANCH   1   2
BRANCH   1  34
ATOM     34  O   UNL A   1      35.220  31.660  28.766  1.00  0.00    -0.377 OA
BRANCH  34  35
ATOM     35  C   UNL A   1      36.343  31.532  27.911  1.00  0.00     0.188 C 
BRANCH  35  36
ATOM     36  C   UNL A   1      37.653  31.107  28.604  1.00  0.00     0.188 C 
BRANCH  36  37
ATOM     37  O   UNL A   1      37.456  30.287  29.743  1.00  0.00    -0.376 OA
BRANCH  37  38
ATOM     38  C   UNL A   1      38.408  30.306  30.787  1.00  0.00     0.202 C 
BRANCH  38  39
ATOM     39  C   UNL A   1      39.565  29.326  30.675  1.00  0.00     0.261 C 
BRANCH  39  40
ATOM     40  O   UNL A   1      40.727  29.811  30.011  1.00  0.00    -0.460 OA
BRANCH  40  41
ATOM     41  C   UNL A   1      41.064  29.216  28.854  1.00  0.00     0.338 C 
ATOM     42  O   UNL A   1      40.392  29.130  27.840  1.00  0.00    -0.246 OA
BRANCH  41  43
ATOM     43  C   UNL A   1      42.491  28.883  28.972  1.00  0.00     0.060 A 
ATOM     44  C   UNL A   1      42.865  27.552  28.753  1.00  0.00     0.016 A 
ATOM     45  C   UNL A   1      43.448  29.879  29.191  1.00  0.00     0.016 A 
ATOM     46  C   UNL A   1      44.206  27.202  28.793  1.00  0.00     0.010 A 
ATOM     47  C   UNL A   1      44.791  29.521  29.276  1.00  0.00     0.010 A 
ATOM     48  C   UNL A   1      45.159  28.174  29.118  1.00  0.00    -0.014 A 
BRANCH  48  49
ATOM     49  C   UNL A   1      46.486  27.721  29.571  1.00  0.00     0.031 A 
ATOM     50  C   UNL A   1      46.622  27.364  31.023  1.00  0.00     0.074 A 
ATOM     51  C   UNL A   1      47.503  27.594  28.704  1.00  0.00     0.049 A 
ATOM     52  N   UNL A   1      47.670  26.957  31.684  1.00  0.00    -0.248 NA
ATOM     53  C   UNL A   1      45.402  27.483  31.844  1.00  0.00     0.031 C 
ATOM     54  C   UNL A   1      47.432  27.875  27.271  1.00  0.00     0.029 A 
ATOM     55  N   UNL A   1      48.797  27.200  28.909  1.00  0.00    -0.354 N 
ATOM     56  C   UNL A   1      47.237  26.772  32.992  1.00  0.00     0.074 A 
ATOM     57  C   UNL A   1      45.842  27.142  33.044  1.00  0.00     0.031 C 
ATOM     58  C   UNL A   1      48.642  27.662  26.726  1.00  0.00     0.029 A 
ATOM     59  C   UNL A   1      49.573  27.261  27.777  1.00  0.00     0.049 A 
ATOM     60  H   UNL A   1      49.140  26.903  29.782  1.00  0.00     0.167 HD
ATOM     61  C   UNL A   1      47.948  26.327  34.052  1.00  0.00     0.037 A 
ATOM     62  C   UNL A   1      50.894  27.039  27.630  1.00  0.00     0.037 A 
ATOM     63  C   UNL A   1      49.343  25.989  33.969  1.00  0.00     0.049 A 
ATOM     64  C   UNL A   1      51.684  26.618  28.843  1.00  0.00     0.074 A 
ATOM     65  C   UNL A   1      50.181  25.536  34.969  1.00  0.00     0.029 A 
ATOM     66  N   UNL A   1      50.105  26.084  32.811  1.00  0.00    -0.354 N 
ATOM     67  N   UNL A   1      51.267  26.430  30.074  1.00  0.00    -0.248 NA
ATOM     68  C   UNL A   1      53.118  26.370  28.649  1.00  0.00     0.031 C 
ATOM     69  C   UNL A   1      51.465  25.411  34.427  1.00  0.00     0.029 A 
ATOM     70  C   UNL A   1      51.411  25.717  33.075  1.00  0.00     0.049 A 
ATOM     71  H   UNL A   1      49.765  26.370  31.933  1.00  0.00     0.167 HD
ATOM     72  C   UNL A   1      52.378  26.004  30.794  1.00  0.00     0.074 A 
ATOM     73  C   UNL A   1      53.484  25.960  29.856  1.00  0.00     0.031 C 
ATOM     74  C   UNL A   1      52.479  25.670  32.106  1.00  0.00     0.037 A 
BRANCH  61  75
ATOM     75  C   UNL A   1      47.241  26.221  35.375  1.00  0.00     0.058 A 
ATOM     76  C   UNL A   1      47.071  27.333  36.217  1.00  0.00     0.135 A 
ATOM     77  C   UNL A   1      46.714  24.993  35.803  1.00  0.00     0.135 A 
ATOM     78  F   UNL A   1      47.580  28.527  35.874  1.00  0.00    -0.206 F 
ATOM     79  C   UNL A   1      46.420  27.226  37.444  1.00  0.00     0.059 A 
ATOM     80  C   UNL A   1      46.034  24.869  37.012  1.00  0.00     0.059 A 
ATOM     81  F   UNL A   1      46.861  23.894  35.048  1.00  0.00    -0.206 F 
ATOM     82  C   UNL A   1      45.902  25.990  37.830  1.00  0.00     0.060 A 
BRANCH  82  83
ATOM     83  S   UNL A   1      45.045  25.872  39.415  1.00  0.00     0.124 S 
ATOM     84  O   UNL A   1      44.905  24.428  39.565  1.00  0.00    -0.237 OA
ATOM     85  O   UNL A   1      45.987  26.515  40.325  1.00  0.00    -0.237 OA
ATOM     86  O   UNL A   1      43.801  26.601  39.186  1.00  0.00    -0.744 OA
ENDBRANCH  82  83
ENDBRANCH  61  75
BRANCH  62  87
ATOM     87  C   UNL A   1      51.537  27.214  26.300  1.00  0.00     0.058 A 
ATOM     88  C   UNL A   1      51.751  26.123  25.446  1.00  0.00     0.135 A 
ATOM     89  C   UNL A   1      51.944  28.482  25.851  1.00  0.00     0.135 A 
ATOM     90  F   UNL A   1      51.383  24.890  25.828  1.00  0.00    -0.206 F 
ATOM     91  C   UNL A   1      52.358  26.276  24.203  1.00  0.00     0.059 A 
ATOM     92  C   UNL A   1      52.528  28.665  24.602  1.00  0.00     0.059 A 
ATOM     93  F   UNL A   1      51.752  29.562  26.623  1.00  0.00    -0.206 F 
ATOM     94  C   UNL A   1      52.742  27.554  23.789  1.00  0.00     0.060 A 
BRANCH  94  95
ATOM     95  S   UNL A   1      53.499  27.743  22.160  1.00  0.00     0.124 S 
ATOM     96  O   UNL A   1      53.928  29.136  22.195  1.00  0.00    -0.237 OA
ATOM     97  O   UNL A   1      54.563  26.745  22.199  1.00  0.00    -0.237 OA
ATOM     98  O   UNL A   1      52.402  27.445  21.243  1.00  0.00    -0.744 OA
ENDBRANCH  94  95
ENDBRANCH  62  87
BRANCH  74  99
ATOM     99  C   UNL A   1      53.811  25.171  32.590  1.00  0.00     0.058 A 
ATOM    100  C   UNL A   1      54.093  23.802  32.709  1.00  0.00     0.135 A 
ATOM    101  C   UNL A   1      54.844  26.084  32.860  1.00  0.00     0.135 A 
ATOM    102  F   UNL A   1      53.138  22.891  32.468  1.00  0.00    -0.206 F 
ATOM    103  C   UNL A   1      55.350  23.356  33.102  1.00  0.00     0.059 A 
ATOM    104  C   UNL A   1      56.117  25.659  33.219  1.00  0.00     0.059 A 
ATOM    105  F   UNL A   1      54.626  27.404  32.747  1.00  0.00    -0.206 F 
ATOM    106  C   UNL A   1      56.357  24.292  33.346  1.00  0.00     0.060 A 
BRANCH 106 107
ATOM    107  S   UNL A   1      57.997  23.695  33.803  1.00  0.00     0.124 S 
ATOM    108  O   UNL A   1      58.708  24.945  34.048  1.00  0.00    -0.237 OA
ATOM    109  O   UNL A   1      57.714  22.883  34.983  1.00  0.00    -0.237 OA
ATOM    110  O   UNL A   1      58.428  22.948  32.625  1.00  0.00    -0.744 OA
ENDBRANCH 106 107
ENDBRANCH  74  99
ENDBRANCH  48  49
ENDBRANCH  41  43
ENDBRANCH  40  41
ENDBRANCH  39  40
ENDBRANCH  38  39
ENDBRANCH  37  38
ENDBRANCH  36  37
ENDBRANCH  35  36
ENDBRANCH  34  35
ENDBRANCH   1  34
TORSDOF 29
ENDMDL
