MODEL 1
REMARK VINA RESULT:      -8.4      0.000      0.000
REMARK SMILES COc1cc(/C=N/NC(=O)c2cc(Cl)ccc2O)ccc1OCC(=O)OCCOCCOCCOCCOC(=O)c1ccc(-c2c3nc(c(-c4c(F)cc(S(=O)(=O)[O-])cc4F)c4ccc([nH]4)c(-c4c(F)cc(S(=O)(=O)[O-])cc4F)c4nc(c(-c5c(F)cc(S(=O)(=O)[O-])cc5F)c5ccc2[nH]5)C=C4)C=C3)cc1
REMARK SMILES IDX 30 1 29 2 28 3 27 4 26 5 24 6 25 7 23 8 22 9 21 10 3 11 4 12
REMARK SMILES IDX 5 13 20 14 19 15 2 16 1 17 6 18 7 19 8 20 9 21 10 23 11 24
REMARK SMILES IDX 12 25 17 26 13 27 16 28 14 29 15 30 18 31 31 33 32 34 33 35
REMARK SMILES IDX 34 36 35 37 36 38 37 39 38 40 39 41 40 42 41 43 42 44 106 45
REMARK SMILES IDX 43 46 105 47 44 48 45 49 46 50 99 51 47 52 104 53 98 54
REMARK SMILES IDX 100 55 48 56 103 57 97 58 96 59 49 61 83 62 62 63 82 64
REMARK SMILES IDX 63 65 66 66 81 67 101 68 64 69 65 70 80 72 102 73 67 74
REMARK SMILES IDX 50 75 51 76 60 77 52 78 53 79 59 80 61 81 54 82 55 83 56 84
REMARK SMILES IDX 57 85 58 86 84 87 85 88 94 89 86 90 87 91 93 92 95 93 88 94
REMARK SMILES IDX 89 95 90 96 91 97 92 98 68 99 69 100 78 101 70 102 71 103
REMARK SMILES IDX 77 104 79 105 72 106 73 107 74 108 75 109 76 110
REMARK H PARENT 8 22 18 32 100 60 66 71
REMARK Flexibility Score: inf
ROOT
ATOM      1  C   UNL A   1      34.402  22.735  25.633  1.00  0.00     0.188 C 
ENDROOT
BRANCH   1   2
ATOM      2  O   UNL A   1      33.826  21.545  26.141  1.00  0.00    -0.376 OA
BRANCH   2   3
ATOM      3  C   UNL A   1      32.727  20.989  25.436  1.00  0.00     0.202 C 
BRANCH   3   4
ATOM      4  C   UNL A   1      31.562  21.924  25.071  1.00  0.00     0.261 C 
BRANCH   4   5
ATOM      5  O   UNL A   1      30.434  21.921  25.979  1.00  0.00    -0.461 OA
BRANCH   5   6
ATOM      6  C   UNL A   1      30.280  22.973  26.822  1.00  0.00     0.344 C 
ATOM      7  O   UNL A   1      29.497  22.980  27.765  1.00  0.00    -0.248 OA
BRANCH   6   8
ATOM      8  C   UNL A   1      31.160  24.182  26.425  1.00  0.00     0.352 C 
BRANCH   8   9
ATOM      9  O   UNL A   1      30.676  25.370  25.836  1.00  0.00    -0.478 OA
BRANCH   9  10
ATOM     10  C   UNL A   1      31.367  26.536  25.693  1.00  0.00     0.162 A 
ATOM     11  C   UNL A   1      31.048  27.727  25.027  1.00  0.00     0.161 A 
ATOM     12  C   UNL A   1      31.859  28.884  25.204  1.00  0.00     0.060 A 
ATOM     13  C   UNL A   1      33.012  28.821  26.002  1.00  0.00    -0.002 A 
ATOM     14  C   UNL A   1      32.597  26.471  26.370  1.00  0.00     0.051 A 
ATOM     15  C   UNL A   1      33.413  27.593  26.526  1.00  0.00     0.014 A 
BRANCH  11  16
ATOM     16  O   UNL A   1      30.138  27.726  24.002  1.00  0.00    -0.493 OA
ATOM     17  C   UNL A   1      30.413  28.617  22.928  1.00  0.00     0.278 C 
ENDBRANCH  11  16
BRANCH  13  18
ATOM     18  C   UNL A   1      33.827  29.989  26.430  1.00  0.00     0.141 C 
ATOM     19  N   UNL A   1      34.066  30.335  27.656  1.00  0.00    -0.180 NA
BRANCH  19  20
ATOM     20  N   UNL A   1      34.887  31.419  27.906  1.00  0.00    -0.243 N 
ATOM     21  C   UNL A   1      36.156  31.560  28.456  1.00  0.00     0.275 C 
ATOM     22  H   UNL A   1      34.486  32.277  27.635  1.00  0.00     0.194 HD
ATOM     23  O   UNL A   1      36.583  32.686  28.713  1.00  0.00    -0.267 OA
BRANCH  21  24
ATOM     24  C   UNL A   1      37.042  30.404  28.712  1.00  0.00     0.084 A 
ATOM     25  C   UNL A   1      38.071  30.158  27.787  1.00  0.00     0.038 A 
ATOM     26  C   UNL A   1      36.892  29.556  29.814  1.00  0.00     0.128 A 
ATOM     27  C   UNL A   1      38.991  29.138  28.030  1.00  0.00     0.042 A 
ATOM     28  C   UNL A   1      37.825  28.551  30.060  1.00  0.00     0.048 A 
ATOM     29  Cl  UNL A   1      40.273  28.856  26.920  1.00  0.00    -0.084 Cl
ATOM     30  C   UNL A   1      38.888  28.353  29.177  1.00  0.00     0.024 A 
BRANCH  26  31
ATOM     31  O   UNL A   1      35.871  29.665  30.717  1.00  0.00    -0.507 OA
ATOM     32  H   UNL A   1      35.209  30.317  30.600  1.00  0.00     0.293 HD
ENDBRANCH  26  31
ENDBRANCH  21  24
ENDBRANCH  19  20
ENDBRANCH  13  18
ENDBRANCH   9  10
ENDBRANCH   8   9
ENDBRANCH   6   8
ENDBRANCH   5   6
ENDBRANCH   4   5
ENDBRANCH   3   4
ENDBRANCH   2   3
ENDBRANCH   1   2
BRANCH   1  33
ATOM     33  C   UNL A   1      34.908  22.626  24.181  1.00  0.00     0.188 C 
BRANCH  33  34
ATOM     34  O   UNL A   1      36.255  22.316  23.851  1.00  0.00    -0.377 OA
BRANCH  34  35
ATOM     35  C   UNL A   1      36.952  21.441  24.711  1.00  0.00     0.188 C 
BRANCH  35  36
ATOM     36  C   UNL A   1      38.049  22.145  25.530  1.00  0.00     0.188 C 
BRANCH  36  37
ATOM     37  O   UNL A   1      39.294  21.448  25.559  1.00  0.00    -0.376 OA
BRANCH  37  38
ATOM     38  C   UNL A   1      40.004  21.461  26.792  1.00  0.00     0.202 C 
BRANCH  38  39
ATOM     39  C   UNL A   1      40.829  20.206  27.098  1.00  0.00     0.261 C 
BRANCH  39  40
ATOM     40  O   UNL A   1      42.230  20.389  27.282  1.00  0.00    -0.460 OA
BRANCH  40  41
ATOM     41  C   UNL A   1      42.929  20.891  26.245  1.00  0.00     0.338 C 
ATOM     42  O   UNL A   1      42.964  20.476  25.108  1.00  0.00    -0.246 OA
BRANCH  41  43
ATOM     43  C   UNL A   1      43.441  22.191  26.713  1.00  0.00     0.060 A 
ATOM     44  C   UNL A   1      43.529  23.230  25.783  1.00  0.00     0.016 A 
ATOM     45  C   UNL A   1      43.731  22.403  28.067  1.00  0.00     0.016 A 
ATOM     46  C   UNL A   1      43.911  24.495  26.207  1.00  0.00     0.010 A 
ATOM     47  C   UNL A   1      44.146  23.664  28.486  1.00  0.00     0.010 A 
ATOM     48  C   UNL A   1      44.261  24.701  27.549  1.00  0.00    -0.014 A 
BRANCH  48  49
ATOM     49  C   UNL A   1      44.985  25.940  27.884  1.00  0.00     0.031 A 
ATOM     50  C   UNL A   1      44.233  26.979  28.664  1.00  0.00     0.074 A 
ATOM     51  C   UNL A   1      46.286  26.083  27.586  1.00  0.00     0.049 A 
ATOM     52  N   UNL A   1      44.664  28.091  29.192  1.00  0.00    -0.248 NA
ATOM     53  C   UNL A   1      42.800  26.718  28.891  1.00  0.00     0.031 C 
ATOM     54  C   UNL A   1      47.098  25.112  26.853  1.00  0.00     0.029 A 
ATOM     55  N   UNL A   1      47.156  27.099  27.878  1.00  0.00    -0.354 N 
ATOM     56  C   UNL A   1      43.564  28.650  29.830  1.00  0.00     0.074 A 
ATOM     57  C   UNL A   1      42.435  27.782  29.588  1.00  0.00     0.031 C 
ATOM     58  C   UNL A   1      48.355  25.581  26.757  1.00  0.00     0.029 A 
ATOM     59  C   UNL A   1      48.430  26.887  27.408  1.00  0.00     0.049 A 
ATOM     60  H   UNL A   1      46.894  27.906  28.377  1.00  0.00     0.167 HD
ATOM     61  C   UNL A   1      43.507  29.784  30.564  1.00  0.00     0.037 A 
ATOM     62  C   UNL A   1      49.523  27.669  27.500  1.00  0.00     0.037 A 
ATOM     63  C   UNL A   1      44.638  30.647  30.768  1.00  0.00     0.049 A 
ATOM     64  C   UNL A   1      49.419  28.963  28.268  1.00  0.00     0.074 A 
ATOM     65  C   UNL A   1      44.703  31.826  31.486  1.00  0.00     0.029 A 
ATOM     66  N   UNL A   1      45.901  30.428  30.235  1.00  0.00    -0.354 N 
ATOM     67  N   UNL A   1      48.383  29.466  28.900  1.00  0.00    -0.248 NA
ATOM     68  C   UNL A   1      50.630  29.790  28.344  1.00  0.00     0.031 C 
ATOM     69  C   UNL A   1      45.994  32.348  31.343  1.00  0.00     0.029 A 
ATOM     70  C   UNL A   1      46.748  31.464  30.584  1.00  0.00     0.049 A 
ATOM     71  H   UNL A   1      46.156  29.649  29.688  1.00  0.00     0.167 HD
ATOM     72  C   UNL A   1      48.824  30.657  29.469  1.00  0.00     0.074 A 
ATOM     73  C   UNL A   1      50.225  30.786  29.118  1.00  0.00     0.031 C 
ATOM     74  C   UNL A   1      48.138  31.563  30.212  1.00  0.00     0.037 A 
BRANCH  61  75
ATOM     75  C   UNL A   1      42.179  30.157  31.158  1.00  0.00     0.058 A 
ATOM     76  C   UNL A   1      41.292  31.028  30.502  1.00  0.00     0.135 A 
ATOM     77  C   UNL A   1      41.787  29.638  32.401  1.00  0.00     0.135 A 
ATOM     78  F   UNL A   1      41.630  31.577  29.324  1.00  0.00    -0.206 F 
ATOM     79  C   UNL A   1      40.072  31.385  31.067  1.00  0.00     0.059 A 
ATOM     80  C   UNL A   1      40.559  29.961  32.974  1.00  0.00     0.059 A 
ATOM     81  F   UNL A   1      42.602  28.815  33.079  1.00  0.00    -0.206 F 
ATOM     82  C   UNL A   1      39.715  30.845  32.304  1.00  0.00     0.060 A 
BRANCH  82  83
ATOM     83  S   UNL A   1      38.124  31.310  33.021  1.00  0.00     0.124 S 
ATOM     84  O   UNL A   1      37.535  32.093  31.940  1.00  0.00    -0.237 OA
ATOM     85  O   UNL A   1      37.506  30.012  33.274  1.00  0.00    -0.237 OA
ATOM     86  O   UNL A   1      38.497  32.065  34.213  1.00  0.00    -0.744 OA
ENDBRANCH  82  83
ENDBRANCH  61  75
BRANCH  62  87
ATOM     87  C   UNL A   1      50.797  27.250  26.856  1.00  0.00     0.058 A 
ATOM     88  C   UNL A   1      51.080  27.561  25.517  1.00  0.00     0.135 A 
ATOM     89  C   UNL A   1      51.767  26.532  27.575  1.00  0.00     0.135 A 
ATOM     90  F   UNL A   1      50.184  28.238  24.783  1.00  0.00    -0.206 F 
ATOM     91  C   UNL A   1      52.270  27.167  24.912  1.00  0.00     0.059 A 
ATOM     92  C   UNL A   1      52.974  26.150  26.999  1.00  0.00     0.059 A 
ATOM     93  F   UNL A   1      51.552  26.216  28.861  1.00  0.00    -0.206 F 
ATOM     94  C   UNL A   1      53.214  26.465  25.663  1.00  0.00     0.060 A 
BRANCH  94  95
ATOM     95  S   UNL A   1      54.780  26.009  24.886  1.00  0.00     0.124 S 
ATOM     96  O   UNL A   1      54.520  26.328  23.488  1.00  0.00    -0.237 OA
ATOM     97  O   UNL A   1      55.727  26.880  25.576  1.00  0.00    -0.237 OA
ATOM     98  O   UNL A   1      54.907  24.588  25.197  1.00  0.00    -0.744 OA
ENDBRANCH  94  95
ENDBRANCH  62  87
BRANCH  74  99
ATOM     99  C   UNL A   1      48.902  32.759  30.711  1.00  0.00     0.058 A 
ATOM    100  C   UNL A   1      49.396  32.822  32.022  1.00  0.00     0.135 A 
ATOM    101  C   UNL A   1      49.182  33.832  29.849  1.00  0.00     0.135 A 
ATOM    102  F   UNL A   1      49.153  31.823  32.886  1.00  0.00    -0.206 F 
ATOM    103  C   UNL A   1      50.111  33.925  32.474  1.00  0.00     0.059 A 
ATOM    104  C   UNL A   1      49.922  34.930  30.270  1.00  0.00     0.059 A 
ATOM    105  F   UNL A   1      48.746  33.812  28.579  1.00  0.00    -0.206 F 
ATOM    106  C   UNL A   1      50.368  34.975  31.590  1.00  0.00     0.060 A 
BRANCH 106 107
ATOM    107  S   UNL A   1      51.309  36.395  32.185  1.00  0.00     0.124 S 
ATOM    108  O   UNL A   1      52.271  35.756  33.077  1.00  0.00    -0.237 OA
ATOM    109  O   UNL A   1      51.858  36.946  30.949  1.00  0.00    -0.237 OA
ATOM    110  O   UNL A   1      50.299  37.222  32.838  1.00  0.00    -0.744 OA
ENDBRANCH 106 107
ENDBRANCH  74  99
ENDBRANCH  48  49
ENDBRANCH  41  43
ENDBRANCH  40  41
ENDBRANCH  39  40
ENDBRANCH  38  39
ENDBRANCH  37  38
ENDBRANCH  36  37
ENDBRANCH  35  36
ENDBRANCH  34  35
ENDBRANCH  33  34
ENDBRANCH   1  33
TORSDOF 30
ENDMDL
MODEL 2
REMARK VINA RESULT:      -8.3      0.777      7.718
REMARK SMILES COc1cc(/C=N/NC(=O)c2cc(Cl)ccc2O)ccc1OCC(=O)OCCOCCOCCOCCOC(=O)c1ccc(-c2c3nc(c(-c4c(F)cc(S(=O)(=O)[O-])cc4F)c4ccc([nH]4)c(-c4c(F)cc(S(=O)(=O)[O-])cc4F)c4nc(c(-c5c(F)cc(S(=O)(=O)[O-])cc5F)c5ccc2[nH]5)C=C4)C=C3)cc1
REMARK SMILES IDX 30 1 29 2 28 3 27 4 26 5 24 6 25 7 23 8 22 9 21 10 3 11 4 12
REMARK SMILES IDX 5 13 20 14 19 15 2 16 1 17 6 18 7 19 8 20 9 21 10 23 11 24
REMARK SMILES IDX 12 25 17 26 13 27 16 28 14 29 15 30 18 31 31 33 32 34 33 35
REMARK SMILES IDX 34 36 35 37 36 38 37 39 38 40 39 41 40 42 41 43 42 44 106 45
REMARK SMILES IDX 43 46 105 47 44 48 45 49 46 50 99 51 47 52 104 53 98 54
REMARK SMILES IDX 100 55 48 56 103 57 97 58 96 59 49 61 83 62 62 63 82 64
REMARK SMILES IDX 63 65 66 66 81 67 101 68 64 69 65 70 80 72 102 73 67 74
REMARK SMILES IDX 50 75 51 76 60 77 52 78 53 79 59 80 61 81 54 82 55 83 56 84
REMARK SMILES IDX 57 85 58 86 84 87 85 88 94 89 86 90 87 91 93 92 95 93 88 94
REMARK SMILES IDX 89 95 90 96 91 97 92 98 68 99 69 100 78 101 70 102 71 103
REMARK SMILES IDX 77 104 79 105 72 106 73 107 74 108 75 109 76 110
REMARK H PARENT 8 22 18 32 100 60 66 71
REMARK Flexibility Score: inf
ROOT
ATOM      1  C   UNL A   1      34.571  22.691  25.697  1.00  0.00     0.188 C 
ENDROOT
BRANCH   1   2
ATOM      2  O   UNL A   1      33.930  21.538  26.212  1.00  0.00    -0.376 OA
BRANCH   2   3
ATOM      3  C   UNL A   1      32.824  21.019  25.491  1.00  0.00     0.202 C 
BRANCH   3   4
ATOM      4  C   UNL A   1      31.729  22.004  25.050  1.00  0.00     0.261 C 
BRANCH   4   5
ATOM      5  O   UNL A   1      30.538  22.045  25.874  1.00  0.00    -0.461 OA
BRANCH   5   6
ATOM      6  C   UNL A   1      30.416  23.043  26.785  1.00  0.00     0.344 C 
ATOM      7  O   UNL A   1      29.648  23.003  27.739  1.00  0.00    -0.248 OA
BRANCH   6   8
ATOM      8  C   UNL A   1      31.312  24.261  26.452  1.00  0.00     0.352 C 
BRANCH   8   9
ATOM      9  O   UNL A   1      30.927  25.341  25.630  1.00  0.00    -0.478 OA
BRANCH   9  10
ATOM     10  C   UNL A   1      31.549  26.551  25.548  1.00  0.00     0.162 A 
ATOM     11  C   UNL A   1      31.153  27.760  24.960  1.00  0.00     0.161 A 
ATOM     12  C   UNL A   1      31.901  28.948  25.195  1.00  0.00     0.060 A 
ATOM     13  C   UNL A   1      33.069  28.903  25.972  1.00  0.00    -0.002 A 
ATOM     14  C   UNL A   1      32.792  26.516  26.202  1.00  0.00     0.051 A 
ATOM     15  C   UNL A   1      33.547  27.670  26.414  1.00  0.00     0.014 A 
BRANCH  11  16
ATOM     16  O   UNL A   1      30.227  27.768  23.949  1.00  0.00    -0.493 OA
ATOM     17  C   UNL A   1      30.710  27.400  22.662  1.00  0.00     0.278 C 
ENDBRANCH  11  16
BRANCH  13  18
ATOM     18  C   UNL A   1      33.825  30.088  26.459  1.00  0.00     0.141 C 
ATOM     19  N   UNL A   1      33.866  30.506  27.685  1.00  0.00    -0.180 NA
BRANCH  19  20
ATOM     20  N   UNL A   1      34.656  31.595  28.002  1.00  0.00    -0.243 N 
ATOM     21  C   UNL A   1      35.888  31.743  28.629  1.00  0.00     0.275 C 
ATOM     22  H   UNL A   1      34.260  32.453  27.723  1.00  0.00     0.194 HD
ATOM     23  O   UNL A   1      36.283  32.869  28.931  1.00  0.00    -0.267 OA
BRANCH  21  24
ATOM     24  C   UNL A   1      36.773  30.594  28.917  1.00  0.00     0.084 A 
ATOM     25  C   UNL A   1      37.753  30.274  27.962  1.00  0.00     0.038 A 
ATOM     26  C   UNL A   1      36.668  29.822  30.079  1.00  0.00     0.128 A 
ATOM     27  C   UNL A   1      38.672  29.259  28.226  1.00  0.00     0.042 A 
ATOM     28  C   UNL A   1      37.602  28.821  30.345  1.00  0.00     0.048 A 
ATOM     29  Cl  UNL A   1      39.895  28.887  27.076  1.00  0.00    -0.084 Cl
ATOM     30  C   UNL A   1      38.617  28.552  29.426  1.00  0.00     0.024 A 
BRANCH  26  31
ATOM     31  O   UNL A   1      35.695  30.004  31.022  1.00  0.00    -0.507 OA
ATOM     32  H   UNL A   1      35.907  30.400  31.844  1.00  0.00     0.293 HD
ENDBRANCH  26  31
ENDBRANCH  21  24
ENDBRANCH  19  20
ENDBRANCH  13  18
ENDBRANCH   9  10
ENDBRANCH   8   9
ENDBRANCH   6   8
ENDBRANCH   5   6
ENDBRANCH   4   5
ENDBRANCH   3   4
ENDBRANCH   2   3
ENDBRANCH   1   2
BRANCH   1  33
ATOM     33  C   UNL A   1      35.114  22.529  24.263  1.00  0.00     0.188 C 
BRANCH  33  34
ATOM     34  O   UNL A   1      36.436  22.090  23.980  1.00  0.00    -0.377 OA
BRANCH  34  35
ATOM     35  C   UNL A   1      37.047  21.220  24.908  1.00  0.00     0.188 C 
BRANCH  35  36
ATOM     36  C   UNL A   1      38.272  21.841  25.603  1.00  0.00     0.188 C 
BRANCH  36  37
ATOM     37  O   UNL A   1      39.411  20.983  25.654  1.00  0.00    -0.376 OA
BRANCH  37  38
ATOM     38  C   UNL A   1      40.159  20.987  26.865  1.00  0.00     0.202 C 
BRANCH  38  39
ATOM     39  C   UNL A   1      41.263  19.929  26.968  1.00  0.00     0.261 C 
BRANCH  39  40
ATOM     40  O   UNL A   1      42.593  20.405  27.153  1.00  0.00    -0.460 OA
BRANCH  40  41
ATOM     41  C   UNL A   1      43.122  21.157  26.168  1.00  0.00     0.338 C 
ATOM     42  O   UNL A   1      43.123  20.922  24.980  1.00  0.00    -0.246 OA
BRANCH  41  43
ATOM     43  C   UNL A   1      43.476  22.439  26.802  1.00  0.00     0.060 A 
ATOM     44  C   UNL A   1      43.524  23.576  25.991  1.00  0.00     0.016 A 
ATOM     45  C   UNL A   1      43.656  22.528  28.187  1.00  0.00     0.016 A 
ATOM     46  C   UNL A   1      43.755  24.817  26.568  1.00  0.00     0.010 A 
ATOM     47  C   UNL A   1      43.921  23.769  28.762  1.00  0.00     0.010 A 
ATOM     48  C   UNL A   1      43.996  24.907  27.947  1.00  0.00    -0.014 A 
BRANCH  48  49
ATOM     49  C   UNL A   1      44.575  26.162  28.459  1.00  0.00     0.031 A 
ATOM     50  C   UNL A   1      46.026  26.412  28.168  1.00  0.00     0.074 A 
ATOM     51  C   UNL A   1      43.807  27.078  29.071  1.00  0.00     0.049 A 
ATOM     52  N   UNL A   1      46.743  27.478  28.390  1.00  0.00    -0.248 NA
ATOM     53  C   UNL A   1      46.765  25.309  27.526  1.00  0.00     0.031 C 
ATOM     54  C   UNL A   1      42.383  26.926  29.370  1.00  0.00     0.029 A 
ATOM     55  N   UNL A   1      44.120  28.326  29.539  1.00  0.00    -0.354 N 
ATOM     56  C   UNL A   1      48.008  27.184  27.897  1.00  0.00     0.074 A 
ATOM     57  C   UNL A   1      47.976  25.826  27.404  1.00  0.00     0.031 C 
ATOM     58  C   UNL A   1      41.943  28.046  29.969  1.00  0.00     0.029 A 
ATOM     59  C   UNL A   1      43.056  28.984  30.108  1.00  0.00     0.049 A 
ATOM     60  H   UNL A   1      45.022  28.716  29.474  1.00  0.00     0.167 HD
ATOM     61  C   UNL A   1      49.096  27.985  27.848  1.00  0.00     0.037 A 
ATOM     62  C   UNL A   1      43.001  30.205  30.673  1.00  0.00     0.037 A 
ATOM     63  C   UNL A   1      49.111  29.324  28.370  1.00  0.00     0.049 A 
ATOM     64  C   UNL A   1      44.247  31.056  30.667  1.00  0.00     0.074 A 
ATOM     65  C   UNL A   1      50.154  30.231  28.386  1.00  0.00     0.029 A 
ATOM     66  N   UNL A   1      48.030  29.941  28.985  1.00  0.00    -0.354 N 
ATOM     67  N   UNL A   1      45.429  30.785  30.165  1.00  0.00    -0.248 NA
ATOM     68  C   UNL A   1      44.149  32.380  31.295  1.00  0.00     0.031 C 
ATOM     69  C   UNL A   1      49.719  31.378  29.059  1.00  0.00     0.029 A 
ATOM     70  C   UNL A   1      48.388  31.207  29.411  1.00  0.00     0.049 A 
ATOM     71  H   UNL A   1      47.140  29.536  29.103  1.00  0.00     0.167 HD
ATOM     72  C   UNL A   1      46.211  31.912  30.395  1.00  0.00     0.074 A 
ATOM     73  C   UNL A   1      45.358  32.874  31.066  1.00  0.00     0.031 C 
ATOM     74  C   UNL A   1      47.513  32.137  30.083  1.00  0.00     0.037 A 
BRANCH  61  75
ATOM     75  C   UNL A   1      50.348  27.415  27.246  1.00  0.00     0.058 A 
ATOM     76  C   UNL A   1      50.644  27.558  25.880  1.00  0.00     0.135 A 
ATOM     77  C   UNL A   1      51.264  26.714  28.045  1.00  0.00     0.135 A 
ATOM     78  F   UNL A   1      49.788  28.192  25.064  1.00  0.00    -0.206 F 
ATOM     79  C   UNL A   1      51.796  27.009  25.324  1.00  0.00     0.059 A 
ATOM     80  C   UNL A   1      52.436  26.180  27.516  1.00  0.00     0.059 A 
ATOM     81  F   UNL A   1      51.023  26.534  29.353  1.00  0.00    -0.206 F 
ATOM     82  C   UNL A   1      52.686  26.323  26.153  1.00  0.00     0.060 A 
BRANCH  82  83
ATOM     83  S   UNL A   1      54.183  25.625  25.419  1.00  0.00     0.124 S 
ATOM     84  O   UNL A   1      53.783  25.480  24.024  1.00  0.00    -0.237 OA
ATOM     85  O   UNL A   1      55.173  26.662  25.691  1.00  0.00    -0.237 OA
ATOM     86  O   UNL A   1      54.370  24.377  26.153  1.00  0.00    -0.744 OA
ENDBRANCH  82  83
ENDBRANCH  61  75
BRANCH  62  87
ATOM     87  C   UNL A   1      41.733  30.691  31.282  1.00  0.00     0.058 A 
ATOM     88  C   UNL A   1      40.837  31.499  30.567  1.00  0.00     0.135 A 
ATOM     89  C   UNL A   1      41.389  30.346  32.600  1.00  0.00     0.135 A 
ATOM     90  F   UNL A   1      41.122  31.865  29.308  1.00  0.00    -0.206 F 
ATOM     91  C   UNL A   1      39.652  31.957  31.138  1.00  0.00     0.059 A 
ATOM     92  C   UNL A   1      40.199  30.770  33.182  1.00  0.00     0.059 A 
ATOM     93  F   UNL A   1      42.205  29.568  33.326  1.00  0.00    -0.206 F 
ATOM     94  C   UNL A   1      39.339  31.583  32.445  1.00  0.00     0.060 A 
BRANCH  94  95
ATOM     95  S   UNL A   1      37.773  32.133  33.156  1.00  0.00     0.124 S 
ATOM     96  O   UNL A   1      37.220  32.932  32.070  1.00  0.00    -0.237 OA
ATOM     97  O   UNL A   1      37.099  30.867  33.427  1.00  0.00    -0.237 OA
ATOM     98  O   UNL A   1      38.186  32.880  34.342  1.00  0.00    -0.744 OA
ENDBRANCH  94  95
ENDBRANCH  62  87
BRANCH  74  99
ATOM     99  C   UNL A   1      48.082  33.481  30.445  1.00  0.00     0.058 A 
ATOM    100  C   UNL A   1      48.004  34.574  29.570  1.00  0.00     0.135 A 
ATOM    101  C   UNL A   1      48.671  33.685  31.705  1.00  0.00     0.135 A 
ATOM    102  F   UNL A   1      47.453  34.431  28.355  1.00  0.00    -0.206 F 
ATOM    103  C   UNL A   1      48.523  35.817  29.916  1.00  0.00     0.059 A 
ATOM    104  C   UNL A   1      49.167  34.927  32.083  1.00  0.00     0.059 A 
ATOM    105  F   UNL A   1      48.756  32.675  32.585  1.00  0.00    -0.206 F 
ATOM    106  C   UNL A   1      49.103  35.983  31.176  1.00  0.00     0.060 A 
BRANCH 106 107
ATOM    107  S   UNL A   1      49.760  37.604  31.617  1.00  0.00     0.124 S 
ATOM    108  O   UNL A   1      51.196  37.346  31.629  1.00  0.00    -0.237 OA
ATOM    109  O   UNL A   1      49.275  38.446  30.527  1.00  0.00    -0.237 OA
ATOM    110  O   UNL A   1      49.158  37.871  32.921  1.00  0.00    -0.744 OA
ENDBRANCH 106 107
ENDBRANCH  74  99
ENDBRANCH  48  49
ENDBRANCH  41  43
ENDBRANCH  40  41
ENDBRANCH  39  40
ENDBRANCH  38  39
ENDBRANCH  37  38
ENDBRANCH  36  37
ENDBRANCH  35  36
ENDBRANCH  34  35
ENDBRANCH  33  34
ENDBRANCH   1  33
TORSDOF 30
ENDMDL
MODEL 3
REMARK VINA RESULT:      -8.0      2.072      8.978
REMARK SMILES COc1cc(/C=N/NC(=O)c2cc(Cl)ccc2O)ccc1OCC(=O)OCCOCCOCCOCCOC(=O)c1ccc(-c2c3nc(c(-c4c(F)cc(S(=O)(=O)[O-])cc4F)c4ccc([nH]4)c(-c4c(F)cc(S(=O)(=O)[O-])cc4F)c4nc(c(-c5c(F)cc(S(=O)(=O)[O-])cc5F)c5ccc2[nH]5)C=C4)C=C3)cc1
REMARK SMILES IDX 30 1 29 2 28 3 27 4 26 5 24 6 25 7 23 8 22 9 21 10 3 11 4 12
REMARK SMILES IDX 5 13 20 14 19 15 2 16 1 17 6 18 7 19 8 20 9 21 10 23 11 24
REMARK SMILES IDX 12 25 17 26 13 27 16 28 14 29 15 30 18 31 31 33 32 34 33 35
REMARK SMILES IDX 34 36 35 37 36 38 37 39 38 40 39 41 40 42 41 43 42 44 106 45
REMARK SMILES IDX 43 46 105 47 44 48 45 49 46 50 99 51 47 52 104 53 98 54
REMARK SMILES IDX 100 55 48 56 103 57 97 58 96 59 49 61 83 62 62 63 82 64
REMARK SMILES IDX 63 65 66 66 81 67 101 68 64 69 65 70 80 72 102 73 67 74
REMARK SMILES IDX 50 75 51 76 60 77 52 78 53 79 59 80 61 81 54 82 55 83 56 84
REMARK SMILES IDX 57 85 58 86 84 87 85 88 94 89 86 90 87 91 93 92 95 93 88 94
REMARK SMILES IDX 89 95 90 96 91 97 92 98 68 99 69 100 78 101 70 102 71 103
REMARK SMILES IDX 77 104 79 105 72 106 73 107 74 108 75 109 76 110
REMARK H PARENT 8 22 18 32 100 60 66 71
REMARK Flexibility Score: inf
ROOT
ATOM      1  C   UNL A   1      37.778  28.577  28.778  1.00  0.00     0.188 C 
ENDROOT
BRANCH   1   2
ATOM      2  O   UNL A   1      37.860  29.709  27.931  1.00  0.00    -0.376 OA
BRANCH   2   3
ATOM      3  C   UNL A   1      36.670  30.441  27.688  1.00  0.00     0.202 C 
BRANCH   3   4
ATOM      4  C   UNL A   1      35.331  29.766  28.027  1.00  0.00     0.261 C 
BRANCH   4   5
ATOM      5  O   UNL A   1      34.287  29.881  27.029  1.00  0.00    -0.461 OA
BRANCH   5   6
ATOM      6  C   UNL A   1      33.333  30.830  27.199  1.00  0.00     0.344 C 
ATOM      7  O   UNL A   1      33.542  31.923  27.714  1.00  0.00    -0.248 OA
BRANCH   6   8
ATOM      8  C   UNL A   1      31.938  30.357  26.723  1.00  0.00     0.352 C 
BRANCH   8   9
ATOM      9  O   UNL A   1      31.519  30.315  25.376  1.00  0.00    -0.478 OA
BRANCH   9  10
ATOM     10  C   UNL A   1      31.054  29.220  24.712  1.00  0.00     0.162 A 
ATOM     11  C   UNL A   1      30.336  29.097  23.514  1.00  0.00     0.161 A 
ATOM     12  C   UNL A   1      30.150  27.816  22.921  1.00  0.00     0.060 A 
ATOM     13  C   UNL A   1      30.635  26.665  23.562  1.00  0.00    -0.002 A 
ATOM     14  C   UNL A   1      31.403  28.041  25.391  1.00  0.00     0.051 A 
ATOM     15  C   UNL A   1      31.200  26.779  24.832  1.00  0.00     0.014 A 
BRANCH  11  16
ATOM     16  O   UNL A   1      29.581  30.141  23.048  1.00  0.00    -0.493 OA
ATOM     17  C   UNL A   1      29.263  30.107  21.662  1.00  0.00     0.278 C 
ENDBRANCH  11  16
BRANCH  13  18
ATOM     18  C   UNL A   1      30.687  25.305  22.965  1.00  0.00     0.141 C 
ATOM     19  N   UNL A   1      31.288  24.277  23.476  1.00  0.00    -0.180 NA
BRANCH  19  20
ATOM     20  N   UNL A   1      31.208  23.056  22.832  1.00  0.00    -0.243 N 
ATOM     21  C   UNL A   1      32.018  21.927  22.803  1.00  0.00     0.275 C 
ATOM     22  H   UNL A   1      30.402  22.967  22.273  1.00  0.00     0.194 HD
ATOM     23  O   UNL A   1      31.778  21.030  21.995  1.00  0.00    -0.267 OA
BRANCH  21  24
ATOM     24  C   UNL A   1      33.146  21.737  23.739  1.00  0.00     0.084 A 
ATOM     25  C   UNL A   1      34.260  22.582  23.594  1.00  0.00     0.038 A 
ATOM     26  C   UNL A   1      33.152  20.760  24.740  1.00  0.00     0.128 A 
ATOM     27  C   UNL A   1      35.310  22.507  24.508  1.00  0.00     0.042 A 
ATOM     28  C   UNL A   1      34.197  20.702  25.661  1.00  0.00     0.048 A 
ATOM     29  Cl  UNL A   1      36.658  23.563  24.356  1.00  0.00    -0.084 Cl
ATOM     30  C   UNL A   1      35.269  21.590  25.557  1.00  0.00     0.024 A 
BRANCH  26  31
ATOM     31  O   UNL A   1      32.154  19.839  24.902  1.00  0.00    -0.507 OA
ATOM     32  H   UNL A   1      32.323  19.041  25.363  1.00  0.00     0.293 HD
ENDBRANCH  26  31
ENDBRANCH  21  24
ENDBRANCH  19  20
ENDBRANCH  13  18
ENDBRANCH   9  10
ENDBRANCH   8   9
ENDBRANCH   6   8
ENDBRANCH   5   6
ENDBRANCH   4   5
ENDBRANCH   3   4
ENDBRANCH   2   3
ENDBRANCH   1   2
BRANCH   1  33
ATOM     33  C   UNL A   1      39.010  27.651  28.722  1.00  0.00     0.188 C 
BRANCH  33  34
ATOM     34  O   UNL A   1      39.254  26.750  27.650  1.00  0.00    -0.377 OA
BRANCH  34  35
ATOM     35  C   UNL A   1      39.600  25.423  27.981  1.00  0.00     0.188 C 
BRANCH  35  36
ATOM     36  C   UNL A   1      39.256  24.413  26.872  1.00  0.00     0.188 C 
BRANCH  36  37
ATOM     37  O   UNL A   1      39.568  23.060  27.197  1.00  0.00    -0.376 OA
BRANCH  37  38
ATOM     38  C   UNL A   1      39.307  22.085  26.192  1.00  0.00     0.202 C 
BRANCH  38  39
ATOM     39  C   UNL A   1      40.101  20.780  26.309  1.00  0.00     0.261 C 
BRANCH  39  40
ATOM     40  O   UNL A   1      41.311  20.830  27.061  1.00  0.00    -0.460 OA
BRANCH  40  41
ATOM     41  C   UNL A   1      42.434  21.171  26.400  1.00  0.00     0.338 C 
ATOM     42  O   UNL A   1      42.865  20.688  25.376  1.00  0.00    -0.246 OA
BRANCH  41  43
ATOM     43  C   UNL A   1      42.898  22.416  27.036  1.00  0.00     0.060 A 
ATOM     44  C   UNL A   1      42.938  23.573  26.253  1.00  0.00     0.016 A 
ATOM     45  C   UNL A   1      43.189  22.458  28.405  1.00  0.00     0.016 A 
ATOM     46  C   UNL A   1      43.273  24.785  26.841  1.00  0.00     0.010 A 
ATOM     47  C   UNL A   1      43.558  23.667  28.988  1.00  0.00     0.010 A 
ATOM     48  C   UNL A   1      43.624  24.824  28.198  1.00  0.00    -0.014 A 
BRANCH  48  49
ATOM     49  C   UNL A   1      44.301  26.035  28.694  1.00  0.00     0.031 A 
ATOM     50  C   UNL A   1      45.738  26.222  28.304  1.00  0.00     0.074 A 
ATOM     51  C   UNL A   1      43.627  26.971  29.382  1.00  0.00     0.049 A 
ATOM     52  N   UNL A   1      46.522  27.246  28.496  1.00  0.00    -0.248 NA
ATOM     53  C   UNL A   1      46.372  25.101  27.585  1.00  0.00     0.031 C 
ATOM     54  C   UNL A   1      42.222  26.881  29.781  1.00  0.00     0.029 A 
ATOM     55  N   UNL A   1      44.035  28.190  29.853  1.00  0.00    -0.354 N 
ATOM     56  C   UNL A   1      47.732  26.903  27.906  1.00  0.00     0.074 A 
ATOM     57  C   UNL A   1      47.596  25.562  27.386  1.00  0.00     0.031 C 
ATOM     58  C   UNL A   1      41.884  28.006  30.436  1.00  0.00     0.029 A 
ATOM     59  C   UNL A   1      43.050  28.884  30.514  1.00  0.00     0.049 A 
ATOM     60  H   UNL A   1      44.948  28.537  29.731  1.00  0.00     0.167 HD
ATOM     61  C   UNL A   1      48.853  27.651  27.795  1.00  0.00     0.037 A 
ATOM     62  C   UNL A   1      43.098  30.092  31.108  1.00  0.00     0.037 A 
ATOM     63  C   UNL A   1      48.973  28.974  28.344  1.00  0.00     0.049 A 
ATOM     64  C   UNL A   1      44.381  30.881  31.031  1.00  0.00     0.074 A 
ATOM     65  C   UNL A   1      50.059  29.828  28.304  1.00  0.00     0.029 A 
ATOM     66  N   UNL A   1      47.972  29.627  29.051  1.00  0.00    -0.354 N 
ATOM     67  N   UNL A   1      45.509  30.565  30.437  1.00  0.00    -0.248 NA
ATOM     68  C   UNL A   1      44.396  32.191  31.693  1.00  0.00     0.031 C 
ATOM     69  C   UNL A   1      49.732  30.977  29.033  1.00  0.00     0.029 A 
ATOM     70  C   UNL A   1      48.423  30.862  29.478  1.00  0.00     0.049 A 
ATOM     71  H   UNL A   1      47.073  29.263  29.224  1.00  0.00     0.167 HD
ATOM     72  C   UNL A   1      46.361  31.647  30.634  1.00  0.00     0.074 A 
ATOM     73  C   UNL A   1      45.608  32.631  31.387  1.00  0.00     0.031 C 
ATOM     74  C   UNL A   1      47.647  31.816  30.232  1.00  0.00     0.037 A 
BRANCH  61  75
ATOM     75  C   UNL A   1      50.027  27.036  27.090  1.00  0.00     0.058 A 
ATOM     76  C   UNL A   1      50.298  27.296  25.735  1.00  0.00     0.135 A 
ATOM     77  C   UNL A   1      50.895  26.174  27.777  1.00  0.00     0.135 A 
ATOM     78  F   UNL A   1      49.482  28.090  25.023  1.00  0.00    -0.206 F 
ATOM     79  C   UNL A   1      51.376  26.707  25.083  1.00  0.00     0.059 A 
ATOM     80  C   UNL A   1      51.996  25.594  27.151  1.00  0.00     0.059 A 
ATOM     81  F   UNL A   1      50.675  25.879  29.067  1.00  0.00    -0.206 F 
ATOM     82  C   UNL A   1      52.220  25.858  25.801  1.00  0.00     0.060 A 
BRANCH  82  83
ATOM     83  S   UNL A   1      53.622  25.109  24.943  1.00  0.00     0.124 S 
ATOM     84  O   UNL A   1      53.314  25.423  23.552  1.00  0.00    -0.237 OA
ATOM     85  O   UNL A   1      54.756  25.825  25.519  1.00  0.00    -0.237 OA
ATOM     86  O   UNL A   1      53.527  23.698  25.305  1.00  0.00    -0.744 OA
ENDBRANCH  82  83
ENDBRANCH  61  75
BRANCH  62  87
ATOM     87  C   UNL A   1      41.903  30.622  31.820  1.00  0.00     0.058 A 
ATOM     88  C   UNL A   1      41.656  30.319  33.167  1.00  0.00     0.135 A 
ATOM     89  C   UNL A   1      40.984  31.456  31.162  1.00  0.00     0.135 A 
ATOM     90  F   UNL A   1      42.499  29.521  33.840  1.00  0.00    -0.206 F 
ATOM     91  C   UNL A   1      40.537  30.812  33.833  1.00  0.00     0.059 A 
ATOM     92  C   UNL A   1      39.872  31.981  31.814  1.00  0.00     0.059 A 
ATOM     93  F   UNL A   1      41.176  31.785  29.876  1.00  0.00    -0.206 F 
ATOM     94  C   UNL A   1      39.653  31.647  33.149  1.00  0.00     0.060 A 
BRANCH  94  95
ATOM     95  S   UNL A   1      38.235  32.328  34.037  1.00  0.00     0.124 S 
ATOM     96  O   UNL A   1      38.823  33.499  34.676  1.00  0.00    -0.237 OA
ATOM     97  O   UNL A   1      37.295  32.594  32.953  1.00  0.00    -0.237 OA
ATOM     98  O   UNL A   1      37.851  31.245  34.937  1.00  0.00    -0.744 OA
ENDBRANCH  94  95
ENDBRANCH  62  87
BRANCH  74  99
ATOM     99  C   UNL A   1      48.308  33.120  30.582  1.00  0.00     0.058 A 
ATOM    100  C   UNL A   1      48.214  34.242  29.745  1.00  0.00     0.135 A 
ATOM    101  C   UNL A   1      49.005  33.260  31.794  1.00  0.00     0.135 A 
ATOM    102  F   UNL A   1      47.561  34.160  28.575  1.00  0.00    -0.206 F 
ATOM    103  C   UNL A   1      48.818  35.448  30.080  1.00  0.00     0.059 A 
ATOM    104  C   UNL A   1      49.589  34.465  32.163  1.00  0.00     0.059 A 
ATOM    105  F   UNL A   1      49.110  32.221  32.638  1.00  0.00    -0.206 F 
ATOM    106  C   UNL A   1      49.505  35.550  31.292  1.00  0.00     0.060 A 
BRANCH 106 107
ATOM    107  S   UNL A   1      50.273  37.125  31.721  1.00  0.00     0.124 S 
ATOM    108  O   UNL A   1      49.182  37.805  32.411  1.00  0.00    -0.237 OA
ATOM    109  O   UNL A   1      51.393  36.708  32.560  1.00  0.00    -0.237 OA
ATOM    110  O   UNL A   1      50.644  37.686  30.425  1.00  0.00    -0.744 OA
ENDBRANCH 106 107
ENDBRANCH  74  99
ENDBRANCH  48  49
ENDBRANCH  41  43
ENDBRANCH  40  41
ENDBRANCH  39  40
ENDBRANCH  38  39
ENDBRANCH  37  38
ENDBRANCH  36  37
ENDBRANCH  35  36
ENDBRANCH  34  35
ENDBRANCH  33  34
ENDBRANCH   1  33
TORSDOF 30
ENDMDL
