MODEL 1
REMARK VINA RESULT:      -8.9      0.000      0.000
REMARK SMILES Cc1ccc(S(=O)(=O)n2cc(C(=O)C(=O)N[C@@H](Cc3cnc[nH]3)C(=O)OCCOCCOCCOCCOC(=O)c3ccc(-c4c5nc(c(-c6c(F)cc(S(=O)(=O)[O-])cc6F)c6ccc([nH]6)c(-c6c(F)cc(S(=O)(=O)[O-])cc6F)c6nc(c(-c7c(F)cc(S(=O)(=O)[O-])cc7F)c7ccc4[nH]7)C=C6)C=C5)cc3)c3ccccc32)cc1
REMARK SMILES IDX 31 1 30 2 29 3 28 4 27 5 26 6 24 7 25 8 17 9 16 10 14 11
REMARK SMILES IDX 15 12 12 14 13 15 11 16 9 17 10 18 112 19 107 20 111 21
REMARK SMILES IDX 108 22 110 23 109 24 6 25 7 26 8 27 5 28 1 29 2 30 3 31
REMARK SMILES IDX 114 32 4 33 113 34 18 35 19 36 20 37 23 38 21 39 22 40 32 42
REMARK SMILES IDX 33 43 34 44 35 45 36 46 37 47 38 48 39 49 40 50 41 51 42 52
REMARK SMILES IDX 106 53 43 54 105 55 44 56 45 57 46 58 99 59 47 60 104 61
REMARK SMILES IDX 98 62 100 63 48 64 103 65 97 66 96 67 49 69 83 70 62 71
REMARK SMILES IDX 82 72 63 73 66 74 81 75 101 76 64 77 65 78 80 80 102 81
REMARK SMILES IDX 67 82 50 83 51 84 60 85 52 86 53 87 59 88 61 89 54 90 55 91
REMARK SMILES IDX 56 92 57 93 58 94 84 95 85 96 94 97 86 98 87 99 93 100
REMARK SMILES IDX 95 101 88 102 89 103 90 104 91 105 92 106 68 107 69 108
REMARK SMILES IDX 78 109 70 110 71 111 77 112 79 113 72 114 73 115 74 116
REMARK SMILES IDX 75 117 76 118
REMARK H PARENT 16 13 23 41 100 68 66 79
REMARK Flexibility Score: inf
ROOT
ATOM      1  C   UNL A   1      40.793  20.677  26.289  1.00  0.00     0.188 C 
ENDROOT
BRANCH   1   2
ATOM      2  C   UNL A   1      39.277  20.792  26.095  1.00  0.00     0.188 C 
BRANCH   2   3
ATOM      3  O   UNL A   1      38.793  21.918  25.365  1.00  0.00    -0.376 OA
BRANCH   3   4
ATOM      4  C   UNL A   1      37.422  22.252  25.577  1.00  0.00     0.202 C 
BRANCH   4   5
ATOM      5  C   UNL A   1      36.926  23.503  24.857  1.00  0.00     0.261 C 
BRANCH   5   6
ATOM      6  O   UNL A   1      35.502  23.672  25.008  1.00  0.00    -0.462 OA
BRANCH   6   7
ATOM      7  C   UNL A   1      34.860  24.035  23.869  1.00  0.00     0.329 C 
ATOM      8  O   UNL A   1      35.141  23.608  22.752  1.00  0.00    -0.250 OA
BRANCH   7   9
ATOM      9  C   UNL A   1      33.779  25.110  24.089  1.00  0.00     0.198 C 
BRANCH   9  10
ATOM     10  N   UNL A   1      33.977  26.455  23.509  1.00  0.00    -0.335 N 
ATOM     11  C   UNL A   1      33.867  27.684  24.139  1.00  0.00     0.293 C 
ATOM     12  O   UNL A   1      33.873  28.718  23.484  1.00  0.00    -0.265 OA
ATOM     13  H   UNL A   1      34.217  26.480  22.554  1.00  0.00     0.164 HD
BRANCH  11  14
ATOM     14  C   UNL A   1      33.800  27.743  25.684  1.00  0.00     0.252 C 
ATOM     15  O   UNL A   1      33.678  26.670  26.271  1.00  0.00    -0.283 OA
BRANCH  14  16
ATOM     16  C   UNL A   1      33.905  28.978  26.475  1.00  0.00     0.054 A 
ATOM     17  N   UNL A   1      34.594  30.666  27.770  1.00  0.00    -0.240 N 
ATOM     18  C   UNL A   1      34.913  29.401  27.328  1.00  0.00     0.117 A 
ATOM     19  C   UNL A   1      33.418  31.111  27.205  1.00  0.00     0.065 A 
ATOM     20  C   UNL A   1      32.915  30.028  26.478  1.00  0.00     0.012 A 
ATOM     21  C   UNL A   1      32.732  32.339  27.271  1.00  0.00     0.028 A 
ATOM     22  C   UNL A   1      31.642  30.158  25.876  1.00  0.00     0.011 A 
ATOM     23  C   UNL A   1      31.484  32.437  26.648  1.00  0.00     0.002 A 
ATOM     24  C   UNL A   1      30.935  31.354  25.976  1.00  0.00     0.001 A 
BRANCH  17  25
ATOM     25  S   UNL A   1      35.615  31.608  28.759  1.00  0.00     0.268 S 
ATOM     26  O   UNL A   1      34.774  31.961  29.907  1.00  0.00    -0.201 OA
ATOM     27  O   UNL A   1      36.202  32.607  27.918  1.00  0.00    -0.201 OA
BRANCH  25  28
ATOM     28  C   UNL A   1      36.929  30.585  29.382  1.00  0.00     0.088 A 
ATOM     29  C   UNL A   1      39.848  27.833  30.947  1.00  0.00     0.044 C 
ATOM     30  C   UNL A   1      38.840  28.802  30.404  1.00  0.00    -0.051 A 
ATOM     31  C   UNL A   1      37.606  28.959  31.047  1.00  0.00     0.005 A 
ATOM     32  C   UNL A   1      39.119  29.575  29.269  1.00  0.00     0.005 A 
ATOM     33  C   UNL A   1      36.653  29.840  30.536  1.00  0.00     0.022 A 
ATOM     34  C   UNL A   1      38.174  30.476  28.762  1.00  0.00     0.022 A 
ENDBRANCH  25  28
ENDBRANCH  17  25
ENDBRANCH  14  16
ENDBRANCH  11  14
ENDBRANCH   9  10
BRANCH   9  35
ATOM     35  C   UNL A   1      32.409  24.483  23.756  1.00  0.00     0.092 C 
BRANCH  35  36
ATOM     36  C   UNL A   1      31.200  25.202  24.245  1.00  0.00     0.037 A 
ATOM     37  C   UNL A   1      30.674  25.336  25.513  1.00  0.00     0.134 A 
ATOM     38  N   UNL A   1      30.288  25.821  23.428  1.00  0.00    -0.348 N 
ATOM     39  N   UNL A   1      29.455  25.953  25.477  1.00  0.00    -0.245 NA
ATOM     40  C   UNL A   1      29.238  26.216  24.209  1.00  0.00     0.196 A 
ATOM     41  H   UNL A   1      30.373  25.955  22.456  1.00  0.00     0.167 HD
ENDBRANCH  35  36
ENDBRANCH   9  35
ENDBRANCH   7   9
ENDBRANCH   6   7
ENDBRANCH   5   6
ENDBRANCH   4   5
ENDBRANCH   3   4
ENDBRANCH   2   3
ENDBRANCH   1   2
BRANCH   1  42
ATOM     42  O   UNL A   1      41.569  21.797  25.952  1.00  0.00    -0.377 OA
BRANCH  42  43
ATOM     43  C   UNL A   1      42.699  22.132  26.718  1.00  0.00     0.188 C 
BRANCH  43  44
ATOM     44  C   UNL A   1      42.287  22.452  28.159  1.00  0.00     0.188 C 
BRANCH  44  45
ATOM     45  O   UNL A   1      41.671  23.706  28.455  1.00  0.00    -0.376 OA
BRANCH  45  46
ATOM     46  C   UNL A   1      41.831  24.789  27.537  1.00  0.00     0.202 C 
BRANCH  46  47
ATOM     47  C   UNL A   1      40.572  25.560  27.113  1.00  0.00     0.261 C 
BRANCH  47  48
ATOM     48  O   UNL A   1      40.836  26.614  26.177  1.00  0.00    -0.460 OA
BRANCH  48  49
ATOM     49  C   UNL A   1      42.028  26.610  25.523  1.00  0.00     0.338 C 
ATOM     50  O   UNL A   1      42.407  25.884  24.620  1.00  0.00    -0.246 OA
BRANCH  49  51
ATOM     51  C   UNL A   1      42.675  27.880  25.916  1.00  0.00     0.060 A 
ATOM     52  C   UNL A   1      44.050  27.931  26.133  1.00  0.00     0.016 A 
ATOM     53  C   UNL A   1      41.834  28.851  26.459  1.00  0.00     0.016 A 
ATOM     54  C   UNL A   1      44.548  28.817  27.090  1.00  0.00     0.010 A 
ATOM     55  C   UNL A   1      42.312  29.637  27.501  1.00  0.00     0.010 A 
ATOM     56  C   UNL A   1      43.647  29.518  27.911  1.00  0.00    -0.014 A 
BRANCH  56  57
ATOM     57  C   UNL A   1      43.949  29.726  29.350  1.00  0.00     0.031 A 
ATOM     58  C   UNL A   1      43.755  28.688  30.408  1.00  0.00     0.074 A 
ATOM     59  C   UNL A   1      44.652  30.846  29.684  1.00  0.00     0.049 A 
ATOM     60  N   UNL A   1      43.895  28.949  31.667  1.00  0.00    -0.248 NA
ATOM     61  C   UNL A   1      43.390  27.289  30.195  1.00  0.00     0.031 C 
ATOM     62  C   UNL A   1      45.346  31.139  30.937  1.00  0.00     0.029 A 
ATOM     63  N   UNL A   1      44.886  32.006  28.935  1.00  0.00    -0.354 N 
ATOM     64  C   UNL A   1      43.954  27.777  32.377  1.00  0.00     0.074 A 
ATOM     65  C   UNL A   1      43.534  26.775  31.428  1.00  0.00     0.031 C 
ATOM     66  C   UNL A   1      45.860  32.372  30.909  1.00  0.00     0.029 A 
ATOM     67  C   UNL A   1      45.275  33.051  29.786  1.00  0.00     0.049 A 
ATOM     68  H   UNL A   1      44.791  32.076  27.958  1.00  0.00     0.167 HD
ATOM     69  C   UNL A   1      44.448  27.801  33.652  1.00  0.00     0.037 A 
ATOM     70  C   UNL A   1      44.420  34.096  29.984  1.00  0.00     0.037 A 
ATOM     71  C   UNL A   1      44.518  29.176  34.210  1.00  0.00     0.049 A 
ATOM     72  C   UNL A   1      43.659  34.074  31.314  1.00  0.00     0.074 A 
ATOM     73  C   UNL A   1      45.377  29.889  35.034  1.00  0.00     0.029 A 
ATOM     74  N   UNL A   1      43.516  30.099  33.866  1.00  0.00    -0.354 N 
ATOM     75  N   UNL A   1      43.785  33.140  32.235  1.00  0.00    -0.248 NA
ATOM     76  C   UNL A   1      42.698  35.086  31.733  1.00  0.00     0.031 C 
ATOM     77  C   UNL A   1      44.897  31.230  35.143  1.00  0.00     0.029 A 
ATOM     78  C   UNL A   1      43.749  31.358  34.376  1.00  0.00     0.049 A 
ATOM     79  H   UNL A   1      42.731  29.871  33.318  1.00  0.00     0.167 HD
ATOM     80  C   UNL A   1      42.885  33.320  33.260  1.00  0.00     0.074 A 
ATOM     81  C   UNL A   1      42.279  34.598  32.919  1.00  0.00     0.031 C 
ATOM     82  C   UNL A   1      42.710  32.394  34.266  1.00  0.00     0.037 A 
BRANCH  69  83
ATOM     83  C   UNL A   1      44.963  26.549  34.381  1.00  0.00     0.058 A 
ATOM     84  C   UNL A   1      46.344  26.269  34.511  1.00  0.00     0.135 A 
ATOM     85  C   UNL A   1      44.125  25.523  34.885  1.00  0.00     0.135 A 
ATOM     86  F   UNL A   1      47.268  27.127  34.057  1.00  0.00    -0.206 F 
ATOM     87  C   UNL A   1      46.844  25.092  35.098  1.00  0.00     0.059 A 
ATOM     88  C   UNL A   1      44.600  24.373  35.531  1.00  0.00     0.059 A 
ATOM     89  F   UNL A   1      42.797  25.555  34.715  1.00  0.00    -0.206 F 
ATOM     90  C   UNL A   1      45.963  24.152  35.619  1.00  0.00     0.060 A 
BRANCH  90  91
ATOM     91  S   UNL A   1      46.601  22.652  36.404  1.00  0.00     0.124 S 
ATOM     92  O   UNL A   1      46.959  23.135  37.733  1.00  0.00    -0.237 OA
ATOM     93  O   UNL A   1      45.454  21.751  36.342  1.00  0.00    -0.237 OA
ATOM     94  O   UNL A   1      47.726  22.277  35.551  1.00  0.00    -0.744 OA
ENDBRANCH  90  91
ENDBRANCH  69  83
BRANCH  70  95
ATOM     95  C   UNL A   1      44.278  34.882  28.718  1.00  0.00     0.058 A 
ATOM     96  C   UNL A   1      42.941  35.136  28.333  1.00  0.00     0.135 A 
ATOM     97  C   UNL A   1      45.226  35.853  28.345  1.00  0.00     0.135 A 
ATOM     98  F   UNL A   1      41.990  34.237  28.630  1.00  0.00    -0.206 F 
ATOM     99  C   UNL A   1      42.530  36.371  27.826  1.00  0.00     0.059 A 
ATOM    100  C   UNL A   1      44.835  37.095  27.821  1.00  0.00     0.059 A 
ATOM    101  F   UNL A   1      46.522  35.674  28.636  1.00  0.00    -0.206 F 
ATOM    102  C   UNL A   1      43.479  37.371  27.637  1.00  0.00     0.060 A 
BRANCH 102 103
ATOM    103  S   UNL A   1      42.928  39.086  27.401  1.00  0.00     0.124 S 
ATOM    104  O   UNL A   1      41.528  38.907  27.038  1.00  0.00    -0.237 OA
ATOM    105  O   UNL A   1      43.174  39.694  28.706  1.00  0.00    -0.237 OA
ATOM    106  O   UNL A   1      43.807  39.555  26.333  1.00  0.00    -0.744 OA
ENDBRANCH 102 103
ENDBRANCH  70  95
BRANCH  82 107
ATOM    107  C   UNL A   1      41.563  32.300  35.298  1.00  0.00     0.058 A 
ATOM    108  C   UNL A   1      41.646  32.628  36.661  1.00  0.00     0.135 A 
ATOM    109  C   UNL A   1      40.236  31.977  34.870  1.00  0.00     0.135 A 
ATOM    110  F   UNL A   1      42.787  33.033  37.225  1.00  0.00    -0.206 F 
ATOM    111  C   UNL A   1      40.538  32.611  37.521  1.00  0.00     0.059 A 
ATOM    112  C   UNL A   1      39.115  31.999  35.696  1.00  0.00     0.059 A 
ATOM    113  F   UNL A   1      39.951  31.647  33.604  1.00  0.00    -0.206 F 
ATOM    114  C   UNL A   1      39.274  32.307  37.029  1.00  0.00     0.060 A 
BRANCH 114 115
ATOM    115  S   UNL A   1      37.842  32.394  38.117  1.00  0.00     0.124 S 
ATOM    116  O   UNL A   1      37.123  31.178  37.752  1.00  0.00    -0.237 OA
ATOM    117  O   UNL A   1      38.459  32.392  39.441  1.00  0.00    -0.237 OA
ATOM    118  O   UNL A   1      37.199  33.647  37.737  1.00  0.00    -0.744 OA
ENDBRANCH 114 115
ENDBRANCH  82 107
ENDBRANCH  56  57
ENDBRANCH  49  51
ENDBRANCH  48  49
ENDBRANCH  47  48
ENDBRANCH  46  47
ENDBRANCH  45  46
ENDBRANCH  44  45
ENDBRANCH  43  44
ENDBRANCH  42  43
ENDBRANCH   1  42
TORSDOF 30
ENDMDL
MODEL 2
REMARK VINA RESULT:      -8.5      3.272     10.717
REMARK SMILES Cc1ccc(S(=O)(=O)n2cc(C(=O)C(=O)N[C@@H](Cc3cnc[nH]3)C(=O)OCCOCCOCCOCCOC(=O)c3ccc(-c4c5nc(c(-c6c(F)cc(S(=O)(=O)[O-])cc6F)c6ccc([nH]6)c(-c6c(F)cc(S(=O)(=O)[O-])cc6F)c6nc(c(-c7c(F)cc(S(=O)(=O)[O-])cc7F)c7ccc4[nH]7)C=C6)C=C5)cc3)c3ccccc32)cc1
REMARK SMILES IDX 31 1 30 2 29 3 28 4 27 5 26 6 24 7 25 8 17 9 16 10 14 11
REMARK SMILES IDX 15 12 12 14 13 15 11 16 9 17 10 18 112 19 107 20 111 21
REMARK SMILES IDX 108 22 110 23 109 24 6 25 7 26 8 27 5 28 1 29 2 30 3 31
REMARK SMILES IDX 114 32 4 33 113 34 18 35 19 36 20 37 23 38 21 39 22 40 32 42
REMARK SMILES IDX 33 43 34 44 35 45 36 46 37 47 38 48 39 49 40 50 41 51 42 52
REMARK SMILES IDX 106 53 43 54 105 55 44 56 45 57 46 58 99 59 47 60 104 61
REMARK SMILES IDX 98 62 100 63 48 64 103 65 97 66 96 67 49 69 83 70 62 71
REMARK SMILES IDX 82 72 63 73 66 74 81 75 101 76 64 77 65 78 80 80 102 81
REMARK SMILES IDX 67 82 50 83 51 84 60 85 52 86 53 87 59 88 61 89 54 90 55 91
REMARK SMILES IDX 56 92 57 93 58 94 84 95 85 96 94 97 86 98 87 99 93 100
REMARK SMILES IDX 95 101 88 102 89 103 90 104 91 105 92 106 68 107 69 108
REMARK SMILES IDX 78 109 70 110 71 111 77 112 79 113 72 114 73 115 74 116
REMARK SMILES IDX 75 117 76 118
REMARK H PARENT 16 13 23 41 100 68 66 79
REMARK Flexibility Score: inf
ROOT
ATOM      1  C   UNL A   1      40.173  28.684  27.728  1.00  0.00     0.188 C 
ENDROOT
BRANCH   1   2
ATOM      2  C   UNL A   1      41.665  28.340  27.815  1.00  0.00     0.188 C 
BRANCH   2   3
ATOM      3  O   UNL A   1      42.310  27.913  26.615  1.00  0.00    -0.376 OA
BRANCH   3   4
ATOM      4  C   UNL A   1      42.471  26.503  26.467  1.00  0.00     0.202 C 
BRANCH   4   5
ATOM      5  C   UNL A   1      41.332  25.777  25.757  1.00  0.00     0.261 C 
BRANCH   5   6
ATOM      6  O   UNL A   1      41.292  24.379  26.110  1.00  0.00    -0.462 OA
BRANCH   6   7
ATOM      7  C   UNL A   1      40.507  24.098  27.180  1.00  0.00     0.329 C 
ATOM      8  O   UNL A   1      40.400  24.820  28.167  1.00  0.00    -0.250 OA
BRANCH   7   9
ATOM      9  C   UNL A   1      39.808  22.729  27.086  1.00  0.00     0.198 C 
BRANCH   9  10
ATOM     10  N   UNL A   1      39.320  22.261  25.771  1.00  0.00    -0.335 N 
ATOM     11  C   UNL A   1      38.039  22.354  25.251  1.00  0.00     0.293 C 
ATOM     12  O   UNL A   1      37.743  21.751  24.227  1.00  0.00    -0.265 OA
ATOM     13  H   UNL A   1      39.990  21.830  25.193  1.00  0.00     0.164 HD
BRANCH  11  14
ATOM     14  C   UNL A   1      37.004  23.274  25.939  1.00  0.00     0.252 C 
ATOM     15  O   UNL A   1      37.423  23.999  26.838  1.00  0.00    -0.283 OA
BRANCH  14  16
ATOM     16  C   UNL A   1      35.583  23.354  25.565  1.00  0.00     0.054 A 
ATOM     17  N   UNL A   1      33.538  24.035  24.972  1.00  0.00    -0.240 N 
ATOM     18  C   UNL A   1      34.768  24.466  25.417  1.00  0.00     0.117 A 
ATOM     19  C   UNL A   1      33.524  22.669  24.786  1.00  0.00     0.065 A 
ATOM     20  C   UNL A   1      34.759  22.211  25.255  1.00  0.00     0.012 A 
ATOM     21  C   UNL A   1      32.554  21.784  24.275  1.00  0.00     0.028 A 
ATOM     22  C   UNL A   1      34.986  20.816  25.296  1.00  0.00     0.011 A 
ATOM     23  C   UNL A   1      32.820  20.413  24.313  1.00  0.00     0.002 A 
ATOM     24  C   UNL A   1      34.012  19.931  24.836  1.00  0.00     0.001 A 
BRANCH  17  25
ATOM     25  S   UNL A   1      32.261  25.085  24.556  1.00  0.00     0.268 S 
ATOM     26  O   UNL A   1      31.095  24.524  25.247  1.00  0.00    -0.201 OA
ATOM     27  O   UNL A   1      32.294  25.236  23.132  1.00  0.00    -0.201 OA
BRANCH  25  28
ATOM     28  C   UNL A   1      32.562  26.683  25.276  1.00  0.00     0.088 A 
ATOM     29  C   UNL A   1      33.350  30.370  27.356  1.00  0.00     0.044 C 
ATOM     30  C   UNL A   1      33.070  29.093  26.621  1.00  0.00    -0.051 A 
ATOM     31  C   UNL A   1      32.235  28.127  27.195  1.00  0.00     0.005 A 
ATOM     32  C   UNL A   1      33.615  28.854  25.352  1.00  0.00     0.005 A 
ATOM     33  C   UNL A   1      31.987  26.925  26.531  1.00  0.00     0.022 A 
ATOM     34  C   UNL A   1      33.354  27.659  24.671  1.00  0.00     0.022 A 
ENDBRANCH  25  28
ENDBRANCH  17  25
ENDBRANCH  14  16
ENDBRANCH  11  14
ENDBRANCH   9  10
BRANCH   9  35
ATOM     35  C   UNL A   1      40.679  21.696  27.831  1.00  0.00     0.092 C 
BRANCH  35  36
ATOM     36  C   UNL A   1      41.530  20.803  26.998  1.00  0.00     0.037 A 
ATOM     37  C   UNL A   1      42.504  21.089  26.064  1.00  0.00     0.134 A 
ATOM     38  N   UNL A   1      41.405  19.437  26.954  1.00  0.00    -0.348 N 
ATOM     39  N   UNL A   1      42.918  19.956  25.422  1.00  0.00    -0.245 NA
ATOM     40  C   UNL A   1      42.227  18.980  25.963  1.00  0.00     0.196 A 
ATOM     41  H   UNL A   1      40.827  18.887  27.532  1.00  0.00     0.167 HD
ENDBRANCH  35  36
ENDBRANCH   9  35
ENDBRANCH   7   9
ENDBRANCH   6   7
ENDBRANCH   5   6
ENDBRANCH   4   5
ENDBRANCH   3   4
ENDBRANCH   2   3
ENDBRANCH   1   2
BRANCH   1  42
ATOM     42  O   UNL A   1      39.300  27.952  28.547  1.00  0.00    -0.377 OA
BRANCH  42  43
ATOM     43  C   UNL A   1      38.392  28.620  29.388  1.00  0.00     0.188 C 
BRANCH  43  44
ATOM     44  C   UNL A   1      38.306  30.101  29.004  1.00  0.00     0.188 C 
BRANCH  44  45
ATOM     45  O   UNL A   1      37.028  30.732  28.908  1.00  0.00    -0.376 OA
BRANCH  45  46
ATOM     46  C   UNL A   1      36.639  31.664  29.919  1.00  0.00     0.202 C 
BRANCH  46  47
ATOM     47  C   UNL A   1      37.654  31.987  31.026  1.00  0.00     0.261 C 
BRANCH  47  48
ATOM     48  O   UNL A   1      37.233  31.560  32.328  1.00  0.00    -0.460 OA
BRANCH  48  49
ATOM     49  C   UNL A   1      37.249  30.229  32.607  1.00  0.00     0.338 C 
ATOM     50  O   UNL A   1      36.544  29.341  32.159  1.00  0.00    -0.246 OA
BRANCH  49  51
ATOM     51  C   UNL A   1      38.514  30.016  33.341  1.00  0.00     0.060 A 
ATOM     52  C   UNL A   1      39.106  31.065  34.041  1.00  0.00     0.016 A 
ATOM     53  C   UNL A   1      39.266  28.907  32.954  1.00  0.00     0.016 A 
ATOM     54  C   UNL A   1      40.498  31.108  34.139  1.00  0.00     0.010 A 
ATOM     55  C   UNL A   1      40.651  29.017  32.938  1.00  0.00     0.010 A 
ATOM     56  C   UNL A   1      41.266  30.185  33.407  1.00  0.00    -0.014 A 
BRANCH  56  57
ATOM     57  C   UNL A   1      42.529  30.613  32.753  1.00  0.00     0.031 A 
ATOM     58  C   UNL A   1      42.594  31.489  31.543  1.00  0.00     0.074 A 
ATOM     59  C   UNL A   1      43.692  30.379  33.428  1.00  0.00     0.049 A 
ATOM     60  N   UNL A   1      43.702  31.725  30.919  1.00  0.00    -0.248 NA
ATOM     61  C   UNL A   1      41.472  32.174  30.907  1.00  0.00     0.031 C 
ATOM     62  C   UNL A   1      45.012  30.958  33.184  1.00  0.00     0.029 A 
ATOM     63  N   UNL A   1      43.935  29.524  34.509  1.00  0.00    -0.354 N 
ATOM     64  C   UNL A   1      43.528  32.771  30.050  1.00  0.00     0.074 A 
ATOM     65  C   UNL A   1      42.097  32.950  30.006  1.00  0.00     0.031 C 
ATOM     66  C   UNL A   1      45.915  30.425  34.012  1.00  0.00     0.029 A 
ATOM     67  C   UNL A   1      45.310  29.269  34.614  1.00  0.00     0.049 A 
ATOM     68  H   UNL A   1      43.244  29.158  35.107  1.00  0.00     0.167 HD
ATOM     69  C   UNL A   1      44.631  33.413  29.558  1.00  0.00     0.037 A 
ATOM     70  C   UNL A   1      45.774  28.019  34.321  1.00  0.00     0.037 A 
ATOM     71  C   UNL A   1      45.882  32.637  29.767  1.00  0.00     0.049 A 
ATOM     72  C   UNL A   1      46.442  27.875  32.949  1.00  0.00     0.074 A 
ATOM     73  C   UNL A   1      47.205  32.920  30.072  1.00  0.00     0.029 A 
ATOM     74  N   UNL A   1      45.832  31.235  29.683  1.00  0.00    -0.354 N 
ATOM     75  N   UNL A   1      46.586  28.854  32.079  1.00  0.00    -0.248 NA
ATOM     76  C   UNL A   1      47.008  26.636  32.431  1.00  0.00     0.031 C 
ATOM     77  C   UNL A   1      47.918  31.687  30.197  1.00  0.00     0.029 A 
ATOM     78  C   UNL A   1      47.036  30.638  29.987  1.00  0.00     0.049 A 
ATOM     79  H   UNL A   1      45.023  30.734  29.434  1.00  0.00     0.167 HD
ATOM     80  C   UNL A   1      47.107  28.397  30.890  1.00  0.00     0.074 A 
ATOM     81  C   UNL A   1      47.415  27.009  31.200  1.00  0.00     0.031 C 
ATOM     82  C   UNL A   1      47.209  29.193  29.769  1.00  0.00     0.037 A 
BRANCH  69  83
ATOM     83  C   UNL A   1      44.585  34.823  28.947  1.00  0.00     0.058 A 
ATOM     84  C   UNL A   1      44.614  35.038  27.549  1.00  0.00     0.135 A 
ATOM     85  C   UNL A   1      44.619  36.018  29.707  1.00  0.00     0.135 A 
ATOM     86  F   UNL A   1      44.618  34.008  26.691  1.00  0.00    -0.206 F 
ATOM     87  C   UNL A   1      44.657  36.316  26.963  1.00  0.00     0.059 A 
ATOM     88  C   UNL A   1      44.596  37.303  29.145  1.00  0.00     0.059 A 
ATOM     89  F   UNL A   1      44.741  35.999  31.041  1.00  0.00    -0.206 F 
ATOM     90  C   UNL A   1      44.635  37.447  27.769  1.00  0.00     0.060 A 
BRANCH  90  91
ATOM     91  S   UNL A   1      44.658  39.094  27.020  1.00  0.00     0.124 S 
ATOM     92  O   UNL A   1      43.312  39.193  26.467  1.00  0.00    -0.237 OA
ATOM     93  O   UNL A   1      44.942  39.957  28.163  1.00  0.00    -0.237 OA
ATOM     94  O   UNL A   1      45.733  39.002  26.035  1.00  0.00    -0.744 OA
ENDBRANCH  90  91
ENDBRANCH  69  83
BRANCH  70  95
ATOM     95  C   UNL A   1      45.290  27.044  35.348  1.00  0.00     0.058 A 
ATOM     96  C   UNL A   1      44.391  26.071  34.854  1.00  0.00     0.135 A 
ATOM     97  C   UNL A   1      46.102  26.648  36.427  1.00  0.00     0.135 A 
ATOM     98  F   UNL A   1      43.565  26.391  33.846  1.00  0.00    -0.206 F 
ATOM     99  C   UNL A   1      44.456  24.730  35.238  1.00  0.00     0.059 A 
ATOM    100  C   UNL A   1      46.171  25.307  36.838  1.00  0.00     0.059 A 
ATOM    101  F   UNL A   1      46.955  27.520  36.983  1.00  0.00    -0.206 F 
ATOM    102  C   UNL A   1      45.399  24.345  36.185  1.00  0.00     0.060 A 
BRANCH 102 103
ATOM    103  S   UNL A   1      45.796  22.582  36.380  1.00  0.00     0.124 S 
ATOM    104  O   UNL A   1      44.792  21.951  35.533  1.00  0.00    -0.237 OA
ATOM    105  O   UNL A   1      47.173  22.500  35.902  1.00  0.00    -0.237 OA
ATOM    106  O   UNL A   1      45.634  22.380  37.818  1.00  0.00    -0.744 OA
ENDBRANCH 102 103
ENDBRANCH  70  95
BRANCH  82 107
ATOM    107  C   UNL A   1      47.483  28.767  28.309  1.00  0.00     0.058 A 
ATOM    108  C   UNL A   1      48.648  29.035  27.572  1.00  0.00     0.135 A 
ATOM    109  C   UNL A   1      46.562  27.911  27.626  1.00  0.00     0.135 A 
ATOM    110  F   UNL A   1      49.657  29.750  28.077  1.00  0.00    -0.206 F 
ATOM    111  C   UNL A   1      48.869  28.534  26.281  1.00  0.00     0.059 A 
ATOM    112  C   UNL A   1      46.782  27.365  26.363  1.00  0.00     0.059 A 
ATOM    113  F   UNL A   1      45.397  27.532  28.167  1.00  0.00    -0.206 F 
ATOM    114  C   UNL A   1      47.937  27.690  25.688  1.00  0.00     0.060 A 
BRANCH 114 115
ATOM    115  S   UNL A   1      48.280  26.965  24.076  1.00  0.00     0.124 S 
ATOM    116  O   UNL A   1      47.176  26.021  23.939  1.00  0.00    -0.237 OA
ATOM    117  O   UNL A   1      48.230  28.129  23.195  1.00  0.00    -0.237 OA
ATOM    118  O   UNL A   1      49.603  26.372  24.242  1.00  0.00    -0.744 OA
ENDBRANCH 114 115
ENDBRANCH  82 107
ENDBRANCH  56  57
ENDBRANCH  49  51
ENDBRANCH  48  49
ENDBRANCH  47  48
ENDBRANCH  46  47
ENDBRANCH  45  46
ENDBRANCH  44  45
ENDBRANCH  43  44
ENDBRANCH  42  43
ENDBRANCH   1  42
TORSDOF 30
ENDMDL
MODEL 3
REMARK VINA RESULT:      -8.1      3.210      7.460
REMARK SMILES Cc1ccc(S(=O)(=O)n2cc(C(=O)C(=O)N[C@@H](Cc3cnc[nH]3)C(=O)OCCOCCOCCOCCOC(=O)c3ccc(-c4c5nc(c(-c6c(F)cc(S(=O)(=O)[O-])cc6F)c6ccc([nH]6)c(-c6c(F)cc(S(=O)(=O)[O-])cc6F)c6nc(c(-c7c(F)cc(S(=O)(=O)[O-])cc7F)c7ccc4[nH]7)C=C6)C=C5)cc3)c3ccccc32)cc1
REMARK SMILES IDX 31 1 30 2 29 3 28 4 27 5 26 6 24 7 25 8 17 9 16 10 14 11
REMARK SMILES IDX 15 12 12 14 13 15 11 16 9 17 10 18 112 19 107 20 111 21
REMARK SMILES IDX 108 22 110 23 109 24 6 25 7 26 8 27 5 28 1 29 2 30 3 31
REMARK SMILES IDX 114 32 4 33 113 34 18 35 19 36 20 37 23 38 21 39 22 40 32 42
REMARK SMILES IDX 33 43 34 44 35 45 36 46 37 47 38 48 39 49 40 50 41 51 42 52
REMARK SMILES IDX 106 53 43 54 105 55 44 56 45 57 46 58 99 59 47 60 104 61
REMARK SMILES IDX 98 62 100 63 48 64 103 65 97 66 96 67 49 69 83 70 62 71
REMARK SMILES IDX 82 72 63 73 66 74 81 75 101 76 64 77 65 78 80 80 102 81
REMARK SMILES IDX 67 82 50 83 51 84 60 85 52 86 53 87 59 88 61 89 54 90 55 91
REMARK SMILES IDX 56 92 57 93 58 94 84 95 85 96 94 97 86 98 87 99 93 100
REMARK SMILES IDX 95 101 88 102 89 103 90 104 91 105 92 106 68 107 69 108
REMARK SMILES IDX 78 109 70 110 71 111 77 112 79 113 72 114 73 115 74 116
REMARK SMILES IDX 75 117 76 118
REMARK H PARENT 16 13 23 41 100 68 66 79
REMARK Flexibility Score: inf
ROOT
ATOM      1  C   UNL A   1      40.925  20.667  26.319  1.00  0.00     0.188 C 
ENDROOT
BRANCH   1   2
ATOM      2  C   UNL A   1      39.403  20.780  26.175  1.00  0.00     0.188 C 
BRANCH   2   3
ATOM      3  O   UNL A   1      38.888  21.957  25.554  1.00  0.00    -0.376 OA
BRANCH   3   4
ATOM      4  C   UNL A   1      37.519  22.252  25.824  1.00  0.00     0.202 C 
BRANCH   4   5
ATOM      5  C   UNL A   1      37.085  23.690  25.551  1.00  0.00     0.261 C 
BRANCH   5   6
ATOM      6  O   UNL A   1      35.656  23.844  25.669  1.00  0.00    -0.462 OA
BRANCH   6   7
ATOM      7  C   UNL A   1      35.024  24.092  24.495  1.00  0.00     0.329 C 
ATOM      8  O   UNL A   1      35.332  23.578  23.423  1.00  0.00    -0.250 OA
BRANCH   7   9
ATOM      9  C   UNL A   1      33.913  25.153  24.607  1.00  0.00     0.198 C 
BRANCH   9  10
ATOM     10  N   UNL A   1      34.073  26.436  23.891  1.00  0.00    -0.335 N 
ATOM     11  C   UNL A   1      33.878  27.718  24.378  1.00  0.00     0.293 C 
ATOM     12  O   UNL A   1      33.863  28.674  23.613  1.00  0.00    -0.265 OA
ATOM     13  H   UNL A   1      34.353  26.370  22.949  1.00  0.00     0.164 HD
BRANCH  11  14
ATOM     14  C   UNL A   1      33.741  27.940  25.902  1.00  0.00     0.252 C 
ATOM     15  O   UNL A   1      33.684  26.932  26.603  1.00  0.00    -0.283 OA
BRANCH  14  16
ATOM     16  C   UNL A   1      33.708  29.260  26.552  1.00  0.00     0.054 A 
ATOM     17  N   UNL A   1      34.193  31.127  27.682  1.00  0.00    -0.240 N 
ATOM     18  C   UNL A   1      34.628  29.849  27.405  1.00  0.00     0.117 A 
ATOM     19  C   UNL A   1      33.027  31.415  27.006  1.00  0.00     0.065 A 
ATOM     20  C   UNL A   1      32.648  30.224  26.380  1.00  0.00     0.012 A 
ATOM     21  C   UNL A   1      32.253  32.587  26.893  1.00  0.00     0.028 A 
ATOM     22  C   UNL A   1      31.410  30.188  25.699  1.00  0.00     0.011 A 
ATOM     23  C   UNL A   1      31.044  32.520  26.196  1.00  0.00     0.002 A 
ATOM     24  C   UNL A   1      30.615  31.331  25.622  1.00  0.00     0.001 A 
BRANCH  17  25
ATOM     25  S   UNL A   1      35.080  32.247  28.611  1.00  0.00     0.268 S 
ATOM     26  O   UNL A   1      34.113  32.741  29.597  1.00  0.00    -0.201 OA
ATOM     27  O   UNL A   1      35.734  33.127  27.690  1.00  0.00    -0.201 OA
BRANCH  25  28
ATOM     28  C   UNL A   1      36.340  31.383  29.521  1.00  0.00     0.088 A 
ATOM     29  C   UNL A   1      39.632  29.579  31.632  1.00  0.00     0.044 C 
ATOM     30  C   UNL A   1      38.478  30.196  30.897  1.00  0.00    -0.051 A 
ATOM     31  C   UNL A   1      38.674  30.737  29.621  1.00  0.00     0.005 A 
ATOM     32  C   UNL A   1      37.194  30.222  31.457  1.00  0.00     0.005 A 
ATOM     33  C   UNL A   1      37.614  31.334  28.938  1.00  0.00     0.022 A 
ATOM     34  C   UNL A   1      36.121  30.801  30.769  1.00  0.00     0.022 A 
ENDBRANCH  25  28
ENDBRANCH  17  25
ENDBRANCH  14  16
ENDBRANCH  11  14
ENDBRANCH   9  10
BRANCH   9  35
ATOM     35  C   UNL A   1      32.561  24.457  24.347  1.00  0.00     0.092 C 
BRANCH  35  36
ATOM     36  C   UNL A   1      31.805  23.982  25.539  1.00  0.00     0.037 A 
ATOM     37  C   UNL A   1      32.236  23.577  26.785  1.00  0.00     0.134 A 
ATOM     38  N   UNL A   1      30.451  23.764  25.557  1.00  0.00    -0.348 N 
ATOM     39  N   UNL A   1      31.203  23.068  27.521  1.00  0.00    -0.245 NA
ATOM     40  C   UNL A   1      30.145  23.175  26.751  1.00  0.00     0.196 A 
ATOM     41  H   UNL A   1      29.814  23.991  24.840  1.00  0.00     0.167 HD
ENDBRANCH  35  36
ENDBRANCH   9  35
ENDBRANCH   7   9
ENDBRANCH   6   7
ENDBRANCH   5   6
ENDBRANCH   4   5
ENDBRANCH   3   4
ENDBRANCH   2   3
ENDBRANCH   1   2
BRANCH   1  42
ATOM     42  O   UNL A   1      41.685  21.801  25.993  1.00  0.00    -0.377 OA
BRANCH  42  43
ATOM     43  C   UNL A   1      42.943  22.004  26.586  1.00  0.00     0.188 C 
BRANCH  43  44
ATOM     44  C   UNL A   1      42.788  22.227  28.095  1.00  0.00     0.188 C 
BRANCH  44  45
ATOM     45  O   UNL A   1      42.588  23.548  28.597  1.00  0.00    -0.376 OA
BRANCH  45  46
ATOM     46  C   UNL A   1      43.080  24.657  27.841  1.00  0.00     0.202 C 
BRANCH  46  47
ATOM     47  C   UNL A   1      42.236  25.940  27.819  1.00  0.00     0.261 C 
BRANCH  47  48
ATOM     48  O   UNL A   1      42.964  27.095  27.382  1.00  0.00    -0.460 OA
BRANCH  48  49
ATOM     49  C   UNL A   1      44.170  26.907  26.782  1.00  0.00     0.338 C 
ATOM     50  O   UNL A   1      44.415  26.519  25.653  1.00  0.00    -0.246 OA
BRANCH  49  51
ATOM     51  C   UNL A   1      45.140  27.570  27.679  1.00  0.00     0.060 A 
ATOM     52  C   UNL A   1      45.025  27.437  29.061  1.00  0.00     0.016 A 
ATOM     53  C   UNL A   1      45.860  28.628  27.125  1.00  0.00     0.016 A 
ATOM     54  C   UNL A   1      45.428  28.497  29.875  1.00  0.00     0.010 A 
ATOM     55  C   UNL A   1      46.139  29.731  27.923  1.00  0.00     0.010 A 
ATOM     56  C   UNL A   1      45.794  29.718  29.281  1.00  0.00    -0.014 A 
BRANCH  56  57
ATOM     57  C   UNL A   1      45.395  31.005  29.906  1.00  0.00     0.031 A 
ATOM     58  C   UNL A   1      44.003  31.552  29.890  1.00  0.00     0.074 A 
ATOM     59  C   UNL A   1      46.301  31.606  30.730  1.00  0.00     0.049 A 
ATOM     60  N   UNL A   1      43.721  32.738  30.320  1.00  0.00    -0.248 NA
ATOM     61  C   UNL A   1      42.808  30.866  29.405  1.00  0.00     0.031 C 
ATOM     62  C   UNL A   1      46.072  32.675  31.700  1.00  0.00     0.029 A 
ATOM     63  N   UNL A   1      47.675  31.373  30.860  1.00  0.00    -0.354 N 
ATOM     64  C   UNL A   1      42.364  32.865  30.465  1.00  0.00     0.074 A 
ATOM     65  C   UNL A   1      41.833  31.708  29.788  1.00  0.00     0.031 C 
ATOM     66  C   UNL A   1      47.224  33.046  32.267  1.00  0.00     0.029 A 
ATOM     67  C   UNL A   1      48.285  32.468  31.489  1.00  0.00     0.049 A 
ATOM     68  H   UNL A   1      48.143  30.562  30.556  1.00  0.00     0.167 HD
ATOM     69  C   UNL A   1      41.874  33.889  31.230  1.00  0.00     0.037 A 
ATOM     70  C   UNL A   1      49.118  33.269  30.761  1.00  0.00     0.037 A 
ATOM     71  C   UNL A   1      42.893  34.935  31.502  1.00  0.00     0.049 A 
ATOM     72  C   UNL A   1      48.514  34.604  30.313  1.00  0.00     0.074 A 
ATOM     73  C   UNL A   1      43.231  35.762  32.563  1.00  0.00     0.029 A 
ATOM     74  N   UNL A   1      43.835  35.240  30.505  1.00  0.00    -0.354 N 
ATOM     75  N   UNL A   1      47.287  35.000  30.585  1.00  0.00    -0.248 NA
ATOM     76  C   UNL A   1      49.220  35.610  29.530  1.00  0.00     0.031 C 
ATOM     77  C   UNL A   1      44.385  36.523  32.198  1.00  0.00     0.029 A 
ATOM     78  C   UNL A   1      44.775  36.158  30.919  1.00  0.00     0.049 A 
ATOM     79  H   UNL A   1      43.825  34.838  29.606  1.00  0.00     0.167 HD
ATOM     80  C   UNL A   1      46.988  36.182  29.946  1.00  0.00     0.074 A 
ATOM     81  C   UNL A   1      48.266  36.548  29.356  1.00  0.00     0.031 C 
ATOM     82  C   UNL A   1      45.720  36.725  29.943  1.00  0.00     0.037 A 
BRANCH  69  83
ATOM     83  C   UNL A   1      40.454  33.896  31.819  1.00  0.00     0.058 A 
ATOM     84  C   UNL A   1      40.176  33.410  33.118  1.00  0.00     0.135 A 
ATOM     85  C   UNL A   1      39.297  34.280  31.096  1.00  0.00     0.135 A 
ATOM     86  F   UNL A   1      41.160  32.980  33.920  1.00  0.00    -0.206 F 
ATOM     87  C   UNL A   1      38.876  33.327  33.652  1.00  0.00     0.059 A 
ATOM     88  C   UNL A   1      38.000  34.267  31.630  1.00  0.00     0.059 A 
ATOM     89  F   UNL A   1      39.360  34.627  29.803  1.00  0.00    -0.206 F 
ATOM     90  C   UNL A   1      37.792  33.770  32.905  1.00  0.00     0.060 A 
BRANCH  90  91
ATOM     91  S   UNL A   1      36.124  33.696  33.599  1.00  0.00     0.124 S 
ATOM     92  O   UNL A   1      36.288  32.730  34.679  1.00  0.00    -0.237 OA
ATOM     93  O   UNL A   1      35.890  35.077  34.011  1.00  0.00    -0.237 OA
ATOM     94  O   UNL A   1      35.310  33.242  32.474  1.00  0.00    -0.744 OA
ENDBRANCH  90  91
ENDBRANCH  69  83
BRANCH  70  95
ATOM     95  C   UNL A   1      50.354  32.511  30.389  1.00  0.00     0.058 A 
ATOM     96  C   UNL A   1      50.982  31.849  31.469  1.00  0.00     0.135 A 
ATOM     97  C   UNL A   1      50.496  31.909  29.125  1.00  0.00     0.135 A 
ATOM     98  F   UNL A   1      50.913  32.384  32.698  1.00  0.00    -0.206 F 
ATOM     99  C   UNL A   1      51.509  30.561  31.352  1.00  0.00     0.059 A 
ATOM    100  C   UNL A   1      51.036  30.621  28.984  1.00  0.00     0.059 A 
ATOM    101  F   UNL A   1      49.966  32.490  28.040  1.00  0.00    -0.206 F 
ATOM    102  C   UNL A   1      51.470  29.927  30.114  1.00  0.00     0.060 A 
BRANCH 102 103
ATOM    103  S   UNL A   1      51.740  28.132  30.025  1.00  0.00     0.124 S 
ATOM    104  O   UNL A   1      50.381  27.616  30.143  1.00  0.00    -0.237 OA
ATOM    105  O   UNL A   1      52.375  27.958  28.723  1.00  0.00    -0.237 OA
ATOM    106  O   UNL A   1      52.614  27.888  31.170  1.00  0.00    -0.744 OA
ENDBRANCH 102 103
ENDBRANCH  70  95
BRANCH  82 107
ATOM    107  C   UNL A   1      45.160  37.854  29.050  1.00  0.00     0.058 A 
ATOM    108  C   UNL A   1      44.838  39.157  29.465  1.00  0.00     0.135 A 
ATOM    109  C   UNL A   1      45.052  37.664  27.636  1.00  0.00     0.135 A 
ATOM    110  F   UNL A   1      44.956  39.545  30.737  1.00  0.00    -0.206 F 
ATOM    111  C   UNL A   1      44.424  40.162  28.579  1.00  0.00     0.059 A 
ATOM    112  C   UNL A   1      44.687  38.661  26.733  1.00  0.00     0.059 A 
ATOM    113  F   UNL A   1      45.325  36.494  27.046  1.00  0.00    -0.206 F 
ATOM    114  C   UNL A   1      44.362  39.910  27.213  1.00  0.00     0.060 A 
BRANCH 114 115
ATOM    115  S   UNL A   1      43.934  41.237  26.074  1.00  0.00     0.124 S 
ATOM    116  O   UNL A   1      42.498  41.036  25.917  1.00  0.00    -0.237 OA
ATOM    117  O   UNL A   1      44.329  42.427  26.822  1.00  0.00    -0.237 OA
ATOM    118  O   UNL A   1      44.745  40.950  24.895  1.00  0.00    -0.744 OA
ENDBRANCH 114 115
ENDBRANCH  82 107
ENDBRANCH  56  57
ENDBRANCH  49  51
ENDBRANCH  48  49
ENDBRANCH  47  48
ENDBRANCH  46  47
ENDBRANCH  45  46
ENDBRANCH  44  45
ENDBRANCH  43  44
ENDBRANCH  42  43
ENDBRANCH   1  42
TORSDOF 30
ENDMDL
