MODEL 1
REMARK VINA RESULT:      -9.4      0.000      0.000
REMARK SMILES CCOc1ccc(NC(=O)CC2(CC(=O)OCCOCCOCCOCCOC(=O)c3ccc(-c4c5nc(c(-c6c(F)cc(S(=O)(=O)[O-])cc6F)c6ccc([nH]6)c(-c6c(F)cc(S(=O)(=O)[O-])cc6F)c6nc(c(-c7c(F)cc(S(=O)(=O)[O-])cc7F)c7ccc4[nH]7)C=C6)C=C5)cc3)CCCCC2)cc1
REMARK SMILES IDX 20 1 19 2 18 3 17 4 16 5 14 6 15 7 13 8 12 9 97 10 101 11
REMARK SMILES IDX 98 12 100 13 99 14 11 15 9 16 8 17 10 19 7 20 4 21 5 22
REMARK SMILES IDX 103 23 6 24 102 25 3 26 2 27 1 28 21 29 22 30 23 31 24 32
REMARK SMILES IDX 25 33 26 34 27 35 28 36 29 37 30 38 31 39 32 40 96 41 33 42
REMARK SMILES IDX 95 43 34 44 35 45 36 46 89 47 37 48 94 49 88 50 90 51 38 52
REMARK SMILES IDX 93 53 87 54 86 55 39 57 73 58 52 59 72 60 53 61 56 62 71 63
REMARK SMILES IDX 91 64 54 65 55 66 70 68 92 69 57 70 40 71 41 72 50 73 42 74
REMARK SMILES IDX 43 75 49 76 51 77 44 78 45 79 46 80 47 81 48 82 74 83 75 84
REMARK SMILES IDX 84 85 76 86 77 87 83 88 85 89 78 90 79 91 80 92 81 93 82 94
REMARK SMILES IDX 58 95 59 96 68 97 60 98 61 99 67 100 69 101 62 102 63 103
REMARK SMILES IDX 64 104 65 105 66 106
REMARK H PARENT 8 18 90 56 56 67
REMARK Flexibility Score: inf
ROOT
ATOM      1  C   UNL A   1      35.143  31.045  28.636  1.00  0.00     0.188 C 
ENDROOT
BRANCH   1   2
ATOM      2  O   UNL A   1      34.813  30.995  27.251  1.00  0.00    -0.376 OA
BRANCH   2   3
ATOM      3  C   UNL A   1      33.504  30.562  26.890  1.00  0.00     0.202 C 
BRANCH   3   4
ATOM      4  C   UNL A   1      33.118  29.144  27.332  1.00  0.00     0.261 C 
BRANCH   4   5
ATOM      5  O   UNL A   1      32.501  28.390  26.257  1.00  0.00    -0.463 OA
BRANCH   5   6
ATOM      6  C   UNL A   1      31.819  27.247  26.551  1.00  0.00     0.306 C 
ATOM      7  O   UNL A   1      31.097  27.093  27.528  1.00  0.00    -0.252 OA
BRANCH   6   8
ATOM      8  C   UNL A   1      32.148  26.141  25.554  1.00  0.00     0.130 C 
BRANCH   8   9
ATOM      9  C   UNL A   1      31.082  25.500  24.569  1.00  0.00    -0.011 C 
ATOM     10  C   UNL A   1      31.770  25.344  23.168  1.00  0.00     0.008 C 
ATOM     11  C   UNL A   1      29.895  26.483  24.341  1.00  0.00     0.008 C 
ATOM     12  C   UNL A   1      32.170  26.674  22.515  1.00  0.00     0.001 C 
ATOM     13  C   UNL A   1      30.261  27.814  23.687  1.00  0.00     0.001 C 
ATOM     14  C   UNL A   1      30.984  27.616  22.368  1.00  0.00     0.000 C 
BRANCH   9  15
ATOM     15  C   UNL A   1      30.592  24.077  25.011  1.00  0.00     0.108 C 
BRANCH  15  16
ATOM     16  C   UNL A   1      30.647  23.621  26.475  1.00  0.00     0.224 C 
ATOM     17  N   UNL A   1      31.599  22.800  27.009  1.00  0.00    -0.326 N 
ATOM     18  H   UNL A   1      31.436  22.596  27.958  1.00  0.00     0.169 HD
ATOM     19  O   UNL A   1      29.759  24.013  27.248  1.00  0.00    -0.275 OA
BRANCH  17  20
ATOM     20  C   UNL A   1      32.759  22.180  26.511  1.00  0.00     0.041 A 
ATOM     21  C   UNL A   1      35.194  21.235  25.458  1.00  0.00     0.119 A 
ATOM     22  C   UNL A   1      34.018  21.040  24.765  1.00  0.00     0.048 A 
ATOM     23  C   UNL A   1      35.168  21.908  26.671  1.00  0.00     0.048 A 
ATOM     24  C   UNL A   1      32.814  21.473  25.321  1.00  0.00     0.030 A 
ATOM     25  C   UNL A   1      33.953  22.351  27.215  1.00  0.00     0.030 A 
BRANCH  21  26
ATOM     26  O   UNL A   1      36.397  20.848  24.951  1.00  0.00    -0.494 OA
BRANCH  26  27
ATOM     27  C   UNL A   1      37.258  21.949  24.636  1.00  0.00     0.226 C 
ATOM     28  C   UNL A   1      36.773  22.577  23.345  1.00  0.00     0.049 C 
ENDBRANCH  26  27
ENDBRANCH  21  26
ENDBRANCH  17  20
ENDBRANCH  15  16
ENDBRANCH   9  15
ENDBRANCH   8   9
ENDBRANCH   6   8
ENDBRANCH   5   6
ENDBRANCH   4   5
ENDBRANCH   3   4
ENDBRANCH   2   3
ENDBRANCH   1   2
BRANCH   1  29
ATOM     29  C   UNL A   1      34.740  32.278  29.439  1.00  0.00     0.188 C 
BRANCH  29  30
ATOM     30  O   UNL A   1      35.524  33.458  29.405  1.00  0.00    -0.377 OA
BRANCH  30  31
ATOM     31  C   UNL A   1      35.402  34.339  28.304  1.00  0.00     0.188 C 
BRANCH  31  32
ATOM     32  C   UNL A   1      34.045  35.015  28.093  1.00  0.00     0.188 C 
BRANCH  32  33
ATOM     33  O   UNL A   1      33.989  36.360  28.553  1.00  0.00    -0.376 OA
BRANCH  33  34
ATOM     34  C   UNL A   1      33.079  36.587  29.629  1.00  0.00     0.202 C 
BRANCH  34  35
ATOM     35  C   UNL A   1      32.553  35.319  30.316  1.00  0.00     0.261 C 
BRANCH  35  36
ATOM     36  O   UNL A   1      32.155  35.473  31.691  1.00  0.00    -0.460 OA
BRANCH  36  37
ATOM     37  C   UNL A   1      33.083  35.950  32.540  1.00  0.00     0.338 C 
ATOM     38  O   UNL A   1      33.007  36.954  33.237  1.00  0.00    -0.246 OA
BRANCH  37  39
ATOM     39  C   UNL A   1      34.233  35.037  32.549  1.00  0.00     0.060 A 
ATOM     40  C   UNL A   1      34.088  33.756  33.090  1.00  0.00     0.016 A 
ATOM     41  C   UNL A   1      35.483  35.496  32.122  1.00  0.00     0.016 A 
ATOM     42  C   UNL A   1      35.212  32.942  33.252  1.00  0.00     0.010 A 
ATOM     43  C   UNL A   1      36.606  34.680  32.288  1.00  0.00     0.010 A 
ATOM     44  C   UNL A   1      36.483  33.415  32.894  1.00  0.00    -0.014 A 
BRANCH  44  45
ATOM     45  C   UNL A   1      37.696  32.664  33.311  1.00  0.00     0.031 A 
ATOM     46  C   UNL A   1      38.395  33.063  34.580  1.00  0.00     0.074 A 
ATOM     47  C   UNL A   1      38.161  31.626  32.594  1.00  0.00     0.049 A 
ATOM     48  N   UNL A   1      39.450  32.535  35.143  1.00  0.00    -0.248 NA
ATOM     49  C   UNL A   1      37.822  34.201  35.318  1.00  0.00     0.031 C 
ATOM     50  C   UNL A   1      37.545  31.112  31.378  1.00  0.00     0.029 A 
ATOM     51  N   UNL A   1      39.257  30.821  32.778  1.00  0.00    -0.354 N 
ATOM     52  C   UNL A   1      39.658  33.261  36.308  1.00  0.00     0.074 A 
ATOM     53  C   UNL A   1      38.649  34.297  36.349  1.00  0.00     0.031 C 
ATOM     54  C   UNL A   1      38.292  30.106  30.892  1.00  0.00     0.029 A 
ATOM     55  C   UNL A   1      39.436  29.893  31.776  1.00  0.00     0.049 A 
ATOM     56  H   UNL A   1      39.861  30.899  33.552  1.00  0.00     0.167 HD
ATOM     57  C   UNL A   1      40.592  33.067  37.269  1.00  0.00     0.037 A 
ATOM     58  C   UNL A   1      40.407  28.976  31.597  1.00  0.00     0.037 A 
ATOM     59  C   UNL A   1      41.603  32.046  37.223  1.00  0.00     0.049 A 
ATOM     60  C   UNL A   1      41.478  28.826  32.645  1.00  0.00     0.074 A 
ATOM     61  C   UNL A   1      42.588  31.769  38.155  1.00  0.00     0.029 A 
ATOM     62  N   UNL A   1      41.767  31.139  36.188  1.00  0.00    -0.354 N 
ATOM     63  N   UNL A   1      41.636  29.492  33.764  1.00  0.00    -0.248 NA
ATOM     64  C   UNL A   1      42.490  27.783  32.420  1.00  0.00     0.031 C 
ATOM     65  C   UNL A   1      43.372  30.719  37.663  1.00  0.00     0.029 A 
ATOM     66  C   UNL A   1      42.848  30.313  36.446  1.00  0.00     0.049 A 
ATOM     67  H   UNL A   1      41.198  31.089  35.385  1.00  0.00     0.167 HD
ATOM     68  C   UNL A   1      42.739  28.925  34.394  1.00  0.00     0.074 A 
ATOM     69  C   UNL A   1      43.209  27.861  33.532  1.00  0.00     0.031 C 
ATOM     70  C   UNL A   1      43.302  29.250  35.584  1.00  0.00     0.037 A 
BRANCH  57  71
ATOM     71  C   UNL A   1      40.563  33.998  38.446  1.00  0.00     0.058 A 
ATOM     72  C   UNL A   1      41.344  35.166  38.477  1.00  0.00     0.135 A 
ATOM     73  C   UNL A   1      39.739  33.728  39.550  1.00  0.00     0.135 A 
ATOM     74  F   UNL A   1      42.164  35.457  37.456  1.00  0.00    -0.206 F 
ATOM     75  C   UNL A   1      41.327  36.020  39.574  1.00  0.00     0.059 A 
ATOM     76  C   UNL A   1      39.690  34.581  40.648  1.00  0.00     0.059 A 
ATOM     77  F   UNL A   1      38.979  32.623  39.570  1.00  0.00    -0.206 F 
ATOM     78  C   UNL A   1      40.499  35.716  40.656  1.00  0.00     0.060 A 
BRANCH  78  79
ATOM     79  S   UNL A   1      40.490  36.832  42.076  1.00  0.00     0.124 S 
ATOM     80  O   UNL A   1      39.310  37.645  41.798  1.00  0.00    -0.237 OA
ATOM     81  O   UNL A   1      40.373  35.908  43.200  1.00  0.00    -0.237 OA
ATOM     82  O   UNL A   1      41.770  37.525  41.971  1.00  0.00    -0.744 OA
ENDBRANCH  78  79
ENDBRANCH  57  71
BRANCH  58  83
ATOM     83  C   UNL A   1      40.401  28.110  30.389  1.00  0.00     0.058 A 
ATOM     84  C   UNL A   1      39.473  27.068  30.245  1.00  0.00     0.135 A 
ATOM     85  C   UNL A   1      41.334  28.300  29.356  1.00  0.00     0.135 A 
ATOM     86  F   UNL A   1      38.567  26.841  31.208  1.00  0.00    -0.206 F 
ATOM     87  C   UNL A   1      39.478  26.235  29.131  1.00  0.00     0.059 A 
ATOM     88  C   UNL A   1      41.346  27.493  28.222  1.00  0.00     0.059 A 
ATOM     89  F   UNL A   1      42.238  29.288  29.443  1.00  0.00    -0.206 F 
ATOM     90  C   UNL A   1      40.420  26.455  28.124  1.00  0.00     0.060 A 
BRANCH  90  91
ATOM     91  S   UNL A   1      40.392  25.392  26.663  1.00  0.00     0.124 S 
ATOM     92  O   UNL A   1      38.996  24.971  26.634  1.00  0.00    -0.237 OA
ATOM     93  O   UNL A   1      40.804  26.311  25.606  1.00  0.00    -0.237 OA
ATOM     94  O   UNL A   1      41.360  24.349  26.989  1.00  0.00    -0.744 OA
ENDBRANCH  90  91
ENDBRANCH  58  83
BRANCH  70  95
ATOM     95  C   UNL A   1      44.466  28.421  36.049  1.00  0.00     0.058 A 
ATOM     96  C   UNL A   1      44.288  27.259  36.815  1.00  0.00     0.135 A 
ATOM     97  C   UNL A   1      45.776  28.770  35.683  1.00  0.00     0.135 A 
ATOM     98  F   UNL A   1      43.057  26.883  37.195  1.00  0.00    -0.206 F 
ATOM     99  C   UNL A   1      45.369  26.487  37.227  1.00  0.00     0.059 A 
ATOM    100  C   UNL A   1      46.870  27.999  36.062  1.00  0.00     0.059 A 
ATOM    101  F   UNL A   1      46.002  29.866  34.940  1.00  0.00    -0.206 F 
ATOM    102  C   UNL A   1      46.658  26.866  36.846  1.00  0.00     0.060 A 
BRANCH 102 103
ATOM    103  S   UNL A   1      48.055  25.845  37.363  1.00  0.00     0.124 S 
ATOM    104  O   UNL A   1      49.187  26.691  36.999  1.00  0.00    -0.237 OA
ATOM    105  O   UNL A   1      47.817  25.686  38.795  1.00  0.00    -0.237 OA
ATOM    106  O   UNL A   1      47.897  24.630  36.570  1.00  0.00    -0.744 OA
ENDBRANCH 102 103
ENDBRANCH  70  95
ENDBRANCH  44  45
ENDBRANCH  37  39
ENDBRANCH  36  37
ENDBRANCH  35  36
ENDBRANCH  34  35
ENDBRANCH  33  34
ENDBRANCH  32  33
ENDBRANCH  31  32
ENDBRANCH  30  31
ENDBRANCH  29  30
ENDBRANCH   1  29
TORSDOF 29
ENDMDL
MODEL 2
REMARK VINA RESULT:      -8.9      0.729      7.788
REMARK SMILES CCOc1ccc(NC(=O)CC2(CC(=O)OCCOCCOCCOCCOC(=O)c3ccc(-c4c5nc(c(-c6c(F)cc(S(=O)(=O)[O-])cc6F)c6ccc([nH]6)c(-c6c(F)cc(S(=O)(=O)[O-])cc6F)c6nc(c(-c7c(F)cc(S(=O)(=O)[O-])cc7F)c7ccc4[nH]7)C=C6)C=C5)cc3)CCCCC2)cc1
REMARK SMILES IDX 20 1 19 2 18 3 17 4 16 5 14 6 15 7 13 8 12 9 97 10 101 11
REMARK SMILES IDX 98 12 100 13 99 14 11 15 9 16 8 17 10 19 7 20 4 21 5 22
REMARK SMILES IDX 103 23 6 24 102 25 3 26 2 27 1 28 21 29 22 30 23 31 24 32
REMARK SMILES IDX 25 33 26 34 27 35 28 36 29 37 30 38 31 39 32 40 96 41 33 42
REMARK SMILES IDX 95 43 34 44 35 45 36 46 89 47 37 48 94 49 88 50 90 51 38 52
REMARK SMILES IDX 93 53 87 54 86 55 39 57 73 58 52 59 72 60 53 61 56 62 71 63
REMARK SMILES IDX 91 64 54 65 55 66 70 68 92 69 57 70 40 71 41 72 50 73 42 74
REMARK SMILES IDX 43 75 49 76 51 77 44 78 45 79 46 80 47 81 48 82 74 83 75 84
REMARK SMILES IDX 84 85 76 86 77 87 83 88 85 89 78 90 79 91 80 92 81 93 82 94
REMARK SMILES IDX 58 95 59 96 68 97 60 98 61 99 67 100 69 101 62 102 63 103
REMARK SMILES IDX 64 104 65 105 66 106
REMARK H PARENT 8 18 90 56 56 67
REMARK Flexibility Score: inf
ROOT
ATOM      1  C   UNL A   1      35.196  31.033  28.731  1.00  0.00     0.188 C 
ENDROOT
BRANCH   1   2
ATOM      2  O   UNL A   1      34.615  30.971  27.431  1.00  0.00    -0.376 OA
BRANCH   2   3
ATOM      3  C   UNL A   1      33.364  30.301  27.287  1.00  0.00     0.202 C 
BRANCH   3   4
ATOM      4  C   UNL A   1      33.406  28.770  27.380  1.00  0.00     0.261 C 
BRANCH   4   5
ATOM      5  O   UNL A   1      32.785  28.141  26.231  1.00  0.00    -0.463 OA
BRANCH   5   6
ATOM      6  C   UNL A   1      31.932  27.094  26.424  1.00  0.00     0.306 C 
ATOM      7  O   UNL A   1      31.089  27.032  27.309  1.00  0.00    -0.252 OA
BRANCH   6   8
ATOM      8  C   UNL A   1      32.230  25.958  25.451  1.00  0.00     0.130 C 
BRANCH   8   9
ATOM      9  C   UNL A   1      31.123  25.253  24.558  1.00  0.00    -0.011 C 
ATOM     10  C   UNL A   1      31.697  25.133  23.104  1.00  0.00     0.008 C 
ATOM     11  C   UNL A   1      29.866  26.165  24.434  1.00  0.00     0.008 C 
ATOM     12  C   UNL A   1      31.963  26.482  22.422  1.00  0.00     0.001 C 
ATOM     13  C   UNL A   1      30.096  27.512  23.753  1.00  0.00     0.001 C 
ATOM     14  C   UNL A   1      30.715  27.353  22.377  1.00  0.00     0.000 C 
BRANCH   9  15
ATOM     15  C   UNL A   1      30.757  23.805  25.038  1.00  0.00     0.108 C 
BRANCH  15  16
ATOM     16  C   UNL A   1      30.788  23.413  26.521  1.00  0.00     0.224 C 
ATOM     17  N   UNL A   1      31.819  22.769  27.144  1.00  0.00    -0.326 N 
ATOM     18  H   UNL A   1      31.630  22.574  28.090  1.00  0.00     0.169 HD
ATOM     19  O   UNL A   1      29.803  23.685  27.224  1.00  0.00    -0.275 OA
BRANCH  17  20
ATOM     20  C   UNL A   1      33.091  22.323  26.741  1.00  0.00     0.041 A 
ATOM     21  C   UNL A   1      35.637  21.675  25.726  1.00  0.00     0.119 A 
ATOM     22  C   UNL A   1      34.561  20.847  25.480  1.00  0.00     0.048 A 
ATOM     23  C   UNL A   1      35.451  22.832  26.468  1.00  0.00     0.048 A 
ATOM     24  C   UNL A   1      33.316  21.157  26.028  1.00  0.00     0.030 A 
ATOM     25  C   UNL A   1      34.192  23.142  27.003  1.00  0.00     0.030 A 
BRANCH  21  26
ATOM     26  O   UNL A   1      36.867  21.427  25.199  1.00  0.00    -0.494 OA
BRANCH  26  27
ATOM     27  C   UNL A   1      37.880  22.315  25.686  1.00  0.00     0.226 C 
ATOM     28  C   UNL A   1      39.155  21.519  25.885  1.00  0.00     0.049 C 
ENDBRANCH  26  27
ENDBRANCH  21  26
ENDBRANCH  17  20
ENDBRANCH  15  16
ENDBRANCH   9  15
ENDBRANCH   8   9
ENDBRANCH   6   8
ENDBRANCH   5   6
ENDBRANCH   4   5
ENDBRANCH   3   4
ENDBRANCH   2   3
ENDBRANCH   1   2
BRANCH   1  29
ATOM     29  C   UNL A   1      35.039  32.317  29.540  1.00  0.00     0.188 C 
BRANCH  29  30
ATOM     30  O   UNL A   1      35.844  33.451  29.269  1.00  0.00    -0.377 OA
BRANCH  30  31
ATOM     31  C   UNL A   1      35.540  34.266  28.152  1.00  0.00     0.188 C 
BRANCH  31  32
ATOM     32  C   UNL A   1      34.130  34.859  28.078  1.00  0.00     0.188 C 
BRANCH  32  33
ATOM     33  O   UNL A   1      34.050  36.217  28.494  1.00  0.00    -0.376 OA
BRANCH  33  34
ATOM     34  C   UNL A   1      33.258  36.442  29.660  1.00  0.00     0.202 C 
BRANCH  34  35
ATOM     35  C   UNL A   1      32.710  35.173  30.328  1.00  0.00     0.261 C 
BRANCH  35  36
ATOM     36  O   UNL A   1      32.417  35.284  31.733  1.00  0.00    -0.460 OA
BRANCH  36  37
ATOM     37  C   UNL A   1      33.339  35.896  32.497  1.00  0.00     0.338 C 
ATOM     38  O   UNL A   1      33.257  37.000  33.022  1.00  0.00    -0.246 OA
BRANCH  37  39
ATOM     39  C   UNL A   1      34.491  35.000  32.660  1.00  0.00     0.060 A 
ATOM     40  C   UNL A   1      34.350  33.832  33.416  1.00  0.00     0.016 A 
ATOM     41  C   UNL A   1      35.738  35.380  32.157  1.00  0.00     0.016 A 
ATOM     42  C   UNL A   1      35.476  33.060  33.713  1.00  0.00     0.010 A 
ATOM     43  C   UNL A   1      36.863  34.606  32.458  1.00  0.00     0.010 A 
ATOM     44  C   UNL A   1      36.746  33.466  33.274  1.00  0.00    -0.014 A 
BRANCH  44  45
ATOM     45  C   UNL A   1      37.961  32.801  33.811  1.00  0.00     0.031 A 
ATOM     46  C   UNL A   1      38.570  31.666  33.037  1.00  0.00     0.074 A 
ATOM     47  C   UNL A   1      38.537  33.208  34.956  1.00  0.00     0.049 A 
ATOM     48  N   UNL A   1      39.637  30.962  33.306  1.00  0.00    -0.248 NA
ATOM     49  C   UNL A   1      37.892  31.283  31.787  1.00  0.00     0.031 C 
ATOM     50  C   UNL A   1      38.072  34.324  35.770  1.00  0.00     0.029 A 
ATOM     51  N   UNL A   1      39.629  32.731  35.638  1.00  0.00    -0.354 N 
ATOM     52  C   UNL A   1      39.772  30.065  32.254  1.00  0.00     0.074 A 
ATOM     53  C   UNL A   1      38.651  30.283  31.365  1.00  0.00     0.031 C 
ATOM     54  C   UNL A   1      38.843  34.426  36.867  1.00  0.00     0.029 A 
ATOM     55  C   UNL A   1      39.869  33.386  36.824  1.00  0.00     0.049 A 
ATOM     56  H   UNL A   1      40.188  31.990  35.310  1.00  0.00     0.167 HD
ATOM     57  C   UNL A   1      40.753  29.158  32.037  1.00  0.00     0.037 A 
ATOM     58  C   UNL A   1      40.810  33.173  37.765  1.00  0.00     0.037 A 
ATOM     59  C   UNL A   1      41.861  28.933  32.925  1.00  0.00     0.049 A 
ATOM     60  C   UNL A   1      41.852  32.110  37.535  1.00  0.00     0.074 A 
ATOM     61  C   UNL A   1      42.908  28.040  32.785  1.00  0.00     0.029 A 
ATOM     62  N   UNL A   1      42.062  29.598  34.125  1.00  0.00    -0.354 N 
ATOM     63  N   UNL A   1      41.990  31.299  36.513  1.00  0.00    -0.248 NA
ATOM     64  C   UNL A   1      42.880  31.947  38.574  1.00  0.00     0.031 C 
ATOM     65  C   UNL A   1      43.721  28.137  33.920  1.00  0.00     0.029 A 
ATOM     66  C   UNL A   1      43.205  29.122  34.746  1.00  0.00     0.049 A 
ATOM     67  H   UNL A   1      41.477  30.304  34.484  1.00  0.00     0.167 HD
ATOM     68  C   UNL A   1      43.140  30.558  36.766  1.00  0.00     0.074 A 
ATOM     69  C   UNL A   1      43.660  31.017  38.037  1.00  0.00     0.031 C 
ATOM     70  C   UNL A   1      43.718  29.594  36.008  1.00  0.00     0.037 A 
BRANCH  57  71
ATOM     71  C   UNL A   1      40.655  28.333  30.786  1.00  0.00     0.058 A 
ATOM     72  C   UNL A   1      41.501  28.564  29.688  1.00  0.00     0.135 A 
ATOM     73  C   UNL A   1      39.715  27.296  30.687  1.00  0.00     0.135 A 
ATOM     74  F   UNL A   1      42.402  29.558  29.726  1.00  0.00    -0.206 F 
ATOM     75  C   UNL A   1      41.400  27.809  28.525  1.00  0.00     0.059 A 
ATOM     76  C   UNL A   1      39.612  26.514  29.540  1.00  0.00     0.059 A 
ATOM     77  F   UNL A   1      38.881  27.042  31.706  1.00  0.00    -0.206 F 
ATOM     78  C   UNL A   1      40.450  26.789  28.460  1.00  0.00     0.060 A 
BRANCH  78  79
ATOM     79  S   UNL A   1      40.327  25.819  26.942  1.00  0.00     0.124 S 
ATOM     80  O   UNL A   1      40.735  26.797  25.939  1.00  0.00    -0.237 OA
ATOM     81  O   UNL A   1      41.271  24.732  27.188  1.00  0.00    -0.237 OA
ATOM     82  O   UNL A   1      38.922  25.426  26.903  1.00  0.00    -0.744 OA
ENDBRANCH  78  79
ENDBRANCH  57  71
BRANCH  58  83
ATOM     83  C   UNL A   1      40.831  34.000  39.001  1.00  0.00     0.058 A 
ATOM     84  C   UNL A   1      41.692  35.099  39.127  1.00  0.00     0.135 A 
ATOM     85  C   UNL A   1      39.994  33.698  40.088  1.00  0.00     0.135 A 
ATOM     86  F   UNL A   1      42.518  35.422  38.120  1.00  0.00    -0.206 F 
ATOM     87  C   UNL A   1      41.737  35.861  40.290  1.00  0.00     0.059 A 
ATOM     88  C   UNL A   1      40.005  34.458  41.254  1.00  0.00     0.059 A 
ATOM     89  F   UNL A   1      39.145  32.661  40.013  1.00  0.00    -0.206 F 
ATOM     90  C   UNL A   1      40.889  35.532  41.350  1.00  0.00     0.060 A 
BRANCH  90  91
ATOM     91  S   UNL A   1      40.928  36.553  42.840  1.00  0.00     0.124 S 
ATOM     92  O   UNL A   1      41.555  35.648  43.798  1.00  0.00    -0.237 OA
ATOM     93  O   UNL A   1      41.736  37.690  42.413  1.00  0.00    -0.237 OA
ATOM     94  O   UNL A   1      39.519  36.850  43.080  1.00  0.00    -0.744 OA
ENDBRANCH  90  91
ENDBRANCH  58  83
BRANCH  70  95
ATOM     95  C   UNL A   1      45.003  28.996  36.509  1.00  0.00     0.058 A 
ATOM     96  C   UNL A   1      45.021  27.839  37.303  1.00  0.00     0.135 A 
ATOM     97  C   UNL A   1      46.236  29.564  36.150  1.00  0.00     0.135 A 
ATOM     98  F   UNL A   1      43.870  27.258  37.677  1.00  0.00    -0.206 F 
ATOM     99  C   UNL A   1      46.215  27.282  37.747  1.00  0.00     0.059 A 
ATOM    100  C   UNL A   1      47.443  29.009  36.562  1.00  0.00     0.059 A 
ATOM    101  F   UNL A   1      46.276  30.665  35.382  1.00  0.00    -0.206 F 
ATOM    102  C   UNL A   1      47.423  27.875  37.373  1.00  0.00     0.060 A 
BRANCH 102 103
ATOM    103  S   UNL A   1      48.969  27.131  37.933  1.00  0.00     0.124 S 
ATOM    104  O   UNL A   1      49.860  28.288  37.957  1.00  0.00    -0.237 OA
ATOM    105  O   UNL A   1      48.603  26.586  39.237  1.00  0.00    -0.237 OA
ATOM    106  O   UNL A   1      49.259  26.137  36.905  1.00  0.00    -0.744 OA
ENDBRANCH 102 103
ENDBRANCH  70  95
ENDBRANCH  44  45
ENDBRANCH  37  39
ENDBRANCH  36  37
ENDBRANCH  35  36
ENDBRANCH  34  35
ENDBRANCH  33  34
ENDBRANCH  32  33
ENDBRANCH  31  32
ENDBRANCH  30  31
ENDBRANCH  29  30
ENDBRANCH   1  29
TORSDOF 29
ENDMDL
MODEL 3
REMARK VINA RESULT:      -8.5      5.791      9.490
REMARK SMILES CCOc1ccc(NC(=O)CC2(CC(=O)OCCOCCOCCOCCOC(=O)c3ccc(-c4c5nc(c(-c6c(F)cc(S(=O)(=O)[O-])cc6F)c6ccc([nH]6)c(-c6c(F)cc(S(=O)(=O)[O-])cc6F)c6nc(c(-c7c(F)cc(S(=O)(=O)[O-])cc7F)c7ccc4[nH]7)C=C6)C=C5)cc3)CCCCC2)cc1
REMARK SMILES IDX 20 1 19 2 18 3 17 4 16 5 14 6 15 7 13 8 12 9 97 10 101 11
REMARK SMILES IDX 98 12 100 13 99 14 11 15 9 16 8 17 10 19 7 20 4 21 5 22
REMARK SMILES IDX 103 23 6 24 102 25 3 26 2 27 1 28 21 29 22 30 23 31 24 32
REMARK SMILES IDX 25 33 26 34 27 35 28 36 29 37 30 38 31 39 32 40 96 41 33 42
REMARK SMILES IDX 95 43 34 44 35 45 36 46 89 47 37 48 94 49 88 50 90 51 38 52
REMARK SMILES IDX 93 53 87 54 86 55 39 57 73 58 52 59 72 60 53 61 56 62 71 63
REMARK SMILES IDX 91 64 54 65 55 66 70 68 92 69 57 70 40 71 41 72 50 73 42 74
REMARK SMILES IDX 43 75 49 76 51 77 44 78 45 79 46 80 47 81 48 82 74 83 75 84
REMARK SMILES IDX 84 85 76 86 77 87 83 88 85 89 78 90 79 91 80 92 81 93 82 94
REMARK SMILES IDX 58 95 59 96 68 97 60 98 61 99 67 100 69 101 62 102 63 103
REMARK SMILES IDX 64 104 65 105 66 106
REMARK H PARENT 8 18 90 56 56 67
REMARK Flexibility Score: inf
ROOT
ATOM      1  C   UNL A   1      38.817  28.720  29.359  1.00  0.00     0.188 C 
ENDROOT
BRANCH   1   2
ATOM      2  O   UNL A   1      40.229  28.539  29.424  1.00  0.00    -0.376 OA
BRANCH   2   3
ATOM      3  C   UNL A   1      40.776  27.338  28.885  1.00  0.00     0.202 C 
BRANCH   3   4
ATOM      4  C   UNL A   1      41.060  27.345  27.377  1.00  0.00     0.261 C 
BRANCH   4   5
ATOM      5  O   UNL A   1      42.396  26.870  27.074  1.00  0.00    -0.463 OA
BRANCH   5   6
ATOM      6  C   UNL A   1      43.308  27.737  26.549  1.00  0.00     0.306 C 
ATOM      7  O   UNL A   1      43.105  28.473  25.593  1.00  0.00    -0.252 OA
BRANCH   6   8
ATOM      8  C   UNL A   1      44.658  27.601  27.247  1.00  0.00     0.130 C 
BRANCH   8   9
ATOM      9  C   UNL A   1      45.670  26.409  26.979  1.00  0.00    -0.011 C 
ATOM     10  C   UNL A   1      47.069  26.844  27.538  1.00  0.00     0.008 C 
ATOM     11  C   UNL A   1      45.880  26.210  25.448  1.00  0.00     0.008 C 
ATOM     12  C   UNL A   1      47.680  28.057  26.824  1.00  0.00     0.001 C 
ATOM     13  C   UNL A   1      46.492  27.398  24.709  1.00  0.00     0.001 C 
ATOM     14  C   UNL A   1      47.810  27.829  25.325  1.00  0.00     0.000 C 
BRANCH   9  15
ATOM     15  C   UNL A   1      45.273  25.073  27.698  1.00  0.00     0.108 C 
BRANCH  15  16
ATOM     16  C   UNL A   1      45.770  23.709  27.202  1.00  0.00     0.224 C 
ATOM     17  N   UNL A   1      44.978  22.622  26.960  1.00  0.00    -0.326 N 
ATOM     18  H   UNL A   1      45.493  21.830  26.684  1.00  0.00     0.169 HD
ATOM     19  O   UNL A   1      46.986  23.559  27.009  1.00  0.00    -0.275 OA
BRANCH  17  20
ATOM     20  C   UNL A   1      43.594  22.378  27.015  1.00  0.00     0.041 A 
ATOM     21  C   UNL A   1      40.783  22.199  27.048  1.00  0.00     0.119 A 
ATOM     22  C   UNL A   1      41.497  22.101  28.224  1.00  0.00     0.048 A 
ATOM     23  C   UNL A   1      41.460  22.397  25.854  1.00  0.00     0.048 A 
ATOM     24  C   UNL A   1      42.891  22.146  28.187  1.00  0.00     0.030 A 
ATOM     25  C   UNL A   1      42.861  22.454  25.829  1.00  0.00     0.030 A 
BRANCH  21  26
ATOM     26  O   UNL A   1      39.422  22.181  27.033  1.00  0.00    -0.494 OA
BRANCH  26  27
ATOM     27  C   UNL A   1      38.852  23.198  26.200  1.00  0.00     0.226 C 
ATOM     28  C   UNL A   1      38.646  24.441  27.042  1.00  0.00     0.049 C 
ENDBRANCH  26  27
ENDBRANCH  21  26
ENDBRANCH  17  20
ENDBRANCH  15  16
ENDBRANCH   9  15
ENDBRANCH   8   9
ENDBRANCH   6   8
ENDBRANCH   5   6
ENDBRANCH   4   5
ENDBRANCH   3   4
ENDBRANCH   2   3
ENDBRANCH   1   2
BRANCH   1  29
ATOM     29  C   UNL A   1      38.242  29.579  28.236  1.00  0.00     0.188 C 
BRANCH  29  30
ATOM     30  O   UNL A   1      36.870  29.933  28.220  1.00  0.00    -0.377 OA
BRANCH  30  31
ATOM     31  C   UNL A   1      36.507  31.291  28.057  1.00  0.00     0.188 C 
BRANCH  31  32
ATOM     32  C   UNL A   1      35.013  31.612  27.963  1.00  0.00     0.188 C 
BRANCH  32  33
ATOM     33  O   UNL A   1      34.434  32.041  29.190  1.00  0.00    -0.376 OA
BRANCH  33  34
ATOM     34  C   UNL A   1      34.602  33.428  29.480  1.00  0.00     0.202 C 
BRANCH  34  35
ATOM     35  C   UNL A   1      34.480  33.802  30.964  1.00  0.00     0.261 C 
BRANCH  35  36
ATOM     36  O   UNL A   1      34.415  32.697  31.884  1.00  0.00    -0.460 OA
BRANCH  36  37
ATOM     37  C   UNL A   1      35.104  32.823  33.032  1.00  0.00     0.338 C 
ATOM     38  O   UNL A   1      34.678  33.199  34.117  1.00  0.00    -0.246 OA
BRANCH  37  39
ATOM     39  C   UNL A   1      36.487  32.386  32.807  1.00  0.00     0.060 A 
ATOM     40  C   UNL A   1      37.515  32.942  33.574  1.00  0.00     0.016 A 
ATOM     41  C   UNL A   1      36.772  31.508  31.757  1.00  0.00     0.016 A 
ATOM     42  C   UNL A   1      38.846  32.655  33.258  1.00  0.00     0.010 A 
ATOM     43  C   UNL A   1      38.104  31.225  31.442  1.00  0.00     0.010 A 
ATOM     44  C   UNL A   1      39.150  31.831  32.163  1.00  0.00    -0.014 A 
BRANCH  44  45
ATOM     45  C   UNL A   1      40.549  31.746  31.668  1.00  0.00     0.031 A 
ATOM     46  C   UNL A   1      41.086  32.863  30.818  1.00  0.00     0.074 A 
ATOM     47  C   UNL A   1      41.344  30.709  31.985  1.00  0.00     0.049 A 
ATOM     48  N   UNL A   1      42.278  33.006  30.301  1.00  0.00    -0.248 NA
ATOM     49  C   UNL A   1      40.162  33.970  30.522  1.00  0.00     0.031 C 
ATOM     50  C   UNL A   1      40.957  29.594  32.838  1.00  0.00     0.029 A 
ATOM     51  N   UNL A   1      42.636  30.420  31.624  1.00  0.00    -0.354 N 
ATOM     52  C   UNL A   1      42.255  34.224  29.635  1.00  0.00     0.074 A 
ATOM     53  C   UNL A   1      40.918  34.758  29.773  1.00  0.00     0.031 C 
ATOM     54  C   UNL A   1      41.970  28.713  32.906  1.00  0.00     0.029 A 
ATOM     55  C   UNL A   1      43.088  29.212  32.108  1.00  0.00     0.049 A 
ATOM     56  H   UNL A   1      43.189  31.018  31.071  1.00  0.00     0.167 HD
ATOM     57  C   UNL A   1      43.264  34.852  28.985  1.00  0.00     0.037 A 
ATOM     58  C   UNL A   1      44.268  28.585  31.930  1.00  0.00     0.037 A 
ATOM     59  C   UNL A   1      44.590  34.316  28.836  1.00  0.00     0.049 A 
ATOM     60  C   UNL A   1      45.354  29.272  31.143  1.00  0.00     0.074 A 
ATOM     61  C   UNL A   1      45.680  34.883  28.201  1.00  0.00     0.029 A 
ATOM     62  N   UNL A   1      45.006  33.085  29.320  1.00  0.00    -0.354 N 
ATOM     63  N   UNL A   1      45.329  30.444  30.556  1.00  0.00    -0.248 NA
ATOM     64  C   UNL A   1      46.635  28.562  31.014  1.00  0.00     0.031 C 
ATOM     65  C   UNL A   1      46.745  33.977  28.265  1.00  0.00     0.029 A 
ATOM     66  C   UNL A   1      46.330  32.865  28.980  1.00  0.00     0.049 A 
ATOM     67  H   UNL A   1      44.442  32.458  29.829  1.00  0.00     0.167 HD
ATOM     68  C   UNL A   1      46.601  30.630  30.022  1.00  0.00     0.074 A 
ATOM     69  C   UNL A   1      47.369  29.450  30.357  1.00  0.00     0.031 C 
ATOM     70  C   UNL A   1      47.088  31.688  29.328  1.00  0.00     0.037 A 
BRANCH  57  71
ATOM     71  C   UNL A   1      42.956  36.189  28.376  1.00  0.00     0.058 A 
ATOM     72  C   UNL A   1      42.399  36.297  27.091  1.00  0.00     0.135 A 
ATOM     73  C   UNL A   1      43.209  37.372  29.086  1.00  0.00     0.135 A 
ATOM     74  F   UNL A   1      42.158  35.196  26.363  1.00  0.00    -0.206 F 
ATOM     75  C   UNL A   1      42.127  37.536  26.521  1.00  0.00     0.059 A 
ATOM     76  C   UNL A   1      42.925  38.622  28.543  1.00  0.00     0.059 A 
ATOM     77  F   UNL A   1      43.747  37.321  30.314  1.00  0.00    -0.206 F 
ATOM     78  C   UNL A   1      42.397  38.693  27.255  1.00  0.00     0.060 A 
BRANCH  78  79
ATOM     79  S   UNL A   1      42.043  40.295  26.502  1.00  0.00     0.124 S 
ATOM     80  O   UNL A   1      43.240  40.506  25.693  1.00  0.00    -0.237 OA
ATOM     81  O   UNL A   1      40.816  40.027  25.758  1.00  0.00    -0.237 OA
ATOM     82  O   UNL A   1      41.895  41.184  27.649  1.00  0.00    -0.744 OA
ENDBRANCH  78  79
ENDBRANCH  57  71
BRANCH  58  83
ATOM     83  C   UNL A   1      44.497  27.244  32.528  1.00  0.00     0.058 A 
ATOM     84  C   UNL A   1      44.237  26.070  31.806  1.00  0.00     0.135 A 
ATOM     85  C   UNL A   1      44.974  27.109  33.843  1.00  0.00     0.135 A 
ATOM     86  F   UNL A   1      43.772  26.147  30.550  1.00  0.00    -0.206 F 
ATOM     87  C   UNL A   1      44.422  24.811  32.368  1.00  0.00     0.059 A 
ATOM     88  C   UNL A   1      45.187  25.861  34.420  1.00  0.00     0.059 A 
ATOM     89  F   UNL A   1      45.246  28.202  34.572  1.00  0.00    -0.206 F 
ATOM     90  C   UNL A   1      44.898  24.717  33.677  1.00  0.00     0.060 A 
BRANCH  90  91
ATOM     91  S   UNL A   1      45.174  23.076  34.383  1.00  0.00     0.124 S 
ATOM     92  O   UNL A   1      44.156  23.032  35.427  1.00  0.00    -0.237 OA
ATOM     93  O   UNL A   1      44.948  22.205  33.234  1.00  0.00    -0.237 OA
ATOM     94  O   UNL A   1      46.555  23.140  34.850  1.00  0.00    -0.744 OA
ENDBRANCH  90  91
ENDBRANCH  58  83
BRANCH  70  95
ATOM     95  C   UNL A   1      48.534  31.640  28.917  1.00  0.00     0.058 A 
ATOM     96  C   UNL A   1      48.920  31.367  27.596  1.00  0.00     0.135 A 
ATOM     97  C   UNL A   1      49.545  31.918  29.852  1.00  0.00     0.135 A 
ATOM     98  F   UNL A   1      47.993  31.091  26.665  1.00  0.00    -0.206 F 
ATOM     99  C   UNL A   1      50.259  31.342  27.221  1.00  0.00     0.059 A 
ATOM    100  C   UNL A   1      50.889  31.924  29.492  1.00  0.00     0.059 A 
ATOM    101  F   UNL A   1      49.230  32.197  31.127  1.00  0.00    -0.206 F 
ATOM    102  C   UNL A   1      51.237  31.620  28.177  1.00  0.00     0.060 A 
BRANCH 102 103
ATOM    103  S   UNL A   1      52.972  31.611  27.676  1.00  0.00     0.124 S 
ATOM    104  O   UNL A   1      53.637  32.005  28.914  1.00  0.00    -0.237 OA
ATOM    105  O   UNL A   1      53.173  30.226  27.261  1.00  0.00    -0.237 OA
ATOM    106  O   UNL A   1      53.018  32.594  26.598  1.00  0.00    -0.744 OA
ENDBRANCH 102 103
ENDBRANCH  70  95
ENDBRANCH  44  45
ENDBRANCH  37  39
ENDBRANCH  36  37
ENDBRANCH  35  36
ENDBRANCH  34  35
ENDBRANCH  33  34
ENDBRANCH  32  33
ENDBRANCH  31  32
ENDBRANCH  30  31
ENDBRANCH  29  30
ENDBRANCH   1  29
TORSDOF 29
ENDMDL
