MODEL 1
REMARK VINA RESULT:      -9.2      0.000      0.000
REMARK SMILES Cc1c(C(=O)N[C@H]2C=C[C@@H](C(=O)OCCOCCOCCOCCOC(=O)c3ccc(-c4c5nc(c(-c6c(F)cc(S(=O)(=O)[O-])cc6F)c6ccc([nH]6)c(-c6c(F)cc(S(=O)(=O)[O-])cc6F)c6nc(c(-c7c(F)cc(S(=O)(=O)[O-])cc7F)c7ccc4[nH]7)C=C6)C=C5)cc3)C2)oc2ccccc12
REMARK SMILES IDX 20 1 19 2 18 3 17 4 16 5 15 6 14 7 13 8 11 9 12 10 10 11
REMARK SMILES IDX 7 12 8 13 94 14 9 15 6 16 4 17 5 18 3 20 1 21 2 22 101 23
REMARK SMILES IDX 95 24 96 25 100 26 97 27 99 28 98 29 21 30 22 31 23 32 24 33
REMARK SMILES IDX 25 34 26 35 27 36 28 37 29 38 93 39 30 40 92 41 31 42 32 43
REMARK SMILES IDX 33 44 86 45 34 46 91 47 85 48 87 49 35 50 90 51 84 52 83 53
REMARK SMILES IDX 36 55 70 56 49 57 69 58 50 59 53 60 68 61 88 62 51 63 52 64
REMARK SMILES IDX 67 66 89 67 54 68 37 69 38 70 47 71 39 72 40 73 46 74 48 75
REMARK SMILES IDX 41 76 42 77 43 78 44 79 45 80 71 81 72 82 81 83 73 84 74 85
REMARK SMILES IDX 80 86 82 87 75 88 76 89 77 90 78 91 79 92 55 93 56 94 65 95
REMARK SMILES IDX 57 96 58 97 64 98 66 99 59 100 60 101 61 102 62 103 63 104
REMARK H PARENT 6 19 87 54 53 65
REMARK Flexibility Score: inf
ROOT
ATOM      1  C   UNL A   1      41.172  24.077  27.762  1.00  0.00     0.188 C 
ENDROOT
BRANCH   1   2
ATOM      2  O   UNL A   1      39.762  24.213  27.922  1.00  0.00    -0.377 OA
BRANCH   2   3
ATOM      3  C   UNL A   1      39.002  24.752  26.863  1.00  0.00     0.188 C 
BRANCH   3   4
ATOM      4  C   UNL A   1      37.987  23.803  26.220  1.00  0.00     0.188 C 
BRANCH   4   5
ATOM      5  O   UNL A   1      38.141  22.402  26.344  1.00  0.00    -0.376 OA
BRANCH   5   6
ATOM      6  C   UNL A   1      38.172  21.559  25.198  1.00  0.00     0.202 C 
BRANCH   6   7
ATOM      7  C   UNL A   1      37.023  21.457  24.182  1.00  0.00     0.261 C 
BRANCH   7   8
ATOM      8  O   UNL A   1      35.692  21.500  24.721  1.00  0.00    -0.463 OA
BRANCH   8   9
ATOM      9  C   UNL A   1      34.943  22.545  24.311  1.00  0.00     0.312 C 
ATOM     10  O   UNL A   1      35.389  23.524  23.714  1.00  0.00    -0.252 OA
BRANCH   9  11
ATOM     11  C   UNL A   1      33.452  22.417  24.543  1.00  0.00     0.124 C 
ATOM     12  C   UNL A   1      31.257  22.703  25.265  1.00  0.00     0.106 C 
ATOM     13  C   UNL A   1      31.365  23.311  23.913  1.00  0.00    -0.006 C 
ATOM     14  C   UNL A   1      32.689  22.922  25.763  1.00  0.00     0.048 C 
ATOM     15  C   UNL A   1      32.612  23.068  23.461  1.00  0.00    -0.014 C 
BRANCH  12  16
ATOM     16  N   UNL A   1      30.234  23.126  26.145  1.00  0.00    -0.343 N 
ATOM     17  C   UNL A   1      29.843  24.431  26.416  1.00  0.00     0.287 C 
ATOM     18  O   UNL A   1      28.874  24.516  27.180  1.00  0.00    -0.266 OA
ATOM     19  H   UNL A   1      29.743  22.416  26.619  1.00  0.00     0.164 HD
BRANCH  17  20
ATOM     20  C   UNL A   1      30.523  25.650  25.908  1.00  0.00     0.195 A 
ATOM     21  C   UNL A   1      29.449  26.823  23.779  1.00  0.00     0.049 C 
ATOM     22  C   UNL A   1      30.433  26.592  24.866  1.00  0.00     0.008 A 
ATOM     23  C   UNL A   1      31.555  27.476  24.994  1.00  0.00     0.024 A 
ATOM     24  O   UNL A   1      31.593  26.042  26.709  1.00  0.00    -0.451 OA
ATOM     25  C   UNL A   1      32.191  27.131  26.166  1.00  0.00     0.135 A 
ATOM     26  C   UNL A   1      32.053  28.561  24.244  1.00  0.00     0.012 A 
ATOM     27  C   UNL A   1      33.280  27.825  26.687  1.00  0.00     0.048 A 
ATOM     28  C   UNL A   1      33.152  29.274  24.731  1.00  0.00     0.001 A 
ATOM     29  C   UNL A   1      33.746  28.919  25.941  1.00  0.00     0.004 A 
ENDBRANCH  17  20
ENDBRANCH  12  16
ENDBRANCH   9  11
ENDBRANCH   8   9
ENDBRANCH   7   8
ENDBRANCH   6   7
ENDBRANCH   5   6
ENDBRANCH   4   5
ENDBRANCH   3   4
ENDBRANCH   2   3
ENDBRANCH   1   2
BRANCH   1  30
ATOM     30  C   UNL A   1      41.762  23.328  26.548  1.00  0.00     0.188 C 
BRANCH  30  31
ATOM     31  O   UNL A   1      42.438  24.151  25.611  1.00  0.00    -0.376 OA
BRANCH  31  32
ATOM     32  C   UNL A   1      43.590  23.630  24.964  1.00  0.00     0.202 C 
BRANCH  32  33
ATOM     33  C   UNL A   1      44.906  24.409  25.112  1.00  0.00     0.261 C 
BRANCH  33  34
ATOM     34  O   UNL A   1      44.924  25.466  26.086  1.00  0.00    -0.460 OA
BRANCH  34  35
ATOM     35  C   UNL A   1      45.131  25.141  27.378  1.00  0.00     0.338 C 
ATOM     36  O   UNL A   1      45.903  24.297  27.806  1.00  0.00    -0.246 OA
BRANCH  35  37
ATOM     37  C   UNL A   1      44.411  26.123  28.215  1.00  0.00     0.060 A 
ATOM     38  C   UNL A   1      44.538  27.488  27.926  1.00  0.00     0.016 A 
ATOM     39  C   UNL A   1      43.615  25.699  29.282  1.00  0.00     0.016 A 
ATOM     40  C   UNL A   1      43.905  28.437  28.731  1.00  0.00     0.010 A 
ATOM     41  C   UNL A   1      42.997  26.651  30.099  1.00  0.00     0.010 A 
ATOM     42  C   UNL A   1      43.170  28.025  29.851  1.00  0.00    -0.014 A 
BRANCH  42  43
ATOM     43  C   UNL A   1      42.756  29.021  30.871  1.00  0.00     0.031 A 
ATOM     44  C   UNL A   1      43.599  29.166  32.111  1.00  0.00     0.074 A 
ATOM     45  C   UNL A   1      41.665  29.792  30.703  1.00  0.00     0.049 A 
ATOM     46  N   UNL A   1      43.414  29.922  33.160  1.00  0.00    -0.248 NA
ATOM     47  C   UNL A   1      44.817  28.341  32.172  1.00  0.00     0.031 C 
ATOM     48  C   UNL A   1      40.794  29.781  29.530  1.00  0.00     0.029 A 
ATOM     49  N   UNL A   1      41.101  30.730  31.532  1.00  0.00    -0.354 N 
ATOM     50  C   UNL A   1      44.478  29.652  34.014  1.00  0.00     0.074 A 
ATOM     51  C   UNL A   1      45.291  28.645  33.370  1.00  0.00     0.031 C 
ATOM     52  C   UNL A   1      39.799  30.665  29.719  1.00  0.00     0.029 A 
ATOM     53  C   UNL A   1      39.941  31.277  31.040  1.00  0.00     0.049 A 
ATOM     54  H   UNL A   1      41.493  30.988  32.398  1.00  0.00     0.167 HD
ATOM     55  C   UNL A   1      44.755  30.198  35.222  1.00  0.00     0.037 A 
ATOM     56  C   UNL A   1      39.081  32.152  31.601  1.00  0.00     0.037 A 
ATOM     57  C   UNL A   1      43.941  31.202  35.856  1.00  0.00     0.049 A 
ATOM     58  C   UNL A   1      39.370  32.691  32.982  1.00  0.00     0.074 A 
ATOM     59  C   UNL A   1      44.151  31.840  37.066  1.00  0.00     0.029 A 
ATOM     60  N   UNL A   1      42.753  31.703  35.342  1.00  0.00    -0.354 N 
ATOM     61  N   UNL A   1      40.395  32.452  33.765  1.00  0.00    -0.248 NA
ATOM     62  C   UNL A   1      38.384  33.620  33.554  1.00  0.00     0.031 C 
ATOM     63  C   UNL A   1      43.059  32.676  37.314  1.00  0.00     0.029 A 
ATOM     64  C   UNL A   1      42.202  32.616  36.226  1.00  0.00     0.049 A 
ATOM     65  H   UNL A   1      42.362  31.449  34.475  1.00  0.00     0.167 HD
ATOM     66  C   UNL A   1      40.196  33.227  34.904  1.00  0.00     0.074 A 
ATOM     67  C   UNL A   1      38.956  33.948  34.703  1.00  0.00     0.031 C 
ATOM     68  C   UNL A   1      40.971  33.337  36.012  1.00  0.00     0.037 A 
BRANCH  55  69
ATOM     69  C   UNL A   1      45.967  29.691  35.956  1.00  0.00     0.058 A 
ATOM     70  C   UNL A   1      47.228  30.297  35.824  1.00  0.00     0.135 A 
ATOM     71  C   UNL A   1      45.857  28.598  36.831  1.00  0.00     0.135 A 
ATOM     72  F   UNL A   1      47.397  31.333  34.988  1.00  0.00    -0.206 F 
ATOM     73  C   UNL A   1      48.340  29.817  36.509  1.00  0.00     0.059 A 
ATOM     74  C   UNL A   1      46.948  28.122  37.551  1.00  0.00     0.059 A 
ATOM     75  F   UNL A   1      44.677  27.979  36.993  1.00  0.00    -0.206 F 
ATOM     76  C   UNL A   1      48.190  28.730  37.372  1.00  0.00     0.060 A 
BRANCH  76  77
ATOM     77  S   UNL A   1      49.642  28.123  38.255  1.00  0.00     0.124 S 
ATOM     78  O   UNL A   1      50.240  29.369  38.724  1.00  0.00    -0.237 OA
ATOM     79  O   UNL A   1      49.048  27.279  39.286  1.00  0.00    -0.237 OA
ATOM     80  O   UNL A   1      50.396  27.415  37.225  1.00  0.00    -0.744 OA
ENDBRANCH  76  77
ENDBRANCH  55  69
BRANCH  56  81
ATOM     81  C   UNL A   1      37.858  32.576  30.864  1.00  0.00     0.058 A 
ATOM     82  C   UNL A   1      36.614  31.983  31.122  1.00  0.00     0.135 A 
ATOM     83  C   UNL A   1      37.910  33.580  29.884  1.00  0.00     0.135 A 
ATOM     84  F   UNL A   1      36.514  31.008  32.038  1.00  0.00    -0.206 F 
ATOM     85  C   UNL A   1      35.467  32.359  30.430  1.00  0.00     0.059 A 
ATOM     86  C   UNL A   1      36.772  33.994  29.198  1.00  0.00     0.059 A 
ATOM     87  F   UNL A   1      39.074  34.185  29.599  1.00  0.00    -0.206 F 
ATOM     88  C   UNL A   1      35.555  33.372  29.474  1.00  0.00     0.060 A 
BRANCH  88  89
ATOM     89  S   UNL A   1      34.048  33.893  28.625  1.00  0.00     0.124 S 
ATOM     90  O   UNL A   1      33.637  32.658  27.969  1.00  0.00    -0.237 OA
ATOM     91  O   UNL A   1      33.213  34.335  29.738  1.00  0.00    -0.237 OA
ATOM     92  O   UNL A   1      34.512  34.956  27.739  1.00  0.00    -0.744 OA
ENDBRANCH  88  89
ENDBRANCH  56  81
BRANCH  68  93
ATOM     93  C   UNL A   1      40.534  34.304  37.082  1.00  0.00     0.058 A 
ATOM     94  C   UNL A   1      40.875  35.665  37.040  1.00  0.00     0.135 A 
ATOM     95  C   UNL A   1      39.712  33.870  38.135  1.00  0.00     0.135 A 
ATOM     96  F   UNL A   1      41.662  36.135  36.060  1.00  0.00    -0.206 F 
ATOM     97  C   UNL A   1      40.436  36.555  38.016  1.00  0.00     0.059 A 
ATOM     98  C   UNL A   1      39.234  34.747  39.103  1.00  0.00     0.059 A 
ATOM     99  F   UNL A   1      39.345  32.581  38.220  1.00  0.00    -0.206 F 
ATOM    100  C   UNL A   1      39.612  36.087  39.043  1.00  0.00     0.060 A 
BRANCH 100 101
ATOM    101  S   UNL A   1      39.023  37.259  40.283  1.00  0.00     0.124 S 
ATOM    102  O   UNL A   1      38.378  38.270  39.451  1.00  0.00    -0.237 OA
ATOM    103  O   UNL A   1      38.127  36.434  41.089  1.00  0.00    -0.237 OA
ATOM    104  O   UNL A   1      40.245  37.687  40.956  1.00  0.00    -0.744 OA
ENDBRANCH 100 101
ENDBRANCH  68  93
ENDBRANCH  42  43
ENDBRANCH  35  37
ENDBRANCH  34  35
ENDBRANCH  33  34
ENDBRANCH  32  33
ENDBRANCH  31  32
ENDBRANCH  30  31
ENDBRANCH   1  30
TORSDOF 25
ENDMDL
MODEL 2
REMARK VINA RESULT:      -8.7      4.687      7.280
REMARK SMILES Cc1c(C(=O)N[C@H]2C=C[C@@H](C(=O)OCCOCCOCCOCCOC(=O)c3ccc(-c4c5nc(c(-c6c(F)cc(S(=O)(=O)[O-])cc6F)c6ccc([nH]6)c(-c6c(F)cc(S(=O)(=O)[O-])cc6F)c6nc(c(-c7c(F)cc(S(=O)(=O)[O-])cc7F)c7ccc4[nH]7)C=C6)C=C5)cc3)C2)oc2ccccc12
REMARK SMILES IDX 20 1 19 2 18 3 17 4 16 5 15 6 14 7 13 8 11 9 12 10 10 11
REMARK SMILES IDX 7 12 8 13 94 14 9 15 6 16 4 17 5 18 3 20 1 21 2 22 101 23
REMARK SMILES IDX 95 24 96 25 100 26 97 27 99 28 98 29 21 30 22 31 23 32 24 33
REMARK SMILES IDX 25 34 26 35 27 36 28 37 29 38 93 39 30 40 92 41 31 42 32 43
REMARK SMILES IDX 33 44 86 45 34 46 91 47 85 48 87 49 35 50 90 51 84 52 83 53
REMARK SMILES IDX 36 55 70 56 49 57 69 58 50 59 53 60 68 61 88 62 51 63 52 64
REMARK SMILES IDX 67 66 89 67 54 68 37 69 38 70 47 71 39 72 40 73 46 74 48 75
REMARK SMILES IDX 41 76 42 77 43 78 44 79 45 80 71 81 72 82 81 83 73 84 74 85
REMARK SMILES IDX 80 86 82 87 75 88 76 89 77 90 78 91 79 92 55 93 56 94 65 95
REMARK SMILES IDX 57 96 58 97 64 98 66 99 59 100 60 101 61 102 62 103 63 104
REMARK H PARENT 6 19 87 54 53 65
REMARK Flexibility Score: inf
ROOT
ATOM      1  C   UNL A   1      39.796  23.471  27.105  1.00  0.00     0.188 C 
ENDROOT
BRANCH   1   2
ATOM      2  O   UNL A   1      39.906  24.590  27.981  1.00  0.00    -0.377 OA
BRANCH   2   3
ATOM      3  C   UNL A   1      39.857  25.891  27.439  1.00  0.00     0.188 C 
BRANCH   3   4
ATOM      4  C   UNL A   1      39.787  27.035  28.455  1.00  0.00     0.188 C 
BRANCH   4   5
ATOM      5  O   UNL A   1      40.934  27.399  29.200  1.00  0.00    -0.376 OA
BRANCH   5   6
ATOM      6  C   UNL A   1      41.172  28.751  29.572  1.00  0.00     0.202 C 
BRANCH   6   7
ATOM      7  C   UNL A   1      40.685  29.373  30.891  1.00  0.00     0.261 C 
BRANCH   7   8
ATOM      8  O   UNL A   1      39.304  29.770  30.935  1.00  0.00    -0.463 OA
BRANCH   8   9
ATOM      9  C   UNL A   1      39.086  31.096  30.821  1.00  0.00     0.312 C 
ATOM     10  O   UNL A   1      39.586  31.945  31.557  1.00  0.00    -0.252 OA
BRANCH   9  11
ATOM     11  C   UNL A   1      38.239  31.524  29.640  1.00  0.00     0.124 C 
ATOM     12  C   UNL A   1      36.485  32.123  28.233  1.00  0.00     0.106 C 
ATOM     13  C   UNL A   1      37.145  33.377  28.682  1.00  0.00    -0.006 C 
ATOM     14  C   UNL A   1      36.753  31.237  29.452  1.00  0.00     0.048 C 
ATOM     15  C   UNL A   1      38.213  33.025  29.426  1.00  0.00    -0.014 C 
BRANCH  12  16
ATOM     16  N   UNL A   1      35.142  32.158  27.788  1.00  0.00    -0.343 N 
ATOM     17  C   UNL A   1      34.081  32.841  28.368  1.00  0.00     0.287 C 
ATOM     18  O   UNL A   1      33.021  32.751  27.735  1.00  0.00    -0.266 OA
ATOM     19  H   UNL A   1      34.937  31.639  26.976  1.00  0.00     0.164 HD
BRANCH  17  20
ATOM     20  C   UNL A   1      34.140  33.579  29.655  1.00  0.00     0.195 A 
ATOM     21  C   UNL A   1      33.503  36.158  29.589  1.00  0.00     0.049 C 
ATOM     22  C   UNL A   1      33.964  34.875  30.176  1.00  0.00     0.008 A 
ATOM     23  C   UNL A   1      34.297  34.822  31.569  1.00  0.00     0.024 A 
ATOM     24  O   UNL A   1      34.442  32.753  30.736  1.00  0.00    -0.451 OA
ATOM     25  C   UNL A   1      34.522  33.496  31.867  1.00  0.00     0.135 A 
ATOM     26  C   UNL A   1      34.381  35.775  32.605  1.00  0.00     0.012 A 
ATOM     27  C   UNL A   1      34.783  33.026  33.151  1.00  0.00     0.048 A 
ATOM     28  C   UNL A   1      34.653  35.340  33.906  1.00  0.00     0.001 A 
ATOM     29  C   UNL A   1      34.836  33.984  34.175  1.00  0.00     0.004 A 
ENDBRANCH  17  20
ENDBRANCH  12  16
ENDBRANCH   9  11
ENDBRANCH   8   9
ENDBRANCH   7   8
ENDBRANCH   6   7
ENDBRANCH   5   6
ENDBRANCH   4   5
ENDBRANCH   3   4
ENDBRANCH   2   3
ENDBRANCH   1   2
BRANCH   1  30
ATOM     30  C   UNL A   1      40.539  22.152  27.410  1.00  0.00     0.188 C 
BRANCH  30  31
ATOM     31  O   UNL A   1      41.950  22.216  27.264  1.00  0.00    -0.376 OA
BRANCH  31  32
ATOM     32  C   UNL A   1      42.618  21.105  26.685  1.00  0.00     0.202 C 
BRANCH  32  33
ATOM     33  C   UNL A   1      43.403  21.341  25.386  1.00  0.00     0.261 C 
BRANCH  33  34
ATOM     34  O   UNL A   1      43.277  22.640  24.784  1.00  0.00    -0.460 OA
BRANCH  34  35
ATOM     35  C   UNL A   1      44.400  23.355  24.567  1.00  0.00     0.338 C 
ATOM     36  O   UNL A   1      45.152  23.265  23.609  1.00  0.00    -0.246 OA
BRANCH  35  37
ATOM     37  C   UNL A   1      44.466  24.418  25.591  1.00  0.00     0.060 A 
ATOM     38  C   UNL A   1      45.721  24.877  26.016  1.00  0.00     0.016 A 
ATOM     39  C   UNL A   1      43.297  24.959  26.133  1.00  0.00     0.016 A 
ATOM     40  C   UNL A   1      45.810  25.848  27.016  1.00  0.00     0.010 A 
ATOM     41  C   UNL A   1      43.389  25.916  27.147  1.00  0.00     0.010 A 
ATOM     42  C   UNL A   1      44.645  26.338  27.621  1.00  0.00    -0.014 A 
BRANCH  42  43
ATOM     43  C   UNL A   1      44.738  27.129  28.874  1.00  0.00     0.031 A 
ATOM     44  C   UNL A   1      44.981  26.393  30.166  1.00  0.00     0.074 A 
ATOM     45  C   UNL A   1      44.625  28.470  28.872  1.00  0.00     0.049 A 
ATOM     46  N   UNL A   1      45.045  26.854  31.387  1.00  0.00    -0.248 NA
ATOM     47  C   UNL A   1      45.173  24.937  30.062  1.00  0.00     0.031 C 
ATOM     48  C   UNL A   1      44.436  29.301  27.685  1.00  0.00     0.029 A 
ATOM     49  N   UNL A   1      44.644  29.367  29.911  1.00  0.00    -0.354 N 
ATOM     50  C   UNL A   1      45.268  25.746  32.198  1.00  0.00     0.074 A 
ATOM     51  C   UNL A   1      45.301  24.589  31.332  1.00  0.00     0.031 C 
ATOM     52  C   UNL A   1      44.347  30.588  28.066  1.00  0.00     0.029 A 
ATOM     53  C   UNL A   1      44.436  30.668  29.523  1.00  0.00     0.049 A 
ATOM     54  H   UNL A   1      44.794  29.101  30.848  1.00  0.00     0.167 HD
ATOM     55  C   UNL A   1      45.433  25.699  33.541  1.00  0.00     0.037 A 
ATOM     56  C   UNL A   1      44.306  31.790  30.261  1.00  0.00     0.037 A 
ATOM     57  C   UNL A   1      45.400  26.857  34.397  1.00  0.00     0.049 A 
ATOM     58  C   UNL A   1      44.419  31.703  31.765  1.00  0.00     0.074 A 
ATOM     59  C   UNL A   1      45.585  26.919  35.766  1.00  0.00     0.029 A 
ATOM     60  N   UNL A   1      45.149  28.153  33.969  1.00  0.00    -0.354 N 
ATOM     61  N   UNL A   1      44.660  30.655  32.517  1.00  0.00    -0.248 NA
ATOM     62  C   UNL A   1      44.244  32.953  32.519  1.00  0.00     0.031 C 
ATOM     63  C   UNL A   1      45.381  28.240  36.176  1.00  0.00     0.029 A 
ATOM     64  C   UNL A   1      45.140  29.016  35.053  1.00  0.00     0.049 A 
ATOM     65  H   UNL A   1      45.000  28.420  33.033  1.00  0.00     0.167 HD
ATOM     66  C   UNL A   1      44.700  31.125  33.827  1.00  0.00     0.074 A 
ATOM     67  C   UNL A   1      44.467  32.553  33.762  1.00  0.00     0.031 C 
ATOM     68  C   UNL A   1      44.916  30.439  34.977  1.00  0.00     0.037 A 
BRANCH  55  69
ATOM     69  C   UNL A   1      45.624  24.348  34.175  1.00  0.00     0.058 A 
ATOM     70  C   UNL A   1      44.544  23.588  34.654  1.00  0.00     0.135 A 
ATOM     71  C   UNL A   1      46.910  23.791  34.276  1.00  0.00     0.135 A 
ATOM     72  F   UNL A   1      43.295  24.078  34.601  1.00  0.00    -0.206 F 
ATOM     73  C   UNL A   1      44.736  22.340  35.238  1.00  0.00     0.059 A 
ATOM     74  C   UNL A   1      47.121  22.530  34.826  1.00  0.00     0.059 A 
ATOM     75  F   UNL A   1      47.979  24.473  33.837  1.00  0.00    -0.206 F 
ATOM     76  C   UNL A   1      46.028  21.818  35.319  1.00  0.00     0.060 A 
BRANCH  76  77
ATOM     77  S   UNL A   1      46.258  20.196  36.076  1.00  0.00     0.124 S 
ATOM     78  O   UNL A   1      45.535  19.335  35.146  1.00  0.00    -0.237 OA
ATOM     79  O   UNL A   1      47.710  20.054  36.071  1.00  0.00    -0.237 OA
ATOM     80  O   UNL A   1      45.649  20.346  37.394  1.00  0.00    -0.744 OA
ENDBRANCH  76  77
ENDBRANCH  55  69
BRANCH  56  81
ATOM     81  C   UNL A   1      44.052  33.098  29.596  1.00  0.00     0.058 A 
ATOM     82  C   UNL A   1      42.746  33.579  29.418  1.00  0.00     0.135 A 
ATOM     83  C   UNL A   1      45.108  33.891  29.121  1.00  0.00     0.135 A 
ATOM     84  F   UNL A   1      41.701  32.851  29.840  1.00  0.00    -0.206 F 
ATOM     85  C   UNL A   1      42.494  34.791  28.785  1.00  0.00     0.059 A 
ATOM     86  C   UNL A   1      44.883  35.121  28.509  1.00  0.00     0.059 A 
ATOM     87  F   UNL A   1      46.378  33.482  29.268  1.00  0.00    -0.206 F 
ATOM     88  C   UNL A   1      43.571  35.560  28.340  1.00  0.00     0.060 A 
BRANCH  88  89
ATOM     89  S   UNL A   1      43.233  37.160  27.573  1.00  0.00     0.124 S 
ATOM     90  O   UNL A   1      42.039  36.866  26.791  1.00  0.00    -0.237 OA
ATOM     91  O   UNL A   1      43.039  38.018  28.738  1.00  0.00    -0.237 OA
ATOM     92  O   UNL A   1      44.444  37.426  26.803  1.00  0.00    -0.744 OA
ENDBRANCH  88  89
ENDBRANCH  56  81
BRANCH  68  93
ATOM     93  C   UNL A   1      44.960  31.221  36.264  1.00  0.00     0.058 A 
ATOM     94  C   UNL A   1      46.129  31.857  36.711  1.00  0.00     0.135 A 
ATOM     95  C   UNL A   1      43.794  31.385  37.031  1.00  0.00     0.135 A 
ATOM     96  F   UNL A   1      47.273  31.730  36.021  1.00  0.00    -0.206 F 
ATOM     97  C   UNL A   1      46.146  32.605  37.885  1.00  0.00     0.059 A 
ATOM     98  C   UNL A   1      43.779  32.156  38.189  1.00  0.00     0.059 A 
ATOM     99  F   UNL A   1      42.644  30.810  36.646  1.00  0.00    -0.206 F 
ATOM    100  C   UNL A   1      44.965  32.753  38.616  1.00  0.00     0.060 A 
BRANCH 100 101
ATOM    101  S   UNL A   1      44.995  33.753  40.117  1.00  0.00     0.124 S 
ATOM    102  O   UNL A   1      43.779  34.548  39.967  1.00  0.00    -0.237 OA
ATOM    103  O   UNL A   1      44.963  32.739  41.168  1.00  0.00    -0.237 OA
ATOM    104  O   UNL A   1      46.247  34.496  40.009  1.00  0.00    -0.744 OA
ENDBRANCH 100 101
ENDBRANCH  68  93
ENDBRANCH  42  43
ENDBRANCH  35  37
ENDBRANCH  34  35
ENDBRANCH  33  34
ENDBRANCH  32  33
ENDBRANCH  31  32
ENDBRANCH  30  31
ENDBRANCH   1  30
TORSDOF 25
ENDMDL
MODEL 3
REMARK VINA RESULT:      -8.5      5.507      6.633
REMARK SMILES Cc1c(C(=O)N[C@H]2C=C[C@@H](C(=O)OCCOCCOCCOCCOC(=O)c3ccc(-c4c5nc(c(-c6c(F)cc(S(=O)(=O)[O-])cc6F)c6ccc([nH]6)c(-c6c(F)cc(S(=O)(=O)[O-])cc6F)c6nc(c(-c7c(F)cc(S(=O)(=O)[O-])cc7F)c7ccc4[nH]7)C=C6)C=C5)cc3)C2)oc2ccccc12
REMARK SMILES IDX 20 1 19 2 18 3 17 4 16 5 15 6 14 7 13 8 11 9 12 10 10 11
REMARK SMILES IDX 7 12 8 13 94 14 9 15 6 16 4 17 5 18 3 20 1 21 2 22 101 23
REMARK SMILES IDX 95 24 96 25 100 26 97 27 99 28 98 29 21 30 22 31 23 32 24 33
REMARK SMILES IDX 25 34 26 35 27 36 28 37 29 38 93 39 30 40 92 41 31 42 32 43
REMARK SMILES IDX 33 44 86 45 34 46 91 47 85 48 87 49 35 50 90 51 84 52 83 53
REMARK SMILES IDX 36 55 70 56 49 57 69 58 50 59 53 60 68 61 88 62 51 63 52 64
REMARK SMILES IDX 67 66 89 67 54 68 37 69 38 70 47 71 39 72 40 73 46 74 48 75
REMARK SMILES IDX 41 76 42 77 43 78 44 79 45 80 71 81 72 82 81 83 73 84 74 85
REMARK SMILES IDX 80 86 82 87 75 88 76 89 77 90 78 91 79 92 55 93 56 94 65 95
REMARK SMILES IDX 57 96 58 97 64 98 66 99 59 100 60 101 61 102 62 103 63 104
REMARK H PARENT 6 19 87 54 53 65
REMARK Flexibility Score: inf
ROOT
ATOM      1  C   UNL A   1      41.912  24.199  27.661  1.00  0.00     0.188 C 
ENDROOT
BRANCH   1   2
ATOM      2  O   UNL A   1      40.535  24.483  27.892  1.00  0.00    -0.377 OA
BRANCH   2   3
ATOM      3  C   UNL A   1      39.730  24.900  26.812  1.00  0.00     0.188 C 
BRANCH   3   4
ATOM      4  C   UNL A   1      38.672  23.899  26.341  1.00  0.00     0.188 C 
BRANCH   4   5
ATOM      5  O   UNL A   1      38.806  22.523  26.645  1.00  0.00    -0.376 OA
BRANCH   5   6
ATOM      6  C   UNL A   1      38.772  21.535  25.621  1.00  0.00     0.202 C 
BRANCH   6   7
ATOM      7  C   UNL A   1      37.601  21.361  24.640  1.00  0.00     0.261 C 
BRANCH   7   8
ATOM      8  O   UNL A   1      36.289  21.294  25.223  1.00  0.00    -0.463 OA
BRANCH   8   9
ATOM      9  C   UNL A   1      35.456  22.295  24.871  1.00  0.00     0.312 C 
ATOM     10  O   UNL A   1      35.818  23.339  24.331  1.00  0.00    -0.252 OA
BRANCH   9  11
ATOM     11  C   UNL A   1      33.981  22.033  25.093  1.00  0.00     0.124 C 
ATOM     12  C   UNL A   1      31.754  22.145  25.760  1.00  0.00     0.106 C 
ATOM     13  C   UNL A   1      31.828  22.654  24.365  1.00  0.00    -0.006 C 
ATOM     14  C   UNL A   1      33.144  22.549  26.258  1.00  0.00     0.048 C 
ATOM     15  C   UNL A   1      33.102  22.507  23.951  1.00  0.00    -0.014 C 
BRANCH  12  16
ATOM     16  N   UNL A   1      30.674  22.527  26.590  1.00  0.00    -0.343 N 
ATOM     17  C   UNL A   1      30.124  23.796  26.725  1.00  0.00     0.287 C 
ATOM     18  O   UNL A   1      29.141  23.840  27.474  1.00  0.00    -0.266 OA
ATOM     19  H   UNL A   1      30.265  21.814  27.132  1.00  0.00     0.164 HD
BRANCH  17  20
ATOM     20  C   UNL A   1      30.661  25.031  26.098  1.00  0.00     0.195 A 
ATOM     21  C   UNL A   1      29.313  26.004  24.024  1.00  0.00     0.049 C 
ATOM     22  C   UNL A   1      30.406  25.905  25.024  1.00  0.00     0.008 A 
ATOM     23  C   UNL A   1      31.463  26.874  25.004  1.00  0.00     0.024 A 
ATOM     24  O   UNL A   1      31.765  25.543  26.775  1.00  0.00    -0.451 OA
ATOM     25  C   UNL A   1      32.226  26.641  26.127  1.00  0.00     0.135 A 
ATOM     26  C   UNL A   1      31.807  27.949  24.159  1.00  0.00     0.012 A 
ATOM     27  C   UNL A   1      33.300  27.440  26.510  1.00  0.00     0.048 A 
ATOM     28  C   UNL A   1      32.887  28.765  24.506  1.00  0.00     0.001 A 
ATOM     29  C   UNL A   1      33.612  28.521  25.672  1.00  0.00     0.004 A 
ENDBRANCH  17  20
ENDBRANCH  12  16
ENDBRANCH   9  11
ENDBRANCH   8   9
ENDBRANCH   7   8
ENDBRANCH   6   7
ENDBRANCH   5   6
ENDBRANCH   4   5
ENDBRANCH   3   4
ENDBRANCH   2   3
ENDBRANCH   1   2
BRANCH   1  30
ATOM     30  C   UNL A   1      42.337  23.104  26.658  1.00  0.00     0.188 C 
BRANCH  30  31
ATOM     31  O   UNL A   1      42.905  23.590  25.451  1.00  0.00    -0.376 OA
BRANCH  31  32
ATOM     32  C   UNL A   1      43.560  22.665  24.596  1.00  0.00     0.202 C 
BRANCH  32  33
ATOM     33  C   UNL A   1      44.961  23.034  24.085  1.00  0.00     0.261 C 
BRANCH  33  34
ATOM     34  O   UNL A   1      45.460  24.331  24.450  1.00  0.00    -0.460 OA
BRANCH  34  35
ATOM     35  C   UNL A   1      46.137  24.452  25.610  1.00  0.00     0.338 C 
ATOM     36  O   UNL A   1      47.034  23.728  26.013  1.00  0.00    -0.246 OA
BRANCH  35  37
ATOM     37  C   UNL A   1      45.749  25.735  26.232  1.00  0.00     0.060 A 
ATOM     38  C   UNL A   1      45.107  26.704  25.450  1.00  0.00     0.016 A 
ATOM     39  C   UNL A   1      46.019  25.982  27.580  1.00  0.00     0.016 A 
ATOM     40  C   UNL A   1      44.772  27.942  26.003  1.00  0.00     0.010 A 
ATOM     41  C   UNL A   1      45.701  27.229  28.127  1.00  0.00     0.010 A 
ATOM     42  C   UNL A   1      45.111  28.229  27.332  1.00  0.00    -0.014 A 
BRANCH  42  43
ATOM     43  C   UNL A   1      45.038  29.625  27.830  1.00  0.00     0.031 A 
ATOM     44  C   UNL A   1      46.220  30.530  27.595  1.00  0.00     0.074 A 
ATOM     45  C   UNL A   1      43.946  30.092  28.464  1.00  0.00     0.049 A 
ATOM     46  N   UNL A   1      46.413  31.763  27.980  1.00  0.00    -0.248 NA
ATOM     47  C   UNL A   1      47.335  29.959  26.822  1.00  0.00     0.031 C 
ATOM     48  C   UNL A   1      42.722  29.333  28.711  1.00  0.00     0.029 A 
ATOM     49  N   UNL A   1      43.699  31.321  29.025  1.00  0.00    -0.354 N 
ATOM     50  C   UNL A   1      47.676  32.112  27.514  1.00  0.00     0.074 A 
ATOM     51  C   UNL A   1      48.212  30.950  26.839  1.00  0.00     0.031 C 
ATOM     52  C   UNL A   1      41.856  30.112  29.383  1.00  0.00     0.029 A 
ATOM     53  C   UNL A   1      42.477  31.410  29.646  1.00  0.00     0.049 A 
ATOM     54  H   UNL A   1      44.339  32.069  28.984  1.00  0.00     0.167 HD
ATOM     55  C   UNL A   1      48.328  33.293  27.632  1.00  0.00     0.037 A 
ATOM     56  C   UNL A   1      41.933  32.414  30.365  1.00  0.00     0.037 A 
ATOM     57  C   UNL A   1      47.787  34.445  28.305  1.00  0.00     0.049 A 
ATOM     58  C   UNL A   1      42.710  33.696  30.549  1.00  0.00     0.074 A 
ATOM     59  C   UNL A   1      48.355  35.698  28.455  1.00  0.00     0.029 A 
ATOM     60  N   UNL A   1      46.560  34.483  28.953  1.00  0.00    -0.354 N 
ATOM     61  N   UNL A   1      43.889  34.024  30.077  1.00  0.00    -0.248 NA
ATOM     62  C   UNL A   1      42.079  34.746  31.363  1.00  0.00     0.031 C 
ATOM     63  C   UNL A   1      47.504  36.472  29.249  1.00  0.00     0.029 A 
ATOM     64  C   UNL A   1      46.371  35.726  29.535  1.00  0.00     0.049 A 
ATOM     65  H   UNL A   1      45.919  33.737  28.993  1.00  0.00     0.167 HD
ATOM     66  C   UNL A   1      44.125  35.327  30.506  1.00  0.00     0.074 A 
ATOM     67  C   UNL A   1      42.961  35.729  31.269  1.00  0.00     0.031 C 
ATOM     68  C   UNL A   1      45.203  36.121  30.285  1.00  0.00     0.037 A 
BRANCH  55  69
ATOM     69  C   UNL A   1      49.716  33.386  27.059  1.00  0.00     0.058 A 
ATOM     70  C   UNL A   1      49.968  33.965  25.804  1.00  0.00     0.135 A 
ATOM     71  C   UNL A   1      50.816  32.913  27.792  1.00  0.00     0.135 A 
ATOM     72  F   UNL A   1      48.953  34.416  25.050  1.00  0.00    -0.206 F 
ATOM     73  C   UNL A   1      51.257  34.044  25.285  1.00  0.00     0.059 A 
ATOM     74  C   UNL A   1      52.117  33.012  27.308  1.00  0.00     0.059 A 
ATOM     75  F   UNL A   1      50.634  32.348  28.996  1.00  0.00    -0.206 F 
ATOM     76  C   UNL A   1      52.326  33.566  26.046  1.00  0.00     0.060 A 
BRANCH  76  77
ATOM     77  S   UNL A   1      53.991  33.680  25.360  1.00  0.00     0.124 S 
ATOM     78  O   UNL A   1      54.598  32.451  25.861  1.00  0.00    -0.237 OA
ATOM     79  O   UNL A   1      53.733  33.719  23.924  1.00  0.00    -0.237 OA
ATOM     80  O   UNL A   1      54.513  34.916  25.935  1.00  0.00    -0.744 OA
ENDBRANCH  76  77
ENDBRANCH  55  69
BRANCH  56  81
ATOM     81  C   UNL A   1      40.583  32.254  30.971  1.00  0.00     0.058 A 
ATOM     82  C   UNL A   1      39.456  32.865  30.401  1.00  0.00     0.135 A 
ATOM     83  C   UNL A   1      40.392  31.491  32.134  1.00  0.00     0.135 A 
ATOM     84  F   UNL A   1      39.587  33.618  29.299  1.00  0.00    -0.206 F 
ATOM     85  C   UNL A   1      38.191  32.737  30.966  1.00  0.00     0.059 A 
ATOM     86  C   UNL A   1      39.132  31.324  32.703  1.00  0.00     0.059 A 
ATOM     87  F   UNL A   1      41.434  30.881  32.718  1.00  0.00    -0.206 F 
ATOM     88  C   UNL A   1      38.038  31.957  32.114  1.00  0.00     0.060 A 
BRANCH  88  89
ATOM     89  S   UNL A   1      36.381  31.749  32.803  1.00  0.00     0.124 S 
ATOM     90  O   UNL A   1      35.600  32.658  31.973  1.00  0.00    -0.237 OA
ATOM     91  O   UNL A   1      36.143  30.325  32.592  1.00  0.00    -0.237 OA
ATOM     92  O   UNL A   1      36.545  32.149  34.198  1.00  0.00    -0.744 OA
ENDBRANCH  88  89
ENDBRANCH  56  81
BRANCH  68  93
ATOM     93  C   UNL A   1      45.166  37.525  30.831  1.00  0.00     0.058 A 
ATOM     94  C   UNL A   1      44.561  38.580  30.132  1.00  0.00     0.135 A 
ATOM     95  C   UNL A   1      45.695  37.802  32.103  1.00  0.00     0.135 A 
ATOM     96  F   UNL A   1      44.044  38.374  28.910  1.00  0.00    -0.206 F 
ATOM     97  C   UNL A   1      44.503  39.866  30.663  1.00  0.00     0.059 A 
ATOM     98  C   UNL A   1      45.619  39.071  32.668  1.00  0.00     0.059 A 
ATOM     99  F   UNL A   1      46.275  36.828  32.822  1.00  0.00    -0.206 F 
ATOM    100  C   UNL A   1      45.032  40.101  31.935  1.00  0.00     0.060 A 
BRANCH 100 101
ATOM    101  S   UNL A   1      44.920  41.765  32.625  1.00  0.00     0.124 S 
ATOM    102  O   UNL A   1      46.219  42.323  32.260  1.00  0.00    -0.237 OA
ATOM    103  O   UNL A   1      43.770  42.319  31.916  1.00  0.00    -0.237 OA
ATOM    104  O   UNL A   1      44.717  41.530  34.051  1.00  0.00    -0.744 OA
ENDBRANCH 100 101
ENDBRANCH  68  93
ENDBRANCH  42  43
ENDBRANCH  35  37
ENDBRANCH  34  35
ENDBRANCH  33  34
ENDBRANCH  32  33
ENDBRANCH  31  32
ENDBRANCH  30  31
ENDBRANCH   1  30
TORSDOF 25
ENDMDL
