MODEL 1
REMARK VINA RESULT:     -10.2      0.000      0.000
REMARK SMILES O=C(OCCOCCOCCOCCOC(=O)c1ccc(F)cc1-c1ccc(F)c(Cl)c1)c1ccc(-c2c3nc(c(-c4c(F)cc(S(=O)(=O)[O-])cc4F)c4ccc([nH]4)c(-c4c(F)cc(S(=O)(=O)[O-])cc4F)c4nc(c(-c5c(F)cc(S(=O)(=O)[O-])cc5F)c5ccc2[nH]5)C=C4)C=C3)cc1
REMARK SMILES IDX 8 1 7 2 6 3 5 4 4 5 3 6 2 7 1 8 33 9 34 10 98 11 35 12 97 13
REMARK SMILES IDX 36 14 37 15 38 16 91 17 39 18 96 19 90 20 92 21 40 22 95 23
REMARK SMILES IDX 89 24 88 25 41 27 75 28 54 29 74 30 55 31 58 32 73 33 93 34
REMARK SMILES IDX 56 35 57 36 72 38 94 39 59 40 42 41 43 42 52 43 44 44 45 45
REMARK SMILES IDX 51 46 53 47 46 48 47 49 48 50 49 51 50 52 76 53 77 54 86 55
REMARK SMILES IDX 78 56 79 57 85 58 87 59 80 60 81 61 82 62 83 63 84 64 60 65
REMARK SMILES IDX 61 66 70 67 62 68 63 69 69 70 71 71 64 72 65 73 66 74 67 75
REMARK SMILES IDX 68 76 9 77 10 78 11 79 12 80 13 81 14 82 15 83 16 84 17 85
REMARK SMILES IDX 18 86 19 87 24 88 20 89 23 90 21 91 22 92 25 93 26 94 32 95
REMARK SMILES IDX 27 96 30 97 28 98 31 99 29 100
REMARK H PARENT 92 26 58 37
REMARK Flexibility Score: inf
ROOT
ATOM      1  C   UNL A   1      42.112  21.422  27.157  1.00  0.00     0.188 C 
ENDROOT
BRANCH   1   2
ATOM      2  C   UNL A   1      42.830  21.093  25.849  1.00  0.00     0.188 C 
BRANCH   2   3
ATOM      3  O   UNL A   1      42.791  22.246  25.008  1.00  0.00    -0.376 OA
BRANCH   3   4
ATOM      4  C   UNL A   1      44.034  22.868  24.722  1.00  0.00     0.202 C 
BRANCH   4   5
ATOM      5  C   UNL A   1      44.231  24.203  25.440  1.00  0.00     0.261 C 
BRANCH   5   6
ATOM      6  O   UNL A   1      43.080  24.549  26.225  1.00  0.00    -0.460 OA
BRANCH   6   7
ATOM      7  C   UNL A   1      42.330  25.674  26.094  1.00  0.00     0.338 C 
ATOM      8  O   UNL A   1      41.840  25.948  25.001  1.00  0.00    -0.246 OA
BRANCH   7   9
ATOM      9  C   UNL A   1      42.003  26.548  27.255  1.00  0.00     0.060 A 
ATOM     10  C   UNL A   1      42.501  27.841  27.433  1.00  0.00     0.016 A 
ATOM     11  C   UNL A   1      41.081  26.055  28.186  1.00  0.00     0.016 A 
ATOM     12  C   UNL A   1      42.203  28.578  28.570  1.00  0.00     0.010 A 
ATOM     13  C   UNL A   1      40.717  26.823  29.296  1.00  0.00     0.010 A 
ATOM     14  C   UNL A   1      41.307  28.076  29.509  1.00  0.00    -0.014 A 
BRANCH  14  15
ATOM     15  C   UNL A   1      41.090  28.820  30.768  1.00  0.00     0.031 A 
ATOM     16  C   UNL A   1      39.954  29.797  30.820  1.00  0.00     0.074 A 
ATOM     17  C   UNL A   1      41.839  28.557  31.855  1.00  0.00     0.049 A 
ATOM     18  N   UNL A   1      39.682  30.703  31.715  1.00  0.00    -0.248 NA
ATOM     19  C   UNL A   1      38.996  29.749  29.700  1.00  0.00     0.031 C 
ATOM     20  C   UNL A   1      42.878  27.528  31.939  1.00  0.00     0.029 A 
ATOM     21  N   UNL A   1      41.825  29.115  33.106  1.00  0.00    -0.354 N 
ATOM     22  C   UNL A   1      38.561  31.373  31.240  1.00  0.00     0.074 A 
ATOM     23  C   UNL A   1      38.196  30.766  29.981  1.00  0.00     0.031 C 
ATOM     24  C   UNL A   1      43.374  27.502  33.186  1.00  0.00     0.029 A 
ATOM     25  C   UNL A   1      42.760  28.575  33.959  1.00  0.00     0.049 A 
ATOM     26  H   UNL A   1      41.206  29.833  33.370  1.00  0.00     0.167 HD
ATOM     27  C   UNL A   1      37.911  32.412  31.812  1.00  0.00     0.037 A 
ATOM     28  C   UNL A   1      43.109  28.945  35.207  1.00  0.00     0.037 A 
ATOM     29  C   UNL A   1      38.289  32.960  33.086  1.00  0.00     0.049 A 
ATOM     30  C   UNL A   1      42.417  30.144  35.799  1.00  0.00     0.074 A 
ATOM     31  C   UNL A   1      37.770  34.054  33.749  1.00  0.00     0.029 A 
ATOM     32  N   UNL A   1      39.279  32.424  33.902  1.00  0.00    -0.354 N 
ATOM     33  N   UNL A   1      41.447  30.868  35.286  1.00  0.00    -0.248 NA
ATOM     34  C   UNL A   1      42.883  30.601  37.113  1.00  0.00     0.031 C 
ATOM     35  C   UNL A   1      38.464  34.196  34.955  1.00  0.00     0.029 A 
ATOM     36  C   UNL A   1      39.389  33.165  35.063  1.00  0.00     0.049 A 
ATOM     37  H   UNL A   1      39.822  31.632  33.684  1.00  0.00     0.167 HD
ATOM     38  C   UNL A   1      41.186  31.867  36.215  1.00  0.00     0.074 A 
ATOM     39  C   UNL A   1      42.085  31.640  37.330  1.00  0.00     0.031 C 
ATOM     40  C   UNL A   1      40.296  32.889  36.150  1.00  0.00     0.037 A 
BRANCH  27  41
ATOM     41  C   UNL A   1      36.789  33.041  31.035  1.00  0.00     0.058 A 
ATOM     42  C   UNL A   1      35.455  32.804  31.407  1.00  0.00     0.135 A 
ATOM     43  C   UNL A   1      37.020  33.892  29.943  1.00  0.00     0.135 A 
ATOM     44  F   UNL A   1      35.176  32.014  32.456  1.00  0.00    -0.206 F 
ATOM     45  C   UNL A   1      34.392  33.385  30.723  1.00  0.00     0.059 A 
ATOM     46  C   UNL A   1      35.972  34.502  29.258  1.00  0.00     0.059 A 
ATOM     47  F   UNL A   1      38.276  34.183  29.570  1.00  0.00    -0.206 F 
ATOM     48  C   UNL A   1      34.660  34.236  29.651  1.00  0.00     0.060 A 
BRANCH  48  49
ATOM     49  S   UNL A   1      33.273  35.037  28.818  1.00  0.00     0.124 S 
ATOM     50  O   UNL A   1      32.301  35.156  29.899  1.00  0.00    -0.237 OA
ATOM     51  O   UNL A   1      33.870  36.287  28.357  1.00  0.00    -0.237 OA
ATOM     52  O   UNL A   1      32.925  34.095  27.759  1.00  0.00    -0.744 OA
ENDBRANCH  48  49
ENDBRANCH  27  41
BRANCH  28  53
ATOM     53  C   UNL A   1      44.184  28.216  35.935  1.00  0.00     0.058 A 
ATOM     54  C   UNL A   1      45.539  28.547  35.760  1.00  0.00     0.135 A 
ATOM     55  C   UNL A   1      43.887  27.147  36.793  1.00  0.00     0.135 A 
ATOM     56  F   UNL A   1      45.886  29.560  34.952  1.00  0.00    -0.206 F 
ATOM     57  C   UNL A   1      46.556  27.823  36.373  1.00  0.00     0.059 A 
ATOM     58  C   UNL A   1      44.887  26.424  37.442  1.00  0.00     0.059 A 
ATOM     59  F   UNL A   1      42.610  26.800  37.012  1.00  0.00    -0.206 F 
ATOM     60  C   UNL A   1      46.221  26.758  37.209  1.00  0.00     0.060 A 
BRANCH  60  61
ATOM     61  S   UNL A   1      47.559  25.825  37.986  1.00  0.00     0.124 S 
ATOM     62  O   UNL A   1      47.025  25.607  39.327  1.00  0.00    -0.237 OA
ATOM     63  O   UNL A   1      47.644  24.643  37.135  1.00  0.00    -0.237 OA
ATOM     64  O   UNL A   1      48.697  26.736  37.904  1.00  0.00    -0.744 OA
ENDBRANCH  60  61
ENDBRANCH  28  53
BRANCH  40  65
ATOM     65  C   UNL A   1      40.240  33.820  37.323  1.00  0.00     0.058 A 
ATOM     66  C   UNL A   1      41.116  34.913  37.399  1.00  0.00     0.135 A 
ATOM     67  C   UNL A   1      39.394  33.568  38.412  1.00  0.00     0.135 A 
ATOM     68  F   UNL A   1      41.947  35.188  36.381  1.00  0.00    -0.206 F 
ATOM     69  C   UNL A   1      41.174  35.712  38.532  1.00  0.00     0.059 A 
ATOM     70  C   UNL A   1      39.419  34.370  39.548  1.00  0.00     0.059 A 
ATOM     71  F   UNL A   1      38.532  32.539  38.375  1.00  0.00    -0.206 F 
ATOM     72  C   UNL A   1      40.327  35.427  39.605  1.00  0.00     0.060 A 
BRANCH  72  73
ATOM     73  S   UNL A   1      40.425  36.467  41.076  1.00  0.00     0.124 S 
ATOM     74  O   UNL A   1      41.446  37.436  40.687  1.00  0.00    -0.237 OA
ATOM     75  O   UNL A   1      39.065  36.985  41.180  1.00  0.00    -0.237 OA
ATOM     76  O   UNL A   1      40.814  35.531  42.127  1.00  0.00    -0.744 OA
ENDBRANCH  72  73
ENDBRANCH  40  65
ENDBRANCH  14  15
ENDBRANCH   7   9
ENDBRANCH   6   7
ENDBRANCH   5   6
ENDBRANCH   4   5
ENDBRANCH   3   4
ENDBRANCH   2   3
ENDBRANCH   1   2
BRANCH   1  77
ATOM     77  O   UNL A   1      40.782  20.903  27.216  1.00  0.00    -0.377 OA
BRANCH  77  78
ATOM     78  C   UNL A   1      39.742  21.797  26.824  1.00  0.00     0.188 C 
BRANCH  78  79
ATOM     79  C   UNL A   1      38.875  21.407  25.609  1.00  0.00     0.188 C 
BRANCH  79  80
ATOM     80  O   UNL A   1      37.521  21.811  25.753  1.00  0.00    -0.376 OA
BRANCH  80  81
ATOM     81  C   UNL A   1      37.320  23.211  25.894  1.00  0.00     0.202 C 
BRANCH  81  82
ATOM     82  C   UNL A   1      35.858  23.646  25.771  1.00  0.00     0.261 C 
BRANCH  82  83
ATOM     83  O   UNL A   1      35.510  24.365  24.573  1.00  0.00    -0.460 OA
BRANCH  83  84
ATOM     84  C   UNL A   1      35.027  23.700  23.492  1.00  0.00     0.338 C 
ATOM     85  O   UNL A   1      35.633  22.975  22.744  1.00  0.00    -0.246 OA
BRANCH  84  86
ATOM     86  C   UNL A   1      33.563  24.001  23.434  1.00  0.00     0.068 A 
ATOM     87  C   UNL A   1      33.212  25.359  23.266  1.00  0.00     0.019 A 
ATOM     88  C   UNL A   1      32.556  23.028  23.639  1.00  0.00    -0.001 A 
ATOM     89  C   UNL A   1      31.878  25.763  23.289  1.00  0.00     0.040 A 
ATOM     90  C   UNL A   1      31.211  23.467  23.611  1.00  0.00     0.048 A 
ATOM     91  C   UNL A   1      30.888  24.810  23.450  1.00  0.00     0.123 A 
ATOM     92  F   UNL A   1      29.603  25.186  23.481  1.00  0.00    -0.207 F 
BRANCH  88  93
ATOM     93  C   UNL A   1      32.774  21.612  23.999  1.00  0.00    -0.016 A 
ATOM     94  C   UNL A   1      33.137  21.284  25.326  1.00  0.00     0.012 A 
ATOM     95  C   UNL A   1      32.523  20.559  23.108  1.00  0.00     0.032 A 
ATOM     96  C   UNL A   1      33.249  19.959  25.747  1.00  0.00     0.041 A 
ATOM     97  C   UNL A   1      32.620  19.228  23.535  1.00  0.00     0.077 A 
ATOM     98  C   UNL A   1      32.982  18.936  24.849  1.00  0.00     0.141 A 
ATOM     99  Cl  UNL A   1      32.234  17.957  22.440  1.00  0.00    -0.081 Cl
ATOM    100  F   UNL A   1      33.055  17.669  25.283  1.00  0.00    -0.205 F 
ENDBRANCH  88  93
ENDBRANCH  84  86
ENDBRANCH  83  84
ENDBRANCH  82  83
ENDBRANCH  81  82
ENDBRANCH  80  81
ENDBRANCH  79  80
ENDBRANCH  78  79
ENDBRANCH  77  78
ENDBRANCH   1  77
TORSDOF 24
ENDMDL
MODEL 2
REMARK VINA RESULT:     -10.1      2.650      8.949
REMARK SMILES O=C(OCCOCCOCCOCCOC(=O)c1ccc(F)cc1-c1ccc(F)c(Cl)c1)c1ccc(-c2c3nc(c(-c4c(F)cc(S(=O)(=O)[O-])cc4F)c4ccc([nH]4)c(-c4c(F)cc(S(=O)(=O)[O-])cc4F)c4nc(c(-c5c(F)cc(S(=O)(=O)[O-])cc5F)c5ccc2[nH]5)C=C4)C=C3)cc1
REMARK SMILES IDX 8 1 7 2 6 3 5 4 4 5 3 6 2 7 1 8 33 9 34 10 98 11 35 12 97 13
REMARK SMILES IDX 36 14 37 15 38 16 91 17 39 18 96 19 90 20 92 21 40 22 95 23
REMARK SMILES IDX 89 24 88 25 41 27 75 28 54 29 74 30 55 31 58 32 73 33 93 34
REMARK SMILES IDX 56 35 57 36 72 38 94 39 59 40 42 41 43 42 52 43 44 44 45 45
REMARK SMILES IDX 51 46 53 47 46 48 47 49 48 50 49 51 50 52 76 53 77 54 86 55
REMARK SMILES IDX 78 56 79 57 85 58 87 59 80 60 81 61 82 62 83 63 84 64 60 65
REMARK SMILES IDX 61 66 70 67 62 68 63 69 69 70 71 71 64 72 65 73 66 74 67 75
REMARK SMILES IDX 68 76 9 77 10 78 11 79 12 80 13 81 14 82 15 83 16 84 17 85
REMARK SMILES IDX 18 86 19 87 24 88 20 89 23 90 21 91 22 92 25 93 26 94 32 95
REMARK SMILES IDX 27 96 30 97 28 98 31 99 29 100
REMARK H PARENT 92 26 58 37
REMARK Flexibility Score: inf
ROOT
ATOM      1  C   UNL A   1      34.180  21.175  26.146  1.00  0.00     0.188 C 
ENDROOT
BRANCH   1   2
ATOM      2  C   UNL A   1      35.680  21.455  26.043  1.00  0.00     0.188 C 
BRANCH   2   3
ATOM      3  O   UNL A   1      36.239  20.571  25.072  1.00  0.00    -0.376 OA
BRANCH   3   4
ATOM      4  C   UNL A   1      37.580  20.823  24.679  1.00  0.00     0.202 C 
BRANCH   4   5
ATOM      5  C   UNL A   1      38.532  21.039  25.854  1.00  0.00     0.261 C 
BRANCH   5   6
ATOM      6  O   UNL A   1      39.274  22.260  25.708  1.00  0.00    -0.460 OA
BRANCH   6   7
ATOM      7  C   UNL A   1      38.757  23.516  25.711  1.00  0.00     0.338 C 
ATOM      8  O   UNL A   1      37.862  23.802  24.919  1.00  0.00    -0.246 OA
BRANCH   7   9
ATOM      9  C   UNL A   1      39.174  24.543  26.706  1.00  0.00     0.060 A 
ATOM     10  C   UNL A   1      38.839  24.509  28.061  1.00  0.00     0.016 A 
ATOM     11  C   UNL A   1      40.016  25.566  26.252  1.00  0.00     0.016 A 
ATOM     12  C   UNL A   1      39.211  25.532  28.922  1.00  0.00     0.010 A 
ATOM     13  C   UNL A   1      40.458  26.560  27.131  1.00  0.00     0.010 A 
ATOM     14  C   UNL A   1      40.025  26.564  28.464  1.00  0.00    -0.014 A 
BRANCH  14  15
ATOM     15  C   UNL A   1      40.317  27.703  29.359  1.00  0.00     0.031 A 
ATOM     16  C   UNL A   1      41.612  27.690  30.115  1.00  0.00     0.074 A 
ATOM     17  C   UNL A   1      39.480  28.755  29.421  1.00  0.00     0.049 A 
ATOM     18  N   UNL A   1      42.005  28.450  31.096  1.00  0.00    -0.248 NA
ATOM     19  C   UNL A   1      42.597  26.670  29.710  1.00  0.00     0.031 C 
ATOM     20  C   UNL A   1      38.264  28.918  28.621  1.00  0.00     0.029 A 
ATOM     21  N   UNL A   1      39.538  29.901  30.171  1.00  0.00    -0.354 N 
ATOM     22  C   UNL A   1      43.254  27.965  31.468  1.00  0.00     0.074 A 
ATOM     23  C   UNL A   1      43.559  26.849  30.603  1.00  0.00     0.031 C 
ATOM     24  C   UNL A   1      37.713  30.111  28.894  1.00  0.00     0.029 A 
ATOM     25  C   UNL A   1      38.478  30.752  29.956  1.00  0.00     0.049 A 
ATOM     26  H   UNL A   1      40.267  30.096  30.803  1.00  0.00     0.167 HD
ATOM     27  C   UNL A   1      44.058  28.415  32.457  1.00  0.00     0.037 A 
ATOM     28  C   UNL A   1      38.145  31.895  30.588  1.00  0.00     0.037 A 
ATOM     29  C   UNL A   1      43.728  29.554  33.271  1.00  0.00     0.049 A 
ATOM     30  C   UNL A   1      39.020  32.343  31.727  1.00  0.00     0.074 A 
ATOM     31  C   UNL A   1      44.410  30.075  34.352  1.00  0.00     0.029 A 
ATOM     32  N   UNL A   1      42.617  30.364  33.064  1.00  0.00    -0.354 N 
ATOM     33  N   UNL A   1      40.131  31.801  32.172  1.00  0.00    -0.248 NA
ATOM     34  C   UNL A   1      38.585  33.529  32.476  1.00  0.00     0.031 C 
ATOM     35  C   UNL A   1      43.697  31.186  34.816  1.00  0.00     0.029 A 
ATOM     36  C   UNL A   1      42.592  31.381  33.998  1.00  0.00     0.049 A 
ATOM     37  H   UNL A   1      41.946  30.232  32.355  1.00  0.00     0.167 HD
ATOM     38  C   UNL A   1      40.530  32.578  33.252  1.00  0.00     0.074 A 
ATOM     39  C   UNL A   1      39.552  33.642  33.378  1.00  0.00     0.031 C 
ATOM     40  C   UNL A   1      41.597  32.424  34.074  1.00  0.00     0.037 A 
BRANCH  27  41
ATOM     41  C   UNL A   1      45.315  27.640  32.738  1.00  0.00     0.058 A 
ATOM     42  C   UNL A   1      45.255  26.442  33.468  1.00  0.00     0.135 A 
ATOM     43  C   UNL A   1      46.571  28.060  32.272  1.00  0.00     0.135 A 
ATOM     44  F   UNL A   1      44.078  25.983  33.920  1.00  0.00    -0.206 F 
ATOM     45  C   UNL A   1      46.396  25.689  33.729  1.00  0.00     0.059 A 
ATOM     46  C   UNL A   1      47.723  27.311  32.502  1.00  0.00     0.059 A 
ATOM     47  F   UNL A   1      46.678  29.177  31.536  1.00  0.00    -0.206 F 
ATOM     48  C   UNL A   1      47.626  26.130  33.239  1.00  0.00     0.060 A 
BRANCH  48  49
ATOM     49  S   UNL A   1      49.085  25.106  33.526  1.00  0.00     0.124 S 
ATOM     50  O   UNL A   1      49.967  26.029  34.230  1.00  0.00    -0.237 OA
ATOM     51  O   UNL A   1      48.541  24.010  34.324  1.00  0.00    -0.237 OA
ATOM     52  O   UNL A   1      49.507  24.734  32.179  1.00  0.00    -0.744 OA
ENDBRANCH  48  49
ENDBRANCH  27  41
BRANCH  28  53
ATOM     53  C   UNL A   1      36.918  32.642  30.194  1.00  0.00     0.058 A 
ATOM     54  C   UNL A   1      36.973  33.705  29.276  1.00  0.00     0.135 A 
ATOM     55  C   UNL A   1      35.670  32.337  30.754  1.00  0.00     0.135 A 
ATOM     56  F   UNL A   1      38.140  34.043  28.706  1.00  0.00    -0.206 F 
ATOM     57  C   UNL A   1      35.848  34.459  28.959  1.00  0.00     0.059 A 
ATOM     58  C   UNL A   1      34.521  33.060  30.431  1.00  0.00     0.059 A 
ATOM     59  F   UNL A   1      35.555  31.321  31.622  1.00  0.00    -0.206 F 
ATOM     60  C   UNL A   1      34.626  34.133  29.547  1.00  0.00     0.060 A 
BRANCH  60  61
ATOM     61  S   UNL A   1      33.181  35.135  29.129  1.00  0.00     0.124 S 
ATOM     62  O   UNL A   1      32.580  35.343  30.443  1.00  0.00    -0.237 OA
ATOM     63  O   UNL A   1      33.789  36.310  28.515  1.00  0.00    -0.237 OA
ATOM     64  O   UNL A   1      32.427  34.276  28.222  1.00  0.00    -0.744 OA
ENDBRANCH  60  61
ENDBRANCH  28  53
BRANCH  40  65
ATOM     65  C   UNL A   1      41.770  33.436  35.165  1.00  0.00     0.058 A 
ATOM     66  C   UNL A   1      41.335  33.152  36.468  1.00  0.00     0.135 A 
ATOM     67  C   UNL A   1      42.268  34.719  34.895  1.00  0.00     0.135 A 
ATOM     68  F   UNL A   1      40.846  31.938  36.769  1.00  0.00    -0.206 F 
ATOM     69  C   UNL A   1      41.363  34.117  37.465  1.00  0.00     0.059 A 
ATOM     70  C   UNL A   1      42.327  35.695  35.884  1.00  0.00     0.059 A 
ATOM     71  F   UNL A   1      42.705  35.030  33.664  1.00  0.00    -0.206 F 
ATOM     72  C   UNL A   1      41.853  35.389  37.160  1.00  0.00     0.060 A 
BRANCH  72  73
ATOM     73  S   UNL A   1      41.870  36.636  38.463  1.00  0.00     0.124 S 
ATOM     74  O   UNL A   1      41.958  35.811  39.664  1.00  0.00    -0.237 OA
ATOM     75  O   UNL A   1      43.063  37.410  38.136  1.00  0.00    -0.237 OA
ATOM     76  O   UNL A   1      40.605  37.340  38.275  1.00  0.00    -0.744 OA
ENDBRANCH  72  73
ENDBRANCH  40  65
ENDBRANCH  14  15
ENDBRANCH   7   9
ENDBRANCH   6   7
ENDBRANCH   5   6
ENDBRANCH   4   5
ENDBRANCH   3   4
ENDBRANCH   2   3
ENDBRANCH   1   2
BRANCH   1  77
ATOM     77  O   UNL A   1      33.723  20.202  25.204  1.00  0.00    -0.377 OA
BRANCH  77  78
ATOM     78  C   UNL A   1      32.556  20.548  24.461  1.00  0.00     0.188 C 
BRANCH  78  79
ATOM     79  C   UNL A   1      31.816  21.847  24.842  1.00  0.00     0.188 C 
BRANCH  79  80
ATOM     80  O   UNL A   1      30.783  21.628  25.792  1.00  0.00    -0.376 OA
BRANCH  80  81
ATOM     81  C   UNL A   1      30.720  22.580  26.845  1.00  0.00     0.202 C 
BRANCH  81  82
ATOM     82  C   UNL A   1      31.349  23.933  26.501  1.00  0.00     0.261 C 
BRANCH  82  83
ATOM     83  O   UNL A   1      30.581  25.098  26.860  1.00  0.00    -0.460 OA
BRANCH  83  84
ATOM     84  C   UNL A   1      30.433  26.118  25.977  1.00  0.00     0.338 C 
ATOM     85  O   UNL A   1      29.502  26.321  25.239  1.00  0.00    -0.246 OA
BRANCH  84  86
ATOM     86  C   UNL A   1      31.641  26.986  26.131  1.00  0.00     0.068 A 
ATOM     87  C   UNL A   1      31.668  27.822  27.269  1.00  0.00     0.019 A 
ATOM     88  C   UNL A   1      32.669  27.075  25.162  1.00  0.00    -0.001 A 
ATOM     89  C   UNL A   1      32.702  28.736  27.463  1.00  0.00     0.040 A 
ATOM     90  C   UNL A   1      33.725  27.982  25.414  1.00  0.00     0.048 A 
ATOM     91  C   UNL A   1      33.729  28.799  26.538  1.00  0.00     0.123 A 
ATOM     92  F   UNL A   1      34.723  29.678  26.709  1.00  0.00    -0.207 F 
BRANCH  88  93
ATOM     93  C   UNL A   1      32.687  26.398  23.848  1.00  0.00    -0.016 A 
ATOM     94  C   UNL A   1      32.269  27.108  22.699  1.00  0.00     0.012 A 
ATOM     95  C   UNL A   1      33.214  25.111  23.669  1.00  0.00     0.032 A 
ATOM     96  C   UNL A   1      32.368  26.554  21.422  1.00  0.00     0.041 A 
ATOM     97  C   UNL A   1      33.329  24.562  22.385  1.00  0.00     0.077 A 
ATOM     98  C   UNL A   1      32.906  25.285  21.271  1.00  0.00     0.141 A 
ATOM     99  Cl  UNL A   1      34.049  23.010  22.189  1.00  0.00    -0.081 Cl
ATOM    100  F   UNL A   1      33.032  24.787  20.032  1.00  0.00    -0.205 F 
ENDBRANCH  88  93
ENDBRANCH  84  86
ENDBRANCH  83  84
ENDBRANCH  82  83
ENDBRANCH  81  82
ENDBRANCH  80  81
ENDBRANCH  79  80
ENDBRANCH  78  79
ENDBRANCH  77  78
ENDBRANCH   1  77
TORSDOF 24
ENDMDL
MODEL 3
REMARK VINA RESULT:     -10.0      2.425      8.924
REMARK SMILES O=C(OCCOCCOCCOCCOC(=O)c1ccc(F)cc1-c1ccc(F)c(Cl)c1)c1ccc(-c2c3nc(c(-c4c(F)cc(S(=O)(=O)[O-])cc4F)c4ccc([nH]4)c(-c4c(F)cc(S(=O)(=O)[O-])cc4F)c4nc(c(-c5c(F)cc(S(=O)(=O)[O-])cc5F)c5ccc2[nH]5)C=C4)C=C3)cc1
REMARK SMILES IDX 8 1 7 2 6 3 5 4 4 5 3 6 2 7 1 8 33 9 34 10 98 11 35 12 97 13
REMARK SMILES IDX 36 14 37 15 38 16 91 17 39 18 96 19 90 20 92 21 40 22 95 23
REMARK SMILES IDX 89 24 88 25 41 27 75 28 54 29 74 30 55 31 58 32 73 33 93 34
REMARK SMILES IDX 56 35 57 36 72 38 94 39 59 40 42 41 43 42 52 43 44 44 45 45
REMARK SMILES IDX 51 46 53 47 46 48 47 49 48 50 49 51 50 52 76 53 77 54 86 55
REMARK SMILES IDX 78 56 79 57 85 58 87 59 80 60 81 61 82 62 83 63 84 64 60 65
REMARK SMILES IDX 61 66 70 67 62 68 63 69 69 70 71 71 64 72 65 73 66 74 67 75
REMARK SMILES IDX 68 76 9 77 10 78 11 79 12 80 13 81 14 82 15 83 16 84 17 85
REMARK SMILES IDX 18 86 19 87 24 88 20 89 23 90 21 91 22 92 25 93 26 94 32 95
REMARK SMILES IDX 27 96 30 97 28 98 31 99 29 100
REMARK H PARENT 92 26 58 37
REMARK Flexibility Score: inf
ROOT
ATOM      1  C   UNL A   1      34.935  22.617  26.239  1.00  0.00     0.188 C 
ENDROOT
BRANCH   1   2
ATOM      2  C   UNL A   1      36.037  21.624  25.869  1.00  0.00     0.188 C 
BRANCH   2   3
ATOM      3  O   UNL A   1      37.199  22.359  25.488  1.00  0.00    -0.376 OA
BRANCH   3   4
ATOM      4  C   UNL A   1      38.437  21.667  25.544  1.00  0.00     0.202 C 
BRANCH   4   5
ATOM      5  C   UNL A   1      39.443  22.290  26.512  1.00  0.00     0.261 C 
BRANCH   5   6
ATOM      6  O   UNL A   1      39.166  23.681  26.731  1.00  0.00    -0.460 OA
BRANCH   6   7
ATOM      7  C   UNL A   1      40.086  24.678  26.813  1.00  0.00     0.338 C 
ATOM      8  O   UNL A   1      40.895  24.828  25.901  1.00  0.00    -0.246 OA
BRANCH   7   9
ATOM      9  C   UNL A   1      40.094  25.658  27.935  1.00  0.00     0.060 A 
ATOM     10  C   UNL A   1      39.165  25.670  28.977  1.00  0.00     0.016 A 
ATOM     11  C   UNL A   1      41.149  26.579  27.970  1.00  0.00     0.016 A 
ATOM     12  C   UNL A   1      39.195  26.651  29.959  1.00  0.00     0.010 A 
ATOM     13  C   UNL A   1      41.229  27.522  28.998  1.00  0.00     0.010 A 
ATOM     14  C   UNL A   1      40.229  27.583  29.978  1.00  0.00    -0.014 A 
BRANCH  14  15
ATOM     15  C   UNL A   1      40.184  28.689  30.958  1.00  0.00     0.031 A 
ATOM     16  C   UNL A   1      41.211  28.703  32.049  1.00  0.00     0.074 A 
ATOM     17  C   UNL A   1      39.299  29.693  30.815  1.00  0.00     0.049 A 
ATOM     18  N   UNL A   1      41.263  29.431  33.128  1.00  0.00    -0.248 NA
ATOM     19  C   UNL A   1      42.333  27.756  31.907  1.00  0.00     0.031 C 
ATOM     20  C   UNL A   1      38.350  29.834  29.708  1.00  0.00     0.029 A 
ATOM     21  N   UNL A   1      39.070  30.800  31.589  1.00  0.00    -0.354 N 
ATOM     22  C   UNL A   1      42.384  28.992  33.823  1.00  0.00     0.074 A 
ATOM     23  C   UNL A   1      42.991  27.939  33.042  1.00  0.00     0.031 C 
ATOM     24  C   UNL A   1      37.670  30.982  29.854  1.00  0.00     0.029 A 
ATOM     25  C   UNL A   1      38.063  31.606  31.111  1.00  0.00     0.049 A 
ATOM     26  H   UNL A   1      39.578  30.999  32.408  1.00  0.00     0.167 HD
ATOM     27  C   UNL A   1      42.847  29.432  35.014  1.00  0.00     0.037 A 
ATOM     28  C   UNL A   1      37.494  32.697  31.661  1.00  0.00     0.037 A 
ATOM     29  C   UNL A   1      42.230  30.509  35.739  1.00  0.00     0.049 A 
ATOM     30  C   UNL A   1      37.982  33.131  33.017  1.00  0.00     0.074 A 
ATOM     31  C   UNL A   1      42.545  31.009  36.987  1.00  0.00     0.029 A 
ATOM     32  N   UNL A   1      41.174  31.271  35.252  1.00  0.00    -0.354 N 
ATOM     33  N   UNL A   1      38.955  32.624  33.741  1.00  0.00    -0.248 NA
ATOM     34  C   UNL A   1      37.280  34.253  33.651  1.00  0.00     0.031 C 
ATOM     35  C   UNL A   1      41.662  32.057  37.266  1.00  0.00     0.029 A 
ATOM     36  C   UNL A   1      40.822  32.237  36.175  1.00  0.00     0.049 A 
ATOM     37  H   UNL A   1      40.740  31.141  34.378  1.00  0.00     0.167 HD
ATOM     38  C   UNL A   1      38.983  33.364  34.915  1.00  0.00     0.074 A 
ATOM     39  C   UNL A   1      37.944  34.369  34.795  1.00  0.00     0.031 C 
ATOM     40  C   UNL A   1      39.783  33.223  36.001  1.00  0.00     0.037 A 
BRANCH  27  41
ATOM     41  C   UNL A   1      44.020  28.708  35.613  1.00  0.00     0.058 A 
ATOM     42  C   UNL A   1      43.812  27.587  36.433  1.00  0.00     0.135 A 
ATOM     43  C   UNL A   1      45.345  29.100  35.366  1.00  0.00     0.135 A 
ATOM     44  F   UNL A   1      42.567  27.157  36.688  1.00  0.00    -0.206 F 
ATOM     45  C   UNL A   1      44.875  26.882  36.989  1.00  0.00     0.059 A 
ATOM     46  C   UNL A   1      46.425  28.395  35.893  1.00  0.00     0.059 A 
ATOM     47  F   UNL A   1      45.601  30.141  34.558  1.00  0.00    -0.206 F 
ATOM     48  C   UNL A   1      46.180  27.292  36.710  1.00  0.00     0.060 A 
BRANCH  48  49
ATOM     49  S   UNL A   1      47.549  26.324  37.382  1.00  0.00     0.124 S 
ATOM     50  O   UNL A   1      47.075  24.959  37.189  1.00  0.00    -0.237 OA
ATOM     51  O   UNL A   1      48.663  26.738  36.534  1.00  0.00    -0.237 OA
ATOM     52  O   UNL A   1      47.631  26.773  38.768  1.00  0.00    -0.744 OA
ENDBRANCH  48  49
ENDBRANCH  27  41
BRANCH  28  53
ATOM     53  C   UNL A   1      36.383  33.400  30.960  1.00  0.00     0.058 A 
ATOM     54  C   UNL A   1      36.617  34.170  29.807  1.00  0.00     0.135 A 
ATOM     55  C   UNL A   1      35.069  33.351  31.447  1.00  0.00     0.135 A 
ATOM     56  F   UNL A   1      37.854  34.254  29.294  1.00  0.00    -0.206 F 
ATOM     57  C   UNL A   1      35.602  34.893  29.190  1.00  0.00     0.059 A 
ATOM     58  C   UNL A   1      34.029  34.044  30.829  1.00  0.00     0.059 A 
ATOM     59  F   UNL A   1      34.785  32.618  32.534  1.00  0.00    -0.206 F 
ATOM     60  C   UNL A   1      34.310  34.829  29.711  1.00  0.00     0.060 A 
BRANCH  60  61
ATOM     61  S   UNL A   1      33.011  35.786  28.899  1.00  0.00     0.124 S 
ATOM     62  O   UNL A   1      33.792  36.775  28.163  1.00  0.00    -0.237 OA
ATOM     63  O   UNL A   1      32.344  34.771  28.088  1.00  0.00    -0.237 OA
ATOM     64  O   UNL A   1      32.228  36.306  30.015  1.00  0.00    -0.744 OA
ENDBRANCH  60  61
ENDBRANCH  28  53
BRANCH  40  65
ATOM     65  C   UNL A   1      39.577  34.186  37.131  1.00  0.00     0.058 A 
ATOM     66  C   UNL A   1      40.294  35.391  37.170  1.00  0.00     0.135 A 
ATOM     67  C   UNL A   1      38.752  33.866  38.218  1.00  0.00     0.135 A 
ATOM     68  F   UNL A   1      41.099  35.735  36.152  1.00  0.00    -0.206 F 
ATOM     69  C   UNL A   1      40.219  36.238  38.267  1.00  0.00     0.059 A 
ATOM     70  C   UNL A   1      38.645  34.711  39.318  1.00  0.00     0.059 A 
ATOM     71  F   UNL A   1      38.041  32.727  38.216  1.00  0.00    -0.206 F 
ATOM     72  C   UNL A   1      39.399  35.885  39.340  1.00  0.00     0.060 A 
BRANCH  72  73
ATOM     73  S   UNL A   1      39.325  36.989  40.764  1.00  0.00     0.124 S 
ATOM     74  O   UNL A   1      38.520  38.091  40.245  1.00  0.00    -0.237 OA
ATOM     75  O   UNL A   1      38.681  36.153  41.772  1.00  0.00    -0.237 OA
ATOM     76  O   UNL A   1      40.727  37.303  41.023  1.00  0.00    -0.744 OA
ENDBRANCH  72  73
ENDBRANCH  40  65
ENDBRANCH  14  15
ENDBRANCH   7   9
ENDBRANCH   6   7
ENDBRANCH   5   6
ENDBRANCH   4   5
ENDBRANCH   3   4
ENDBRANCH   2   3
ENDBRANCH   1   2
BRANCH   1  77
ATOM     77  O   UNL A   1      34.227  22.256  27.427  1.00  0.00    -0.377 OA
BRANCH  77  78
ATOM     78  C   UNL A   1      32.825  22.515  27.425  1.00  0.00     0.188 C 
BRANCH  78  79
ATOM     79  C   UNL A   1      32.143  22.787  26.068  1.00  0.00     0.188 C 
BRANCH  79  80
ATOM     80  O   UNL A   1      30.854  23.367  26.212  1.00  0.00    -0.376 OA
BRANCH  80  81
ATOM     81  C   UNL A   1      30.846  24.715  26.662  1.00  0.00     0.202 C 
BRANCH  81  82
ATOM     82  C   UNL A   1      29.816  25.601  25.957  1.00  0.00     0.261 C 
BRANCH  82  83
ATOM     83  O   UNL A   1      29.736  25.463  24.526  1.00  0.00    -0.460 OA
BRANCH  83  84
ATOM     84  C   UNL A   1      30.393  26.334  23.717  1.00  0.00     0.338 C 
ATOM     85  O   UNL A   1      29.971  27.361  23.248  1.00  0.00    -0.246 OA
BRANCH  84  86
ATOM     86  C   UNL A   1      31.779  25.796  23.558  1.00  0.00     0.068 A 
ATOM     87  C   UNL A   1      31.906  24.617  22.789  1.00  0.00     0.019 A 
ATOM     88  C   UNL A   1      32.910  26.343  24.209  1.00  0.00    -0.001 A 
ATOM     89  C   UNL A   1      33.138  23.980  22.652  1.00  0.00     0.040 A 
ATOM     90  C   UNL A   1      34.153  25.695  24.011  1.00  0.00     0.048 A 
ATOM     91  C   UNL A   1      34.254  24.533  23.256  1.00  0.00     0.123 A 
ATOM     92  F   UNL A   1      35.441  23.926  23.137  1.00  0.00    -0.207 F 
BRANCH  88  93
ATOM     93  C   UNL A   1      32.902  27.459  25.178  1.00  0.00    -0.016 A 
ATOM     94  C   UNL A   1      33.852  27.474  26.225  1.00  0.00     0.012 A 
ATOM     95  C   UNL A   1      32.061  28.573  25.039  1.00  0.00     0.032 A 
ATOM     96  C   UNL A   1      33.958  28.555  27.100  1.00  0.00     0.041 A 
ATOM     97  C   UNL A   1      32.179  29.666  25.908  1.00  0.00     0.077 A 
ATOM     98  C   UNL A   1      33.124  29.650  26.932  1.00  0.00     0.141 A 
ATOM     99  Cl  UNL A   1      31.185  31.050  25.667  1.00  0.00    -0.081 Cl
ATOM    100  F   UNL A   1      33.270  30.697  27.758  1.00  0.00    -0.205 F 
ENDBRANCH  88  93
ENDBRANCH  84  86
ENDBRANCH  83  84
ENDBRANCH  82  83
ENDBRANCH  81  82
ENDBRANCH  80  81
ENDBRANCH  79  80
ENDBRANCH  78  79
ENDBRANCH  77  78
ENDBRANCH   1  77
TORSDOF 24
ENDMDL
