MODEL 1
REMARK VINA RESULT:      -8.9      0.000      0.000
REMARK SMILES O=C(C[C@@H]([NH2+]Cc1ccccc1)C(=O)OCCOCCOCCOCCOC(=O)c1ccc(-c2c3nc(c(-c4c(F)cc(S(=O)(=O)[O-])cc4F)c4ccc([nH]4)c(-c4c(F)cc(S(=O)(=O)[O-])cc4F)c4nc(c(-c5c(F)cc(S(=O)(=O)[O-])cc5F)c5ccc2[nH]5)C=C4)C=C3)cc1)Nc1cccc(Cl)c1Cl
REMARK SMILES IDX 21 1 20 2 19 3 18 4 17 5 16 6 15 7 13 8 14 9 4 10 3 11 2 12
REMARK SMILES IDX 1 13 96 14 97 16 98 17 103 18 99 19 101 20 104 21 100 22
REMARK SMILES IDX 102 23 5 24 6 27 7 28 8 29 12 30 9 31 11 32 10 33 22 34
REMARK SMILES IDX 23 35 24 36 25 37 26 38 27 39 28 40 29 41 30 42 31 43 95 44
REMARK SMILES IDX 32 45 94 46 33 47 34 48 35 49 88 50 36 51 93 52 87 53 89 54
REMARK SMILES IDX 37 55 92 56 86 57 85 58 38 60 72 61 51 62 71 63 52 64 55 65
REMARK SMILES IDX 70 66 90 67 53 68 54 69 69 71 91 72 56 73 39 74 40 75 49 76
REMARK SMILES IDX 41 77 42 78 48 79 50 80 43 81 44 82 45 83 46 84 47 85 73 86
REMARK SMILES IDX 74 87 83 88 75 89 76 90 82 91 84 92 77 93 78 94 79 95 80 96
REMARK SMILES IDX 81 97 57 98 58 99 67 100 59 101 60 102 66 103 68 104 61 105
REMARK SMILES IDX 62 106 63 107 64 108 65 109
REMARK H PARENT 96 15 5 25 5 26 89 59 55 70
REMARK Flexibility Score: inf
ROOT
ATOM      1  O   UNL A   1      33.627  33.432  29.168  1.00  0.00    -0.377 OA
ENDROOT
BRANCH   1   2
ATOM      2  C   UNL A   1      34.724  32.805  29.806  1.00  0.00     0.188 C 
BRANCH   2   3
ATOM      3  C   UNL A   1      35.110  31.425  29.260  1.00  0.00     0.188 C 
BRANCH   3   4
ATOM      4  O   UNL A   1      35.190  31.344  27.856  1.00  0.00    -0.376 OA
BRANCH   4   5
ATOM      5  C   UNL A   1      34.318  30.560  27.062  1.00  0.00     0.202 C 
BRANCH   5   6
ATOM      6  C   UNL A   1      34.106  29.028  27.102  1.00  0.00     0.261 C 
BRANCH   6   7
ATOM      7  O   UNL A   1      33.343  28.381  26.084  1.00  0.00    -0.459 OA
BRANCH   7   8
ATOM      8  C   UNL A   1      32.429  27.505  26.550  1.00  0.00     0.365 C 
ATOM      9  O   UNL A   1      31.687  27.781  27.489  1.00  0.00    -0.245 OA
BRANCH   8  10
ATOM     10  C   UNL A   1      32.353  26.179  25.760  1.00  0.00     0.303 C 
BRANCH  10  11
ATOM     11  C   UNL A   1      31.465  25.086  26.388  1.00  0.00     0.177 C 
BRANCH  11  12
ATOM     12  C   UNL A   1      32.278  23.822  26.612  1.00  0.00     0.231 C 
ATOM     13  O   UNL A   1      32.261  23.214  27.676  1.00  0.00    -0.274 OA
ATOM     14  N   UNL A   1      33.140  23.574  25.556  1.00  0.00    -0.325 N 
ATOM     15  H   UNL A   1      33.136  24.228  24.820  1.00  0.00     0.169 HD
BRANCH  14  16
ATOM     16  C   UNL A   1      34.023  22.481  25.424  1.00  0.00     0.061 A 
ATOM     17  C   UNL A   1      35.385  22.807  25.547  1.00  0.00     0.028 A 
ATOM     18  C   UNL A   1      33.655  21.159  25.100  1.00  0.00     0.083 A 
ATOM     19  C   UNL A   1      36.375  21.840  25.388  1.00  0.00     0.004 A 
ATOM     20  C   UNL A   1      34.668  20.196  24.915  1.00  0.00     0.061 A 
ATOM     21  Cl  UNL A   1      32.011  20.742  24.727  1.00  0.00    -0.080 Cl
ATOM     22  C   UNL A   1      36.017  20.537  25.065  1.00  0.00     0.022 A 
ATOM     23  Cl  UNL A   1      34.335  18.562  24.440  1.00  0.00    -0.083 Cl
ENDBRANCH  14  16
ENDBRANCH  11  12
ENDBRANCH  10  11
BRANCH  10  24
ATOM     24  N   UNL A   1      31.895  26.383  24.349  1.00  0.00    -0.330 N 
ATOM     25  H   UNL A   1      32.519  25.859  23.735  1.00  0.00     0.347 HD
ATOM     26  H   UNL A   1      31.917  27.390  24.188  1.00  0.00     0.347 HD
BRANCH  24  27
ATOM     27  C   UNL A   1      30.517  25.957  24.067  1.00  0.00     0.298 C 
BRANCH  27  28
ATOM     28  C   UNL A   1      29.605  27.085  23.642  1.00  0.00     0.006 A 
ATOM     29  C   UNL A   1      30.126  28.249  23.058  1.00  0.00     0.009 A 
ATOM     30  C   UNL A   1      28.219  26.990  23.831  1.00  0.00     0.009 A 
ATOM     31  C   UNL A   1      29.282  29.285  22.657  1.00  0.00     0.001 A 
ATOM     32  C   UNL A   1      27.377  28.029  23.437  1.00  0.00     0.001 A 
ATOM     33  C   UNL A   1      27.908  29.175  22.850  1.00  0.00     0.000 A 
ENDBRANCH  27  28
ENDBRANCH  24  27
ENDBRANCH  10  24
ENDBRANCH   8  10
ENDBRANCH   7   8
ENDBRANCH   6   7
ENDBRANCH   5   6
ENDBRANCH   4   5
ENDBRANCH   3   4
ENDBRANCH   2   3
ENDBRANCH   1   2
BRANCH   1  34
ATOM     34  C   UNL A   1      33.797  34.680  28.505  1.00  0.00     0.188 C 
BRANCH  34  35
ATOM     35  C   UNL A   1      33.226  35.992  29.083  1.00  0.00     0.188 C 
BRANCH  35  36
ATOM     36  O   UNL A   1      32.202  35.820  30.049  1.00  0.00    -0.376 OA
BRANCH  36  37
ATOM     37  C   UNL A   1      32.527  36.058  31.409  1.00  0.00     0.202 C 
BRANCH  37  38
ATOM     38  C   UNL A   1      33.922  35.636  31.893  1.00  0.00     0.261 C 
BRANCH  38  39
ATOM     39  O   UNL A   1      34.009  35.089  33.222  1.00  0.00    -0.460 OA
BRANCH  39  40
ATOM     40  C   UNL A   1      34.148  33.755  33.370  1.00  0.00     0.338 C 
ATOM     41  O   UNL A   1      33.520  32.882  32.796  1.00  0.00    -0.246 OA
BRANCH  40  42
ATOM     42  C   UNL A   1      35.347  33.523  34.205  1.00  0.00     0.060 A 
ATOM     43  C   UNL A   1      36.252  32.515  33.842  1.00  0.00     0.016 A 
ATOM     44  C   UNL A   1      35.590  34.315  35.329  1.00  0.00     0.016 A 
ATOM     45  C   UNL A   1      37.394  32.286  34.613  1.00  0.00     0.010 A 
ATOM     46  C   UNL A   1      36.720  34.066  36.114  1.00  0.00     0.010 A 
ATOM     47  C   UNL A   1      37.617  33.037  35.775  1.00  0.00    -0.014 A 
BRANCH  47  48
ATOM     48  C   UNL A   1      38.695  32.655  36.720  1.00  0.00     0.031 A 
ATOM     49  C   UNL A   1      38.367  32.560  38.186  1.00  0.00     0.074 A 
ATOM     50  C   UNL A   1      39.945  32.401  36.289  1.00  0.00     0.049 A 
ATOM     51  N   UNL A   1      39.159  32.336  39.201  1.00  0.00    -0.248 NA
ATOM     52  C   UNL A   1      36.953  32.743  38.552  1.00  0.00     0.031 C 
ATOM     53  C   UNL A   1      40.376  32.414  34.892  1.00  0.00     0.029 A 
ATOM     54  N   UNL A   1      41.086  32.098  36.991  1.00  0.00    -0.354 N 
ATOM     55  C   UNL A   1      38.345  32.365  40.328  1.00  0.00     0.074 A 
ATOM     56  C   UNL A   1      37.001  32.649  39.873  1.00  0.00     0.031 C 
ATOM     57  C   UNL A   1      41.694  32.152  34.841  1.00  0.00     0.029 A 
ATOM     58  C   UNL A   1      42.208  31.996  36.202  1.00  0.00     0.049 A 
ATOM     59  H   UNL A   1      41.100  31.967  37.966  1.00  0.00     0.167 HD
ATOM     60  C   UNL A   1      38.687  32.166  41.624  1.00  0.00     0.037 A 
ATOM     61  C   UNL A   1      43.503  31.831  36.541  1.00  0.00     0.037 A 
ATOM     62  C   UNL A   1      40.028  31.889  42.069  1.00  0.00     0.049 A 
ATOM     63  C   UNL A   1      43.874  31.702  37.999  1.00  0.00     0.074 A 
ATOM     64  C   UNL A   1      40.474  31.653  43.357  1.00  0.00     0.029 A 
ATOM     65  N   UNL A   1      41.142  31.828  41.243  1.00  0.00    -0.354 N 
ATOM     66  N   UNL A   1      43.092  31.701  39.053  1.00  0.00    -0.248 NA
ATOM     67  C   UNL A   1      45.303  31.557  38.314  1.00  0.00     0.031 C 
ATOM     68  C   UNL A   1      41.864  31.511  43.319  1.00  0.00     0.029 A 
ATOM     69  C   UNL A   1      42.279  31.594  41.999  1.00  0.00     0.049 A 
ATOM     70  H   UNL A   1      41.126  31.934  40.265  1.00  0.00     0.167 HD
ATOM     71  C   UNL A   1      43.931  31.532  40.152  1.00  0.00     0.074 A 
ATOM     72  C   UNL A   1      45.278  31.417  39.632  1.00  0.00     0.031 C 
ATOM     73  C   UNL A   1      43.617  31.480  41.470  1.00  0.00     0.037 A 
BRANCH  60  74
ATOM     74  C   UNL A   1      37.600  32.274  42.658  1.00  0.00     0.058 A 
ATOM     75  C   UNL A   1      37.103  33.515  43.087  1.00  0.00     0.135 A 
ATOM     76  C   UNL A   1      37.015  31.115  43.196  1.00  0.00     0.135 A 
ATOM     77  F   UNL A   1      37.636  34.656  42.620  1.00  0.00    -0.206 F 
ATOM     78  C   UNL A   1      36.083  33.604  44.030  1.00  0.00     0.059 A 
ATOM     79  C   UNL A   1      35.974  31.180  44.117  1.00  0.00     0.059 A 
ATOM     80  F   UNL A   1      37.453  29.902  42.824  1.00  0.00    -0.206 F 
ATOM     81  C   UNL A   1      35.522  32.430  44.536  1.00  0.00     0.060 A 
BRANCH  81  82
ATOM     82  S   UNL A   1      34.191  32.565  45.748  1.00  0.00     0.124 S 
ATOM     83  O   UNL A   1      33.514  31.281  45.581  1.00  0.00    -0.237 OA
ATOM     84  O   UNL A   1      34.925  32.735  46.998  1.00  0.00    -0.237 OA
ATOM     85  O   UNL A   1      33.438  33.732  45.300  1.00  0.00    -0.744 OA
ENDBRANCH  81  82
ENDBRANCH  60  74
BRANCH  61  86
ATOM     86  C   UNL A   1      44.555  31.808  35.487  1.00  0.00     0.058 A 
ATOM     87  C   UNL A   1      44.935  30.610  34.864  1.00  0.00     0.135 A 
ATOM     88  C   UNL A   1      45.209  32.986  35.088  1.00  0.00     0.135 A 
ATOM     89  F   UNL A   1      44.353  29.455  35.221  1.00  0.00    -0.206 F 
ATOM     90  C   UNL A   1      45.930  30.576  33.892  1.00  0.00     0.059 A 
ATOM     91  C   UNL A   1      46.186  32.981  34.097  1.00  0.00     0.059 A 
ATOM     92  F   UNL A   1      44.883  34.160  35.648  1.00  0.00    -0.206 F 
ATOM     93  C   UNL A   1      46.545  31.770  33.510  1.00  0.00     0.060 A 
BRANCH  93  94
ATOM     94  S   UNL A   1      47.795  31.721  32.206  1.00  0.00     0.124 S 
ATOM     95  O   UNL A   1      46.997  31.344  31.046  1.00  0.00    -0.237 OA
ATOM     96  O   UNL A   1      48.300  33.090  32.218  1.00  0.00    -0.237 OA
ATOM     97  O   UNL A   1      48.736  30.711  32.681  1.00  0.00    -0.744 OA
ENDBRANCH  93  94
ENDBRANCH  61  86
BRANCH  73  98
ATOM     98  C   UNL A   1      44.740  31.266  42.451  1.00  0.00     0.058 A 
ATOM     99  C   UNL A   1      45.296  32.329  43.180  1.00  0.00     0.135 A 
ATOM    100  C   UNL A   1      45.220  29.972  42.714  1.00  0.00     0.135 A 
ATOM    101  F   UNL A   1      44.879  33.588  42.965  1.00  0.00    -0.206 F 
ATOM    102  C   UNL A   1      46.301  32.121  44.119  1.00  0.00     0.059 A 
ATOM    103  C   UNL A   1      46.203  29.736  43.671  1.00  0.00     0.059 A 
ATOM    104  F   UNL A   1      44.718  28.917  42.053  1.00  0.00    -0.206 F 
ATOM    105  C   UNL A   1      46.744  30.819  44.363  1.00  0.00     0.060 A 
BRANCH 105 106
ATOM    106  S   UNL A   1      48.018  30.560  45.616  1.00  0.00     0.124 S 
ATOM    107  O   UNL A   1      48.875  31.723  45.410  1.00  0.00    -0.237 OA
ATOM    108  O   UNL A   1      47.241  30.555  46.852  1.00  0.00    -0.237 OA
ATOM    109  O   UNL A   1      48.604  29.275  45.245  1.00  0.00    -0.744 OA
ENDBRANCH 105 106
ENDBRANCH  73  98
ENDBRANCH  47  48
ENDBRANCH  40  42
ENDBRANCH  39  40
ENDBRANCH  38  39
ENDBRANCH  37  38
ENDBRANCH  36  37
ENDBRANCH  35  36
ENDBRANCH  34  35
ENDBRANCH   1  34
TORSDOF 29
ENDMDL
MODEL 2
REMARK VINA RESULT:      -8.6      7.248     12.915
REMARK SMILES O=C(C[C@@H]([NH2+]Cc1ccccc1)C(=O)OCCOCCOCCOCCOC(=O)c1ccc(-c2c3nc(c(-c4c(F)cc(S(=O)(=O)[O-])cc4F)c4ccc([nH]4)c(-c4c(F)cc(S(=O)(=O)[O-])cc4F)c4nc(c(-c5c(F)cc(S(=O)(=O)[O-])cc5F)c5ccc2[nH]5)C=C4)C=C3)cc1)Nc1cccc(Cl)c1Cl
REMARK SMILES IDX 21 1 20 2 19 3 18 4 17 5 16 6 15 7 13 8 14 9 4 10 3 11 2 12
REMARK SMILES IDX 1 13 96 14 97 16 98 17 103 18 99 19 101 20 104 21 100 22
REMARK SMILES IDX 102 23 5 24 6 27 7 28 8 29 12 30 9 31 11 32 10 33 22 34
REMARK SMILES IDX 23 35 24 36 25 37 26 38 27 39 28 40 29 41 30 42 31 43 95 44
REMARK SMILES IDX 32 45 94 46 33 47 34 48 35 49 88 50 36 51 93 52 87 53 89 54
REMARK SMILES IDX 37 55 92 56 86 57 85 58 38 60 72 61 51 62 71 63 52 64 55 65
REMARK SMILES IDX 70 66 90 67 53 68 54 69 69 71 91 72 56 73 39 74 40 75 49 76
REMARK SMILES IDX 41 77 42 78 48 79 50 80 43 81 44 82 45 83 46 84 47 85 73 86
REMARK SMILES IDX 74 87 83 88 75 89 76 90 82 91 84 92 77 93 78 94 79 95 80 96
REMARK SMILES IDX 81 97 57 98 58 99 67 100 59 101 60 102 66 103 68 104 61 105
REMARK SMILES IDX 62 106 63 107 64 108 65 109
REMARK H PARENT 96 15 5 25 5 26 89 59 55 70
REMARK Flexibility Score: inf
ROOT
ATOM      1  O   UNL A   1      36.523  32.997  31.992  1.00  0.00    -0.377 OA
ENDROOT
BRANCH   1   2
ATOM      2  C   UNL A   1      35.464  32.629  32.856  1.00  0.00     0.188 C 
BRANCH   2   3
ATOM      3  C   UNL A   1      34.217  33.518  32.794  1.00  0.00     0.188 C 
BRANCH   3   4
ATOM      4  O   UNL A   1      33.787  33.847  31.493  1.00  0.00    -0.376 OA
BRANCH   4   5
ATOM      5  C   UNL A   1      33.679  35.174  31.011  1.00  0.00     0.202 C 
BRANCH   5   6
ATOM      6  C   UNL A   1      33.343  35.646  29.576  1.00  0.00     0.261 C 
BRANCH   6   7
ATOM      7  O   UNL A   1      33.989  35.045  28.453  1.00  0.00    -0.459 OA
BRANCH   7   8
ATOM      8  C   UNL A   1      33.396  33.917  28.013  1.00  0.00     0.365 C 
ATOM      9  O   UNL A   1      32.201  33.880  27.731  1.00  0.00    -0.245 OA
BRANCH   8  10
ATOM     10  C   UNL A   1      34.355  32.720  27.827  1.00  0.00     0.303 C 
BRANCH  10  11
ATOM     11  C   UNL A   1      35.670  32.796  28.628  1.00  0.00     0.177 C 
BRANCH  11  12
ATOM     12  C   UNL A   1      36.428  31.484  28.507  1.00  0.00     0.231 C 
ATOM     13  O   UNL A   1      36.285  30.733  27.549  1.00  0.00    -0.274 OA
ATOM     14  N   UNL A   1      37.129  31.189  29.665  1.00  0.00    -0.325 N 
ATOM     15  H   UNL A   1      37.044  31.830  30.407  1.00  0.00     0.169 HD
BRANCH  14  16
ATOM     16  C   UNL A   1      37.951  30.064  29.892  1.00  0.00     0.061 A 
ATOM     17  C   UNL A   1      38.701  29.650  28.778  1.00  0.00     0.028 A 
ATOM     18  C   UNL A   1      37.998  29.305  31.079  1.00  0.00     0.083 A 
ATOM     19  C   UNL A   1      39.517  28.523  28.837  1.00  0.00     0.004 A 
ATOM     20  C   UNL A   1      38.806  28.151  31.117  1.00  0.00     0.061 A 
ATOM     21  Cl  UNL A   1      36.937  29.640  32.412  1.00  0.00    -0.080 Cl
ATOM     22  C   UNL A   1      39.564  27.770  30.004  1.00  0.00     0.022 A 
ATOM     23  Cl  UNL A   1      38.882  27.102  32.496  1.00  0.00    -0.083 Cl
ENDBRANCH  14  16
ENDBRANCH  11  12
ENDBRANCH  10  11
BRANCH  10  24
ATOM     24  N   UNL A   1      33.701  31.411  28.147  1.00  0.00    -0.330 N 
ATOM     25  H   UNL A   1      33.267  31.492  29.067  1.00  0.00     0.347 HD
ATOM     26  H   UNL A   1      34.439  30.709  28.104  1.00  0.00     0.347 HD
BRANCH  24  27
ATOM     27  C   UNL A   1      32.669  30.975  27.195  1.00  0.00     0.298 C 
BRANCH  27  28
ATOM     28  C   UNL A   1      32.711  29.495  26.888  1.00  0.00     0.006 A 
ATOM     29  C   UNL A   1      33.783  28.939  26.176  1.00  0.00     0.009 A 
ATOM     30  C   UNL A   1      31.672  28.652  27.305  1.00  0.00     0.009 A 
ATOM     31  C   UNL A   1      33.825  27.572  25.902  1.00  0.00     0.001 A 
ATOM     32  C   UNL A   1      31.710  27.287  27.025  1.00  0.00     0.001 A 
ATOM     33  C   UNL A   1      32.786  26.747  26.324  1.00  0.00     0.000 A 
ENDBRANCH  27  28
ENDBRANCH  24  27
ENDBRANCH  10  24
ENDBRANCH   8  10
ENDBRANCH   7   8
ENDBRANCH   6   7
ENDBRANCH   5   6
ENDBRANCH   4   5
ENDBRANCH   3   4
ENDBRANCH   2   3
ENDBRANCH   1   2
BRANCH   1  34
ATOM     34  C   UNL A   1      37.469  33.982  32.394  1.00  0.00     0.188 C 
BRANCH  34  35
ATOM     35  C   UNL A   1      37.417  34.638  33.789  1.00  0.00     0.188 C 
BRANCH  35  36
ATOM     36  O   UNL A   1      38.327  34.099  34.733  1.00  0.00    -0.376 OA
BRANCH  36  37
ATOM     37  C   UNL A   1      37.793  33.525  35.916  1.00  0.00     0.202 C 
BRANCH  37  38
ATOM     38  C   UNL A   1      37.735  31.992  36.001  1.00  0.00     0.261 C 
BRANCH  38  39
ATOM     39  O   UNL A   1      38.378  31.259  34.942  1.00  0.00    -0.460 OA
BRANCH  39  40
ATOM     40  C   UNL A   1      39.512  30.581  35.212  1.00  0.00     0.338 C 
ATOM     41  O   UNL A   1      39.640  29.633  35.968  1.00  0.00    -0.246 OA
BRANCH  40  42
ATOM     42  C   UNL A   1      40.549  31.055  34.269  1.00  0.00     0.060 A 
ATOM     43  C   UNL A   1      41.897  31.010  34.650  1.00  0.00     0.016 A 
ATOM     44  C   UNL A   1      40.191  31.521  33.002  1.00  0.00     0.016 A 
ATOM     45  C   UNL A   1      42.891  31.446  33.770  1.00  0.00     0.010 A 
ATOM     46  C   UNL A   1      41.185  31.982  32.133  1.00  0.00     0.010 A 
ATOM     47  C   UNL A   1      42.537  31.968  32.519  1.00  0.00    -0.014 A 
BRANCH  47  48
ATOM     48  C   UNL A   1      43.554  32.641  31.672  1.00  0.00     0.031 A 
ATOM     49  C   UNL A   1      44.399  31.797  30.756  1.00  0.00     0.074 A 
ATOM     50  C   UNL A   1      43.730  33.975  31.717  1.00  0.00     0.049 A 
ATOM     51  N   UNL A   1      45.405  32.147  29.997  1.00  0.00    -0.248 NA
ATOM     52  C   UNL A   1      44.061  30.366  30.688  1.00  0.00     0.031 C 
ATOM     53  C   UNL A   1      42.944  34.904  32.528  1.00  0.00     0.029 A 
ATOM     54  N   UNL A   1      44.642  34.777  31.075  1.00  0.00    -0.354 N 
ATOM     55  C   UNL A   1      45.830  30.980  29.373  1.00  0.00     0.074 A 
ATOM     56  C   UNL A   1      44.987  29.909  29.858  1.00  0.00     0.031 C 
ATOM     57  C   UNL A   1      43.422  36.148  32.350  1.00  0.00     0.029 A 
ATOM     58  C   UNL A   1      44.573  36.098  31.449  1.00  0.00     0.049 A 
ATOM     59  H   UNL A   1      45.284  34.437  30.411  1.00  0.00     0.167 HD
ATOM     60  C   UNL A   1      46.829  30.819  28.472  1.00  0.00     0.037 A 
ATOM     61  C   UNL A   1      45.368  37.140  31.127  1.00  0.00     0.037 A 
ATOM     62  C   UNL A   1      47.668  31.890  28.000  1.00  0.00     0.049 A 
ATOM     63  C   UNL A   1      46.532  36.919  30.192  1.00  0.00     0.074 A 
ATOM     64  C   UNL A   1      48.693  31.833  27.073  1.00  0.00     0.029 A 
ATOM     65  N   UNL A   1      47.589  33.208  28.427  1.00  0.00    -0.354 N 
ATOM     66  N   UNL A   1      46.907  35.817  29.585  1.00  0.00    -0.248 NA
ATOM     67  C   UNL A   1      47.385  38.081  29.902  1.00  0.00     0.031 C 
ATOM     68  C   UNL A   1      49.276  33.101  26.987  1.00  0.00     0.029 A 
ATOM     69  C   UNL A   1      48.572  33.965  27.811  1.00  0.00     0.049 A 
ATOM     70  H   UNL A   1      46.931  33.554  29.073  1.00  0.00     0.167 HD
ATOM     71  C   UNL A   1      48.022  36.159  28.825  1.00  0.00     0.074 A 
ATOM     72  C   UNL A   1      48.250  37.574  29.035  1.00  0.00     0.031 C 
ATOM     73  C   UNL A   1      48.789  35.375  28.027  1.00  0.00     0.037 A 
BRANCH  60  74
ATOM     74  C   UNL A   1      47.094  29.427  27.964  1.00  0.00     0.058 A 
ATOM     75  C   UNL A   1      48.043  28.585  28.564  1.00  0.00     0.135 A 
ATOM     76  C   UNL A   1      46.354  28.914  26.886  1.00  0.00     0.135 A 
ATOM     77  F   UNL A   1      48.792  29.029  29.587  1.00  0.00    -0.206 F 
ATOM     78  C   UNL A   1      48.266  27.293  28.099  1.00  0.00     0.059 A 
ATOM     79  C   UNL A   1      46.539  27.614  26.423  1.00  0.00     0.059 A 
ATOM     80  F   UNL A   1      45.435  29.676  26.272  1.00  0.00    -0.206 F 
ATOM     81  C   UNL A   1      47.506  26.815  27.030  1.00  0.00     0.060 A 
BRANCH  81  82
ATOM     82  S   UNL A   1      47.800  25.132  26.449  1.00  0.00     0.124 S 
ATOM     83  O   UNL A   1      46.437  24.617  26.343  1.00  0.00    -0.237 OA
ATOM     84  O   UNL A   1      48.492  25.356  25.184  1.00  0.00    -0.237 OA
ATOM     85  O   UNL A   1      48.610  24.541  27.509  1.00  0.00    -0.744 OA
ENDBRANCH  81  82
ENDBRANCH  60  74
BRANCH  61  86
ATOM     86  C   UNL A   1      45.114  38.484  31.716  1.00  0.00     0.058 A 
ATOM     87  C   UNL A   1      45.758  38.897  32.892  1.00  0.00     0.135 A 
ATOM     88  C   UNL A   1      44.212  39.380  31.119  1.00  0.00     0.135 A 
ATOM     89  F   UNL A   1      46.616  38.072  33.511  1.00  0.00    -0.206 F 
ATOM     90  C   UNL A   1      45.512  40.143  33.460  1.00  0.00     0.059 A 
ATOM     91  C   UNL A   1      43.972  40.643  31.652  1.00  0.00     0.059 A 
ATOM     92  F   UNL A   1      43.570  39.039  29.991  1.00  0.00    -0.206 F 
ATOM     93  C   UNL A   1      44.621  41.013  32.828  1.00  0.00     0.060 A 
BRANCH  93  94
ATOM     94  S   UNL A   1      44.354  42.649  33.543  1.00  0.00     0.124 S 
ATOM     95  O   UNL A   1      43.210  43.126  32.774  1.00  0.00    -0.237 OA
ATOM     96  O   UNL A   1      44.094  42.331  34.943  1.00  0.00    -0.237 OA
ATOM     97  O   UNL A   1      45.616  43.337  33.289  1.00  0.00    -0.744 OA
ENDBRANCH  93  94
ENDBRANCH  61  86
BRANCH  73  98
ATOM     98  C   UNL A   1      49.937  36.024  27.299  1.00  0.00     0.058 A 
ATOM     99  C   UNL A   1      51.184  36.220  27.912  1.00  0.00     0.135 A 
ATOM    100  C   UNL A   1      49.807  36.395  25.950  1.00  0.00     0.135 A 
ATOM    101  F   UNL A   1      51.363  35.891  29.202  1.00  0.00    -0.206 F 
ATOM    102  C   UNL A   1      52.256  36.777  27.221  1.00  0.00     0.059 A 
ATOM    103  C   UNL A   1      50.874  36.925  25.230  1.00  0.00     0.059 A 
ATOM    104  F   UNL A   1      48.640  36.221  25.310  1.00  0.00    -0.206 F 
ATOM    105  C   UNL A   1      52.093  37.121  25.877  1.00  0.00     0.060 A 
BRANCH 105 106
ATOM    106  S   UNL A   1      53.505  37.803  24.982  1.00  0.00     0.124 S 
ATOM    107  O   UNL A   1      53.143  37.516  23.598  1.00  0.00    -0.237 OA
ATOM    108  O   UNL A   1      53.468  39.210  25.369  1.00  0.00    -0.237 OA
ATOM    109  O   UNL A   1      54.638  37.044  25.504  1.00  0.00    -0.744 OA
ENDBRANCH 105 106
ENDBRANCH  73  98
ENDBRANCH  47  48
ENDBRANCH  40  42
ENDBRANCH  39  40
ENDBRANCH  38  39
ENDBRANCH  37  38
ENDBRANCH  36  37
ENDBRANCH  35  36
ENDBRANCH  34  35
ENDBRANCH   1  34
TORSDOF 29
ENDMDL
MODEL 3
REMARK VINA RESULT:      -8.2      2.945      8.150
REMARK SMILES O=C(C[C@@H]([NH2+]Cc1ccccc1)C(=O)OCCOCCOCCOCCOC(=O)c1ccc(-c2c3nc(c(-c4c(F)cc(S(=O)(=O)[O-])cc4F)c4ccc([nH]4)c(-c4c(F)cc(S(=O)(=O)[O-])cc4F)c4nc(c(-c5c(F)cc(S(=O)(=O)[O-])cc5F)c5ccc2[nH]5)C=C4)C=C3)cc1)Nc1cccc(Cl)c1Cl
REMARK SMILES IDX 21 1 20 2 19 3 18 4 17 5 16 6 15 7 13 8 14 9 4 10 3 11 2 12
REMARK SMILES IDX 1 13 96 14 97 16 98 17 103 18 99 19 101 20 104 21 100 22
REMARK SMILES IDX 102 23 5 24 6 27 7 28 8 29 12 30 9 31 11 32 10 33 22 34
REMARK SMILES IDX 23 35 24 36 25 37 26 38 27 39 28 40 29 41 30 42 31 43 95 44
REMARK SMILES IDX 32 45 94 46 33 47 34 48 35 49 88 50 36 51 93 52 87 53 89 54
REMARK SMILES IDX 37 55 92 56 86 57 85 58 38 60 72 61 51 62 71 63 52 64 55 65
REMARK SMILES IDX 70 66 90 67 53 68 54 69 69 71 91 72 56 73 39 74 40 75 49 76
REMARK SMILES IDX 41 77 42 78 48 79 50 80 43 81 44 82 45 83 46 84 47 85 73 86
REMARK SMILES IDX 74 87 83 88 75 89 76 90 82 91 84 92 77 93 78 94 79 95 80 96
REMARK SMILES IDX 81 97 57 98 58 99 67 100 59 101 60 102 66 103 68 104 61 105
REMARK SMILES IDX 62 106 63 107 64 108 65 109
REMARK H PARENT 96 15 5 25 5 26 89 59 55 70
REMARK Flexibility Score: inf
ROOT
ATOM      1  O   UNL A   1      33.262  34.400  29.056  1.00  0.00    -0.377 OA
ENDROOT
BRANCH   1   2
ATOM      2  C   UNL A   1      34.058  34.122  27.919  1.00  0.00     0.188 C 
BRANCH   2   3
ATOM      3  C   UNL A   1      35.198  33.121  28.136  1.00  0.00     0.188 C 
BRANCH   3   4
ATOM      4  O   UNL A   1      34.791  31.839  28.556  1.00  0.00    -0.376 OA
BRANCH   4   5
ATOM      5  C   UNL A   1      34.959  30.666  27.782  1.00  0.00     0.202 C 
BRANCH   5   6
ATOM      6  C   UNL A   1      33.869  29.691  27.275  1.00  0.00     0.261 C 
BRANCH   6   7
ATOM      7  O   UNL A   1      33.845  29.289  25.905  1.00  0.00    -0.459 OA
BRANCH   7   8
ATOM      8  C   UNL A   1      32.609  29.052  25.421  1.00  0.00     0.365 C 
ATOM      9  O   UNL A   1      31.598  29.405  26.022  1.00  0.00    -0.245 OA
BRANCH   8  10
ATOM     10  C   UNL A   1      32.586  28.375  24.031  1.00  0.00     0.303 C 
BRANCH  10  11
ATOM     11  C   UNL A   1      31.948  26.972  23.990  1.00  0.00     0.177 C 
BRANCH  11  12
ATOM     12  C   UNL A   1      33.013  25.910  24.210  1.00  0.00     0.231 C 
ATOM     13  O   UNL A   1      34.058  25.892  23.570  1.00  0.00    -0.274 OA
ATOM     14  N   UNL A   1      32.572  24.912  25.063  1.00  0.00    -0.325 N 
ATOM     15  H   UNL A   1      31.652  24.996  25.401  1.00  0.00     0.169 HD
BRANCH  14  16
ATOM     16  C   UNL A   1      33.306  23.787  25.498  1.00  0.00     0.061 A 
ATOM     17  C   UNL A   1      34.657  24.044  25.790  1.00  0.00     0.028 A 
ATOM     18  C   UNL A   1      32.822  22.464  25.566  1.00  0.00     0.083 A 
ATOM     19  C   UNL A   1      35.518  23.020  26.179  1.00  0.00     0.004 A 
ATOM     20  C   UNL A   1      33.710  21.434  25.935  1.00  0.00     0.061 A 
ATOM     21  Cl  UNL A   1      31.228  22.053  25.016  1.00  0.00    -0.080 Cl
ATOM     22  C   UNL A   1      35.046  21.715  26.244  1.00  0.00     0.022 A 
ATOM     23  Cl  UNL A   1      33.244  19.764  25.978  1.00  0.00    -0.083 Cl
ENDBRANCH  14  16
ENDBRANCH  11  12
ENDBRANCH  10  11
BRANCH  10  24
ATOM     24  N   UNL A   1      31.901  29.217  23.000  1.00  0.00    -0.330 N 
ATOM     25  H   UNL A   1      32.443  29.163  22.138  1.00  0.00     0.347 HD
ATOM     26  H   UNL A   1      31.851  30.158  23.392  1.00  0.00     0.347 HD
BRANCH  24  27
ATOM     27  C   UNL A   1      30.516  28.832  22.691  1.00  0.00     0.298 C 
BRANCH  27  28
ATOM     28  C   UNL A   1      29.579  30.007  22.531  1.00  0.00     0.006 A 
ATOM     29  C   UNL A   1      29.240  30.812  23.628  1.00  0.00     0.009 A 
ATOM     30  C   UNL A   1      29.025  30.310  21.279  1.00  0.00     0.009 A 
ATOM     31  C   UNL A   1      28.383  31.902  23.475  1.00  0.00     0.001 A 
ATOM     32  C   UNL A   1      28.163  31.395  21.128  1.00  0.00     0.001 A 
ATOM     33  C   UNL A   1      27.842  32.191  22.225  1.00  0.00     0.000 A 
ENDBRANCH  27  28
ENDBRANCH  24  27
ENDBRANCH  10  24
ENDBRANCH   8  10
ENDBRANCH   7   8
ENDBRANCH   6   7
ENDBRANCH   5   6
ENDBRANCH   4   5
ENDBRANCH   3   4
ENDBRANCH   2   3
ENDBRANCH   1   2
BRANCH   1  34
ATOM     34  C   UNL A   1      33.223  35.715  29.602  1.00  0.00     0.188 C 
BRANCH  34  35
ATOM     35  C   UNL A   1      33.279  35.965  31.123  1.00  0.00     0.188 C 
BRANCH  35  36
ATOM     36  O   UNL A   1      32.691  34.947  31.915  1.00  0.00    -0.376 OA
BRANCH  36  37
ATOM     37  C   UNL A   1      33.552  34.143  32.707  1.00  0.00     0.202 C 
BRANCH  37  38
ATOM     38  C   UNL A   1      34.551  33.233  31.974  1.00  0.00     0.261 C 
BRANCH  38  39
ATOM     39  O   UNL A   1      35.892  33.193  32.494  1.00  0.00    -0.460 OA
BRANCH  39  40
ATOM     40  C   UNL A   1      36.323  32.068  33.101  1.00  0.00     0.338 C 
ATOM     41  O   UNL A   1      36.220  30.924  32.690  1.00  0.00    -0.246 OA
BRANCH  40  42
ATOM     42  C   UNL A   1      37.138  32.476  34.267  1.00  0.00     0.060 A 
ATOM     43  C   UNL A   1      37.978  31.536  34.881  1.00  0.00     0.016 A 
ATOM     44  C   UNL A   1      37.091  33.790  34.737  1.00  0.00     0.016 A 
ATOM     45  C   UNL A   1      38.760  31.905  35.979  1.00  0.00     0.010 A 
ATOM     46  C   UNL A   1      37.854  34.150  35.852  1.00  0.00     0.010 A 
ATOM     47  C   UNL A   1      38.676  33.206  36.493  1.00  0.00    -0.014 A 
BRANCH  47  48
ATOM     48  C   UNL A   1      39.323  33.544  37.785  1.00  0.00     0.031 A 
ATOM     49  C   UNL A   1      40.700  34.150  37.763  1.00  0.00     0.074 A 
ATOM     50  C   UNL A   1      38.703  33.316  38.958  1.00  0.00     0.049 A 
ATOM     51  N   UNL A   1      41.495  34.441  38.760  1.00  0.00    -0.248 NA
ATOM     52  C   UNL A   1      41.253  34.469  36.437  1.00  0.00     0.031 C 
ATOM     53  C   UNL A   1      37.352  32.778  39.109  1.00  0.00     0.029 A 
ATOM     54  N   UNL A   1      39.140  33.494  40.248  1.00  0.00    -0.354 N 
ATOM     55  C   UNL A   1      42.647  34.964  38.183  1.00  0.00     0.074 A 
ATOM     56  C   UNL A   1      42.456  34.930  36.749  1.00  0.00     0.031 C 
ATOM     57  C   UNL A   1      37.078  32.649  40.419  1.00  0.00     0.029 A 
ATOM     58  C   UNL A   1      38.249  33.054  41.198  1.00  0.00     0.049 A 
ATOM     59  H   UNL A   1      40.010  33.897  40.471  1.00  0.00     0.167 HD
ATOM     60  C   UNL A   1      43.760  35.435  38.794  1.00  0.00     0.037 A 
ATOM     61  C   UNL A   1      38.376  32.959  42.538  1.00  0.00     0.037 A 
ATOM     62  C   UNL A   1      43.945  35.460  40.223  1.00  0.00     0.049 A 
ATOM     63  C   UNL A   1      39.661  33.406  43.191  1.00  0.00     0.074 A 
ATOM     64  C   UNL A   1      45.027  35.936  40.940  1.00  0.00     0.029 A 
ATOM     65  N   UNL A   1      43.033  34.975  41.150  1.00  0.00    -0.354 N 
ATOM     66  N   UNL A   1      40.731  33.926  42.639  1.00  0.00    -0.248 NA
ATOM     67  C   UNL A   1      39.757  33.248  44.650  1.00  0.00     0.031 C 
ATOM     68  C   UNL A   1      44.798  35.682  42.296  1.00  0.00     0.029 A 
ATOM     69  C   UNL A   1      43.544  35.107  42.430  1.00  0.00     0.049 A 
ATOM     70  H   UNL A   1      42.152  34.595  40.930  1.00  0.00     0.167 HD
ATOM     71  C   UNL A   1      41.617  34.178  43.683  1.00  0.00     0.074 A 
ATOM     72  C   UNL A   1      40.949  33.770  44.902  1.00  0.00     0.031 C 
ATOM     73  C   UNL A   1      42.869  34.698  43.638  1.00  0.00     0.037 A 
BRANCH  60  74
ATOM     74  C   UNL A   1      44.881  35.931  37.921  1.00  0.00     0.058 A 
ATOM     75  C   UNL A   1      44.999  37.283  37.560  1.00  0.00     0.135 A 
ATOM     76  C   UNL A   1      45.877  35.047  37.476  1.00  0.00     0.135 A 
ATOM     77  F   UNL A   1      44.066  38.170  37.942  1.00  0.00    -0.206 F 
ATOM     78  C   UNL A   1      46.050  37.735  36.768  1.00  0.00     0.059 A 
ATOM     79  C   UNL A   1      46.954  35.482  36.709  1.00  0.00     0.059 A 
ATOM     80  F   UNL A   1      45.813  33.743  37.789  1.00  0.00    -0.206 F 
ATOM     81  C   UNL A   1      47.025  36.827  36.351  1.00  0.00     0.060 A 
BRANCH  81  82
ATOM     82  S   UNL A   1      48.389  37.434  35.336  1.00  0.00     0.124 S 
ATOM     83  O   UNL A   1      49.373  36.367  35.501  1.00  0.00    -0.237 OA
ATOM     84  O   UNL A   1      47.775  37.530  34.016  1.00  0.00    -0.237 OA
ATOM     85  O   UNL A   1      48.738  38.707  35.959  1.00  0.00    -0.744 OA
ENDBRANCH  81  82
ENDBRANCH  60  74
BRANCH  61  86
ATOM     86  C   UNL A   1      37.269  32.388  43.354  1.00  0.00     0.058 A 
ATOM     87  C   UNL A   1      36.283  33.210  43.920  1.00  0.00     0.135 A 
ATOM     88  C   UNL A   1      37.180  31.006  43.593  1.00  0.00     0.135 A 
ATOM     89  F   UNL A   1      36.332  34.538  43.736  1.00  0.00    -0.206 F 
ATOM     90  C   UNL A   1      35.256  32.688  44.700  1.00  0.00     0.059 A 
ATOM     91  C   UNL A   1      36.146  30.457  44.346  1.00  0.00     0.059 A 
ATOM     92  F   UNL A   1      38.094  30.172  43.074  1.00  0.00    -0.206 F 
ATOM     93  C   UNL A   1      35.192  31.308  44.902  1.00  0.00     0.060 A 
BRANCH  93  94
ATOM     94  S   UNL A   1      33.822  30.636  45.868  1.00  0.00     0.124 S 
ATOM     95  O   UNL A   1      33.509  29.417  45.131  1.00  0.00    -0.237 OA
ATOM     96  O   UNL A   1      34.436  30.451  47.179  1.00  0.00    -0.237 OA
ATOM     97  O   UNL A   1      32.815  31.691  45.800  1.00  0.00    -0.744 OA
ENDBRANCH  93  94
ENDBRANCH  61  86
BRANCH  73  98
ATOM     98  C   UNL A   1      43.600  34.881  44.943  1.00  0.00     0.058 A 
ATOM     99  C   UNL A   1      43.462  36.048  45.709  1.00  0.00     0.135 A 
ATOM    100  C   UNL A   1      44.396  33.847  45.465  1.00  0.00     0.135 A 
ATOM    101  F   UNL A   1      42.719  37.071  45.255  1.00  0.00    -0.206 F 
ATOM    102  C   UNL A   1      44.102  36.194  46.936  1.00  0.00     0.059 A 
ATOM    103  C   UNL A   1      45.020  33.958  46.704  1.00  0.00     0.059 A 
ATOM    104  F   UNL A   1      44.555  32.704  44.779  1.00  0.00    -0.206 F 
ATOM    105  C   UNL A   1      44.874  35.140  47.429  1.00  0.00     0.060 A 
BRANCH 105 106
ATOM    106  S   UNL A   1      45.662  35.327  49.042  1.00  0.00     0.124 S 
ATOM    107  O   UNL A   1      47.066  35.471  48.670  1.00  0.00    -0.237 OA
ATOM    108  O   UNL A   1      45.018  36.528  49.565  1.00  0.00    -0.237 OA
ATOM    109  O   UNL A   1      45.321  34.087  49.734  1.00  0.00    -0.744 OA
ENDBRANCH 105 106
ENDBRANCH  73  98
ENDBRANCH  47  48
ENDBRANCH  40  42
ENDBRANCH  39  40
ENDBRANCH  38  39
ENDBRANCH  37  38
ENDBRANCH  36  37
ENDBRANCH  35  36
ENDBRANCH  34  35
ENDBRANCH   1  34
TORSDOF 29
ENDMDL
