MODEL 1
REMARK VINA RESULT:      -9.4      0.000      0.000
REMARK SMILES CN1C(=O)/C(=C\c2ccc(OCC(=O)OCCOCCOCCOCCOC(=O)c3ccc(-c4c5nc(c(-c6c(F)cc(S(=O)(=O)[O-])cc6F)c6ccc([nH]6)c(-c6c(F)cc(S(=O)(=O)[O-])cc6F)c6nc(c(-c7c(F)cc(S(=O)(=O)[O-])cc7F)c7ccc4[nH]7)C=C6)C=C5)cc3)cc2)C(O)=NC1=S
REMARK SMILES IDX 20 1 19 2 18 3 17 4 16 5 15 6 13 7 14 8 12 9 11 10 10 11
REMARK SMILES IDX 7 12 8 13 97 14 9 15 96 16 6 17 1 18 2 19 3 20 101 21 4 22
REMARK SMILES IDX 5 23 100 24 102 25 98 26 99 27 21 29 22 30 23 31 24 32 25 33
REMARK SMILES IDX 26 34 27 35 28 36 29 37 30 38 31 39 95 40 32 41 94 42 33 43
REMARK SMILES IDX 34 44 35 45 88 46 36 47 93 48 87 49 89 50 37 51 92 52 86 53
REMARK SMILES IDX 85 54 38 56 72 57 51 58 71 59 52 60 55 61 70 62 90 63 53 64
REMARK SMILES IDX 54 65 69 67 91 68 56 69 39 70 40 71 49 72 41 73 42 74 48 75
REMARK SMILES IDX 50 76 43 77 44 78 45 79 46 80 47 81 73 82 74 83 83 84 75 85
REMARK SMILES IDX 76 86 82 87 84 88 77 89 78 90 79 91 80 92 81 93 57 94 58 95
REMARK SMILES IDX 67 96 59 97 60 98 66 99 68 100 61 101 62 102 63 103 64 104
REMARK SMILES IDX 65 105
REMARK H PARENT 99 28 89 55 55 66
REMARK Flexibility Score: inf
ROOT
ATOM      1  C   UNL A   1      35.445  24.011  24.390  1.00  0.00     0.188 C 
ENDROOT
BRANCH   1   2
ATOM      2  C   UNL A   1      34.589  24.487  25.583  1.00  0.00     0.188 C 
BRANCH   2   3
ATOM      3  O   UNL A   1      33.916  25.744  25.525  1.00  0.00    -0.376 OA
BRANCH   3   4
ATOM      4  C   UNL A   1      32.736  25.861  26.297  1.00  0.00     0.202 C 
BRANCH   4   5
ATOM      5  C   UNL A   1      32.446  27.298  26.760  1.00  0.00     0.261 C 
BRANCH   5   6
ATOM      6  O   UNL A   1      33.515  28.243  26.486  1.00  0.00    -0.461 OA
BRANCH   6   7
ATOM      7  C   UNL A   1      33.152  29.479  26.042  1.00  0.00     0.344 C 
ATOM      8  O   UNL A   1      33.521  30.534  26.546  1.00  0.00    -0.248 OA
BRANCH   7   9
ATOM      9  C   UNL A   1      32.143  29.423  24.870  1.00  0.00     0.351 C 
BRANCH   9  10
ATOM     10  O   UNL A   1      32.587  29.150  23.544  1.00  0.00    -0.482 OA
BRANCH  10  11
ATOM     11  C   UNL A   1      32.492  27.887  23.013  1.00  0.00     0.120 A 
ATOM     12  C   UNL A   1      32.246  25.066  22.507  1.00  0.00    -0.024 A 
ATOM     13  C   UNL A   1      31.179  25.809  23.028  1.00  0.00     0.012 A 
ATOM     14  C   UNL A   1      33.388  25.791  22.122  1.00  0.00     0.012 A 
ATOM     15  C   UNL A   1      31.314  27.190  23.308  1.00  0.00     0.047 A 
ATOM     16  C   UNL A   1      33.507  27.189  22.361  1.00  0.00     0.047 A 
BRANCH  12  17
ATOM     17  C   UNL A   1      32.122  23.598  22.273  1.00  0.00     0.027 C 
ATOM     18  C   UNL A   1      32.880  21.559  26.538  1.00  0.00     0.156 C 
ATOM     19  N   UNL A   1      32.618  21.415  25.103  1.00  0.00    -0.286 N 
ATOM     20  C   UNL A   1      31.798  22.371  24.537  1.00  0.00     0.265 C 
ATOM     21  C   UNL A   1      32.885  20.237  24.399  1.00  0.00     0.205 C 
ATOM     22  O   UNL A   1      30.874  22.888  25.145  1.00  0.00    -0.268 OA
ATOM     23  C   UNL A   1      31.942  22.513  23.073  1.00  0.00     0.103 C 
ATOM     24  N   UNL A   1      32.400  20.118  23.110  1.00  0.00    -0.184 NA
ATOM     25  S   UNL A   1      33.712  18.925  25.082  1.00  0.00    -0.038 S 
ATOM     26  C   UNL A   1      31.957  21.161  22.506  1.00  0.00     0.226 C 
BRANCH  26  27
ATOM     27  O   UNL A   1      31.371  21.021  21.305  1.00  0.00    -0.493 OA
ATOM     28  H   UNL A   1      30.722  21.636  21.025  1.00  0.00     0.295 HD
ENDBRANCH  26  27
ENDBRANCH  12  17
ENDBRANCH  10  11
ENDBRANCH   9  10
ENDBRANCH   7   9
ENDBRANCH   6   7
ENDBRANCH   5   6
ENDBRANCH   4   5
ENDBRANCH   3   4
ENDBRANCH   2   3
ENDBRANCH   1   2
BRANCH   1  29
ATOM     29  O   UNL A   1      35.794  22.635  24.511  1.00  0.00    -0.377 OA
BRANCH  29  30
ATOM     30  C   UNL A   1      36.423  22.311  25.747  1.00  0.00     0.188 C 
BRANCH  30  31
ATOM     31  C   UNL A   1      37.878  22.777  25.789  1.00  0.00     0.188 C 
BRANCH  31  32
ATOM     32  O   UNL A   1      38.890  21.793  25.914  1.00  0.00    -0.376 OA
BRANCH  32  33
ATOM     33  C   UNL A   1      40.007  21.941  26.771  1.00  0.00     0.202 C 
BRANCH  33  34
ATOM     34  C   UNL A   1      41.112  22.966  26.548  1.00  0.00     0.261 C 
BRANCH  34  35
ATOM     35  O   UNL A   1      40.692  24.264  26.898  1.00  0.00    -0.460 OA
BRANCH  35  36
ATOM     36  C   UNL A   1      41.594  25.232  26.648  1.00  0.00     0.338 C 
ATOM     37  O   UNL A   1      42.501  25.243  25.825  1.00  0.00    -0.246 OA
BRANCH  36  38
ATOM     38  C   UNL A   1      41.513  26.062  27.848  1.00  0.00     0.060 A 
ATOM     39  C   UNL A   1      42.426  27.111  28.053  1.00  0.00     0.016 A 
ATOM     40  C   UNL A   1      40.370  25.915  28.632  1.00  0.00     0.016 A 
ATOM     41  C   UNL A   1      42.166  28.058  29.022  1.00  0.00     0.010 A 
ATOM     42  C   UNL A   1      40.119  26.849  29.617  1.00  0.00     0.010 A 
ATOM     43  C   UNL A   1      41.023  27.905  29.812  1.00  0.00    -0.014 A 
BRANCH  43  44
ATOM     44  C   UNL A   1      40.898  28.699  31.033  1.00  0.00     0.031 A 
ATOM     45  C   UNL A   1      39.841  29.757  31.023  1.00  0.00     0.074 A 
ATOM     46  C   UNL A   1      41.736  28.487  32.057  1.00  0.00     0.049 A 
ATOM     47  N   UNL A   1      39.577  30.665  31.915  1.00  0.00    -0.248 NA
ATOM     48  C   UNL A   1      38.975  29.808  29.828  1.00  0.00     0.031 C 
ATOM     49  C   UNL A   1      42.771  27.452  32.108  1.00  0.00     0.029 A 
ATOM     50  N   UNL A   1      41.859  29.150  33.244  1.00  0.00    -0.354 N 
ATOM     51  C   UNL A   1      38.528  31.405  31.384  1.00  0.00     0.074 A 
ATOM     52  C   UNL A   1      38.215  30.858  30.087  1.00  0.00     0.031 C 
ATOM     53  C   UNL A   1      43.439  27.565  33.270  1.00  0.00     0.029 A 
ATOM     54  C   UNL A   1      42.891  28.689  34.022  1.00  0.00     0.049 A 
ATOM     55  H   UNL A   1      41.265  29.887  33.514  1.00  0.00     0.167 HD
ATOM     56  C   UNL A   1      37.889  32.453  31.945  1.00  0.00     0.037 A 
ATOM     57  C   UNL A   1      43.334  29.154  35.203  1.00  0.00     0.037 A 
ATOM     58  C   UNL A   1      38.249  32.974  33.232  1.00  0.00     0.049 A 
ATOM     59  C   UNL A   1      42.610  30.329  35.805  1.00  0.00     0.074 A 
ATOM     60  C   UNL A   1      37.693  34.028  33.928  1.00  0.00     0.029 A 
ATOM     61  N   UNL A   1      39.280  32.466  34.015  1.00  0.00    -0.354 N 
ATOM     62  N   UNL A   1      41.601  31.014  35.312  1.00  0.00    -0.248 NA
ATOM     63  C   UNL A   1      43.070  30.791  37.117  1.00  0.00     0.031 C 
ATOM     64  C   UNL A   1      38.409  34.175  35.123  1.00  0.00     0.029 A 
ATOM     65  C   UNL A   1      39.383  33.189  35.187  1.00  0.00     0.049 A 
ATOM     66  H   UNL A   1      39.853  31.704  33.770  1.00  0.00     0.167 HD
ATOM     67  C   UNL A   1      41.286  31.972  36.266  1.00  0.00     0.074 A 
ATOM     68  C   UNL A   1      42.211  31.771  37.367  1.00  0.00     0.031 C 
ATOM     69  C   UNL A   1      40.326  32.931  36.248  1.00  0.00     0.037 A 
BRANCH  56  70
ATOM     70  C   UNL A   1      36.793  33.094  31.145  1.00  0.00     0.058 A 
ATOM     71  C   UNL A   1      35.438  32.822  31.401  1.00  0.00     0.135 A 
ATOM     72  C   UNL A   1      37.099  33.952  30.079  1.00  0.00     0.135 A 
ATOM     73  F   UNL A   1      35.092  31.975  32.383  1.00  0.00    -0.206 F 
ATOM     74  C   UNL A   1      34.427  33.360  30.611  1.00  0.00     0.059 A 
ATOM     75  C   UNL A   1      36.102  34.520  29.291  1.00  0.00     0.059 A 
ATOM     76  F   UNL A   1      38.378  34.225  29.777  1.00  0.00    -0.206 F 
ATOM     77  C   UNL A   1      34.769  34.206  29.556  1.00  0.00     0.060 A 
BRANCH  77  78
ATOM     78  S   UNL A   1      33.450  34.897  28.536  1.00  0.00     0.124 S 
ATOM     79  O   UNL A   1      32.555  35.445  29.551  1.00  0.00    -0.237 OA
ATOM     80  O   UNL A   1      34.163  35.879  27.725  1.00  0.00    -0.237 OA
ATOM     81  O   UNL A   1      32.943  33.739  27.808  1.00  0.00    -0.744 OA
ENDBRANCH  77  78
ENDBRANCH  56  70
BRANCH  57  82
ATOM     82  C   UNL A   1      44.478  28.497  35.884  1.00  0.00     0.058 A 
ATOM     83  C   UNL A   1      44.269  27.442  36.784  1.00  0.00     0.135 A 
ATOM     84  C   UNL A   1      45.804  28.876  35.621  1.00  0.00     0.135 A 
ATOM     85  F   UNL A   1      43.020  27.042  37.069  1.00  0.00    -0.206 F 
ATOM     86  C   UNL A   1      45.330  26.793  37.409  1.00  0.00     0.059 A 
ATOM     87  C   UNL A   1      46.883  28.229  36.217  1.00  0.00     0.059 A 
ATOM     88  F   UNL A   1      46.061  29.866  34.752  1.00  0.00    -0.206 F 
ATOM     89  C   UNL A   1      46.635  27.192  37.115  1.00  0.00     0.060 A 
BRANCH  89  90
ATOM     90  S   UNL A   1      48.007  26.301  37.883  1.00  0.00     0.124 S 
ATOM     91  O   UNL A   1      49.136  26.746  37.072  1.00  0.00    -0.237 OA
ATOM     92  O   UNL A   1      47.969  26.799  39.254  1.00  0.00    -0.237 OA
ATOM     93  O   UNL A   1      47.628  24.900  37.724  1.00  0.00    -0.744 OA
ENDBRANCH  89  90
ENDBRANCH  57  82
BRANCH  69  94
ATOM     94  C   UNL A   1      40.217  33.793  37.468  1.00  0.00     0.058 A 
ATOM     95  C   UNL A   1      39.352  33.464  38.521  1.00  0.00     0.135 A 
ATOM     96  C   UNL A   1      41.027  34.931  37.600  1.00  0.00     0.135 A 
ATOM     97  F   UNL A   1      38.558  32.384  38.434  1.00  0.00    -0.206 F 
ATOM     98  C   UNL A   1      39.273  34.254  39.660  1.00  0.00     0.059 A 
ATOM     99  C   UNL A   1      40.982  35.721  38.740  1.00  0.00     0.059 A 
ATOM    100  F   UNL A   1      41.880  35.272  36.621  1.00  0.00    -0.206 F 
ATOM    101  C   UNL A   1      40.090  35.382  39.759  1.00  0.00     0.060 A 
BRANCH 101 102
ATOM    102  S   UNL A   1      39.998  36.392  41.250  1.00  0.00     0.124 S 
ATOM    103  O   UNL A   1      38.611  36.189  41.652  1.00  0.00    -0.237 OA
ATOM    104  O   UNL A   1      41.004  35.778  42.110  1.00  0.00    -0.237 OA
ATOM    105  O   UNL A   1      40.326  37.732  40.771  1.00  0.00    -0.744 OA
ENDBRANCH 101 102
ENDBRANCH  69  94
ENDBRANCH  43  44
ENDBRANCH  36  38
ENDBRANCH  35  36
ENDBRANCH  34  35
ENDBRANCH  33  34
ENDBRANCH  32  33
ENDBRANCH  31  32
ENDBRANCH  30  31
ENDBRANCH  29  30
ENDBRANCH   1  29
TORSDOF 27
ENDMDL
MODEL 2
REMARK VINA RESULT:      -8.9      1.223      2.352
REMARK SMILES CN1C(=O)/C(=C\c2ccc(OCC(=O)OCCOCCOCCOCCOC(=O)c3ccc(-c4c5nc(c(-c6c(F)cc(S(=O)(=O)[O-])cc6F)c6ccc([nH]6)c(-c6c(F)cc(S(=O)(=O)[O-])cc6F)c6nc(c(-c7c(F)cc(S(=O)(=O)[O-])cc7F)c7ccc4[nH]7)C=C6)C=C5)cc3)cc2)C(O)=NC1=S
REMARK SMILES IDX 20 1 19 2 18 3 17 4 16 5 15 6 13 7 14 8 12 9 11 10 10 11
REMARK SMILES IDX 7 12 8 13 97 14 9 15 96 16 6 17 1 18 2 19 3 20 101 21 4 22
REMARK SMILES IDX 5 23 100 24 102 25 98 26 99 27 21 29 22 30 23 31 24 32 25 33
REMARK SMILES IDX 26 34 27 35 28 36 29 37 30 38 31 39 95 40 32 41 94 42 33 43
REMARK SMILES IDX 34 44 35 45 88 46 36 47 93 48 87 49 89 50 37 51 92 52 86 53
REMARK SMILES IDX 85 54 38 56 72 57 51 58 71 59 52 60 55 61 70 62 90 63 53 64
REMARK SMILES IDX 54 65 69 67 91 68 56 69 39 70 40 71 49 72 41 73 42 74 48 75
REMARK SMILES IDX 50 76 43 77 44 78 45 79 46 80 47 81 73 82 74 83 83 84 75 85
REMARK SMILES IDX 76 86 82 87 84 88 77 89 78 90 79 91 80 92 81 93 57 94 58 95
REMARK SMILES IDX 67 96 59 97 60 98 66 99 68 100 61 101 62 102 63 103 64 104
REMARK SMILES IDX 65 105
REMARK H PARENT 99 28 89 55 55 66
REMARK Flexibility Score: inf
ROOT
ATOM      1  C   UNL A   1      35.197  24.087  24.089  1.00  0.00     0.188 C 
ENDROOT
BRANCH   1   2
ATOM      2  C   UNL A   1      34.563  25.230  24.909  1.00  0.00     0.188 C 
BRANCH   2   3
ATOM      3  O   UNL A   1      33.837  26.267  24.249  1.00  0.00    -0.376 OA
BRANCH   3   4
ATOM      4  C   UNL A   1      33.210  27.222  25.084  1.00  0.00     0.202 C 
BRANCH   4   5
ATOM      5  C   UNL A   1      32.644  28.429  24.316  1.00  0.00     0.261 C 
BRANCH   5   6
ATOM      6  O   UNL A   1      32.191  28.124  22.971  1.00  0.00    -0.461 OA
BRANCH   6   7
ATOM      7  C   UNL A   1      30.932  28.522  22.635  1.00  0.00     0.344 C 
ATOM      8  O   UNL A   1      30.639  29.084  21.585  1.00  0.00    -0.248 OA
BRANCH   7   9
ATOM      9  C   UNL A   1      29.902  28.270  23.761  1.00  0.00     0.351 C 
BRANCH   9  10
ATOM     10  O   UNL A   1      29.131  27.072  23.783  1.00  0.00    -0.482 OA
BRANCH  10  11
ATOM     11  C   UNL A   1      29.685  25.882  24.186  1.00  0.00     0.120 A 
ATOM     12  C   UNL A   1      31.247  23.763  25.347  1.00  0.00    -0.024 A 
ATOM     13  C   UNL A   1      30.438  24.591  26.137  1.00  0.00     0.012 A 
ATOM     14  C   UNL A   1      31.151  23.935  23.955  1.00  0.00     0.012 A 
ATOM     15  C   UNL A   1      29.698  25.654  25.567  1.00  0.00     0.047 A 
ATOM     16  C   UNL A   1      30.370  24.976  23.378  1.00  0.00     0.047 A 
BRANCH  12  17
ATOM     17  C   UNL A   1      32.075  22.684  25.958  1.00  0.00     0.027 C 
ATOM     18  C   UNL A   1      32.033  19.097  22.788  1.00  0.00     0.156 C 
ATOM     19  N   UNL A   1      32.449  19.617  24.093  1.00  0.00    -0.286 N 
ATOM     20  C   UNL A   1      32.757  20.963  24.139  1.00  0.00     0.265 C 
ATOM     21  C   UNL A   1      32.835  18.789  25.151  1.00  0.00     0.205 C 
ATOM     22  O   UNL A   1      33.269  21.552  23.201  1.00  0.00    -0.268 OA
ATOM     23  C   UNL A   1      32.684  21.562  25.488  1.00  0.00     0.103 C 
ATOM     24  N   UNL A   1      33.423  19.370  26.259  1.00  0.00    -0.184 NA
ATOM     25  S   UNL A   1      32.682  17.102  25.101  1.00  0.00    -0.038 S 
ATOM     26  C   UNL A   1      33.363  20.644  26.408  1.00  0.00     0.226 C 
BRANCH  26  27
ATOM     27  O   UNL A   1      34.042  21.218  27.416  1.00  0.00    -0.493 OA
ATOM     28  H   UNL A   1      34.262  20.717  28.177  1.00  0.00     0.295 HD
ENDBRANCH  26  27
ENDBRANCH  12  17
ENDBRANCH  10  11
ENDBRANCH   9  10
ENDBRANCH   7   9
ENDBRANCH   6   7
ENDBRANCH   5   6
ENDBRANCH   4   5
ENDBRANCH   3   4
ENDBRANCH   2   3
ENDBRANCH   1   2
BRANCH   1  29
ATOM     29  O   UNL A   1      35.770  23.092  24.933  1.00  0.00    -0.377 OA
BRANCH  29  30
ATOM     30  C   UNL A   1      36.386  23.621  26.103  1.00  0.00     0.188 C 
BRANCH  30  31
ATOM     31  C   UNL A   1      37.902  23.741  25.949  1.00  0.00     0.188 C 
BRANCH  31  32
ATOM     32  O   UNL A   1      38.705  22.655  26.379  1.00  0.00    -0.376 OA
BRANCH  32  33
ATOM     33  C   UNL A   1      39.941  22.830  27.046  1.00  0.00     0.202 C 
BRANCH  33  34
ATOM     34  C   UNL A   1      41.199  23.362  26.370  1.00  0.00     0.261 C 
BRANCH  34  35
ATOM     35  O   UNL A   1      41.326  24.754  26.539  1.00  0.00    -0.460 OA
BRANCH  35  36
ATOM     36  C   UNL A   1      42.577  25.175  26.805  1.00  0.00     0.338 C 
ATOM     37  O   UNL A   1      43.644  24.689  26.448  1.00  0.00    -0.246 OA
BRANCH  36  38
ATOM     38  C   UNL A   1      42.378  26.064  27.948  1.00  0.00     0.060 A 
ATOM     39  C   UNL A   1      43.019  27.314  27.999  1.00  0.00     0.016 A 
ATOM     40  C   UNL A   1      41.361  25.720  28.836  1.00  0.00     0.016 A 
ATOM     41  C   UNL A   1      42.601  28.254  28.918  1.00  0.00     0.010 A 
ATOM     42  C   UNL A   1      40.957  26.651  29.772  1.00  0.00     0.010 A 
ATOM     43  C   UNL A   1      41.587  27.905  29.814  1.00  0.00    -0.014 A 
BRANCH  43  44
ATOM     44  C   UNL A   1      41.354  28.751  30.983  1.00  0.00     0.031 A 
ATOM     45  C   UNL A   1      40.222  29.721  30.876  1.00  0.00     0.074 A 
ATOM     46  C   UNL A   1      42.165  28.660  32.045  1.00  0.00     0.049 A 
ATOM     47  N   UNL A   1      39.855  30.653  31.706  1.00  0.00    -0.248 NA
ATOM     48  C   UNL A   1      39.401  29.640  29.651  1.00  0.00     0.031 C 
ATOM     49  C   UNL A   1      43.273  27.712  32.191  1.00  0.00     0.029 A 
ATOM     50  N   UNL A   1      42.192  29.393  33.196  1.00  0.00    -0.354 N 
ATOM     51  C   UNL A   1      38.775  31.279  31.098  1.00  0.00     0.074 A 
ATOM     52  C   UNL A   1      38.555  30.640  29.823  1.00  0.00     0.031 C 
ATOM     53  C   UNL A   1      43.885  27.939  33.367  1.00  0.00     0.029 A 
ATOM     54  C   UNL A   1      43.225  29.056  34.034  1.00  0.00     0.049 A 
ATOM     55  H   UNL A   1      41.533  30.095  33.404  1.00  0.00     0.167 HD
ATOM     56  C   UNL A   1      38.036  32.303  31.576  1.00  0.00     0.037 A 
ATOM     57  C   UNL A   1      43.585  29.617  35.202  1.00  0.00     0.037 A 
ATOM     58  C   UNL A   1      38.306  32.919  32.843  1.00  0.00     0.049 A 
ATOM     59  C   UNL A   1      42.751  30.763  35.711  1.00  0.00     0.074 A 
ATOM     60  C   UNL A   1      37.645  33.962  33.459  1.00  0.00     0.029 A 
ATOM     61  N   UNL A   1      39.341  32.535  33.689  1.00  0.00    -0.354 N 
ATOM     62  N   UNL A   1      41.713  31.340  35.146  1.00  0.00    -0.248 NA
ATOM     63  C   UNL A   1      43.124  31.329  37.010  1.00  0.00     0.031 C 
ATOM     64  C   UNL A   1      38.300  34.229  34.668  1.00  0.00     0.029 A 
ATOM     65  C   UNL A   1      39.344  33.325  34.821  1.00  0.00     0.049 A 
ATOM     66  H   UNL A   1      39.979  31.808  33.507  1.00  0.00     0.167 HD
ATOM     67  C   UNL A   1      41.290  32.320  36.033  1.00  0.00     0.074 A 
ATOM     68  C   UNL A   1      42.184  32.251  37.175  1.00  0.00     0.031 C 
ATOM     69  C   UNL A   1      40.261  33.199  35.927  1.00  0.00     0.037 A 
BRANCH  56  70
ATOM     70  C   UNL A   1      36.927  32.812  30.704  1.00  0.00     0.058 A 
ATOM     71  C   UNL A   1      37.144  33.820  29.748  1.00  0.00     0.135 A 
ATOM     72  C   UNL A   1      35.621  32.323  30.855  1.00  0.00     0.135 A 
ATOM     73  F   UNL A   1      38.366  34.352  29.592  1.00  0.00    -0.206 F 
ATOM     74  C   UNL A   1      36.099  34.342  28.992  1.00  0.00     0.059 A 
ATOM     75  C   UNL A   1      34.566  32.814  30.092  1.00  0.00     0.059 A 
ATOM     76  F   UNL A   1      35.356  31.379  31.770  1.00  0.00    -0.206 F 
ATOM     77  C   UNL A   1      34.813  33.834  29.173  1.00  0.00     0.060 A 
BRANCH  77  78
ATOM     78  S   UNL A   1      33.463  34.520  28.188  1.00  0.00     0.124 S 
ATOM     79  O   UNL A   1      34.194  35.343  27.229  1.00  0.00    -0.237 OA
ATOM     80  O   UNL A   1      32.834  33.321  27.643  1.00  0.00    -0.237 OA
ATOM     81  O   UNL A   1      32.668  35.251  29.168  1.00  0.00    -0.744 OA
ENDBRANCH  77  78
ENDBRANCH  56  70
BRANCH  57  82
ATOM     82  C   UNL A   1      44.748  29.088  35.959  1.00  0.00     0.058 A 
ATOM     83  C   UNL A   1      44.588  28.055  36.893  1.00  0.00     0.135 A 
ATOM     84  C   UNL A   1      46.048  29.570  35.736  1.00  0.00     0.135 A 
ATOM     85  F   UNL A   1      43.366  27.559  37.141  1.00  0.00    -0.206 F 
ATOM     86  C   UNL A   1      45.670  27.525  37.589  1.00  0.00     0.059 A 
ATOM     87  C   UNL A   1      47.149  29.043  36.405  1.00  0.00     0.059 A 
ATOM     88  F   UNL A   1      46.259  30.545  34.837  1.00  0.00    -0.206 F 
ATOM     89  C   UNL A   1      46.949  28.023  37.335  1.00  0.00     0.060 A 
BRANCH  89  90
ATOM     90  S   UNL A   1      48.355  27.285  38.197  1.00  0.00     0.124 S 
ATOM     91  O   UNL A   1      47.694  26.305  39.051  1.00  0.00    -0.237 OA
ATOM     92  O   UNL A   1      49.143  26.744  37.094  1.00  0.00    -0.237 OA
ATOM     93  O   UNL A   1      48.958  28.421  38.888  1.00  0.00    -0.744 OA
ENDBRANCH  89  90
ENDBRANCH  57  82
BRANCH  69  94
ATOM     94  C   UNL A   1      40.040  34.114  37.092  1.00  0.00     0.058 A 
ATOM     95  C   UNL A   1      40.757  35.311  37.228  1.00  0.00     0.135 A 
ATOM     96  C   UNL A   1      39.062  33.808  38.051  1.00  0.00     0.135 A 
ATOM     97  F   UNL A   1      41.702  35.640  36.333  1.00  0.00    -0.206 F 
ATOM     98  C   UNL A   1      40.530  36.167  38.298  1.00  0.00     0.059 A 
ATOM     99  C   UNL A   1      38.803  34.661  39.115  1.00  0.00     0.059 A 
ATOM    100  F   UNL A   1      38.343  32.679  37.949  1.00  0.00    -0.206 F 
ATOM    101  C   UNL A   1      39.552  35.831  39.238  1.00  0.00     0.060 A 
BRANCH 101 102
ATOM    102  S   UNL A   1      39.249  36.957  40.613  1.00  0.00     0.124 S 
ATOM    103  O   UNL A   1      40.567  37.553  40.797  1.00  0.00    -0.237 OA
ATOM    104  O   UNL A   1      38.222  37.844  40.074  1.00  0.00    -0.237 OA
ATOM    105  O   UNL A   1      38.802  36.071  41.683  1.00  0.00    -0.744 OA
ENDBRANCH 101 102
ENDBRANCH  69  94
ENDBRANCH  43  44
ENDBRANCH  36  38
ENDBRANCH  35  36
ENDBRANCH  34  35
ENDBRANCH  33  34
ENDBRANCH  32  33
ENDBRANCH  31  32
ENDBRANCH  30  31
ENDBRANCH  29  30
ENDBRANCH   1  29
TORSDOF 27
ENDMDL
MODEL 3
REMARK VINA RESULT:      -7.8      6.266     12.360
REMARK SMILES CN1C(=O)/C(=C\c2ccc(OCC(=O)OCCOCCOCCOCCOC(=O)c3ccc(-c4c5nc(c(-c6c(F)cc(S(=O)(=O)[O-])cc6F)c6ccc([nH]6)c(-c6c(F)cc(S(=O)(=O)[O-])cc6F)c6nc(c(-c7c(F)cc(S(=O)(=O)[O-])cc7F)c7ccc4[nH]7)C=C6)C=C5)cc3)cc2)C(O)=NC1=S
REMARK SMILES IDX 20 1 19 2 18 3 17 4 16 5 15 6 13 7 14 8 12 9 11 10 10 11
REMARK SMILES IDX 7 12 8 13 97 14 9 15 96 16 6 17 1 18 2 19 3 20 101 21 4 22
REMARK SMILES IDX 5 23 100 24 102 25 98 26 99 27 21 29 22 30 23 31 24 32 25 33
REMARK SMILES IDX 26 34 27 35 28 36 29 37 30 38 31 39 95 40 32 41 94 42 33 43
REMARK SMILES IDX 34 44 35 45 88 46 36 47 93 48 87 49 89 50 37 51 92 52 86 53
REMARK SMILES IDX 85 54 38 56 72 57 51 58 71 59 52 60 55 61 70 62 90 63 53 64
REMARK SMILES IDX 54 65 69 67 91 68 56 69 39 70 40 71 49 72 41 73 42 74 48 75
REMARK SMILES IDX 50 76 43 77 44 78 45 79 46 80 47 81 73 82 74 83 83 84 75 85
REMARK SMILES IDX 76 86 82 87 84 88 77 89 78 90 79 91 80 92 81 93 57 94 58 95
REMARK SMILES IDX 67 96 59 97 60 98 66 99 68 100 61 101 62 102 63 103 64 104
REMARK SMILES IDX 65 105
REMARK H PARENT 99 28 89 55 55 66
REMARK Flexibility Score: inf
ROOT
ATOM      1  C   UNL A   1      34.503  34.742  32.421  1.00  0.00     0.188 C 
ENDROOT
BRANCH   1   2
ATOM      2  C   UNL A   1      34.367  33.412  33.191  1.00  0.00     0.188 C 
BRANCH   2   3
ATOM      3  O   UNL A   1      35.184  33.159  34.334  1.00  0.00    -0.376 OA
BRANCH   3   4
ATOM      4  C   UNL A   1      36.536  32.828  34.078  1.00  0.00     0.202 C 
BRANCH   4   5
ATOM      5  C   UNL A   1      36.704  31.670  33.079  1.00  0.00     0.261 C 
BRANCH   5   6
ATOM      6  O   UNL A   1      37.683  30.674  33.476  1.00  0.00    -0.461 OA
BRANCH   6   7
ATOM      7  C   UNL A   1      37.643  29.474  32.833  1.00  0.00     0.344 C 
ATOM      8  O   UNL A   1      37.421  28.400  33.380  1.00  0.00    -0.248 OA
BRANCH   7   9
ATOM      9  C   UNL A   1      37.994  29.587  31.330  1.00  0.00     0.351 C 
BRANCH   9  10
ATOM     10  O   UNL A   1      38.256  28.419  30.557  1.00  0.00    -0.482 OA
BRANCH  10  11
ATOM     11  C   UNL A   1      39.183  28.436  29.543  1.00  0.00     0.120 A 
ATOM     12  C   UNL A   1      41.359  27.968  27.722  1.00  0.00    -0.024 A 
ATOM     13  C   UNL A   1      40.291  27.067  27.830  1.00  0.00     0.012 A 
ATOM     14  C   UNL A   1      41.244  29.167  28.445  1.00  0.00     0.012 A 
ATOM     15  C   UNL A   1      39.240  27.283  28.752  1.00  0.00     0.047 A 
ATOM     16  C   UNL A   1      40.162  29.406  29.339  1.00  0.00     0.047 A 
BRANCH  12  17
ATOM     17  C   UNL A   1      42.498  27.705  26.795  1.00  0.00     0.027 C 
ATOM     18  C   UNL A   1      42.176  23.065  25.662  1.00  0.00     0.156 C 
ATOM     19  N   UNL A   1      42.890  24.340  25.553  1.00  0.00    -0.286 N 
ATOM     20  C   UNL A   1      42.104  25.475  25.527  1.00  0.00     0.265 C 
ATOM     21  C   UNL A   1      44.232  24.426  25.171  1.00  0.00     0.205 C 
ATOM     22  O   UNL A   1      40.999  25.497  25.010  1.00  0.00    -0.268 OA
ATOM     23  C   UNL A   1      42.807  26.716  25.914  1.00  0.00     0.103 C 
ATOM     24  N   UNL A   1      44.753  25.673  24.878  1.00  0.00    -0.184 NA
ATOM     25  S   UNL A   1      45.223  23.065  24.979  1.00  0.00    -0.038 S 
ATOM     26  C   UNL A   1      44.093  26.723  25.210  1.00  0.00     0.226 C 
BRANCH  26  27
ATOM     27  O   UNL A   1      44.539  27.928  24.813  1.00  0.00    -0.493 OA
ATOM     28  H   UNL A   1      44.324  28.694  25.307  1.00  0.00     0.295 HD
ENDBRANCH  26  27
ENDBRANCH  12  17
ENDBRANCH  10  11
ENDBRANCH   9  10
ENDBRANCH   7   9
ENDBRANCH   6   7
ENDBRANCH   5   6
ENDBRANCH   4   5
ENDBRANCH   3   4
ENDBRANCH   2   3
ENDBRANCH   1   2
BRANCH   1  29
ATOM     29  O   UNL A   1      34.576  34.530  31.015  1.00  0.00    -0.377 OA
BRANCH  29  30
ATOM     30  C   UNL A   1      34.738  33.162  30.652  1.00  0.00     0.188 C 
BRANCH  30  31
ATOM     31  C   UNL A   1      35.667  32.994  29.449  1.00  0.00     0.188 C 
BRANCH  31  32
ATOM     32  O   UNL A   1      36.829  33.802  29.386  1.00  0.00    -0.376 OA
BRANCH  32  33
ATOM     33  C   UNL A   1      38.064  33.419  29.963  1.00  0.00     0.202 C 
BRANCH  33  34
ATOM     34  C   UNL A   1      38.738  34.181  31.099  1.00  0.00     0.261 C 
BRANCH  34  35
ATOM     35  O   UNL A   1      40.013  33.658  31.386  1.00  0.00    -0.460 OA
BRANCH  35  36
ATOM     36  C   UNL A   1      40.359  33.707  32.687  1.00  0.00     0.338 C 
ATOM     37  O   UNL A   1      40.189  34.613  33.494  1.00  0.00    -0.246 OA
BRANCH  36  38
ATOM     38  C   UNL A   1      41.348  32.637  32.794  1.00  0.00     0.060 A 
ATOM     39  C   UNL A   1      40.983  31.302  32.550  1.00  0.00     0.016 A 
ATOM     40  C   UNL A   1      42.681  33.028  32.908  1.00  0.00     0.016 A 
ATOM     41  C   UNL A   1      41.966  30.352  32.365  1.00  0.00     0.010 A 
ATOM     42  C   UNL A   1      43.667  32.074  32.746  1.00  0.00     0.010 A 
ATOM     43  C   UNL A   1      43.302  30.743  32.488  1.00  0.00    -0.014 A 
BRANCH  43  44
ATOM     44  C   UNL A   1      44.332  29.713  32.614  1.00  0.00     0.031 A 
ATOM     45  C   UNL A   1      44.670  29.291  34.008  1.00  0.00     0.074 A 
ATOM     46  C   UNL A   1      44.942  29.241  31.519  1.00  0.00     0.049 A 
ATOM     47  N   UNL A   1      45.602  28.483  34.420  1.00  0.00    -0.248 NA
ATOM     48  C   UNL A   1      43.854  29.880  35.088  1.00  0.00     0.031 C 
ATOM     49  C   UNL A   1      44.627  29.619  30.139  1.00  0.00     0.029 A 
ATOM     50  N   UNL A   1      45.972  28.353  31.401  1.00  0.00    -0.354 N 
ATOM     51  C   UNL A   1      45.496  28.479  35.805  1.00  0.00     0.074 A 
ATOM     52  C   UNL A   1      44.427  29.377  36.168  1.00  0.00     0.031 C 
ATOM     53  C   UNL A   1      45.467  28.975  29.311  1.00  0.00     0.029 A 
ATOM     54  C   UNL A   1      46.384  28.165  30.105  1.00  0.00     0.049 A 
ATOM     55  H   UNL A   1      46.379  27.893  32.170  1.00  0.00     0.167 HD
ATOM     56  C   UNL A   1      46.238  27.779  36.689  1.00  0.00     0.037 A 
ATOM     57  C   UNL A   1      47.406  27.424  29.642  1.00  0.00     0.037 A 
ATOM     58  C   UNL A   1      47.305  26.911  36.279  1.00  0.00     0.049 A 
ATOM     59  C   UNL A   1      48.224  26.658  30.647  1.00  0.00     0.074 A 
ATOM     60  C   UNL A   1      48.141  26.138  37.058  1.00  0.00     0.029 A 
ATOM     61  N   UNL A   1      47.681  26.713  34.955  1.00  0.00    -0.354 N 
ATOM     62  N   UNL A   1      48.108  26.636  31.957  1.00  0.00    -0.248 NA
ATOM     63  C   UNL A   1      49.301  25.814  30.122  1.00  0.00     0.031 C 
ATOM     64  C   UNL A   1      49.044  25.492  36.204  1.00  0.00     0.029 A 
ATOM     65  C   UNL A   1      48.743  25.834  34.892  1.00  0.00     0.049 A 
ATOM     66  H   UNL A   1      47.254  27.138  34.177  1.00  0.00     0.167 HD
ATOM     67  C   UNL A   1      49.079  25.755  32.413  1.00  0.00     0.074 A 
ATOM     68  C   UNL A   1      49.768  25.261  31.234  1.00  0.00     0.031 C 
ATOM     69  C   UNL A   1      49.381  25.378  33.681  1.00  0.00     0.037 A 
BRANCH  56  70
ATOM     70  C   UNL A   1      45.930  27.971  38.144  1.00  0.00     0.058 A 
ATOM     71  C   UNL A   1      44.981  27.175  38.809  1.00  0.00     0.135 A 
ATOM     72  C   UNL A   1      46.555  28.993  38.874  1.00  0.00     0.135 A 
ATOM     73  F   UNL A   1      44.324  26.211  38.146  1.00  0.00    -0.206 F 
ATOM     74  C   UNL A   1      44.644  27.404  40.139  1.00  0.00     0.059 A 
ATOM     75  C   UNL A   1      46.251  29.223  40.213  1.00  0.00     0.059 A 
ATOM     76  F   UNL A   1      47.450  29.797  38.281  1.00  0.00    -0.206 F 
ATOM     77  C   UNL A   1      45.283  28.433  40.832  1.00  0.00     0.060 A 
BRANCH  77  78
ATOM     78  S   UNL A   1      44.838  28.722  42.558  1.00  0.00     0.124 S 
ATOM     79  O   UNL A   1      43.689  29.613  42.415  1.00  0.00    -0.237 OA
ATOM     80  O   UNL A   1      44.538  27.375  43.034  1.00  0.00    -0.237 OA
ATOM     81  O   UNL A   1      46.039  29.329  43.120  1.00  0.00    -0.744 OA
ENDBRANCH  77  78
ENDBRANCH  56  70
BRANCH  57  82
ATOM     82  C   UNL A   1      47.679  27.356  28.184  1.00  0.00     0.058 A 
ATOM     83  C   UNL A   1      47.203  26.286  27.412  1.00  0.00     0.135 A 
ATOM     84  C   UNL A   1      48.382  28.375  27.521  1.00  0.00     0.135 A 
ATOM     85  F   UNL A   1      46.525  25.288  27.999  1.00  0.00    -0.206 F 
ATOM     86  C   UNL A   1      47.421  26.220  26.039  1.00  0.00     0.059 A 
ATOM     87  C   UNL A   1      48.596  28.342  26.146  1.00  0.00     0.059 A 
ATOM     88  F   UNL A   1      48.842  29.432  28.209  1.00  0.00    -0.206 F 
ATOM     89  C   UNL A   1      48.117  27.256  25.414  1.00  0.00     0.060 A 
BRANCH  89  90
ATOM     90  S   UNL A   1      48.340  27.193  23.622  1.00  0.00     0.124 S 
ATOM     91  O   UNL A   1      48.317  25.756  23.374  1.00  0.00    -0.237 OA
ATOM     92  O   UNL A   1      47.185  27.944  23.140  1.00  0.00    -0.237 OA
ATOM     93  O   UNL A   1      49.630  27.849  23.422  1.00  0.00    -0.744 OA
ENDBRANCH  89  90
ENDBRANCH  57  82
BRANCH  69  94
ATOM     94  C   UNL A   1      50.472  24.364  33.837  1.00  0.00     0.058 A 
ATOM     95  C   UNL A   1      50.185  23.004  34.023  1.00  0.00     0.135 A 
ATOM     96  C   UNL A   1      51.816  24.757  33.746  1.00  0.00     0.135 A 
ATOM     97  F   UNL A   1      48.913  22.587  34.117  1.00  0.00    -0.206 F 
ATOM     98  C   UNL A   1      51.201  22.065  34.143  1.00  0.00     0.059 A 
ATOM     99  C   UNL A   1      52.846  23.831  33.839  1.00  0.00     0.059 A 
ATOM    100  F   UNL A   1      52.133  26.047  33.553  1.00  0.00    -0.206 F 
ATOM    101  C   UNL A   1      52.529  22.490  34.052  1.00  0.00     0.060 A 
BRANCH 101 102
ATOM    102  S   UNL A   1      53.843  21.262  34.187  1.00  0.00     0.124 S 
ATOM    103  O   UNL A   1      53.244  20.296  35.102  1.00  0.00    -0.237 OA
ATOM    104  O   UNL A   1      54.000  20.815  32.807  1.00  0.00    -0.237 OA
ATOM    105  O   UNL A   1      54.965  22.026  34.723  1.00  0.00    -0.744 OA
ENDBRANCH 101 102
ENDBRANCH  69  94
ENDBRANCH  43  44
ENDBRANCH  36  38
ENDBRANCH  35  36
ENDBRANCH  34  35
ENDBRANCH  33  34
ENDBRANCH  32  33
ENDBRANCH  31  32
ENDBRANCH  30  31
ENDBRANCH  29  30
ENDBRANCH   1  29
TORSDOF 27
ENDMDL
