MODEL 1
REMARK VINA RESULT:      -9.0      0.000      0.000
REMARK SMILES CC[C@@H](C)NC(=O)Cn1cccc1C(=O)OCCOCCOCCOCCOC(=O)c1ccc(-c2c3nc(c(-c4c(F)cc(S(=O)(=O)[O-])cc4F)c4ccc([nH]4)c(-c4c(F)cc(S(=O)(=O)[O-])cc4F)c4nc(c(-c5c(F)cc(S(=O)(=O)[O-])cc5F)c5ccc2[nH]5)C=C4)C=C3)cc1
REMARK SMILES IDX 21 1 20 2 19 3 18 4 17 5 16 6 14 7 15 8 13 9 9 10 10 11
REMARK SMILES IDX 11 12 12 13 8 14 6 15 5 16 7 18 3 19 4 20 2 21 1 22 22 23
REMARK SMILES IDX 23 24 24 25 25 26 26 27 27 28 28 29 29 30 30 31 31 32 32 33
REMARK SMILES IDX 96 34 33 35 95 36 34 37 35 38 36 39 89 40 37 41 94 42 88 43
REMARK SMILES IDX 90 44 38 45 93 46 87 47 86 48 39 50 73 51 52 52 72 53 53 54
REMARK SMILES IDX 56 55 71 56 91 57 54 58 55 59 70 61 92 62 57 63 40 64 41 65
REMARK SMILES IDX 50 66 42 67 43 68 49 69 51 70 44 71 45 72 46 73 47 74 48 75
REMARK SMILES IDX 74 76 75 77 84 78 76 79 77 80 83 81 85 82 78 83 79 84 80 85
REMARK SMILES IDX 81 86 82 87 58 88 59 89 68 90 60 91 61 92 67 93 69 94 62 95
REMARK SMILES IDX 63 96 64 97 65 98 66 99
REMARK H PARENT 5 17 90 49 56 60
REMARK Flexibility Score: inf
ROOT
ATOM      1  C   UNL A   1      34.355  24.009  25.097  1.00  0.00     0.188 C 
ENDROOT
BRANCH   1   2
ATOM      2  C   UNL A   1      33.506  22.911  25.759  1.00  0.00     0.188 C 
BRANCH   2   3
ATOM      3  O   UNL A   1      32.167  23.306  25.994  1.00  0.00    -0.376 OA
BRANCH   3   4
ATOM      4  C   UNL A   1      31.150  23.008  25.063  1.00  0.00     0.202 C 
BRANCH   4   5
ATOM      5  C   UNL A   1      30.609  24.122  24.151  1.00  0.00     0.261 C 
BRANCH   5   6
ATOM      6  O   UNL A   1      31.398  25.314  24.054  1.00  0.00    -0.459 OA
BRANCH   6   7
ATOM      7  C   UNL A   1      31.681  25.761  22.812  1.00  0.00     0.355 C 
ATOM      8  O   UNL A   1      31.245  25.256  21.782  1.00  0.00    -0.244 OA
BRANCH   7   9
ATOM      9  C   UNL A   1      32.411  27.016  22.877  1.00  0.00     0.128 A 
ATOM     10  N   UNL A   1      32.119  28.188  23.566  1.00  0.00    -0.333 N 
ATOM     11  C   UNL A   1      33.220  29.018  23.494  1.00  0.00     0.087 A 
ATOM     12  C   UNL A   1      34.061  28.544  22.521  1.00  0.00     0.020 A 
ATOM     13  C   UNL A   1      33.568  27.280  22.150  1.00  0.00     0.035 A 
BRANCH  10  14
ATOM     14  C   UNL A   1      30.950  28.507  24.391  1.00  0.00     0.222 C 
BRANCH  14  15
ATOM     15  C   UNL A   1      30.733  29.988  24.666  1.00  0.00     0.240 C 
ATOM     16  N   UNL A   1      29.854  30.742  23.941  1.00  0.00    -0.352 N 
ATOM     17  H   UNL A   1      29.753  31.668  24.258  1.00  0.00     0.163 HD
ATOM     18  O   UNL A   1      31.401  30.561  25.533  1.00  0.00    -0.273 OA
BRANCH  16  19
ATOM     19  C   UNL A   1      29.035  30.408  22.775  1.00  0.00     0.078 C 
ATOM     20  C   UNL A   1      29.933  30.184  21.559  1.00  0.00     0.031 C 
BRANCH  19  21
ATOM     21  C   UNL A   1      27.988  31.506  22.525  1.00  0.00     0.021 C 
ATOM     22  C   UNL A   1      28.565  32.916  22.557  1.00  0.00     0.006 C 
ENDBRANCH  19  21
ENDBRANCH  16  19
ENDBRANCH  14  15
ENDBRANCH  10  14
ENDBRANCH   7   9
ENDBRANCH   6   7
ENDBRANCH   5   6
ENDBRANCH   4   5
ENDBRANCH   3   4
ENDBRANCH   2   3
ENDBRANCH   1   2
BRANCH   1  23
ATOM     23  O   UNL A   1      34.763  25.133  25.855  1.00  0.00    -0.377 OA
BRANCH  23  24
ATOM     24  C   UNL A   1      33.887  26.246  25.868  1.00  0.00     0.188 C 
BRANCH  24  25
ATOM     25  C   UNL A   1      34.484  27.472  26.585  1.00  0.00     0.188 C 
BRANCH  25  26
ATOM     26  O   UNL A   1      33.678  28.582  26.960  1.00  0.00    -0.376 OA
BRANCH  26  27
ATOM     27  C   UNL A   1      34.115  29.925  27.131  1.00  0.00     0.202 C 
BRANCH  27  28
ATOM     28  C   UNL A   1      35.010  30.464  28.253  1.00  0.00     0.261 C 
BRANCH  28  29
ATOM     29  O   UNL A   1      36.140  31.185  27.841  1.00  0.00    -0.460 OA
BRANCH  29  30
ATOM     30  C   UNL A   1      37.211  30.894  28.590  1.00  0.00     0.338 C 
ATOM     31  O   UNL A   1      37.834  31.629  29.336  1.00  0.00    -0.246 OA
BRANCH  30  32
ATOM     32  C   UNL A   1      37.570  29.505  28.291  1.00  0.00     0.060 A 
ATOM     33  C   UNL A   1      37.469  28.698  29.425  1.00  0.00     0.016 A 
ATOM     34  C   UNL A   1      38.644  29.454  27.396  1.00  0.00     0.016 A 
ATOM     35  C   UNL A   1      38.636  28.164  29.895  1.00  0.00     0.010 A 
ATOM     36  C   UNL A   1      39.828  28.994  27.895  1.00  0.00     0.010 A 
ATOM     37  C   UNL A   1      39.807  28.389  29.159  1.00  0.00    -0.014 A 
BRANCH  37  38
ATOM     38  C   UNL A   1      40.996  27.689  29.605  1.00  0.00     0.031 A 
ATOM     39  C   UNL A   1      41.055  26.350  28.812  1.00  0.00     0.074 A 
ATOM     40  C   UNL A   1      41.706  28.338  30.584  1.00  0.00     0.049 A 
ATOM     41  N   UNL A   1      41.659  25.244  29.094  1.00  0.00    -0.248 NA
ATOM     42  C   UNL A   1      40.261  26.181  27.544  1.00  0.00     0.031 C 
ATOM     43  C   UNL A   1      41.395  29.678  31.163  1.00  0.00     0.029 A 
ATOM     44  N   UNL A   1      42.832  28.016  31.305  1.00  0.00    -0.354 N 
ATOM     45  C   UNL A   1      41.577  24.407  27.955  1.00  0.00     0.074 A 
ATOM     46  C   UNL A   1      40.593  24.972  27.095  1.00  0.00     0.031 C 
ATOM     47  C   UNL A   1      42.231  29.980  32.188  1.00  0.00     0.029 A 
ATOM     48  C   UNL A   1      43.193  28.909  32.359  1.00  0.00     0.049 A 
ATOM     49  H   UNL A   1      43.361  27.211  31.105  1.00  0.00     0.167 HD
ATOM     50  C   UNL A   1      42.454  23.388  27.736  1.00  0.00     0.037 A 
ATOM     51  C   UNL A   1      44.176  28.742  33.307  1.00  0.00     0.037 A 
ATOM     52  C   UNL A   1      43.339  23.299  28.849  1.00  0.00     0.049 A 
ATOM     53  C   UNL A   1      44.907  27.563  32.822  1.00  0.00     0.074 A 
ATOM     54  C   UNL A   1      43.107  22.910  30.143  1.00  0.00     0.029 A 
ATOM     55  N   UNL A   1      44.474  24.075  28.794  1.00  0.00    -0.354 N 
ATOM     56  N   UNL A   1      45.670  27.549  31.769  1.00  0.00    -0.248 NA
ATOM     57  C   UNL A   1      44.654  26.272  33.472  1.00  0.00     0.031 C 
ATOM     58  C   UNL A   1      43.789  23.895  30.881  1.00  0.00     0.029 A 
ATOM     59  C   UNL A   1      44.645  24.619  30.041  1.00  0.00     0.049 A 
ATOM     60  H   UNL A   1      45.052  24.214  28.008  1.00  0.00     0.167 HD
ATOM     61  C   UNL A   1      45.693  26.216  31.447  1.00  0.00     0.074 A 
ATOM     62  C   UNL A   1      45.358  25.491  32.659  1.00  0.00     0.031 C 
ATOM     63  C   UNL A   1      45.436  25.822  30.172  1.00  0.00     0.037 A 
BRANCH  50  64
ATOM     64  C   UNL A   1      42.801  22.575  26.524  1.00  0.00     0.058 A 
ATOM     65  C   UNL A   1      42.414  21.213  26.539  1.00  0.00     0.135 A 
ATOM     66  C   UNL A   1      43.777  22.935  25.585  1.00  0.00     0.135 A 
ATOM     67  F   UNL A   1      41.423  20.787  27.342  1.00  0.00    -0.206 F 
ATOM     68  C   UNL A   1      43.081  20.240  25.812  1.00  0.00     0.059 A 
ATOM     69  C   UNL A   1      44.427  21.976  24.801  1.00  0.00     0.059 A 
ATOM     70  F   UNL A   1      44.181  24.206  25.459  1.00  0.00    -0.206 F 
ATOM     71  C   UNL A   1      44.118  20.627  24.974  1.00  0.00     0.060 A 
BRANCH  71  72
ATOM     72  S   UNL A   1      45.065  19.328  24.156  1.00  0.00     0.124 S 
ATOM     73  O   UNL A   1      46.429  19.659  24.554  1.00  0.00    -0.237 OA
ATOM     74  O   UNL A   1      44.508  18.119  24.756  1.00  0.00    -0.237 OA
ATOM     75  O   UNL A   1      44.749  19.520  22.744  1.00  0.00    -0.744 OA
ENDBRANCH  71  72
ENDBRANCH  50  64
BRANCH  51  76
ATOM     76  C   UNL A   1      44.635  29.283  34.655  1.00  0.00     0.058 A 
ATOM     77  C   UNL A   1      44.033  29.072  35.901  1.00  0.00     0.135 A 
ATOM     78  C   UNL A   1      45.901  29.946  34.740  1.00  0.00     0.135 A 
ATOM     79  F   UNL A   1      42.782  28.600  35.984  1.00  0.00    -0.206 F 
ATOM     80  C   UNL A   1      44.708  29.329  37.120  1.00  0.00     0.059 A 
ATOM     81  C   UNL A   1      46.612  30.146  35.919  1.00  0.00     0.059 A 
ATOM     82  F   UNL A   1      46.536  30.400  33.649  1.00  0.00    -0.206 F 
ATOM     83  C   UNL A   1      46.024  29.798  37.115  1.00  0.00     0.060 A 
BRANCH  83  84
ATOM     84  S   UNL A   1      47.027  29.826  38.623  1.00  0.00     0.124 S 
ATOM     85  O   UNL A   1      46.290  28.925  39.500  1.00  0.00    -0.237 OA
ATOM     86  O   UNL A   1      48.319  29.342  38.148  1.00  0.00    -0.237 OA
ATOM     87  O   UNL A   1      47.009  31.235  39.013  1.00  0.00    -0.744 OA
ENDBRANCH  83  84
ENDBRANCH  51  76
BRANCH  63  88
ATOM     88  C   UNL A   1      45.710  26.853  29.082  1.00  0.00     0.058 A 
ATOM     89  C   UNL A   1      47.018  27.313  28.861  1.00  0.00     0.135 A 
ATOM     90  C   UNL A   1      44.725  27.448  28.273  1.00  0.00     0.135 A 
ATOM     91  F   UNL A   1      48.034  26.796  29.570  1.00  0.00    -0.206 F 
ATOM     92  C   UNL A   1      47.325  28.286  27.900  1.00  0.00     0.059 A 
ATOM     93  C   UNL A   1      44.996  28.427  27.310  1.00  0.00     0.059 A 
ATOM     94  F   UNL A   1      43.450  27.083  28.382  1.00  0.00    -0.206 F 
ATOM     95  C   UNL A   1      46.308  28.835  27.120  1.00  0.00     0.060 A 
BRANCH  95  96
ATOM     96  S   UNL A   1      46.726  30.040  25.838  1.00  0.00     0.124 S 
ATOM     97  O   UNL A   1      47.997  30.578  26.311  1.00  0.00    -0.237 OA
ATOM     98  O   UNL A   1      46.799  29.201  24.646  1.00  0.00    -0.237 OA
ATOM     99  O   UNL A   1      45.609  30.982  25.867  1.00  0.00    -0.744 OA
ENDBRANCH  95  96
ENDBRANCH  63  88
ENDBRANCH  37  38
ENDBRANCH  30  32
ENDBRANCH  29  30
ENDBRANCH  28  29
ENDBRANCH  27  28
ENDBRANCH  26  27
ENDBRANCH  25  26
ENDBRANCH  24  25
ENDBRANCH  23  24
ENDBRANCH   1  23
TORSDOF 27
ENDMDL
MODEL 2
REMARK VINA RESULT:      -8.8      3.512      7.581
REMARK SMILES CC[C@@H](C)NC(=O)Cn1cccc1C(=O)OCCOCCOCCOCCOC(=O)c1ccc(-c2c3nc(c(-c4c(F)cc(S(=O)(=O)[O-])cc4F)c4ccc([nH]4)c(-c4c(F)cc(S(=O)(=O)[O-])cc4F)c4nc(c(-c5c(F)cc(S(=O)(=O)[O-])cc5F)c5ccc2[nH]5)C=C4)C=C3)cc1
REMARK SMILES IDX 21 1 20 2 19 3 18 4 17 5 16 6 14 7 15 8 13 9 9 10 10 11
REMARK SMILES IDX 11 12 12 13 8 14 6 15 5 16 7 18 3 19 4 20 2 21 1 22 22 23
REMARK SMILES IDX 23 24 24 25 25 26 26 27 27 28 28 29 29 30 30 31 31 32 32 33
REMARK SMILES IDX 96 34 33 35 95 36 34 37 35 38 36 39 89 40 37 41 94 42 88 43
REMARK SMILES IDX 90 44 38 45 93 46 87 47 86 48 39 50 73 51 52 52 72 53 53 54
REMARK SMILES IDX 56 55 71 56 91 57 54 58 55 59 70 61 92 62 57 63 40 64 41 65
REMARK SMILES IDX 50 66 42 67 43 68 49 69 51 70 44 71 45 72 46 73 47 74 48 75
REMARK SMILES IDX 74 76 75 77 84 78 76 79 77 80 83 81 85 82 78 83 79 84 80 85
REMARK SMILES IDX 81 86 82 87 58 88 59 89 68 90 60 91 61 92 67 93 69 94 62 95
REMARK SMILES IDX 63 96 64 97 65 98 66 99
REMARK H PARENT 5 17 90 49 56 60
REMARK Flexibility Score: inf
ROOT
ATOM      1  C   UNL A   1      35.000  20.026  24.909  1.00  0.00     0.188 C 
ENDROOT
BRANCH   1   2
ATOM      2  C   UNL A   1      34.026  21.208  24.779  1.00  0.00     0.188 C 
BRANCH   2   3
ATOM      3  O   UNL A   1      33.622  21.455  23.445  1.00  0.00    -0.376 OA
BRANCH   3   4
ATOM      4  C   UNL A   1      32.890  22.614  23.114  1.00  0.00     0.202 C 
BRANCH   4   5
ATOM      5  C   UNL A   1      33.346  23.483  21.929  1.00  0.00     0.261 C 
BRANCH   5   6
ATOM      6  O   UNL A   1      33.732  24.830  22.229  1.00  0.00    -0.459 OA
BRANCH   6   7
ATOM      7  C   UNL A   1      33.253  25.799  21.420  1.00  0.00     0.355 C 
ATOM      8  O   UNL A   1      32.836  25.603  20.283  1.00  0.00    -0.244 OA
BRANCH   7   9
ATOM      9  C   UNL A   1      33.130  27.052  22.144  1.00  0.00     0.128 A 
ATOM     10  N   UNL A   1      32.075  27.550  22.902  1.00  0.00    -0.333 N 
ATOM     11  C   UNL A   1      32.516  28.675  23.570  1.00  0.00     0.087 A 
ATOM     12  C   UNL A   1      33.701  29.079  23.012  1.00  0.00     0.020 A 
ATOM     13  C   UNL A   1      34.098  28.052  22.136  1.00  0.00     0.035 A 
BRANCH  10  14
ATOM     14  C   UNL A   1      30.754  26.963  23.142  1.00  0.00     0.222 C 
BRANCH  14  15
ATOM     15  C   UNL A   1      30.762  25.592  23.804  1.00  0.00     0.240 C 
ATOM     16  N   UNL A   1      31.584  25.294  24.854  1.00  0.00    -0.352 N 
ATOM     17  H   UNL A   1      31.448  24.398  25.237  1.00  0.00     0.163 HD
ATOM     18  O   UNL A   1      30.048  24.686  23.360  1.00  0.00    -0.273 OA
BRANCH  16  19
ATOM     19  C   UNL A   1      32.631  26.080  25.507  1.00  0.00     0.078 C 
ATOM     20  C   UNL A   1      33.896  25.235  25.656  1.00  0.00     0.031 C 
BRANCH  19  21
ATOM     21  C   UNL A   1      32.132  26.616  26.860  1.00  0.00     0.021 C 
ATOM     22  C   UNL A   1      31.344  27.914  26.746  1.00  0.00     0.006 C 
ENDBRANCH  19  21
ENDBRANCH  16  19
ENDBRANCH  14  15
ENDBRANCH  10  14
ENDBRANCH   7   9
ENDBRANCH   6   7
ENDBRANCH   5   6
ENDBRANCH   4   5
ENDBRANCH   3   4
ENDBRANCH   2   3
ENDBRANCH   1   2
BRANCH   1  23
ATOM     23  O   UNL A   1      36.377  20.272  25.135  1.00  0.00    -0.377 OA
BRANCH  23  24
ATOM     24  C   UNL A   1      36.887  21.511  24.675  1.00  0.00     0.188 C 
BRANCH  24  25
ATOM     25  C   UNL A   1      37.680  22.272  25.756  1.00  0.00     0.188 C 
BRANCH  25  26
ATOM     26  O   UNL A   1      39.050  21.989  26.013  1.00  0.00    -0.376 OA
BRANCH  26  27
ATOM     27  C   UNL A   1      39.697  20.733  25.849  1.00  0.00     0.202 C 
BRANCH  27  28
ATOM     28  C   UNL A   1      40.857  20.181  26.687  1.00  0.00     0.261 C 
BRANCH  28  29
ATOM     29  O   UNL A   1      41.946  21.044  26.867  1.00  0.00    -0.460 OA
BRANCH  29  30
ATOM     30  C   UNL A   1      42.795  20.990  25.833  1.00  0.00     0.338 C 
ATOM     31  O   UNL A   1      43.164  20.011  25.208  1.00  0.00    -0.246 OA
BRANCH  30  32
ATOM     32  C   UNL A   1      43.285  22.354  25.617  1.00  0.00     0.060 A 
ATOM     33  C   UNL A   1      44.653  22.450  25.876  1.00  0.00     0.016 A 
ATOM     34  C   UNL A   1      42.345  23.293  26.056  1.00  0.00     0.016 A 
ATOM     35  C   UNL A   1      45.016  23.236  26.934  1.00  0.00     0.010 A 
ATOM     36  C   UNL A   1      42.683  24.017  27.163  1.00  0.00     0.010 A 
ATOM     37  C   UNL A   1      44.011  23.944  27.605  1.00  0.00    -0.014 A 
BRANCH  37  38
ATOM     38  C   UNL A   1      44.447  24.877  28.626  1.00  0.00     0.031 A 
ATOM     39  C   UNL A   1      45.002  26.128  27.885  1.00  0.00     0.074 A 
ATOM     40  C   UNL A   1      44.297  24.424  29.913  1.00  0.00     0.049 A 
ATOM     41  N   UNL A   1      45.830  27.034  28.289  1.00  0.00    -0.248 NA
ATOM     42  C   UNL A   1      44.645  26.381  26.444  1.00  0.00     0.031 C 
ATOM     43  C   UNL A   1      43.693  23.125  30.330  1.00  0.00     0.029 A 
ATOM     44  N   UNL A   1      44.620  24.950  31.142  1.00  0.00    -0.354 N 
ATOM     45  C   UNL A   1      45.846  28.066  27.320  1.00  0.00     0.074 A 
ATOM     46  C   UNL A   1      45.217  27.548  26.153  1.00  0.00     0.031 C 
ATOM     47  C   UNL A   1      43.798  22.939  31.670  1.00  0.00     0.029 A 
ATOM     48  C   UNL A   1      44.429  24.097  32.272  1.00  0.00     0.049 A 
ATOM     49  H   UNL A   1      44.964  25.866  31.238  1.00  0.00     0.167 HD
ATOM     50  C   UNL A   1      46.241  29.335  27.616  1.00  0.00     0.037 A 
ATOM     51  C   UNL A   1      44.805  24.326  33.575  1.00  0.00     0.037 A 
ATOM     52  C   UNL A   1      46.680  29.374  28.971  1.00  0.00     0.049 A 
ATOM     53  C   UNL A   1      45.214  25.738  33.558  1.00  0.00     0.074 A 
ATOM     54  C   UNL A   1      47.785  28.822  29.565  1.00  0.00     0.029 A 
ATOM     55  N   UNL A   1      45.716  29.623  29.921  1.00  0.00    -0.354 N 
ATOM     56  N   UNL A   1      44.397  26.742  33.429  1.00  0.00    -0.248 NA
ATOM     57  C   UNL A   1      46.648  26.046  33.538  1.00  0.00     0.031 C 
ATOM     58  C   UNL A   1      47.248  28.267  30.742  1.00  0.00     0.029 A 
ATOM     59  C   UNL A   1      45.960  28.770  30.967  1.00  0.00     0.049 A 
ATOM     60  H   UNL A   1      44.990  30.285  29.860  1.00  0.00     0.167 HD
ATOM     61  C   UNL A   1      45.227  27.732  32.969  1.00  0.00     0.074 A 
ATOM     62  C   UNL A   1      46.573  27.362  33.368  1.00  0.00     0.031 C 
ATOM     63  C   UNL A   1      44.878  28.454  31.872  1.00  0.00     0.037 A 
BRANCH  50  64
ATOM     64  C   UNL A   1      46.069  30.652  26.918  1.00  0.00     0.058 A 
ATOM     65  C   UNL A   1      47.217  31.476  26.821  1.00  0.00     0.135 A 
ATOM     66  C   UNL A   1      44.833  31.278  26.707  1.00  0.00     0.135 A 
ATOM     67  F   UNL A   1      48.451  30.952  26.920  1.00  0.00    -0.206 F 
ATOM     68  C   UNL A   1      47.137  32.855  26.716  1.00  0.00     0.059 A 
ATOM     69  C   UNL A   1      44.733  32.665  26.544  1.00  0.00     0.059 A 
ATOM     70  F   UNL A   1      43.690  30.580  26.732  1.00  0.00    -0.206 F 
ATOM     71  C   UNL A   1      45.885  33.446  26.620  1.00  0.00     0.060 A 
BRANCH  71  72
ATOM     72  S   UNL A   1      45.804  35.248  26.634  1.00  0.00     0.124 S 
ATOM     73  O   UNL A   1      44.392  35.484  26.354  1.00  0.00    -0.237 OA
ATOM     74  O   UNL A   1      46.240  35.563  27.992  1.00  0.00    -0.237 OA
ATOM     75  O   UNL A   1      46.737  35.635  25.581  1.00  0.00    -0.744 OA
ENDBRANCH  71  72
ENDBRANCH  50  64
BRANCH  51  76
ATOM     76  C   UNL A   1      45.022  23.602  34.897  1.00  0.00     0.058 A 
ATOM     77  C   UNL A   1      45.808  22.464  35.119  1.00  0.00     0.135 A 
ATOM     78  C   UNL A   1      44.529  24.197  36.102  1.00  0.00     0.135 A 
ATOM     79  F   UNL A   1      46.220  21.708  34.093  1.00  0.00    -0.206 F 
ATOM     80  C   UNL A   1      46.214  22.067  36.418  1.00  0.00     0.059 A 
ATOM     81  C   UNL A   1      44.965  23.870  37.383  1.00  0.00     0.059 A 
ATOM     82  F   UNL A   1      43.611  25.174  36.083  1.00  0.00    -0.206 F 
ATOM     83  C   UNL A   1      45.845  22.821  37.535  1.00  0.00     0.060 A 
BRANCH  83  84
ATOM     84  S   UNL A   1      46.603  22.545  39.156  1.00  0.00     0.124 S 
ATOM     85  O   UNL A   1      45.844  21.408  39.663  1.00  0.00    -0.237 OA
ATOM     86  O   UNL A   1      47.996  22.281  38.809  1.00  0.00    -0.237 OA
ATOM     87  O   UNL A   1      46.378  23.810  39.854  1.00  0.00    -0.744 OA
ENDBRANCH  83  84
ENDBRANCH  51  76
BRANCH  63  88
ATOM     88  C   UNL A   1      43.386  28.537  31.570  1.00  0.00     0.058 A 
ATOM     89  C   UNL A   1      42.513  29.139  32.491  1.00  0.00     0.135 A 
ATOM     90  C   UNL A   1      42.767  28.003  30.425  1.00  0.00     0.135 A 
ATOM     91  F   UNL A   1      43.006  29.695  33.609  1.00  0.00    -0.206 F 
ATOM     92  C   UNL A   1      41.129  29.212  32.285  1.00  0.00     0.059 A 
ATOM     93  C   UNL A   1      41.387  28.053  30.191  1.00  0.00     0.059 A 
ATOM     94  F   UNL A   1      43.492  27.421  29.474  1.00  0.00    -0.206 F 
ATOM     95  C   UNL A   1      40.572  28.672  31.126  1.00  0.00     0.060 A 
BRANCH  95  96
ATOM     96  S   UNL A   1      38.793  28.832  30.840  1.00  0.00     0.124 S 
ATOM     97  O   UNL A   1      38.725  29.101  29.408  1.00  0.00    -0.237 OA
ATOM     98  O   UNL A   1      38.300  27.524  31.261  1.00  0.00    -0.237 OA
ATOM     99  O   UNL A   1      38.400  29.948  31.697  1.00  0.00    -0.744 OA
ENDBRANCH  95  96
ENDBRANCH  63  88
ENDBRANCH  37  38
ENDBRANCH  30  32
ENDBRANCH  29  30
ENDBRANCH  28  29
ENDBRANCH  27  28
ENDBRANCH  26  27
ENDBRANCH  25  26
ENDBRANCH  24  25
ENDBRANCH  23  24
ENDBRANCH   1  23
TORSDOF 27
ENDMDL
MODEL 3
REMARK VINA RESULT:      -8.8      3.397      8.129
REMARK SMILES CC[C@@H](C)NC(=O)Cn1cccc1C(=O)OCCOCCOCCOCCOC(=O)c1ccc(-c2c3nc(c(-c4c(F)cc(S(=O)(=O)[O-])cc4F)c4ccc([nH]4)c(-c4c(F)cc(S(=O)(=O)[O-])cc4F)c4nc(c(-c5c(F)cc(S(=O)(=O)[O-])cc5F)c5ccc2[nH]5)C=C4)C=C3)cc1
REMARK SMILES IDX 21 1 20 2 19 3 18 4 17 5 16 6 14 7 15 8 13 9 9 10 10 11
REMARK SMILES IDX 11 12 12 13 8 14 6 15 5 16 7 18 3 19 4 20 2 21 1 22 22 23
REMARK SMILES IDX 23 24 24 25 25 26 26 27 27 28 28 29 29 30 30 31 31 32 32 33
REMARK SMILES IDX 96 34 33 35 95 36 34 37 35 38 36 39 89 40 37 41 94 42 88 43
REMARK SMILES IDX 90 44 38 45 93 46 87 47 86 48 39 50 73 51 52 52 72 53 53 54
REMARK SMILES IDX 56 55 71 56 91 57 54 58 55 59 70 61 92 62 57 63 40 64 41 65
REMARK SMILES IDX 50 66 42 67 43 68 49 69 51 70 44 71 45 72 46 73 47 74 48 75
REMARK SMILES IDX 74 76 75 77 84 78 76 79 77 80 83 81 85 82 78 83 79 84 80 85
REMARK SMILES IDX 81 86 82 87 58 88 59 89 68 90 60 91 61 92 67 93 69 94 62 95
REMARK SMILES IDX 63 96 64 97 65 98 66 99
REMARK H PARENT 5 17 90 49 56 60
REMARK Flexibility Score: inf
ROOT
ATOM      1  C   UNL A   1      40.116  21.505  26.658  1.00  0.00     0.188 C 
ENDROOT
BRANCH   1   2
ATOM      2  C   UNL A   1      38.855  22.154  26.065  1.00  0.00     0.188 C 
BRANCH   2   3
ATOM      3  O   UNL A   1      38.200  21.336  25.114  1.00  0.00    -0.376 OA
BRANCH   3   4
ATOM      4  C   UNL A   1      36.819  21.478  24.867  1.00  0.00     0.202 C 
BRANCH   4   5
ATOM      5  C   UNL A   1      35.869  21.781  26.039  1.00  0.00     0.261 C 
BRANCH   5   6
ATOM      6  O   UNL A   1      34.686  22.529  25.733  1.00  0.00    -0.459 OA
BRANCH   6   7
ATOM      7  C   UNL A   1      33.860  22.818  26.760  1.00  0.00     0.355 C 
ATOM      8  O   UNL A   1      34.217  22.884  27.933  1.00  0.00    -0.244 OA
BRANCH   7   9
ATOM      9  C   UNL A   1      32.553  23.215  26.267  1.00  0.00     0.128 A 
ATOM     10  N   UNL A   1      32.075  24.470  25.906  1.00  0.00    -0.333 N 
ATOM     11  C   UNL A   1      30.849  24.306  25.291  1.00  0.00     0.087 A 
ATOM     12  C   UNL A   1      30.402  23.035  25.542  1.00  0.00     0.020 A 
ATOM     13  C   UNL A   1      31.476  22.344  26.133  1.00  0.00     0.035 A 
BRANCH  10  14
ATOM     14  C   UNL A   1      32.750  25.769  25.971  1.00  0.00     0.222 C 
BRANCH  14  15
ATOM     15  C   UNL A   1      31.891  26.925  26.461  1.00  0.00     0.240 C 
ATOM     16  N   UNL A   1      31.234  27.760  25.602  1.00  0.00    -0.352 N 
ATOM     17  H   UNL A   1      30.658  28.426  26.042  1.00  0.00     0.163 HD
ATOM     18  O   UNL A   1      31.813  27.170  27.671  1.00  0.00    -0.273 OA
BRANCH  16  19
ATOM     19  C   UNL A   1      31.238  27.832  24.141  1.00  0.00     0.078 C 
ATOM     20  C   UNL A   1      32.676  27.905  23.630  1.00  0.00     0.031 C 
BRANCH  19  21
ATOM     21  C   UNL A   1      30.394  29.026  23.663  1.00  0.00     0.021 C 
ATOM     22  C   UNL A   1      30.616  29.379  22.197  1.00  0.00     0.006 C 
ENDBRANCH  19  21
ENDBRANCH  16  19
ENDBRANCH  14  15
ENDBRANCH  10  14
ENDBRANCH   7   9
ENDBRANCH   6   7
ENDBRANCH   5   6
ENDBRANCH   4   5
ENDBRANCH   3   4
ENDBRANCH   2   3
ENDBRANCH   1   2
BRANCH   1  23
ATOM     23  O   UNL A   1      40.394  20.141  26.394  1.00  0.00    -0.377 OA
BRANCH  23  24
ATOM     24  C   UNL A   1      41.528  19.585  27.036  1.00  0.00     0.188 C 
BRANCH  24  25
ATOM     25  C   UNL A   1      42.527  18.952  26.048  1.00  0.00     0.188 C 
BRANCH  25  26
ATOM     26  O   UNL A   1      43.163  19.723  25.036  1.00  0.00    -0.376 OA
BRANCH  26  27
ATOM     27  C   UNL A   1      44.486  20.243  25.077  1.00  0.00     0.202 C 
BRANCH  27  28
ATOM     28  C   UNL A   1      44.936  21.562  25.714  1.00  0.00     0.261 C 
BRANCH  28  29
ATOM     29  O   UNL A   1      43.965  22.571  25.781  1.00  0.00    -0.460 OA
BRANCH  29  30
ATOM     30  C   UNL A   1      44.104  23.457  24.787  1.00  0.00     0.338 C 
ATOM     31  O   UNL A   1      44.900  23.439  23.864  1.00  0.00    -0.246 OA
BRANCH  30  32
ATOM     32  C   UNL A   1      43.149  24.538  25.047  1.00  0.00     0.060 A 
ATOM     33  C   UNL A   1      43.786  25.778  25.094  1.00  0.00     0.016 A 
ATOM     34  C   UNL A   1      42.178  24.128  25.967  1.00  0.00     0.016 A 
ATOM     35  C   UNL A   1      43.772  26.421  26.300  1.00  0.00     0.010 A 
ATOM     36  C   UNL A   1      42.222  24.718  27.197  1.00  0.00     0.010 A 
ATOM     37  C   UNL A   1      43.053  25.837  27.350  1.00  0.00    -0.014 A 
BRANCH  37  38
ATOM     38  C   UNL A   1      42.939  26.614  28.569  1.00  0.00     0.031 A 
ATOM     39  C   UNL A   1      43.907  25.973  29.605  1.00  0.00     0.074 A 
ATOM     40  C   UNL A   1      42.029  27.640  28.507  1.00  0.00     0.049 A 
ATOM     41  N   UNL A   1      43.901  26.031  30.895  1.00  0.00    -0.248 NA
ATOM     42  C   UNL A   1      45.016  25.062  29.149  1.00  0.00     0.031 C 
ATOM     43  C   UNL A   1      41.221  28.037  27.317  1.00  0.00     0.029 A 
ATOM     44  N   UNL A   1      41.583  28.563  29.424  1.00  0.00    -0.354 N 
ATOM     45  C   UNL A   1      45.110  25.458  31.359  1.00  0.00     0.074 A 
ATOM     46  C   UNL A   1      45.683  24.757  30.261  1.00  0.00     0.031 C 
ATOM     47  C   UNL A   1      40.338  29.020  27.624  1.00  0.00     0.029 A 
ATOM     48  C   UNL A   1      40.500  29.400  29.014  1.00  0.00     0.049 A 
ATOM     49  H   UNL A   1      41.988  28.642  30.317  1.00  0.00     0.167 HD
ATOM     50  C   UNL A   1      45.628  25.746  32.585  1.00  0.00     0.037 A 
ATOM     51  C   UNL A   1      39.785  30.290  29.780  1.00  0.00     0.037 A 
ATOM     52  C   UNL A   1      44.723  26.603  33.275  1.00  0.00     0.049 A 
ATOM     53  C   UNL A   1      40.558  30.348  31.029  1.00  0.00     0.074 A 
ATOM     54  C   UNL A   1      43.476  26.355  33.787  1.00  0.00     0.029 A 
ATOM     55  N   UNL A   1      44.881  27.954  33.068  1.00  0.00    -0.354 N 
ATOM     56  N   UNL A   1      41.726  30.906  31.150  1.00  0.00    -0.248 NA
ATOM     57  C   UNL A   1      40.058  29.602  32.190  1.00  0.00     0.031 C 
ATOM     58  C   UNL A   1      42.748  27.484  33.367  1.00  0.00     0.029 A 
ATOM     59  C   UNL A   1      43.624  28.484  32.924  1.00  0.00     0.049 A 
ATOM     60  H   UNL A   1      45.733  28.446  33.031  1.00  0.00     0.167 HD
ATOM     61  C   UNL A   1      42.230  30.285  32.263  1.00  0.00     0.074 A 
ATOM     62  C   UNL A   1      41.089  29.784  33.009  1.00  0.00     0.031 C 
ATOM     63  C   UNL A   1      43.476  29.745  32.234  1.00  0.00     0.037 A 
BRANCH  50  64
ATOM     64  C   UNL A   1      46.985  25.555  33.196  1.00  0.00     0.058 A 
ATOM     65  C   UNL A   1      48.089  26.054  32.463  1.00  0.00     0.135 A 
ATOM     66  C   UNL A   1      47.274  24.620  34.200  1.00  0.00     0.135 A 
ATOM     67  F   UNL A   1      47.924  27.018  31.541  1.00  0.00    -0.206 F 
ATOM     68  C   UNL A   1      49.364  25.524  32.582  1.00  0.00     0.059 A 
ATOM     69  C   UNL A   1      48.566  24.110  34.375  1.00  0.00     0.059 A 
ATOM     70  F   UNL A   1      46.307  24.120  34.980  1.00  0.00    -0.206 F 
ATOM     71  C   UNL A   1      49.584  24.520  33.515  1.00  0.00     0.060 A 
BRANCH  71  72
ATOM     72  S   UNL A   1      51.213  23.746  33.545  1.00  0.00     0.124 S 
ATOM     73  O   UNL A   1      51.377  23.343  32.153  1.00  0.00    -0.237 OA
ATOM     74  O   UNL A   1      52.067  24.845  33.989  1.00  0.00    -0.237 OA
ATOM     75  O   UNL A   1      51.052  22.662  34.508  1.00  0.00    -0.744 OA
ENDBRANCH  71  72
ENDBRANCH  50  64
BRANCH  51  76
ATOM     76  C   UNL A   1      38.485  31.084  29.783  1.00  0.00     0.058 A 
ATOM     77  C   UNL A   1      38.342  32.474  29.698  1.00  0.00     0.135 A 
ATOM     78  C   UNL A   1      37.242  30.377  29.695  1.00  0.00     0.135 A 
ATOM     79  F   UNL A   1      39.389  33.282  29.911  1.00  0.00    -0.206 F 
ATOM     80  C   UNL A   1      37.107  33.089  29.373  1.00  0.00     0.059 A 
ATOM     81  C   UNL A   1      36.033  30.949  29.311  1.00  0.00     0.059 A 
ATOM     82  F   UNL A   1      37.158  29.062  29.944  1.00  0.00    -0.206 F 
ATOM     83  C   UNL A   1      35.977  32.310  29.110  1.00  0.00     0.060 A 
BRANCH  83  84
ATOM     84  S   UNL A   1      34.483  33.025  28.378  1.00  0.00     0.124 S 
ATOM     85  O   UNL A   1      33.784  33.544  29.548  1.00  0.00    -0.237 OA
ATOM     86  O   UNL A   1      35.030  34.023  27.464  1.00  0.00    -0.237 OA
ATOM     87  O   UNL A   1      33.847  31.882  27.724  1.00  0.00    -0.744 OA
ENDBRANCH  83  84
ENDBRANCH  51  76
BRANCH  63  88
ATOM     88  C   UNL A   1      44.443  30.344  31.218  1.00  0.00     0.058 A 
ATOM     89  C   UNL A   1      44.783  31.705  31.287  1.00  0.00     0.135 A 
ATOM     90  C   UNL A   1      45.016  29.641  30.143  1.00  0.00     0.135 A 
ATOM     91  F   UNL A   1      44.303  32.461  32.287  1.00  0.00    -0.206 F 
ATOM     92  C   UNL A   1      45.637  32.319  30.360  1.00  0.00     0.059 A 
ATOM     93  C   UNL A   1      45.867  30.226  29.196  1.00  0.00     0.059 A 
ATOM     94  F   UNL A   1      44.779  28.342  29.981  1.00  0.00    -0.206 F 
ATOM     95  C   UNL A   1      46.182  31.570  29.319  1.00  0.00     0.060 A 
BRANCH  95  96
ATOM     96  S   UNL A   1      47.335  32.358  28.169  1.00  0.00     0.124 S 
ATOM     97  O   UNL A   1      48.231  31.262  27.817  1.00  0.00    -0.237 OA
ATOM     98  O   UNL A   1      46.442  32.810  27.107  1.00  0.00    -0.237 OA
ATOM     99  O   UNL A   1      47.946  33.423  28.962  1.00  0.00    -0.744 OA
ENDBRANCH  95  96
ENDBRANCH  63  88
ENDBRANCH  37  38
ENDBRANCH  30  32
ENDBRANCH  29  30
ENDBRANCH  28  29
ENDBRANCH  27  28
ENDBRANCH  26  27
ENDBRANCH  25  26
ENDBRANCH  24  25
ENDBRANCH  23  24
ENDBRANCH   1  23
TORSDOF 27
ENDMDL
