MODEL 1
REMARK VINA RESULT:      -8.2      0.000      0.000
REMARK SMILES CCOc1ccc(N)c(SCc2ccccc2C(=O)OCCOCCOCCOCCOC(=O)c2ccc(-c3c4nc(c(-c5c(F)cc(S(=O)(=O)[O-])cc5F)c5ccc([nH]5)c(-c5c(F)cc(S(=O)(=O)[O-])cc5F)c5nc(c(-c6c(F)cc(S(=O)(=O)[O-])cc6F)c6ccc3[nH]6)C=C5)C=C4)cc2)c1
REMARK SMILES IDX 25 1 24 2 23 3 22 4 21 5 20 6 18 7 19 8 17 9 12 10 13 11
REMARK SMILES IDX 14 12 16 13 15 14 11 15 10 16 9 17 4 18 5 19 101 20 6 21
REMARK SMILES IDX 7 22 3 23 2 24 1 25 8 26 26 29 27 30 28 31 29 32 30 33 31 34
REMARK SMILES IDX 32 35 33 36 34 37 35 38 36 39 100 40 37 41 99 42 38 43 39 44
REMARK SMILES IDX 40 45 93 46 41 47 98 48 92 49 94 50 42 51 97 52 91 53 90 54
REMARK SMILES IDX 43 56 77 57 56 58 76 59 57 60 60 61 75 62 95 63 58 64 59 65
REMARK SMILES IDX 74 67 96 68 61 69 44 70 45 71 54 72 46 73 47 74 53 75 55 76
REMARK SMILES IDX 48 77 49 78 50 79 51 80 52 81 78 82 79 83 88 84 80 85 81 86
REMARK SMILES IDX 87 87 89 88 82 89 83 90 84 91 85 92 86 93 62 94 63 95 72 96
REMARK SMILES IDX 64 97 65 98 71 99 73 100 66 101 67 102 68 103 69 104 70 105
REMARK H PARENT 8 27 8 28 94 55 60 66
REMARK Flexibility Score: inf
ROOT
ATOM      1  C   UNL A   1      40.713  22.481  26.236  1.00  0.00     0.188 C 
ENDROOT
BRANCH   1   2
ATOM      2  C   UNL A   1      40.352  23.446  27.385  1.00  0.00     0.188 C 
BRANCH   2   3
ATOM      3  O   UNL A   1      39.051  23.990  27.489  1.00  0.00    -0.376 OA
BRANCH   3   4
ATOM      4  C   UNL A   1      38.123  24.058  26.423  1.00  0.00     0.202 C 
BRANCH   4   5
ATOM      5  C   UNL A   1      36.972  23.083  26.152  1.00  0.00     0.261 C 
BRANCH   5   6
ATOM      6  O   UNL A   1      35.713  23.631  25.779  1.00  0.00    -0.460 OA
BRANCH   6   7
ATOM      7  C   UNL A   1      34.656  23.037  26.358  1.00  0.00     0.338 C 
ATOM      8  O   UNL A   1      34.551  22.755  27.547  1.00  0.00    -0.246 OA
BRANCH   7   9
ATOM      9  C   UNL A   1      33.564  22.754  25.393  1.00  0.00     0.064 A 
ATOM     10  C   UNL A   1      32.325  23.429  25.353  1.00  0.00    -0.023 A 
ATOM     11  C   UNL A   1      31.455  23.117  24.284  1.00  0.00     0.005 A 
ATOM     12  C   UNL A   1      31.832  22.243  23.259  1.00  0.00     0.000 A 
ATOM     13  C   UNL A   1      33.927  21.865  24.360  1.00  0.00     0.016 A 
ATOM     14  C   UNL A   1      33.074  21.622  23.291  1.00  0.00     0.001 A 
BRANCH  10  15
ATOM     15  C   UNL A   1      31.911  24.546  26.301  1.00  0.00     0.111 C 
BRANCH  15  16
ATOM     16  S   UNL A   1      30.162  25.119  26.001  1.00  0.00    -0.119 SA
BRANCH  16  17
ATOM     17  C   UNL A   1      30.319  26.582  24.957  1.00  0.00     0.034 A 
ATOM     18  C   UNL A   1      31.225  28.786  24.604  1.00  0.00     0.120 A 
ATOM     19  C   UNL A   1      30.657  28.857  23.339  1.00  0.00     0.048 A 
ATOM     20  C   UNL A   1      31.187  27.605  25.350  1.00  0.00     0.063 A 
ATOM     21  C   UNL A   1      29.737  27.892  22.985  1.00  0.00     0.030 A 
ATOM     22  C   UNL A   1      29.455  26.859  23.885  1.00  0.00     0.045 A 
BRANCH  18  23
ATOM     23  O   UNL A   1      31.697  29.947  25.160  1.00  0.00    -0.494 OA
BRANCH  23  24
ATOM     24  C   UNL A   1      32.450  29.649  26.361  1.00  0.00     0.226 C 
ATOM     25  C   UNL A   1      32.912  30.892  27.122  1.00  0.00     0.049 C 
ENDBRANCH  23  24
ENDBRANCH  18  23
BRANCH  22  26
ATOM     26  N   UNL A   1      28.144  26.404  23.910  1.00  0.00    -0.398 N 
ATOM     27  H   UNL A   1      27.867  25.669  23.316  1.00  0.00     0.156 HD
ATOM     28  H   UNL A   1      27.491  26.815  24.520  1.00  0.00     0.156 HD
ENDBRANCH  22  26
ENDBRANCH  16  17
ENDBRANCH  15  16
ENDBRANCH  10  15
ENDBRANCH   7   9
ENDBRANCH   6   7
ENDBRANCH   5   6
ENDBRANCH   4   5
ENDBRANCH   3   4
ENDBRANCH   2   3
ENDBRANCH   1   2
BRANCH   1  29
ATOM     29  O   UNL A   1      41.946  21.803  26.337  1.00  0.00    -0.377 OA
BRANCH  29  30
ATOM     30  C   UNL A   1      43.055  22.246  25.567  1.00  0.00     0.188 C 
BRANCH  30  31
ATOM     31  C   UNL A   1      44.508  21.931  25.988  1.00  0.00     0.188 C 
BRANCH  31  32
ATOM     32  O   UNL A   1      45.237  23.022  26.524  1.00  0.00    -0.376 OA
BRANCH  32  33
ATOM     33  C   UNL A   1      44.555  24.142  27.056  1.00  0.00     0.202 C 
BRANCH  33  34
ATOM     34  C   UNL A   1      45.241  25.516  27.005  1.00  0.00     0.261 C 
BRANCH  34  35
ATOM     35  O   UNL A   1      46.567  25.582  27.541  1.00  0.00    -0.460 OA
BRANCH  35  36
ATOM     36  C   UNL A   1      47.457  26.355  26.888  1.00  0.00     0.338 C 
ATOM     37  O   UNL A   1      48.308  25.988  26.093  1.00  0.00    -0.246 OA
BRANCH  36  38
ATOM     38  C   UNL A   1      47.093  27.761  27.147  1.00  0.00     0.060 A 
ATOM     39  C   UNL A   1      46.488  28.506  26.125  1.00  0.00     0.016 A 
ATOM     40  C   UNL A   1      47.329  28.329  28.401  1.00  0.00     0.016 A 
ATOM     41  C   UNL A   1      46.157  29.840  26.343  1.00  0.00     0.010 A 
ATOM     42  C   UNL A   1      47.026  29.674  28.608  1.00  0.00     0.010 A 
ATOM     43  C   UNL A   1      46.477  30.442  27.565  1.00  0.00    -0.014 A 
BRANCH  43  44
ATOM     44  C   UNL A   1      46.474  31.919  27.667  1.00  0.00     0.031 A 
ATOM     45  C   UNL A   1      45.257  32.574  28.263  1.00  0.00     0.074 A 
ATOM     46  C   UNL A   1      47.525  32.654  27.269  1.00  0.00     0.049 A 
ATOM     47  N   UNL A   1      44.982  33.843  28.405  1.00  0.00    -0.248 NA
ATOM     48  C   UNL A   1      44.207  31.669  28.762  1.00  0.00     0.031 C 
ATOM     49  C   UNL A   1      48.774  32.122  26.728  1.00  0.00     0.029 A 
ATOM     50  N   UNL A   1      47.701  34.014  27.251  1.00  0.00    -0.354 N 
ATOM     51  C   UNL A   1      43.727  33.890  28.999  1.00  0.00     0.074 A 
ATOM     52  C   UNL A   1      43.280  32.525  29.163  1.00  0.00     0.031 C 
ATOM     53  C   UNL A   1      49.583  33.149  26.414  1.00  0.00     0.029 A 
ATOM     54  C   UNL A   1      48.895  34.408  26.698  1.00  0.00     0.049 A 
ATOM     55  H   UNL A   1      47.034  34.648  27.602  1.00  0.00     0.167 HD
ATOM     56  C   UNL A   1      43.014  34.976  29.379  1.00  0.00     0.037 A 
ATOM     57  C   UNL A   1      49.360  35.645  26.427  1.00  0.00     0.037 A 
ATOM     58  C   UNL A   1      43.469  36.329  29.205  1.00  0.00     0.049 A 
ATOM     59  C   UNL A   1      48.514  36.841  26.786  1.00  0.00     0.074 A 
ATOM     60  C   UNL A   1      42.832  37.503  29.563  1.00  0.00     0.029 A 
ATOM     61  N   UNL A   1      44.671  36.690  28.613  1.00  0.00    -0.354 N 
ATOM     62  N   UNL A   1      47.334  36.877  27.363  1.00  0.00    -0.248 NA
ATOM     63  C   UNL A   1      49.062  38.166  26.461  1.00  0.00     0.031 C 
ATOM     64  C   UNL A   1      43.620  38.574  29.134  1.00  0.00     0.029 A 
ATOM     65  C   UNL A   1      44.781  38.070  28.569  1.00  0.00     0.049 A 
ATOM     66  H   UNL A   1      45.346  36.059  28.274  1.00  0.00     0.167 HD
ATOM     67  C   UNL A   1      47.017  38.225  27.499  1.00  0.00     0.074 A 
ATOM     68  C   UNL A   1      48.132  38.972  26.953  1.00  0.00     0.031 C 
ATOM     69  C   UNL A   1      45.905  38.795  28.031  1.00  0.00     0.037 A 
BRANCH  56  70
ATOM     70  C   UNL A   1      41.657  34.742  29.983  1.00  0.00     0.058 A 
ATOM     71  C   UNL A   1      41.494  34.375  31.328  1.00  0.00     0.135 A 
ATOM     72  C   UNL A   1      40.499  34.910  29.205  1.00  0.00     0.135 A 
ATOM     73  F   UNL A   1      42.566  34.178  32.111  1.00  0.00    -0.206 F 
ATOM     74  C   UNL A   1      40.232  34.160  31.875  1.00  0.00     0.059 A 
ATOM     75  C   UNL A   1      39.227  34.731  29.740  1.00  0.00     0.059 A 
ATOM     76  F   UNL A   1      40.596  35.250  27.911  1.00  0.00    -0.206 F 
ATOM     77  C   UNL A   1      39.105  34.343  31.073  1.00  0.00     0.060 A 
BRANCH  77  78
ATOM     78  S   UNL A   1      37.476  34.070  31.802  1.00  0.00     0.124 S 
ATOM     79  O   UNL A   1      36.626  34.044  30.615  1.00  0.00    -0.237 OA
ATOM     80  O   UNL A   1      37.651  32.792  32.484  1.00  0.00    -0.237 OA
ATOM     81  O   UNL A   1      37.296  35.225  32.675  1.00  0.00    -0.744 OA
ENDBRANCH  77  78
ENDBRANCH  56  70
BRANCH  57  82
ATOM     82  C   UNL A   1      50.682  35.816  25.768  1.00  0.00     0.058 A 
ATOM     83  C   UNL A   1      50.780  36.156  24.411  1.00  0.00     0.135 A 
ATOM     84  C   UNL A   1      51.879  35.635  26.482  1.00  0.00     0.135 A 
ATOM     85  F   UNL A   1      49.667  36.328  23.681  1.00  0.00    -0.206 F 
ATOM     86  C   UNL A   1      52.012  36.298  23.780  1.00  0.00     0.059 A 
ATOM     87  C   UNL A   1      53.123  35.800  25.881  1.00  0.00     0.059 A 
ATOM     88  F   UNL A   1      51.843  35.315  27.785  1.00  0.00    -0.206 F 
ATOM     89  C   UNL A   1      53.179  36.121  24.526  1.00  0.00     0.060 A 
BRANCH  89  90
ATOM     90  S   UNL A   1      54.772  36.350  23.705  1.00  0.00     0.124 S 
ATOM     91  O   UNL A   1      54.710  35.339  22.657  1.00  0.00    -0.237 OA
ATOM     92  O   UNL A   1      54.686  37.737  23.262  1.00  0.00    -0.237 OA
ATOM     93  O   UNL A   1      55.737  36.096  24.771  1.00  0.00    -0.744 OA
ENDBRANCH  89  90
ENDBRANCH  57  82
BRANCH  69  94
ATOM     94  C   UNL A   1      45.854  40.300  28.094  1.00  0.00     0.058 A 
ATOM     95  C   UNL A   1      46.589  41.029  29.040  1.00  0.00     0.135 A 
ATOM     96  C   UNL A   1      45.103  41.021  27.150  1.00  0.00     0.135 A 
ATOM     97  F   UNL A   1      47.320  40.392  29.968  1.00  0.00    -0.206 F 
ATOM     98  C   UNL A   1      46.562  42.421  29.065  1.00  0.00     0.059 A 
ATOM     99  C   UNL A   1      45.089  42.411  27.135  1.00  0.00     0.059 A 
ATOM    100  F   UNL A   1      44.392  40.373  26.213  1.00  0.00    -0.206 F 
ATOM    101  C   UNL A   1      45.812  43.103  28.105  1.00  0.00     0.060 A 
BRANCH 101 102
ATOM    102  S   UNL A   1      45.814  44.908  28.128  1.00  0.00     0.124 S 
ATOM    103  O   UNL A   1      47.155  45.194  28.626  1.00  0.00    -0.237 OA
ATOM    104  O   UNL A   1      45.572  45.238  26.728  1.00  0.00    -0.237 OA
ATOM    105  O   UNL A   1      44.723  45.239  29.042  1.00  0.00    -0.744 OA
ENDBRANCH 101 102
ENDBRANCH  69  94
ENDBRANCH  43  44
ENDBRANCH  36  38
ENDBRANCH  35  36
ENDBRANCH  34  35
ENDBRANCH  33  34
ENDBRANCH  32  33
ENDBRANCH  31  32
ENDBRANCH  30  31
ENDBRANCH  29  30
ENDBRANCH   1  29
TORSDOF 29
ENDMDL
MODEL 2
REMARK VINA RESULT:      -8.0     10.864     16.430
REMARK SMILES CCOc1ccc(N)c(SCc2ccccc2C(=O)OCCOCCOCCOCCOC(=O)c2ccc(-c3c4nc(c(-c5c(F)cc(S(=O)(=O)[O-])cc5F)c5ccc([nH]5)c(-c5c(F)cc(S(=O)(=O)[O-])cc5F)c5nc(c(-c6c(F)cc(S(=O)(=O)[O-])cc6F)c6ccc3[nH]6)C=C5)C=C4)cc2)c1
REMARK SMILES IDX 25 1 24 2 23 3 22 4 21 5 20 6 18 7 19 8 17 9 12 10 13 11
REMARK SMILES IDX 14 12 16 13 15 14 11 15 10 16 9 17 4 18 5 19 101 20 6 21
REMARK SMILES IDX 7 22 3 23 2 24 1 25 8 26 26 29 27 30 28 31 29 32 30 33 31 34
REMARK SMILES IDX 32 35 33 36 34 37 35 38 36 39 100 40 37 41 99 42 38 43 39 44
REMARK SMILES IDX 40 45 93 46 41 47 98 48 92 49 94 50 42 51 97 52 91 53 90 54
REMARK SMILES IDX 43 56 77 57 56 58 76 59 57 60 60 61 75 62 95 63 58 64 59 65
REMARK SMILES IDX 74 67 96 68 61 69 44 70 45 71 54 72 46 73 47 74 53 75 55 76
REMARK SMILES IDX 48 77 49 78 50 79 51 80 52 81 78 82 79 83 88 84 80 85 81 86
REMARK SMILES IDX 87 87 89 88 82 89 83 90 84 91 85 92 86 93 62 94 63 95 72 96
REMARK SMILES IDX 64 97 65 98 71 99 73 100 66 101 67 102 68 103 69 104 70 105
REMARK H PARENT 8 27 8 28 94 55 60 66
REMARK Flexibility Score: inf
ROOT
ATOM      1  C   UNL A   1      47.937  19.797  38.623  1.00  0.00     0.188 C 
ENDROOT
BRANCH   1   2
ATOM      2  C   UNL A   1      46.828  19.972  37.565  1.00  0.00     0.188 C 
BRANCH   2   3
ATOM      3  O   UNL A   1      45.636  19.217  37.635  1.00  0.00    -0.376 OA
BRANCH   3   4
ATOM      4  C   UNL A   1      45.451  18.087  38.467  1.00  0.00     0.202 C 
BRANCH   4   5
ATOM      5  C   UNL A   1      44.524  16.897  38.197  1.00  0.00     0.261 C 
BRANCH   5   6
ATOM      6  O   UNL A   1      44.267  15.999  39.270  1.00  0.00    -0.460 OA
BRANCH   6   7
ATOM      7  C   UNL A   1      43.114  16.226  39.921  1.00  0.00     0.338 C 
ATOM      8  O   UNL A   1      42.410  17.224  39.812  1.00  0.00    -0.246 OA
BRANCH   7   9
ATOM      9  C   UNL A   1      42.736  15.104  40.815  1.00  0.00     0.064 A 
ATOM     10  C   UNL A   1      43.207  14.927  42.135  1.00  0.00    -0.023 A 
ATOM     11  C   UNL A   1      42.640  13.873  42.886  1.00  0.00     0.005 A 
ATOM     12  C   UNL A   1      41.596  13.089  42.384  1.00  0.00     0.000 A 
ATOM     13  C   UNL A   1      41.691  14.298  40.316  1.00  0.00     0.016 A 
ATOM     14  C   UNL A   1      41.114  13.307  41.100  1.00  0.00     0.001 A 
BRANCH  10  15
ATOM     15  C   UNL A   1      44.186  15.854  42.841  1.00  0.00     0.111 C 
BRANCH  15  16
ATOM     16  S   UNL A   1      44.851  15.115  44.418  1.00  0.00    -0.119 SA
BRANCH  16  17
ATOM     17  C   UNL A   1      46.306  16.101  44.823  1.00  0.00     0.034 A 
ATOM     18  C   UNL A   1      48.539  16.227  45.721  1.00  0.00     0.120 A 
ATOM     19  C   UNL A   1      48.627  17.577  45.409  1.00  0.00     0.048 A 
ATOM     20  C   UNL A   1      47.451  15.456  45.300  1.00  0.00     0.063 A 
ATOM     21  C   UNL A   1      47.476  18.231  45.020  1.00  0.00     0.030 A 
ATOM     22  C   UNL A   1      46.288  17.503  44.903  1.00  0.00     0.045 A 
BRANCH  18  23
ATOM     23  O   UNL A   1      49.474  15.704  46.576  1.00  0.00    -0.494 OA
BRANCH  23  24
ATOM     24  C   UNL A   1      49.016  15.829  47.945  1.00  0.00     0.226 C 
ATOM     25  C   UNL A   1      50.138  15.739  48.980  1.00  0.00     0.049 C 
ENDBRANCH  23  24
ENDBRANCH  18  23
BRANCH  22  26
ATOM     26  N   UNL A   1      45.122  18.167  45.259  1.00  0.00    -0.398 N 
ATOM     27  H   UNL A   1      44.629  17.897  46.068  1.00  0.00     0.156 HD
ATOM     28  H   UNL A   1      44.787  18.907  44.704  1.00  0.00     0.156 HD
ENDBRANCH  22  26
ENDBRANCH  16  17
ENDBRANCH  15  16
ENDBRANCH  10  15
ENDBRANCH   7   9
ENDBRANCH   6   7
ENDBRANCH   5   6
ENDBRANCH   4   5
ENDBRANCH   3   4
ENDBRANCH   2   3
ENDBRANCH   1   2
BRANCH   1  29
ATOM     29  O   UNL A   1      48.960  20.767  38.643  1.00  0.00    -0.377 OA
BRANCH  29  30
ATOM     30  C   UNL A   1      48.933  21.834  37.705  1.00  0.00     0.188 C 
BRANCH  30  31
ATOM     31  C   UNL A   1      50.101  22.839  37.590  1.00  0.00     0.188 C 
BRANCH  31  32
ATOM     32  O   UNL A   1      49.862  24.118  38.150  1.00  0.00    -0.376 OA
BRANCH  32  33
ATOM     33  C   UNL A   1      49.942  25.277  37.339  1.00  0.00     0.202 C 
BRANCH  33  34
ATOM     34  C   UNL A   1      48.641  25.891  36.801  1.00  0.00     0.261 C 
BRANCH  34  35
ATOM     35  O   UNL A   1      47.562  26.005  37.735  1.00  0.00    -0.460 OA
BRANCH  35  36
ATOM     36  C   UNL A   1      47.211  27.248  38.122  1.00  0.00     0.338 C 
ATOM     37  O   UNL A   1      47.772  27.947  38.951  1.00  0.00    -0.246 OA
BRANCH  36  38
ATOM     38  C   UNL A   1      46.141  27.706  37.216  1.00  0.00     0.060 A 
ATOM     39  C   UNL A   1      46.380  28.805  36.380  1.00  0.00     0.016 A 
ATOM     40  C   UNL A   1      44.915  27.036  37.180  1.00  0.00     0.016 A 
ATOM     41  C   UNL A   1      45.376  29.265  35.534  1.00  0.00     0.010 A 
ATOM     42  C   UNL A   1      43.899  27.517  36.356  1.00  0.00     0.010 A 
ATOM     43  C   UNL A   1      44.115  28.658  35.562  1.00  0.00    -0.014 A 
BRANCH  43  44
ATOM     44  C   UNL A   1      42.960  29.361  34.961  1.00  0.00     0.031 A 
ATOM     45  C   UNL A   1      42.521  28.933  33.587  1.00  0.00     0.074 A 
ATOM     46  C   UNL A   1      42.303  30.329  35.621  1.00  0.00     0.049 A 
ATOM     47  N   UNL A   1      41.584  29.427  32.822  1.00  0.00    -0.248 NA
ATOM     48  C   UNL A   1      43.243  27.792  32.996  1.00  0.00     0.031 C 
ATOM     49  C   UNL A   1      42.608  30.786  36.976  1.00  0.00     0.029 A 
ATOM     50  N   UNL A   1      41.246  31.111  35.230  1.00  0.00    -0.354 N 
ATOM     51  C   UNL A   1      41.611  28.667  31.658  1.00  0.00     0.074 A 
ATOM     52  C   UNL A   1      42.675  27.699  31.804  1.00  0.00     0.031 C 
ATOM     53  C   UNL A   1      41.765  31.784  37.297  1.00  0.00     0.029 A 
ATOM     54  C   UNL A   1      40.888  32.058  36.159  1.00  0.00     0.049 A 
ATOM     55  H   UNL A   1      40.787  31.003  34.366  1.00  0.00     0.167 HD
ATOM     56  C   UNL A   1      40.815  28.765  30.569  1.00  0.00     0.037 A 
ATOM     57  C   UNL A   1      39.976  33.048  36.080  1.00  0.00     0.037 A 
ATOM     58  C   UNL A   1      39.763  29.736  30.435  1.00  0.00     0.049 A 
ATOM     59  C   UNL A   1      39.154  33.190  34.824  1.00  0.00     0.074 A 
ATOM     60  C   UNL A   1      38.890  29.917  29.378  1.00  0.00     0.029 A 
ATOM     61  N   UNL A   1      39.449  30.699  31.384  1.00  0.00    -0.354 N 
ATOM     62  N   UNL A   1      39.174  32.456  33.735  1.00  0.00    -0.248 NA
ATOM     63  C   UNL A   1      38.181  34.291  34.786  1.00  0.00     0.031 C 
ATOM     64  C   UNL A   1      38.088  31.026  29.661  1.00  0.00     0.029 A 
ATOM     65  C   UNL A   1      38.414  31.496  30.925  1.00  0.00     0.049 A 
ATOM     66  H   UNL A   1      39.896  30.801  32.254  1.00  0.00     0.167 HD
ATOM     67  C   UNL A   1      38.196  32.987  32.898  1.00  0.00     0.074 A 
ATOM     68  C   UNL A   1      37.597  34.097  33.612  1.00  0.00     0.031 C 
ATOM     69  C   UNL A   1      37.824  32.591  31.654  1.00  0.00     0.037 A 
BRANCH  56  70
ATOM     70  C   UNL A   1      41.078  27.822  29.427  1.00  0.00     0.058 A 
ATOM     71  C   UNL A   1      42.184  27.973  28.576  1.00  0.00     0.135 A 
ATOM     72  C   UNL A   1      40.219  26.735  29.195  1.00  0.00     0.135 A 
ATOM     73  F   UNL A   1      43.025  29.007  28.736  1.00  0.00    -0.206 F 
ATOM     74  C   UNL A   1      42.416  27.095  27.522  1.00  0.00     0.059 A 
ATOM     75  C   UNL A   1      40.449  25.827  28.167  1.00  0.00     0.059 A 
ATOM     76  F   UNL A   1      39.141  26.548  29.972  1.00  0.00    -0.206 F 
ATOM     77  C   UNL A   1      41.544  26.023  27.327  1.00  0.00     0.060 A 
BRANCH  77  78
ATOM     78  S   UNL A   1      41.865  24.888  25.962  1.00  0.00     0.124 S 
ATOM     79  O   UNL A   1      43.272  24.562  26.177  1.00  0.00    -0.237 OA
ATOM     80  O   UNL A   1      40.918  23.810  26.224  1.00  0.00    -0.237 OA
ATOM     81  O   UNL A   1      41.584  25.692  24.776  1.00  0.00    -0.744 OA
ENDBRANCH  77  78
ENDBRANCH  56  70
BRANCH  57  82
ATOM     82  C   UNL A   1      39.804  33.994  37.216  1.00  0.00     0.058 A 
ATOM     83  C   UNL A   1      40.452  35.237  37.232  1.00  0.00     0.135 A 
ATOM     84  C   UNL A   1      38.989  33.669  38.314  1.00  0.00     0.135 A 
ATOM     85  F   UNL A   1      41.251  35.590  36.213  1.00  0.00    -0.206 F 
ATOM     86  C   UNL A   1      40.314  36.119  38.300  1.00  0.00     0.059 A 
ATOM     87  C   UNL A   1      38.812  34.546  39.379  1.00  0.00     0.059 A 
ATOM     88  F   UNL A   1      38.340  32.495  38.347  1.00  0.00    -0.206 F 
ATOM     89  C   UNL A   1      39.487  35.765  39.367  1.00  0.00     0.060 A 
BRANCH  89  90
ATOM     90  S   UNL A   1      39.282  36.938  40.726  1.00  0.00     0.124 S 
ATOM     91  O   UNL A   1      38.132  36.378  41.426  1.00  0.00    -0.237 OA
ATOM     92  O   UNL A   1      40.564  36.830  41.415  1.00  0.00    -0.237 OA
ATOM     93  O   UNL A   1      39.048  38.206  40.042  1.00  0.00    -0.744 OA
ENDBRANCH  89  90
ENDBRANCH  57  82
BRANCH  69  94
ATOM     94  C   UNL A   1      36.686  33.328  30.997  1.00  0.00     0.058 A 
ATOM     95  C   UNL A   1      36.881  34.146  29.874  1.00  0.00     0.135 A 
ATOM     96  C   UNL A   1      35.372  33.161  31.466  1.00  0.00     0.135 A 
ATOM     97  F   UNL A   1      38.115  34.344  29.386  1.00  0.00    -0.206 F 
ATOM     98  C   UNL A   1      35.816  34.793  29.254  1.00  0.00     0.059 A 
ATOM     99  C   UNL A   1      34.290  33.771  30.841  1.00  0.00     0.059 A 
ATOM    100  F   UNL A   1      35.127  32.379  32.529  1.00  0.00    -0.206 F 
ATOM    101  C   UNL A   1      34.523  34.597  29.743  1.00  0.00     0.060 A 
BRANCH 101 102
ATOM    102  S   UNL A   1      33.148  35.415  28.907  1.00  0.00     0.124 S 
ATOM    103  O   UNL A   1      33.833  36.495  28.204  1.00  0.00    -0.237 OA
ATOM    104  O   UNL A   1      32.615  34.347  28.067  1.00  0.00    -0.237 OA
ATOM    105  O   UNL A   1      32.282  35.833  30.005  1.00  0.00    -0.744 OA
ENDBRANCH 101 102
ENDBRANCH  69  94
ENDBRANCH  43  44
ENDBRANCH  36  38
ENDBRANCH  35  36
ENDBRANCH  34  35
ENDBRANCH  33  34
ENDBRANCH  32  33
ENDBRANCH  31  32
ENDBRANCH  30  31
ENDBRANCH  29  30
ENDBRANCH   1  29
TORSDOF 29
ENDMDL
MODEL 3
REMARK VINA RESULT:      -7.7      1.987      2.571
REMARK SMILES CCOc1ccc(N)c(SCc2ccccc2C(=O)OCCOCCOCCOCCOC(=O)c2ccc(-c3c4nc(c(-c5c(F)cc(S(=O)(=O)[O-])cc5F)c5ccc([nH]5)c(-c5c(F)cc(S(=O)(=O)[O-])cc5F)c5nc(c(-c6c(F)cc(S(=O)(=O)[O-])cc6F)c6ccc3[nH]6)C=C5)C=C4)cc2)c1
REMARK SMILES IDX 25 1 24 2 23 3 22 4 21 5 20 6 18 7 19 8 17 9 12 10 13 11
REMARK SMILES IDX 14 12 16 13 15 14 11 15 10 16 9 17 4 18 5 19 101 20 6 21
REMARK SMILES IDX 7 22 3 23 2 24 1 25 8 26 26 29 27 30 28 31 29 32 30 33 31 34
REMARK SMILES IDX 32 35 33 36 34 37 35 38 36 39 100 40 37 41 99 42 38 43 39 44
REMARK SMILES IDX 40 45 93 46 41 47 98 48 92 49 94 50 42 51 97 52 91 53 90 54
REMARK SMILES IDX 43 56 77 57 56 58 76 59 57 60 60 61 75 62 95 63 58 64 59 65
REMARK SMILES IDX 74 67 96 68 61 69 44 70 45 71 54 72 46 73 47 74 53 75 55 76
REMARK SMILES IDX 48 77 49 78 50 79 51 80 52 81 78 82 79 83 88 84 80 85 81 86
REMARK SMILES IDX 87 87 89 88 82 89 83 90 84 91 85 92 86 93 62 94 63 95 72 96
REMARK SMILES IDX 64 97 65 98 71 99 73 100 66 101 67 102 68 103 69 104 70 105
REMARK H PARENT 8 27 8 28 94 55 60 66
REMARK Flexibility Score: inf
ROOT
ATOM      1  C   UNL A   1      40.413  21.790  26.142  1.00  0.00     0.188 C 
ENDROOT
BRANCH   1   2
ATOM      2  C   UNL A   1      40.280  22.984  27.112  1.00  0.00     0.188 C 
BRANCH   2   3
ATOM      3  O   UNL A   1      39.097  23.756  27.149  1.00  0.00    -0.376 OA
BRANCH   3   4
ATOM      4  C   UNL A   1      38.120  23.776  26.126  1.00  0.00     0.202 C 
BRANCH   4   5
ATOM      5  C   UNL A   1      36.886  22.873  26.026  1.00  0.00     0.261 C 
BRANCH   5   6
ATOM      6  O   UNL A   1      35.630  23.491  25.772  1.00  0.00    -0.460 OA
BRANCH   6   7
ATOM      7  C   UNL A   1      34.572  22.821  26.259  1.00  0.00     0.338 C 
ATOM      8  O   UNL A   1      34.467  22.368  27.393  1.00  0.00    -0.246 OA
BRANCH   7   9
ATOM      9  C   UNL A   1      33.480  22.684  25.263  1.00  0.00     0.064 A 
ATOM     10  C   UNL A   1      32.327  23.497  25.211  1.00  0.00    -0.023 A 
ATOM     11  C   UNL A   1      31.454  23.308  24.116  1.00  0.00     0.005 A 
ATOM     12  C   UNL A   1      31.754  22.418  23.079  1.00  0.00     0.000 A 
ATOM     13  C   UNL A   1      33.765  21.780  24.218  1.00  0.00     0.016 A 
ATOM     14  C   UNL A   1      32.916  21.659  23.125  1.00  0.00     0.001 A 
BRANCH  10  15
ATOM     15  C   UNL A   1      32.019  24.634  26.175  1.00  0.00     0.111 C 
BRANCH  15  16
ATOM     16  S   UNL A   1      30.254  25.221  26.039  1.00  0.00    -0.119 SA
BRANCH  16  17
ATOM     17  C   UNL A   1      30.314  26.639  24.926  1.00  0.00     0.034 A 
ATOM     18  C   UNL A   1      31.113  28.860  24.442  1.00  0.00     0.120 A 
ATOM     19  C   UNL A   1      30.499  28.849  23.196  1.00  0.00     0.048 A 
ATOM     20  C   UNL A   1      31.150  27.713  25.241  1.00  0.00     0.063 A 
ATOM     21  C   UNL A   1      29.610  27.831  22.919  1.00  0.00     0.030 A 
ATOM     22  C   UNL A   1      29.403  26.831  23.874  1.00  0.00     0.045 A 
BRANCH  18  23
ATOM     23  O   UNL A   1      31.554  30.064  24.928  1.00  0.00    -0.494 OA
BRANCH  23  24
ATOM     24  C   UNL A   1      32.643  29.851  25.859  1.00  0.00     0.226 C 
ATOM     25  C   UNL A   1      32.536  30.690  27.133  1.00  0.00     0.049 C 
ENDBRANCH  23  24
ENDBRANCH  18  23
BRANCH  22  26
ATOM     26  N   UNL A   1      28.114  26.324  23.966  1.00  0.00    -0.398 N 
ATOM     27  H   UNL A   1      27.778  25.704  23.279  1.00  0.00     0.156 HD
ATOM     28  H   UNL A   1      27.535  26.585  24.718  1.00  0.00     0.156 HD
ENDBRANCH  22  26
ENDBRANCH  16  17
ENDBRANCH  15  16
ENDBRANCH  10  15
ENDBRANCH   7   9
ENDBRANCH   6   7
ENDBRANCH   5   6
ENDBRANCH   4   5
ENDBRANCH   3   4
ENDBRANCH   2   3
ENDBRANCH   1   2
BRANCH   1  29
ATOM     29  O   UNL A   1      41.597  21.029  26.226  1.00  0.00    -0.377 OA
BRANCH  29  30
ATOM     30  C   UNL A   1      42.698  21.351  25.387  1.00  0.00     0.188 C 
BRANCH  30  31
ATOM     31  C   UNL A   1      44.155  21.096  25.833  1.00  0.00     0.188 C 
BRANCH  31  32
ATOM     32  O   UNL A   1      44.879  22.244  26.240  1.00  0.00    -0.376 OA
BRANCH  32  33
ATOM     33  C   UNL A   1      44.205  23.334  26.843  1.00  0.00     0.202 C 
BRANCH  33  34
ATOM     34  C   UNL A   1      44.624  24.762  26.460  1.00  0.00     0.261 C 
BRANCH  34  35
ATOM     35  O   UNL A   1      46.031  25.009  26.383  1.00  0.00    -0.460 OA
BRANCH  35  36
ATOM     36  C   UNL A   1      46.434  26.045  25.621  1.00  0.00     0.338 C 
ATOM     37  O   UNL A   1      46.787  26.008  24.453  1.00  0.00    -0.246 OA
BRANCH  36  38
ATOM     38  C   UNL A   1      46.179  27.280  26.387  1.00  0.00     0.060 A 
ATOM     39  C   UNL A   1      45.308  28.242  25.857  1.00  0.00     0.016 A 
ATOM     40  C   UNL A   1      46.782  27.473  27.632  1.00  0.00     0.016 A 
ATOM     41  C   UNL A   1      45.071  29.423  26.554  1.00  0.00     0.010 A 
ATOM     42  C   UNL A   1      46.569  28.670  28.315  1.00  0.00     0.010 A 
ATOM     43  C   UNL A   1      45.745  29.664  27.757  1.00  0.00    -0.014 A 
BRANCH  43  44
ATOM     44  C   UNL A   1      45.790  31.041  28.298  1.00  0.00     0.031 A 
ATOM     45  C   UNL A   1      44.720  31.438  29.280  1.00  0.00     0.074 A 
ATOM     46  C   UNL A   1      46.760  31.902  27.953  1.00  0.00     0.049 A 
ATOM     47  N   UNL A   1      44.502  32.594  29.848  1.00  0.00    -0.248 NA
ATOM     48  C   UNL A   1      43.767  30.384  29.670  1.00  0.00     0.031 C 
ATOM     49  C   UNL A   1      47.874  31.607  27.054  1.00  0.00     0.029 A 
ATOM     50  N   UNL A   1      46.955  33.211  28.314  1.00  0.00    -0.354 N 
ATOM     51  C   UNL A   1      43.383  32.411  30.651  1.00  0.00     0.074 A 
ATOM     52  C   UNL A   1      42.949  31.043  30.476  1.00  0.00     0.031 C 
ATOM     53  C   UNL A   1      48.628  32.712  26.919  1.00  0.00     0.029 A 
ATOM     54  C   UNL A   1      48.030  33.800  27.693  1.00  0.00     0.049 A 
ATOM     55  H   UNL A   1      46.379  33.683  28.958  1.00  0.00     0.167 HD
ATOM     56  C   UNL A   1      42.776  33.304  31.467  1.00  0.00     0.037 A 
ATOM     57  C   UNL A   1      48.458  35.078  27.726  1.00  0.00     0.037 A 
ATOM     58  C   UNL A   1      43.215  34.664  31.629  1.00  0.00     0.049 A 
ATOM     59  C   UNL A   1      47.719  36.076  28.581  1.00  0.00     0.074 A 
ATOM     60  C   UNL A   1      42.680  35.650  32.437  1.00  0.00     0.029 A 
ATOM     61  N   UNL A   1      44.290  35.233  30.960  1.00  0.00    -0.354 N 
ATOM     62  N   UNL A   1      46.671  35.891  29.351  1.00  0.00    -0.248 NA
ATOM     63  C   UNL A   1      48.220  37.458  28.575  1.00  0.00     0.031 C 
ATOM     64  C   UNL A   1      43.392  36.831  32.212  1.00  0.00     0.029 A 
ATOM     65  C   UNL A   1      44.416  36.565  31.315  1.00  0.00     0.049 A 
ATOM     66  H   UNL A   1      44.876  34.760  30.327  1.00  0.00     0.167 HD
ATOM     67  C   UNL A   1      46.410  37.123  29.945  1.00  0.00     0.074 A 
ATOM     68  C   UNL A   1      47.416  38.042  29.452  1.00  0.00     0.031 C 
ATOM     69  C   UNL A   1      45.431  37.463  30.821  1.00  0.00     0.037 A 
BRANCH  56  70
ATOM     70  C   UNL A   1      41.553  32.846  32.214  1.00  0.00     0.058 A 
ATOM     71  C   UNL A   1      41.631  32.297  33.504  1.00  0.00     0.135 A 
ATOM     72  C   UNL A   1      40.280  32.980  31.636  1.00  0.00     0.135 A 
ATOM     73  F   UNL A   1      42.823  32.123  34.095  1.00  0.00    -0.206 F 
ATOM     74  C   UNL A   1      40.493  31.876  34.184  1.00  0.00     0.059 A 
ATOM     75  C   UNL A   1      39.126  32.595  32.311  1.00  0.00     0.059 A 
ATOM     76  F   UNL A   1      40.148  33.490  30.402  1.00  0.00    -0.206 F 
ATOM     77  C   UNL A   1      39.244  32.031  33.580  1.00  0.00     0.060 A 
BRANCH  77  78
ATOM     78  S   UNL A   1      37.778  31.489  34.481  1.00  0.00     0.124 S 
ATOM     79  O   UNL A   1      38.160  30.136  34.874  1.00  0.00    -0.237 OA
ATOM     80  O   UNL A   1      37.700  32.465  35.564  1.00  0.00    -0.237 OA
ATOM     81  O   UNL A   1      36.715  31.575  33.485  1.00  0.00    -0.744 OA
ENDBRANCH  77  78
ENDBRANCH  56  70
BRANCH  57  82
ATOM     82  C   UNL A   1      49.635  35.491  26.915  1.00  0.00     0.058 A 
ATOM     83  C   UNL A   1      50.912  35.587  27.484  1.00  0.00     0.135 A 
ATOM     84  C   UNL A   1      49.504  35.803  25.551  1.00  0.00     0.135 A 
ATOM     85  F   UNL A   1      51.090  35.312  28.786  1.00  0.00    -0.206 F 
ATOM     86  C   UNL A   1      52.015  35.993  26.739  1.00  0.00     0.059 A 
ATOM     87  C   UNL A   1      50.596  36.182  24.778  1.00  0.00     0.059 A 
ATOM     88  F   UNL A   1      48.305  35.720  24.954  1.00  0.00    -0.206 F 
ATOM     89  C   UNL A   1      51.847  36.285  25.384  1.00  0.00     0.060 A 
BRANCH  89  90
ATOM     90  S   UNL A   1      53.295  36.768  24.418  1.00  0.00     0.124 S 
ATOM     91  O   UNL A   1      54.375  36.158  25.184  1.00  0.00    -0.237 OA
ATOM     92  O   UNL A   1      53.009  36.162  23.122  1.00  0.00    -0.237 OA
ATOM     93  O   UNL A   1      53.246  38.227  24.448  1.00  0.00    -0.744 OA
ENDBRANCH  89  90
ENDBRANCH  57  82
BRANCH  69  94
ATOM     94  C   UNL A   1      45.421  38.876  31.344  1.00  0.00     0.058 A 
ATOM     95  C   UNL A   1      46.219  39.273  32.428  1.00  0.00     0.135 A 
ATOM     96  C   UNL A   1      44.645  39.859  30.708  1.00  0.00     0.135 A 
ATOM     97  F   UNL A   1      46.978  38.375  33.075  1.00  0.00    -0.206 F 
ATOM     98  C   UNL A   1      46.229  40.590  32.878  1.00  0.00     0.059 A 
ATOM     99  C   UNL A   1      44.665  41.187  31.120  1.00  0.00     0.059 A 
ATOM    100  F   UNL A   1      43.873  39.537  29.657  1.00  0.00    -0.206 F 
ATOM    101  C   UNL A   1      45.451  41.541  32.215  1.00  0.00     0.060 A 
BRANCH 101 102
ATOM    102  S   UNL A   1      45.500  43.252  32.789  1.00  0.00     0.124 S 
ATOM    103  O   UNL A   1      44.894  43.956  31.664  1.00  0.00    -0.237 OA
ATOM    104  O   UNL A   1      44.701  43.194  34.008  1.00  0.00    -0.237 OA
ATOM    105  O   UNL A   1      46.925  43.502  32.991  1.00  0.00    -0.744 OA
ENDBRANCH 101 102
ENDBRANCH  69  94
ENDBRANCH  43  44
ENDBRANCH  36  38
ENDBRANCH  35  36
ENDBRANCH  34  35
ENDBRANCH  33  34
ENDBRANCH  32  33
ENDBRANCH  31  32
ENDBRANCH  30  31
ENDBRANCH  29  30
ENDBRANCH   1  29
TORSDOF 29
ENDMDL
