MODEL 1
REMARK VINA RESULT:      -6.9      0.000      0.000
REMARK SMILES O=C(CCN1C(=O)[C@@H]2[C@@H](C1=O)[C@H]1c3ccccc3[C@]2(Br)c2ccccc21)OCCOCCOCCOCCOC(=O)c1ccc(-c2c3nc(c(-c4c(F)cc(S(=O)(=O)[O-])cc4F)c4ccc([nH]4)c(-c4c(F)cc(S(=O)(=O)[O-])cc4F)c4nc(c(-c5c(F)cc(S(=O)(=O)[O-])cc5F)c5ccc2[nH]5)C=C4)C=C3)cc1
REMARK SMILES IDX 34 1 33 2 32 3 31 4 30 5 29 6 28 7 27 8 2 9 1 10 3 11 4 12
REMARK SMILES IDX 5 13 6 14 10 15 7 16 8 17 9 18 11 19 19 20 12 21 21 22 20 23
REMARK SMILES IDX 18 24 26 25 13 26 22 27 17 28 25 29 14 30 23 31 16 32 24 33
REMARK SMILES IDX 15 34 35 35 36 36 37 37 38 38 39 39 40 40 41 41 42 42 43 43
REMARK SMILES IDX 107 44 44 45 106 46 45 47 46 48 47 49 100 50 48 51 105 52
REMARK SMILES IDX 99 53 101 54 49 55 104 56 98 57 97 58 50 60 84 61 63 62
REMARK SMILES IDX 83 63 64 64 67 65 82 66 102 67 65 68 66 69 81 71 103 72
REMARK SMILES IDX 68 73 51 74 52 75 61 76 53 77 54 78 60 79 62 80 55 81 56 82
REMARK SMILES IDX 57 83 58 84 59 85 85 86 86 87 95 88 87 89 88 90 94 91 96 92
REMARK SMILES IDX 89 93 90 94 91 95 92 96 93 97 69 98 70 99 79 100 71 101
REMARK SMILES IDX 72 102 78 103 80 104 73 105 74 106 75 107 76 108 77 109
REMARK H PARENT 101 59 67 70
REMARK Flexibility Score: inf
ROOT
ATOM      1  C   UNL A   1      38.497  34.602  35.811  1.00  0.00     0.188 C 
ENDROOT
BRANCH   1   2
ATOM      2  O   UNL A   1      38.016  35.022  34.550  1.00  0.00    -0.377 OA
BRANCH   2   3
ATOM      3  C   UNL A   1      36.841  34.417  34.039  1.00  0.00     0.188 C 
BRANCH   3   4
ATOM      4  C   UNL A   1      36.712  34.318  32.511  1.00  0.00     0.188 C 
BRANCH   4   5
ATOM      5  O   UNL A   1      36.232  33.097  31.962  1.00  0.00    -0.376 OA
BRANCH   5   6
ATOM      6  C   UNL A   1      34.920  32.977  31.442  1.00  0.00     0.202 C 
BRANCH   6   7
ATOM      7  C   UNL A   1      34.712  33.118  29.948  1.00  0.00     0.261 C 
BRANCH   7   8
ATOM      8  O   UNL A   1      34.051  32.027  29.266  1.00  0.00    -0.463 OA
BRANCH   8   9
ATOM      9  C   UNL A   1      34.167  31.546  28.010  1.00  0.00     0.307 C 
ATOM     10  O   UNL A   1      33.184  31.556  27.266  1.00  0.00    -0.252 OA
BRANCH   9  11
ATOM     11  C   UNL A   1      35.424  30.844  27.562  1.00  0.00     0.144 C 
BRANCH  11  12
ATOM     12  C   UNL A   1      35.870  29.639  28.396  1.00  0.00     0.140 C 
BRANCH  12  13
ATOM     13  N   UNL A   1      37.062  29.862  29.203  1.00  0.00    -0.281 N 
ATOM     14  C   UNL A   1      37.124  29.862  30.595  1.00  0.00     0.235 C 
ATOM     15  C   UNL A   1      38.314  29.843  28.645  1.00  0.00     0.234 C 
ATOM     16  O   UNL A   1      36.226  29.593  31.370  1.00  0.00    -0.274 OA
ATOM     17  C   UNL A   1      38.445  30.506  30.919  1.00  0.00     0.118 C 
ATOM     18  C   UNL A   1      39.285  30.039  29.742  1.00  0.00     0.105 C 
ATOM     19  O   UNL A   1      38.597  29.532  27.502  1.00  0.00    -0.274 OA
ATOM     20  C   UNL A   1      39.430  30.512  32.128  1.00  0.00     0.088 C 
ATOM     21  C   UNL A   1      40.602  30.861  29.762  1.00  0.00     0.063 C 
ATOM     22  C   UNL A   1      40.004  31.952  31.953  1.00  0.00    -0.022 A 
ATOM     23  Br  UNL A   1      38.517  30.224  33.790  1.00  0.00    -0.074 Br
ATOM     24  C   UNL A   1      40.691  29.604  31.900  1.00  0.00    -0.022 A 
ATOM     25  C   UNL A   1      40.542  32.152  30.628  1.00  0.00    -0.035 A 
ATOM     26  C   UNL A   1      41.382  29.895  30.658  1.00  0.00    -0.035 A 
ATOM     27  C   UNL A   1      40.066  32.971  32.901  1.00  0.00     0.006 A 
ATOM     28  C   UNL A   1      41.191  28.581  32.688  1.00  0.00     0.006 A 
ATOM     29  C   UNL A   1      41.113  33.374  30.289  1.00  0.00     0.005 A 
ATOM     30  C   UNL A   1      42.526  29.230  30.247  1.00  0.00     0.005 A 
ATOM     31  C   UNL A   1      40.644  34.189  32.543  1.00  0.00     0.000 A 
ATOM     32  C   UNL A   1      42.333  27.884  32.254  1.00  0.00     0.000 A 
ATOM     33  C   UNL A   1      41.153  34.390  31.253  1.00  0.00     0.000 A 
ATOM     34  C   UNL A   1      42.998  28.212  31.059  1.00  0.00     0.000 A 
ENDBRANCH  12  13
ENDBRANCH  11  12
ENDBRANCH   9  11
ENDBRANCH   8   9
ENDBRANCH   7   8
ENDBRANCH   6   7
ENDBRANCH   5   6
ENDBRANCH   4   5
ENDBRANCH   3   4
ENDBRANCH   2   3
ENDBRANCH   1   2
BRANCH   1  35
ATOM     35  C   UNL A   1      37.699  33.484  36.518  1.00  0.00     0.188 C 
BRANCH  35  36
ATOM     36  O   UNL A   1      38.275  32.710  37.562  1.00  0.00    -0.376 OA
BRANCH  36  37
ATOM     37  C   UNL A   1      38.332  33.224  38.882  1.00  0.00     0.202 C 
BRANCH  37  38
ATOM     38  C   UNL A   1      39.515  34.122  39.271  1.00  0.00     0.261 C 
BRANCH  38  39
ATOM     39  O   UNL A   1      40.713  33.935  38.495  1.00  0.00    -0.460 OA
BRANCH  39  40
ATOM     40  C   UNL A   1      41.603  33.030  38.972  1.00  0.00     0.338 C 
ATOM     41  O   UNL A   1      41.767  32.714  40.141  1.00  0.00    -0.246 OA
BRANCH  40  42
ATOM     42  C   UNL A   1      42.229  32.295  37.843  1.00  0.00     0.060 A 
ATOM     43  C   UNL A   1      41.469  31.662  36.855  1.00  0.00     0.016 A 
ATOM     44  C   UNL A   1      43.628  32.210  37.808  1.00  0.00     0.016 A 
ATOM     45  C   UNL A   1      42.115  30.987  35.807  1.00  0.00     0.010 A 
ATOM     46  C   UNL A   1      44.269  31.518  36.776  1.00  0.00     0.010 A 
ATOM     47  C   UNL A   1      43.519  30.927  35.749  1.00  0.00    -0.014 A 
BRANCH  47  48
ATOM     48  C   UNL A   1      44.209  30.481  34.511  1.00  0.00     0.031 A 
ATOM     49  C   UNL A   1      44.749  29.092  34.329  1.00  0.00     0.074 A 
ATOM     50  C   UNL A   1      44.369  31.398  33.537  1.00  0.00     0.049 A 
ATOM     51  N   UNL A   1      45.348  28.579  33.284  1.00  0.00    -0.248 NA
ATOM     52  C   UNL A   1      44.604  28.160  35.456  1.00  0.00     0.031 C 
ATOM     53  C   UNL A   1      43.907  32.787  33.613  1.00  0.00     0.029 A 
ATOM     54  N   UNL A   1      44.959  31.311  32.303  1.00  0.00    -0.354 N 
ATOM     55  C   UNL A   1      45.621  27.255  33.605  1.00  0.00     0.074 A 
ATOM     56  C   UNL A   1      45.168  27.059  34.969  1.00  0.00     0.031 C 
ATOM     57  C   UNL A   1      44.217  33.417  32.470  1.00  0.00     0.029 A 
ATOM     58  C   UNL A   1      44.910  32.484  31.588  1.00  0.00     0.049 A 
ATOM     59  H   UNL A   1      45.376  30.487  31.960  1.00  0.00     0.167 HD
ATOM     60  C   UNL A   1      46.172  26.293  32.823  1.00  0.00     0.037 A 
ATOM     61  C   UNL A   1      45.364  32.778  30.355  1.00  0.00     0.037 A 
ATOM     62  C   UNL A   1      46.637  26.501  31.470  1.00  0.00     0.049 A 
ATOM     63  C   UNL A   1      46.019  31.702  29.537  1.00  0.00     0.074 A 
ATOM     64  C   UNL A   1      47.201  25.580  30.601  1.00  0.00     0.029 A 
ATOM     65  N   UNL A   1      46.595  27.708  30.785  1.00  0.00    -0.354 N 
ATOM     66  N   UNL A   1      46.225  30.444  29.842  1.00  0.00    -0.248 NA
ATOM     67  C   UNL A   1      46.488  32.085  28.199  1.00  0.00     0.031 C 
ATOM     68  C   UNL A   1      47.530  26.233  29.409  1.00  0.00     0.029 A 
ATOM     69  C   UNL A   1      47.129  27.554  29.514  1.00  0.00     0.049 A 
ATOM     70  H   UNL A   1      46.238  28.551  31.149  1.00  0.00     0.167 HD
ATOM     71  C   UNL A   1      46.812  29.875  28.717  1.00  0.00     0.074 A 
ATOM     72  C   UNL A   1      46.916  30.924  27.723  1.00  0.00     0.031 C 
ATOM     73  C   UNL A   1      47.223  28.598  28.524  1.00  0.00     0.037 A 
BRANCH  60  74
ATOM     74  C   UNL A   1      46.278  24.895  33.373  1.00  0.00     0.058 A 
ATOM     75  C   UNL A   1      47.421  24.484  34.077  1.00  0.00     0.135 A 
ATOM     76  C   UNL A   1      45.185  24.014  33.330  1.00  0.00     0.135 A 
ATOM     77  F   UNL A   1      48.499  25.281  34.139  1.00  0.00    -0.206 F 
ATOM     78  C   UNL A   1      47.473  23.254  34.726  1.00  0.00     0.059 A 
ATOM     79  C   UNL A   1      45.207  22.788  33.992  1.00  0.00     0.059 A 
ATOM     80  F   UNL A   1      44.066  24.356  32.672  1.00  0.00    -0.206 F 
ATOM     81  C   UNL A   1      46.356  22.419  34.689  1.00  0.00     0.060 A 
BRANCH  81  82
ATOM     82  S   UNL A   1      46.421  20.855  35.591  1.00  0.00     0.124 S 
ATOM     83  O   UNL A   1      46.124  21.294  36.950  1.00  0.00    -0.237 OA
ATOM     84  O   UNL A   1      45.378  20.075  34.932  1.00  0.00    -0.237 OA
ATOM     85  O   UNL A   1      47.787  20.391  35.368  1.00  0.00    -0.744 OA
ENDBRANCH  81  82
ENDBRANCH  60  74
BRANCH  61  86
ATOM     86  C   UNL A   1      45.169  34.140  29.797  1.00  0.00     0.058 A 
ATOM     87  C   UNL A   1      45.958  35.212  30.238  1.00  0.00     0.135 A 
ATOM     88  C   UNL A   1      44.187  34.400  28.829  1.00  0.00     0.135 A 
ATOM     89  F   UNL A   1      46.910  35.009  31.161  1.00  0.00    -0.206 F 
ATOM     90  C   UNL A   1      45.755  36.504  29.768  1.00  0.00     0.059 A 
ATOM     91  C   UNL A   1      43.985  35.678  28.323  1.00  0.00     0.059 A 
ATOM     92  F   UNL A   1      43.424  33.401  28.358  1.00  0.00    -0.206 F 
ATOM     93  C   UNL A   1      44.763  36.727  28.813  1.00  0.00     0.060 A 
BRANCH  93  94
ATOM     94  S   UNL A   1      44.511  38.409  28.209  1.00  0.00     0.124 S 
ATOM     95  O   UNL A   1      44.115  38.167  26.826  1.00  0.00    -0.237 OA
ATOM     96  O   UNL A   1      43.462  38.900  29.098  1.00  0.00    -0.237 OA
ATOM     97  O   UNL A   1      45.819  39.030  28.392  1.00  0.00    -0.744 OA
ENDBRANCH  93  94
ENDBRANCH  61  86
BRANCH  73  98
ATOM     98  C   UNL A   1      47.785  28.254  27.171  1.00  0.00     0.058 A 
ATOM     99  C   UNL A   1      46.964  27.824  26.116  1.00  0.00     0.135 A 
ATOM    100  C   UNL A   1      49.163  28.361  26.924  1.00  0.00     0.135 A 
ATOM    101  F   UNL A   1      45.640  27.696  26.298  1.00  0.00    -0.206 F 
ATOM    102  C   UNL A   1      47.494  27.473  24.878  1.00  0.00     0.059 A 
ATOM    103  C   UNL A   1      49.711  28.045  25.684  1.00  0.00     0.059 A 
ATOM    104  F   UNL A   1      49.993  28.777  27.893  1.00  0.00    -0.206 F 
ATOM    105  C   UNL A   1      48.870  27.584  24.672  1.00  0.00     0.060 A 
BRANCH 105 106
ATOM    106  S   UNL A   1      49.543  27.125  23.061  1.00  0.00     0.124 S 
ATOM    107  O   UNL A   1      48.615  26.080  22.641  1.00  0.00    -0.237 OA
ATOM    108  O   UNL A   1      49.462  28.380  22.321  1.00  0.00    -0.237 OA
ATOM    109  O   UNL A   1      50.897  26.675  23.373  1.00  0.00    -0.744 OA
ENDBRANCH 105 106
ENDBRANCH  73  98
ENDBRANCH  47  48
ENDBRANCH  40  42
ENDBRANCH  39  40
ENDBRANCH  38  39
ENDBRANCH  37  38
ENDBRANCH  36  37
ENDBRANCH  35  36
ENDBRANCH   1  35
TORSDOF 25
ENDMDL
MODEL 2
REMARK VINA RESULT:      -6.8      5.081     10.479
REMARK SMILES O=C(CCN1C(=O)[C@@H]2[C@@H](C1=O)[C@H]1c3ccccc3[C@]2(Br)c2ccccc21)OCCOCCOCCOCCOC(=O)c1ccc(-c2c3nc(c(-c4c(F)cc(S(=O)(=O)[O-])cc4F)c4ccc([nH]4)c(-c4c(F)cc(S(=O)(=O)[O-])cc4F)c4nc(c(-c5c(F)cc(S(=O)(=O)[O-])cc5F)c5ccc2[nH]5)C=C4)C=C3)cc1
REMARK SMILES IDX 34 1 33 2 32 3 31 4 30 5 29 6 28 7 27 8 2 9 1 10 3 11 4 12
REMARK SMILES IDX 5 13 6 14 10 15 7 16 8 17 9 18 11 19 19 20 12 21 21 22 20 23
REMARK SMILES IDX 18 24 26 25 13 26 22 27 17 28 25 29 14 30 23 31 16 32 24 33
REMARK SMILES IDX 15 34 35 35 36 36 37 37 38 38 39 39 40 40 41 41 42 42 43 43
REMARK SMILES IDX 107 44 44 45 106 46 45 47 46 48 47 49 100 50 48 51 105 52
REMARK SMILES IDX 99 53 101 54 49 55 104 56 98 57 97 58 50 60 84 61 63 62
REMARK SMILES IDX 83 63 64 64 67 65 82 66 102 67 65 68 66 69 81 71 103 72
REMARK SMILES IDX 68 73 51 74 52 75 61 76 53 77 54 78 60 79 62 80 55 81 56 82
REMARK SMILES IDX 57 83 58 84 59 85 85 86 86 87 95 88 87 89 88 90 94 91 96 92
REMARK SMILES IDX 89 93 90 94 91 95 92 96 93 97 69 98 70 99 79 100 71 101
REMARK SMILES IDX 72 102 78 103 80 104 73 105 74 106 75 107 76 108 77 109
REMARK H PARENT 101 59 67 70
REMARK Flexibility Score: inf
ROOT
ATOM      1  C   UNL A   1      36.964  29.270  29.785  1.00  0.00     0.188 C 
ENDROOT
BRANCH   1   2
ATOM      2  O   UNL A   1      36.574  29.326  31.142  1.00  0.00    -0.377 OA
BRANCH   2   3
ATOM      3  C   UNL A   1      37.131  30.337  31.964  1.00  0.00     0.188 C 
BRANCH   3   4
ATOM      4  C   UNL A   1      36.837  31.794  31.578  1.00  0.00     0.188 C 
BRANCH   4   5
ATOM      5  O   UNL A   1      35.490  32.246  31.662  1.00  0.00    -0.376 OA
BRANCH   5   6
ATOM      6  C   UNL A   1      34.797  32.743  30.531  1.00  0.00     0.202 C 
BRANCH   6   7
ATOM      7  C   UNL A   1      35.554  32.917  29.230  1.00  0.00     0.261 C 
BRANCH   7   8
ATOM      8  O   UNL A   1      34.903  32.467  28.020  1.00  0.00    -0.463 OA
BRANCH   8   9
ATOM      9  C   UNL A   1      33.608  32.468  27.639  1.00  0.00     0.307 C 
ATOM     10  O   UNL A   1      32.942  33.497  27.766  1.00  0.00    -0.252 OA
BRANCH   9  11
ATOM     11  C   UNL A   1      32.920  31.191  27.226  1.00  0.00     0.144 C 
BRANCH  11  12
ATOM     12  C   UNL A   1      33.418  29.901  27.885  1.00  0.00     0.140 C 
BRANCH  12  13
ATOM     13  N   UNL A   1      33.209  28.693  27.099  1.00  0.00    -0.281 N 
ATOM     14  C   UNL A   1      32.063  27.900  27.100  1.00  0.00     0.235 C 
ATOM     15  C   UNL A   1      34.050  28.357  26.070  1.00  0.00     0.234 C 
ATOM     16  O   UNL A   1      31.017  28.122  27.681  1.00  0.00    -0.274 OA
ATOM     17  C   UNL A   1      32.488  26.612  26.448  1.00  0.00     0.118 C 
ATOM     18  C   UNL A   1      33.518  27.123  25.455  1.00  0.00     0.105 C 
ATOM     19  O   UNL A   1      34.952  29.038  25.616  1.00  0.00    -0.274 OA
ATOM     20  C   UNL A   1      31.780  25.434  25.711  1.00  0.00     0.088 C 
ATOM     21  C   UNL A   1      34.278  25.886  24.903  1.00  0.00     0.063 C 
ATOM     22  C   UNL A   1      32.756  24.286  26.117  1.00  0.00    -0.022 A 
ATOM     23  Br  UNL A   1      29.979  25.191  26.325  1.00  0.00    -0.074 Br
ATOM     24  C   UNL A   1      31.945  25.496  24.151  1.00  0.00    -0.022 A 
ATOM     25  C   UNL A   1      34.121  24.598  25.761  1.00  0.00    -0.035 A 
ATOM     26  C   UNL A   1      33.327  25.623  23.731  1.00  0.00    -0.035 A 
ATOM     27  C   UNL A   1      32.444  23.069  26.717  1.00  0.00     0.006 A 
ATOM     28  C   UNL A   1      30.974  25.476  23.164  1.00  0.00     0.006 A 
ATOM     29  C   UNL A   1      35.134  23.685  26.032  1.00  0.00     0.005 A 
ATOM     30  C   UNL A   1      33.720  25.687  22.404  1.00  0.00     0.005 A 
ATOM     31  C   UNL A   1      33.474  22.164  26.979  1.00  0.00     0.000 A 
ATOM     32  C   UNL A   1      31.371  25.574  21.818  1.00  0.00     0.000 A 
ATOM     33  C   UNL A   1      34.800  22.471  26.648  1.00  0.00     0.000 A 
ATOM     34  C   UNL A   1      32.723  25.665  21.443  1.00  0.00     0.000 A 
ENDBRANCH  12  13
ENDBRANCH  11  12
ENDBRANCH   9  11
ENDBRANCH   8   9
ENDBRANCH   7   8
ENDBRANCH   6   7
ENDBRANCH   5   6
ENDBRANCH   4   5
ENDBRANCH   3   4
ENDBRANCH   2   3
ENDBRANCH   1   2
BRANCH   1  35
ATOM     35  C   UNL A   1      38.459  28.996  29.505  1.00  0.00     0.188 C 
BRANCH  35  36
ATOM     36  O   UNL A   1      38.870  27.947  28.638  1.00  0.00    -0.376 OA
BRANCH  36  37
ATOM     37  C   UNL A   1      39.117  26.650  29.156  1.00  0.00     0.202 C 
BRANCH  37  38
ATOM     38  C   UNL A   1      40.106  25.739  28.416  1.00  0.00     0.261 C 
BRANCH  38  39
ATOM     39  O   UNL A   1      40.600  26.250  27.165  1.00  0.00    -0.460 OA
BRANCH  39  40
ATOM     40  C   UNL A   1      41.948  26.269  27.015  1.00  0.00     0.338 C 
ATOM     41  O   UNL A   1      42.636  25.405  26.491  1.00  0.00    -0.246 OA
BRANCH  40  42
ATOM     42  C   UNL A   1      42.478  27.604  27.390  1.00  0.00     0.060 A 
ATOM     43  C   UNL A   1      42.113  28.769  26.707  1.00  0.00     0.016 A 
ATOM     44  C   UNL A   1      43.405  27.674  28.440  1.00  0.00     0.016 A 
ATOM     45  C   UNL A   1      42.640  30.006  27.111  1.00  0.00     0.010 A 
ATOM     46  C   UNL A   1      43.947  28.904  28.825  1.00  0.00     0.010 A 
ATOM     47  C   UNL A   1      43.545  30.085  28.184  1.00  0.00    -0.014 A 
BRANCH  47  48
ATOM     48  C   UNL A   1      43.877  31.394  28.803  1.00  0.00     0.031 A 
ATOM     49  C   UNL A   1      43.048  32.022  29.886  1.00  0.00     0.074 A 
ATOM     50  C   UNL A   1      44.960  32.038  28.325  1.00  0.00     0.049 A 
ATOM     51  N   UNL A   1      43.251  33.149  30.521  1.00  0.00    -0.248 NA
ATOM     52  C   UNL A   1      41.840  31.301  30.312  1.00  0.00     0.031 C 
ATOM     53  C   UNL A   1      45.828  31.537  27.256  1.00  0.00     0.029 A 
ATOM     54  N   UNL A   1      45.517  33.243  28.667  1.00  0.00    -0.354 N 
ATOM     55  C   UNL A   1      42.222  33.262  31.448  1.00  0.00     0.074 A 
ATOM     56  C   UNL A   1      41.364  32.109  31.255  1.00  0.00     0.031 C 
ATOM     57  C   UNL A   1      46.815  32.418  27.040  1.00  0.00     0.029 A 
ATOM     58  C   UNL A   1      46.644  33.551  27.943  1.00  0.00     0.049 A 
ATOM     59  H   UNL A   1      45.148  33.830  29.366  1.00  0.00     0.167 HD
ATOM     60  C   UNL A   1      42.034  34.224  32.387  1.00  0.00     0.037 A 
ATOM     61  C   UNL A   1      47.457  34.622  28.002  1.00  0.00     0.037 A 
ATOM     62  C   UNL A   1      42.886  35.379  32.561  1.00  0.00     0.049 A 
ATOM     63  C   UNL A   1      47.188  35.696  29.016  1.00  0.00     0.074 A 
ATOM     64  C   UNL A   1      42.774  36.399  33.493  1.00  0.00     0.029 A 
ATOM     65  N   UNL A   1      44.005  35.672  31.793  1.00  0.00    -0.354 N 
ATOM     66  N   UNL A   1      46.236  35.760  29.916  1.00  0.00    -0.248 NA
ATOM     67  C   UNL A   1      48.115  36.835  29.033  1.00  0.00     0.031 C 
ATOM     68  C   UNL A   1      43.799  37.323  33.268  1.00  0.00     0.029 A 
ATOM     69  C   UNL A   1      44.582  36.858  32.225  1.00  0.00     0.049 A 
ATOM     70  H   UNL A   1      44.340  35.120  31.050  1.00  0.00     0.167 HD
ATOM     71  C   UNL A   1      46.475  36.927  30.633  1.00  0.00     0.074 A 
ATOM     72  C   UNL A   1      47.665  37.530  30.069  1.00  0.00     0.031 C 
ATOM     73  C   UNL A   1      45.772  37.450  31.668  1.00  0.00     0.037 A 
BRANCH  60  74
ATOM     74  C   UNL A   1      40.885  34.072  33.348  1.00  0.00     0.058 A 
ATOM     75  C   UNL A   1      39.575  34.388  32.957  1.00  0.00     0.135 A 
ATOM     76  C   UNL A   1      41.066  33.471  34.605  1.00  0.00     0.135 A 
ATOM     77  F   UNL A   1      39.346  34.974  31.772  1.00  0.00    -0.206 F 
ATOM     78  C   UNL A   1      38.483  34.107  33.774  1.00  0.00     0.059 A 
ATOM     79  C   UNL A   1      39.986  33.161  35.429  1.00  0.00     0.059 A 
ATOM     80  F   UNL A   1      42.298  33.147  35.029  1.00  0.00    -0.206 F 
ATOM     81  C   UNL A   1      38.698  33.481  35.003  1.00  0.00     0.060 A 
BRANCH  81  82
ATOM     82  S   UNL A   1      37.264  33.067  36.020  1.00  0.00     0.124 S 
ATOM     83  O   UNL A   1      36.167  33.481  35.152  1.00  0.00    -0.237 OA
ATOM     84  O   UNL A   1      37.421  31.628  36.204  1.00  0.00    -0.237 OA
ATOM     85  O   UNL A   1      37.453  33.878  37.219  1.00  0.00    -0.744 OA
ENDBRANCH  81  82
ENDBRANCH  60  74
BRANCH  61  86
ATOM     86  C   UNL A   1      48.638  34.709  27.104  1.00  0.00     0.058 A 
ATOM     87  C   UNL A   1      48.528  35.292  25.834  1.00  0.00     0.135 A 
ATOM     88  C   UNL A   1      49.887  34.200  27.489  1.00  0.00     0.135 A 
ATOM     89  F   UNL A   1      47.351  35.792  25.426  1.00  0.00    -0.206 F 
ATOM     90  C   UNL A   1      49.606  35.335  24.958  1.00  0.00     0.059 A 
ATOM     91  C   UNL A   1      50.987  34.257  26.641  1.00  0.00     0.059 A 
ATOM     92  F   UNL A   1      50.048  33.654  28.704  1.00  0.00    -0.206 F 
ATOM     93  C   UNL A   1      50.831  34.810  25.371  1.00  0.00     0.060 A 
BRANCH  93  94
ATOM     94  S   UNL A   1      52.224  34.873  24.225  1.00  0.00     0.124 S 
ATOM     95  O   UNL A   1      52.002  33.671  23.428  1.00  0.00    -0.237 OA
ATOM     96  O   UNL A   1      52.002  36.143  23.542  1.00  0.00    -0.237 OA
ATOM     97  O   UNL A   1      53.386  34.838  25.108  1.00  0.00    -0.744 OA
ENDBRANCH  93  94
ENDBRANCH  61  86
BRANCH  73  98
ATOM     98  C   UNL A   1      46.299  38.717  32.286  1.00  0.00     0.058 A 
ATOM     99  C   UNL A   1      45.890  39.984  31.841  1.00  0.00     0.135 A 
ATOM    100  C   UNL A   1      47.223  38.663  33.343  1.00  0.00     0.135 A 
ATOM    101  F   UNL A   1      45.015  40.096  30.829  1.00  0.00    -0.206 F 
ATOM    102  C   UNL A   1      46.409  41.152  32.393  1.00  0.00     0.059 A 
ATOM    103  C   UNL A   1      47.732  39.817  33.931  1.00  0.00     0.059 A 
ATOM    104  F   UNL A   1      47.640  37.478  33.816  1.00  0.00    -0.206 F 
ATOM    105  C   UNL A   1      47.332  41.058  33.436  1.00  0.00     0.060 A 
BRANCH 105 106
ATOM    106  S   UNL A   1      47.996  42.581  34.142  1.00  0.00     0.124 S 
ATOM    107  O   UNL A   1      47.925  43.490  33.002  1.00  0.00    -0.237 OA
ATOM    108  O   UNL A   1      47.061  42.855  35.229  1.00  0.00    -0.237 OA
ATOM    109  O   UNL A   1      49.343  42.204  34.561  1.00  0.00    -0.744 OA
ENDBRANCH 105 106
ENDBRANCH  73  98
ENDBRANCH  47  48
ENDBRANCH  40  42
ENDBRANCH  39  40
ENDBRANCH  38  39
ENDBRANCH  37  38
ENDBRANCH  36  37
ENDBRANCH  35  36
ENDBRANCH   1  35
TORSDOF 25
ENDMDL
MODEL 3
REMARK VINA RESULT:      -6.6      2.186      3.596
REMARK SMILES O=C(CCN1C(=O)[C@@H]2[C@@H](C1=O)[C@H]1c3ccccc3[C@]2(Br)c2ccccc21)OCCOCCOCCOCCOC(=O)c1ccc(-c2c3nc(c(-c4c(F)cc(S(=O)(=O)[O-])cc4F)c4ccc([nH]4)c(-c4c(F)cc(S(=O)(=O)[O-])cc4F)c4nc(c(-c5c(F)cc(S(=O)(=O)[O-])cc5F)c5ccc2[nH]5)C=C4)C=C3)cc1
REMARK SMILES IDX 34 1 33 2 32 3 31 4 30 5 29 6 28 7 27 8 2 9 1 10 3 11 4 12
REMARK SMILES IDX 5 13 6 14 10 15 7 16 8 17 9 18 11 19 19 20 12 21 21 22 20 23
REMARK SMILES IDX 18 24 26 25 13 26 22 27 17 28 25 29 14 30 23 31 16 32 24 33
REMARK SMILES IDX 15 34 35 35 36 36 37 37 38 38 39 39 40 40 41 41 42 42 43 43
REMARK SMILES IDX 107 44 44 45 106 46 45 47 46 48 47 49 100 50 48 51 105 52
REMARK SMILES IDX 99 53 101 54 49 55 104 56 98 57 97 58 50 60 84 61 63 62
REMARK SMILES IDX 83 63 64 64 67 65 82 66 102 67 65 68 66 69 81 71 103 72
REMARK SMILES IDX 68 73 51 74 52 75 61 76 53 77 54 78 60 79 62 80 55 81 56 82
REMARK SMILES IDX 57 83 58 84 59 85 85 86 86 87 95 88 87 89 88 90 94 91 96 92
REMARK SMILES IDX 89 93 90 94 91 95 92 96 93 97 69 98 70 99 79 100 71 101
REMARK SMILES IDX 72 102 78 103 80 104 73 105 74 106 75 107 76 108 77 109
REMARK H PARENT 101 59 67 70
REMARK Flexibility Score: inf
ROOT
ATOM      1  C   UNL A   1      37.257  32.063  39.182  1.00  0.00     0.188 C 
ENDROOT
BRANCH   1   2
ATOM      2  O   UNL A   1      37.062  33.130  38.276  1.00  0.00    -0.377 OA
BRANCH   2   3
ATOM      3  C   UNL A   1      37.752  33.101  37.038  1.00  0.00     0.188 C 
BRANCH   3   4
ATOM      4  C   UNL A   1      37.061  33.758  35.835  1.00  0.00     0.188 C 
BRANCH   4   5
ATOM      5  O   UNL A   1      37.866  34.508  34.933  1.00  0.00    -0.376 OA
BRANCH   5   6
ATOM      6  C   UNL A   1      37.704  34.410  33.529  1.00  0.00     0.202 C 
BRANCH   6   7
ATOM      7  C   UNL A   1      37.496  33.041  32.913  1.00  0.00     0.261 C 
BRANCH   7   8
ATOM      8  O   UNL A   1      36.134  32.575  32.781  1.00  0.00    -0.463 OA
BRANCH   8   9
ATOM      9  C   UNL A   1      35.162  32.872  31.893  1.00  0.00     0.307 C 
ATOM     10  O   UNL A   1      33.984  32.851  32.255  1.00  0.00    -0.252 OA
BRANCH   9  11
ATOM     11  C   UNL A   1      35.479  33.057  30.430  1.00  0.00     0.144 C 
BRANCH  11  12
ATOM     12  C   UNL A   1      35.625  31.782  29.594  1.00  0.00     0.140 C 
BRANCH  12  13
ATOM     13  N   UNL A   1      36.839  31.019  29.849  1.00  0.00    -0.281 N 
ATOM     14  C   UNL A   1      38.135  31.396  29.505  1.00  0.00     0.235 C 
ATOM     15  C   UNL A   1      36.839  29.942  30.698  1.00  0.00     0.234 C 
ATOM     16  O   UNL A   1      38.486  32.455  29.019  1.00  0.00    -0.274 OA
ATOM     17  C   UNL A   1      38.947  30.136  29.627  1.00  0.00     0.118 C 
ATOM     18  C   UNL A   1      38.229  29.446  30.775  1.00  0.00     0.105 C 
ATOM     19  O   UNL A   1      35.920  29.576  31.409  1.00  0.00    -0.274 OA
ATOM     20  C   UNL A   1      40.451  29.778  29.832  1.00  0.00     0.088 C 
ATOM     21  C   UNL A   1      38.756  27.986  30.836  1.00  0.00     0.063 C 
ATOM     22  C   UNL A   1      40.477  28.428  29.050  1.00  0.00    -0.022 A 
ATOM     23  Br  UNL A   1      41.607  31.129  29.111  1.00  0.00    -0.074 Br
ATOM     24  C   UNL A   1      40.786  29.337  31.301  1.00  0.00    -0.022 A 
ATOM     25  C   UNL A   1      39.480  27.508  29.545  1.00  0.00    -0.035 A 
ATOM     26  C   UNL A   1      39.923  28.275  31.784  1.00  0.00    -0.035 A 
ATOM     27  C   UNL A   1      41.335  28.052  28.019  1.00  0.00     0.006 A 
ATOM     28  C   UNL A   1      41.741  29.833  32.171  1.00  0.00     0.006 A 
ATOM     29  C   UNL A   1      39.362  26.244  28.978  1.00  0.00     0.005 A 
ATOM     30  C   UNL A   1      40.034  27.716  33.047  1.00  0.00     0.005 A 
ATOM     31  C   UNL A   1      41.203  26.778  27.465  1.00  0.00     0.000 A 
ATOM     32  C   UNL A   1      41.832  29.287  33.465  1.00  0.00     0.000 A 
ATOM     33  C   UNL A   1      40.226  25.890  27.933  1.00  0.00     0.000 A 
ATOM     34  C   UNL A   1      41.000  28.237  33.891  1.00  0.00     0.000 A 
ENDBRANCH  12  13
ENDBRANCH  11  12
ENDBRANCH   9  11
ENDBRANCH   8   9
ENDBRANCH   7   8
ENDBRANCH   6   7
ENDBRANCH   5   6
ENDBRANCH   4   5
ENDBRANCH   3   4
ENDBRANCH   2   3
ENDBRANCH   1   2
BRANCH   1  35
ATOM     35  C   UNL A   1      38.102  32.369  40.439  1.00  0.00     0.188 C 
BRANCH  35  36
ATOM     36  O   UNL A   1      39.521  32.286  40.414  1.00  0.00    -0.376 OA
BRANCH  36  37
ATOM     37  C   UNL A   1      40.269  32.541  41.592  1.00  0.00     0.202 C 
BRANCH  37  38
ATOM     38  C   UNL A   1      40.732  33.978  41.872  1.00  0.00     0.261 C 
BRANCH  38  39
ATOM     39  O   UNL A   1      41.768  34.474  41.005  1.00  0.00    -0.460 OA
BRANCH  39  40
ATOM     40  C   UNL A   1      41.376  35.333  40.032  1.00  0.00     0.338 C 
ATOM     41  O   UNL A   1      40.800  36.400  40.188  1.00  0.00    -0.246 OA
BRANCH  40  42
ATOM     42  C   UNL A   1      41.934  34.903  38.725  1.00  0.00     0.060 A 
ATOM     43  C   UNL A   1      43.235  35.231  38.327  1.00  0.00     0.016 A 
ATOM     44  C   UNL A   1      41.102  34.179  37.858  1.00  0.00     0.016 A 
ATOM     45  C   UNL A   1      43.713  34.790  37.083  1.00  0.00     0.010 A 
ATOM     46  C   UNL A   1      41.573  33.762  36.609  1.00  0.00     0.010 A 
ATOM     47  C   UNL A   1      42.892  34.038  36.224  1.00  0.00    -0.014 A 
BRANCH  47  48
ATOM     48  C   UNL A   1      43.470  33.324  35.055  1.00  0.00     0.031 A 
ATOM     49  C   UNL A   1      44.080  31.956  35.150  1.00  0.00     0.074 A 
ATOM     50  C   UNL A   1      43.457  33.975  33.875  1.00  0.00     0.049 A 
ATOM     51  N   UNL A   1      44.593  31.222  34.195  1.00  0.00    -0.248 NA
ATOM     52  C   UNL A   1      44.126  31.330  36.479  1.00  0.00     0.031 C 
ATOM     53  C   UNL A   1      42.912  35.320  33.668  1.00  0.00     0.029 A 
ATOM     54  N   UNL A   1      43.911  33.606  32.636  1.00  0.00    -0.354 N 
ATOM     55  C   UNL A   1      44.992  30.032  34.791  1.00  0.00     0.074 A 
ATOM     56  C   UNL A   1      44.708  30.165  36.207  1.00  0.00     0.031 C 
ATOM     57  C   UNL A   1      43.049  35.656  32.377  1.00  0.00     0.029 A 
ATOM     58  C   UNL A   1      43.703  34.561  31.669  1.00  0.00     0.049 A 
ATOM     59  H   UNL A   1      44.343  32.740  32.454  1.00  0.00     0.167 HD
ATOM     60  C   UNL A   1      45.517  28.928  34.204  1.00  0.00     0.037 A 
ATOM     61  C   UNL A   1      43.996  34.556  30.355  1.00  0.00     0.037 A 
ATOM     62  C   UNL A   1      45.813  28.810  32.793  1.00  0.00     0.049 A 
ATOM     63  C   UNL A   1      44.628  33.336  29.748  1.00  0.00     0.074 A 
ATOM     64  C   UNL A   1      46.339  27.724  32.111  1.00  0.00     0.029 A 
ATOM     65  N   UNL A   1      45.612  29.806  31.847  1.00  0.00    -0.354 N 
ATOM     66  N   UNL A   1      44.953  32.203  30.321  1.00  0.00    -0.248 NA
ATOM     67  C   UNL A   1      44.919  33.392  28.309  1.00  0.00     0.031 C 
ATOM     68  C   UNL A   1      46.488  28.072  30.765  1.00  0.00     0.029 A 
ATOM     69  C   UNL A   1      46.012  29.361  30.595  1.00  0.00     0.049 A 
ATOM     70  H   UNL A   1      45.241  30.698  32.037  1.00  0.00     0.167 HD
ATOM     71  C   UNL A   1      45.449  31.395  29.303  1.00  0.00     0.074 A 
ATOM     72  C   UNL A   1      45.370  32.167  28.080  1.00  0.00     0.031 C 
ATOM     73  C   UNL A   1      45.923  30.127  29.377  1.00  0.00     0.037 A 
BRANCH  60  74
ATOM     74  C   UNL A   1      45.779  27.716  35.059  1.00  0.00     0.058 A 
ATOM     75  C   UNL A   1      46.933  27.634  35.854  1.00  0.00     0.135 A 
ATOM     76  C   UNL A   1      44.813  26.708  35.203  1.00  0.00     0.135 A 
ATOM     77  F   UNL A   1      47.894  28.565  35.748  1.00  0.00    -0.206 F 
ATOM     78  C   UNL A   1      47.116  26.600  36.768  1.00  0.00     0.059 A 
ATOM     79  C   UNL A   1      44.964  25.676  36.127  1.00  0.00     0.059 A 
ATOM     80  F   UNL A   1      43.689  26.737  34.468  1.00  0.00    -0.206 F 
ATOM     81  C   UNL A   1      46.120  25.632  36.906  1.00  0.00     0.060 A 
BRANCH  81  82
ATOM     82  S   UNL A   1      46.347  24.335  38.141  1.00  0.00     0.124 S 
ATOM     83  O   UNL A   1      47.287  24.972  39.058  1.00  0.00    -0.237 OA
ATOM     84  O   UNL A   1      44.991  24.149  38.648  1.00  0.00    -0.237 OA
ATOM     85  O   UNL A   1      46.887  23.220  37.368  1.00  0.00    -0.744 OA
ENDBRANCH  81  82
ENDBRANCH  60  74
BRANCH  61  86
ATOM     86  C   UNL A   1      43.647  35.727  29.511  1.00  0.00     0.058 A 
ATOM     87  C   UNL A   1      44.559  36.777  29.334  1.00  0.00     0.135 A 
ATOM     88  C   UNL A   1      42.397  35.828  28.882  1.00  0.00     0.135 A 
ATOM     89  F   UNL A   1      45.767  36.721  29.917  1.00  0.00    -0.206 F 
ATOM     90  C   UNL A   1      44.232  37.906  28.593  1.00  0.00     0.059 A 
ATOM     91  C   UNL A   1      42.058  36.934  28.112  1.00  0.00     0.059 A 
ATOM     92  F   UNL A   1      41.500  34.837  29.002  1.00  0.00    -0.206 F 
ATOM     93  C   UNL A   1      42.976  37.976  27.989  1.00  0.00     0.060 A 
BRANCH  93  94
ATOM     94  S   UNL A   1      42.564  39.447  27.028  1.00  0.00     0.124 S 
ATOM     95  O   UNL A   1      42.357  40.436  28.081  1.00  0.00    -0.237 OA
ATOM     96  O   UNL A   1      43.760  39.624  26.211  1.00  0.00    -0.237 OA
ATOM     97  O   UNL A   1      41.367  39.045  26.296  1.00  0.00    -0.744 OA
ENDBRANCH  93  94
ENDBRANCH  61  86
BRANCH  73  98
ATOM     98  C   UNL A   1      46.353  29.478  28.089  1.00  0.00     0.058 A 
ATOM     99  C   UNL A   1      47.695  29.467  27.678  1.00  0.00     0.135 A 
ATOM    100  C   UNL A   1      45.410  28.855  27.257  1.00  0.00     0.135 A 
ATOM    101  F   UNL A   1      48.639  30.055  28.431  1.00  0.00    -0.206 F 
ATOM    102  C   UNL A   1      48.081  28.897  26.468  1.00  0.00     0.059 A 
ATOM    103  C   UNL A   1      45.777  28.251  26.057  1.00  0.00     0.059 A 
ATOM    104  F   UNL A   1      44.114  28.827  27.606  1.00  0.00    -0.206 F 
ATOM    105  C   UNL A   1      47.113  28.294  25.663  1.00  0.00     0.060 A 
BRANCH 105 106
ATOM    106  S   UNL A   1      47.628  27.559  24.096  1.00  0.00     0.124 S 
ATOM    107  O   UNL A   1      46.825  28.313  23.139  1.00  0.00    -0.237 OA
ATOM    108  O   UNL A   1      49.061  27.836  24.078  1.00  0.00    -0.237 OA
ATOM    109  O   UNL A   1      47.269  26.151  24.246  1.00  0.00    -0.744 OA
ENDBRANCH 105 106
ENDBRANCH  73  98
ENDBRANCH  47  48
ENDBRANCH  40  42
ENDBRANCH  39  40
ENDBRANCH  38  39
ENDBRANCH  37  38
ENDBRANCH  36  37
ENDBRANCH  35  36
ENDBRANCH   1  35
TORSDOF 25
ENDMDL
