MODEL 1
REMARK VINA RESULT:     -10.1      0.000      0.000
REMARK SMILES Cc1nsc(NC(=O)[C@@H]2C=C[C@@H]([NH3+])C2)c1C(=O)OCCOCCOCCOCCOC(=O)c1ccc(-c2c3nc(c(-c4c(F)cc(S(=O)(=O)[O-])cc4F)c4ccc([nH]4)c(-c4c(F)cc(S(=O)(=O)[O-])cc4F)c4nc(c(-c5c(F)cc(S(=O)(=O)[O-])cc5F)c5ccc2[nH]5)C=C4)C=C3)cc1
REMARK SMILES IDX 24 1 23 2 22 3 21 4 20 5 19 6 18 7 16 8 17 9 15 10 1 11 2 12
REMARK SMILES IDX 3 13 4 14 5 15 6 16 7 17 8 19 9 20 10 21 14 22 11 23 12 24
REMARK SMILES IDX 13 25 25 29 26 30 27 31 28 32 29 33 30 34 31 35 32 36 33 37
REMARK SMILES IDX 34 38 98 39 35 40 97 41 36 42 37 43 38 44 91 45 39 46 96 47
REMARK SMILES IDX 90 48 92 49 40 50 95 51 89 52 88 53 41 55 75 56 54 57 74 58
REMARK SMILES IDX 55 59 58 60 73 61 93 62 56 63 57 64 72 66 94 67 59 68 42 69
REMARK SMILES IDX 43 70 52 71 44 72 45 73 51 74 53 75 46 76 47 77 48 78 49 79
REMARK SMILES IDX 50 80 76 81 77 82 86 83 78 84 79 85 85 86 87 87 80 88 81 89
REMARK SMILES IDX 82 90 83 91 84 92 60 93 61 94 70 95 62 96 63 97 69 98 71 99
REMARK SMILES IDX 64 100 65 101 66 102 67 103 68 104
REMARK H PARENT 6 18 13 26 13 27 13 28 92 54 58 65
REMARK Flexibility Score: inf
ROOT
ATOM      1  O   UNL A   1      38.900  20.900  25.470  1.00  0.00    -0.377 OA
ENDROOT
BRANCH   1   2
ATOM      2  C   UNL A   1      37.522  20.974  25.164  1.00  0.00     0.188 C 
BRANCH   2   3
ATOM      3  C   UNL A   1      36.879  22.321  25.554  1.00  0.00     0.188 C 
BRANCH   3   4
ATOM      4  O   UNL A   1      35.739  22.857  24.890  1.00  0.00    -0.376 OA
BRANCH   4   5
ATOM      5  C   UNL A   1      35.658  22.951  23.478  1.00  0.00     0.202 C 
BRANCH   5   6
ATOM      6  C   UNL A   1      34.316  23.146  22.754  1.00  0.00     0.261 C 
BRANCH   6   7
ATOM      7  O   UNL A   1      33.173  22.541  23.362  1.00  0.00    -0.460 OA
BRANCH   7   8
ATOM      8  C   UNL A   1      32.143  23.376  23.658  1.00  0.00     0.343 C 
ATOM      9  O   UNL A   1      30.988  23.219  23.275  1.00  0.00    -0.246 OA
BRANCH   8  10
ATOM     10  C   UNL A   1      32.508  24.370  24.657  1.00  0.00     0.117 A 
ATOM     11  C   UNL A   1      32.490  22.903  26.842  1.00  0.00     0.069 C 
ATOM     12  C   UNL A   1      32.677  24.170  26.079  1.00  0.00     0.068 A 
ATOM     13  N   UNL A   1      32.965  25.263  26.785  1.00  0.00    -0.195 NA
ATOM     14  S   UNL A   1      32.910  26.571  25.795  1.00  0.00    -0.017 S 
ATOM     15  C   UNL A   1      32.556  25.733  24.364  1.00  0.00     0.131 A 
BRANCH  15  16
ATOM     16  N   UNL A   1      32.202  26.343  23.168  1.00  0.00    -0.315 N 
ATOM     17  C   UNL A   1      31.077  27.001  22.751  1.00  0.00     0.232 C 
ATOM     18  H   UNL A   1      32.903  26.292  22.479  1.00  0.00     0.170 HD
ATOM     19  O   UNL A   1      30.907  27.104  21.532  1.00  0.00    -0.274 OA
BRANCH  17  20
ATOM     20  C   UNL A   1      30.116  27.639  23.749  1.00  0.00     0.107 C 
ATOM     21  C   UNL A   1      28.728  27.843  23.202  1.00  0.00    -0.012 C 
ATOM     22  C   UNL A   1      30.544  29.086  24.038  1.00  0.00     0.087 C 
ATOM     23  C   UNL A   1      28.498  29.121  22.875  1.00  0.00     0.033 C 
ATOM     24  C   UNL A   1      29.711  29.957  23.093  1.00  0.00     0.205 C 
BRANCH  24  25
ATOM     25  N   UNL A   1      29.430  31.243  23.697  1.00  0.00    -0.352 N 
ATOM     26  H   UNL A   1      28.611  31.164  24.299  1.00  0.00     0.345 HD
ATOM     27  H   UNL A   1      29.250  31.930  22.965  1.00  0.00     0.345 HD
ATOM     28  H   UNL A   1      30.233  31.539  24.252  1.00  0.00     0.345 HD
ENDBRANCH  24  25
ENDBRANCH  17  20
ENDBRANCH  15  16
ENDBRANCH   8  10
ENDBRANCH   7   8
ENDBRANCH   6   7
ENDBRANCH   5   6
ENDBRANCH   4   5
ENDBRANCH   3   4
ENDBRANCH   2   3
ENDBRANCH   1   2
BRANCH   1  29
ATOM     29  C   UNL A   1      39.399  22.001  26.227  1.00  0.00     0.188 C 
BRANCH  29  30
ATOM     30  C   UNL A   1      40.378  21.721  27.405  1.00  0.00     0.188 C 
BRANCH  30  31
ATOM     31  O   UNL A   1      41.659  21.229  27.022  1.00  0.00    -0.376 OA
BRANCH  31  32
ATOM     32  C   UNL A   1      41.946  19.845  26.894  1.00  0.00     0.202 C 
BRANCH  32  33
ATOM     33  C   UNL A   1      42.843  19.433  25.728  1.00  0.00     0.261 C 
BRANCH  33  34
ATOM     34  O   UNL A   1      43.282  20.544  24.976  1.00  0.00    -0.460 OA
BRANCH  34  35
ATOM     35  C   UNL A   1      44.612  20.752  25.021  1.00  0.00     0.338 C 
ATOM     36  O   UNL A   1      45.470  19.965  25.381  1.00  0.00    -0.246 OA
BRANCH  35  37
ATOM     37  C   UNL A   1      44.864  22.137  24.609  1.00  0.00     0.060 A 
ATOM     38  C   UNL A   1      46.062  22.655  25.094  1.00  0.00     0.016 A 
ATOM     39  C   UNL A   1      43.735  22.926  24.337  1.00  0.00     0.016 A 
ATOM     40  C   UNL A   1      45.975  23.851  25.746  1.00  0.00     0.010 A 
ATOM     41  C   UNL A   1      43.637  24.099  25.015  1.00  0.00     0.010 A 
ATOM     42  C   UNL A   1      44.720  24.463  25.808  1.00  0.00    -0.014 A 
BRANCH  42  43
ATOM     43  C   UNL A   1      44.547  25.535  26.744  1.00  0.00     0.031 A 
ATOM     44  C   UNL A   1      45.593  26.555  26.590  1.00  0.00     0.074 A 
ATOM     45  C   UNL A   1      43.481  25.566  27.561  1.00  0.00     0.049 A 
ATOM     46  N   UNL A   1      46.551  26.813  27.412  1.00  0.00    -0.248 NA
ATOM     47  C   UNL A   1      45.749  27.170  25.260  1.00  0.00     0.031 C 
ATOM     48  C   UNL A   1      42.308  24.687  27.576  1.00  0.00     0.029 A 
ATOM     49  N   UNL A   1      43.174  26.507  28.486  1.00  0.00    -0.354 N 
ATOM     50  C   UNL A   1      47.291  27.811  26.793  1.00  0.00     0.074 A 
ATOM     51  C   UNL A   1      46.913  27.799  25.407  1.00  0.00     0.031 C 
ATOM     52  C   UNL A   1      41.326  25.275  28.295  1.00  0.00     0.029 A 
ATOM     53  C   UNL A   1      41.836  26.509  28.864  1.00  0.00     0.049 A 
ATOM     54  H   UNL A   1      43.838  27.132  28.858  1.00  0.00     0.167 HD
ATOM     55  C   UNL A   1      47.943  28.750  27.525  1.00  0.00     0.037 A 
ATOM     56  C   UNL A   1      41.218  27.562  29.458  1.00  0.00     0.037 A 
ATOM     57  C   UNL A   1      48.078  28.332  28.899  1.00  0.00     0.049 A 
ATOM     58  C   UNL A   1      42.302  28.387  30.082  1.00  0.00     0.074 A 
ATOM     59  C   UNL A   1      48.694  27.260  29.514  1.00  0.00     0.029 A 
ATOM     60  N   UNL A   1      47.174  28.831  29.812  1.00  0.00    -0.354 N 
ATOM     61  N   UNL A   1      43.048  27.961  31.071  1.00  0.00    -0.248 NA
ATOM     62  C   UNL A   1      42.900  29.449  29.280  1.00  0.00     0.031 C 
ATOM     63  C   UNL A   1      47.819  26.884  30.572  1.00  0.00     0.029 A 
ATOM     64  C   UNL A   1      46.752  27.784  30.594  1.00  0.00     0.049 A 
ATOM     65  H   UNL A   1      46.885  29.768  29.889  1.00  0.00     0.167 HD
ATOM     66  C   UNL A   1      44.338  28.387  30.768  1.00  0.00     0.074 A 
ATOM     67  C   UNL A   1      44.171  29.361  29.690  1.00  0.00     0.031 C 
ATOM     68  C   UNL A   1      45.438  27.700  31.201  1.00  0.00     0.037 A 
BRANCH  55  69
ATOM     69  C   UNL A   1      48.117  30.176  27.078  1.00  0.00     0.058 A 
ATOM     70  C   UNL A   1      49.412  30.723  27.049  1.00  0.00     0.135 A 
ATOM     71  C   UNL A   1      47.057  31.102  26.937  1.00  0.00     0.135 A 
ATOM     72  F   UNL A   1      50.490  29.934  27.172  1.00  0.00    -0.206 F 
ATOM     73  C   UNL A   1      49.635  32.097  26.972  1.00  0.00     0.059 A 
ATOM     74  C   UNL A   1      47.258  32.466  26.798  1.00  0.00     0.059 A 
ATOM     75  F   UNL A   1      45.768  30.752  27.031  1.00  0.00    -0.206 F 
ATOM     76  C   UNL A   1      48.547  32.960  26.867  1.00  0.00     0.060 A 
BRANCH  76  77
ATOM     77  S   UNL A   1      48.819  34.736  26.906  1.00  0.00     0.124 S 
ATOM     78  O   UNL A   1      49.900  34.841  27.880  1.00  0.00    -0.237 OA
ATOM     79  O   UNL A   1      49.173  35.018  25.519  1.00  0.00    -0.237 OA
ATOM     80  O   UNL A   1      47.527  35.263  27.338  1.00  0.00    -0.744 OA
ENDBRANCH  76  77
ENDBRANCH  55  69
BRANCH  56  81
ATOM     81  C   UNL A   1      39.853  28.071  29.142  1.00  0.00     0.058 A 
ATOM     82  C   UNL A   1      38.831  28.083  30.107  1.00  0.00     0.135 A 
ATOM     83  C   UNL A   1      39.579  28.786  27.953  1.00  0.00     0.135 A 
ATOM     84  F   UNL A   1      39.006  27.455  31.280  1.00  0.00    -0.206 F 
ATOM     85  C   UNL A   1      37.633  28.790  29.922  1.00  0.00     0.059 A 
ATOM     86  C   UNL A   1      38.390  29.478  27.739  1.00  0.00     0.059 A 
ATOM     87  F   UNL A   1      40.497  28.917  26.986  1.00  0.00    -0.206 F 
ATOM     88  C   UNL A   1      37.430  29.499  28.738  1.00  0.00     0.060 A 
BRANCH  88  89
ATOM     89  S   UNL A   1      35.975  30.558  28.555  1.00  0.00     0.124 S 
ATOM     90  O   UNL A   1      35.725  30.968  29.933  1.00  0.00    -0.237 OA
ATOM     91  O   UNL A   1      36.464  31.598  27.657  1.00  0.00    -0.237 OA
ATOM     92  O   UNL A   1      34.975  29.663  27.979  1.00  0.00    -0.744 OA
ENDBRANCH  88  89
ENDBRANCH  56  81
BRANCH  68  93
ATOM     93  C   UNL A   1      45.243  26.593  32.209  1.00  0.00     0.058 A 
ATOM     94  C   UNL A   1      45.125  26.803  33.596  1.00  0.00     0.135 A 
ATOM     95  C   UNL A   1      44.971  25.300  31.739  1.00  0.00     0.135 A 
ATOM     96  F   UNL A   1      45.250  28.031  34.115  1.00  0.00    -0.206 F 
ATOM     97  C   UNL A   1      44.796  25.772  34.476  1.00  0.00     0.059 A 
ATOM     98  C   UNL A   1      44.607  24.262  32.595  1.00  0.00     0.059 A 
ATOM     99  F   UNL A   1      44.992  25.047  30.420  1.00  0.00    -0.206 F 
ATOM    100  C   UNL A   1      44.535  24.502  33.966  1.00  0.00     0.060 A 
BRANCH 100 101
ATOM    101  S   UNL A   1      44.027  23.188  35.095  1.00  0.00     0.124 S 
ATOM    102  O   UNL A   1      44.830  23.476  36.279  1.00  0.00    -0.237 OA
ATOM    103  O   UNL A   1      42.592  23.422  35.230  1.00  0.00    -0.237 OA
ATOM    104  O   UNL A   1      44.386  21.966  34.378  1.00  0.00    -0.744 OA
ENDBRANCH 100 101
ENDBRANCH  68  93
ENDBRANCH  42  43
ENDBRANCH  35  37
ENDBRANCH  34  35
ENDBRANCH  33  34
ENDBRANCH  32  33
ENDBRANCH  31  32
ENDBRANCH  30  31
ENDBRANCH  29  30
ENDBRANCH   1  29
TORSDOF 26
ENDMDL
MODEL 2
REMARK VINA RESULT:      -9.9      2.867      4.325
REMARK SMILES Cc1nsc(NC(=O)[C@@H]2C=C[C@@H]([NH3+])C2)c1C(=O)OCCOCCOCCOCCOC(=O)c1ccc(-c2c3nc(c(-c4c(F)cc(S(=O)(=O)[O-])cc4F)c4ccc([nH]4)c(-c4c(F)cc(S(=O)(=O)[O-])cc4F)c4nc(c(-c5c(F)cc(S(=O)(=O)[O-])cc5F)c5ccc2[nH]5)C=C4)C=C3)cc1
REMARK SMILES IDX 24 1 23 2 22 3 21 4 20 5 19 6 18 7 16 8 17 9 15 10 1 11 2 12
REMARK SMILES IDX 3 13 4 14 5 15 6 16 7 17 8 19 9 20 10 21 14 22 11 23 12 24
REMARK SMILES IDX 13 25 25 29 26 30 27 31 28 32 29 33 30 34 31 35 32 36 33 37
REMARK SMILES IDX 34 38 98 39 35 40 97 41 36 42 37 43 38 44 91 45 39 46 96 47
REMARK SMILES IDX 90 48 92 49 40 50 95 51 89 52 88 53 41 55 75 56 54 57 74 58
REMARK SMILES IDX 55 59 58 60 73 61 93 62 56 63 57 64 72 66 94 67 59 68 42 69
REMARK SMILES IDX 43 70 52 71 44 72 45 73 51 74 53 75 46 76 47 77 48 78 49 79
REMARK SMILES IDX 50 80 76 81 77 82 86 83 78 84 79 85 85 86 87 87 80 88 81 89
REMARK SMILES IDX 82 90 83 91 84 92 60 93 61 94 70 95 62 96 63 97 69 98 71 99
REMARK SMILES IDX 64 100 65 101 66 102 67 103 68 104
REMARK H PARENT 6 18 13 26 13 27 13 28 92 54 58 65
REMARK Flexibility Score: inf
ROOT
ATOM      1  O   UNL A   1      34.986  21.745  24.241  1.00  0.00    -0.377 OA
ENDROOT
BRANCH   1   2
ATOM      2  C   UNL A   1      33.956  21.260  25.080  1.00  0.00     0.188 C 
BRANCH   2   3
ATOM      3  C   UNL A   1      33.388  22.332  26.034  1.00  0.00     0.188 C 
BRANCH   3   4
ATOM      4  O   UNL A   1      32.080  22.877  25.896  1.00  0.00    -0.376 OA
BRANCH   4   5
ATOM      5  C   UNL A   1      31.325  22.746  24.703  1.00  0.00     0.202 C 
BRANCH   5   6
ATOM      6  C   UNL A   1      30.914  23.967  23.865  1.00  0.00     0.261 C 
BRANCH   6   7
ATOM      7  O   UNL A   1      31.293  25.246  24.380  1.00  0.00    -0.460 OA
BRANCH   7   8
ATOM      8  C   UNL A   1      30.299  25.977  24.950  1.00  0.00     0.343 C 
ATOM      9  O   UNL A   1      29.903  25.833  26.102  1.00  0.00    -0.246 OA
BRANCH   8  10
ATOM     10  C   UNL A   1      29.893  27.100  24.117  1.00  0.00     0.117 A 
ATOM     11  C   UNL A   1      27.314  26.631  23.881  1.00  0.00     0.069 C 
ATOM     12  C   UNL A   1      28.562  27.410  23.643  1.00  0.00     0.068 A 
ATOM     13  N   UNL A   1      28.467  28.475  22.848  1.00  0.00    -0.195 NA
ATOM     14  S   UNL A   1      29.974  29.052  22.541  1.00  0.00    -0.017 S 
ATOM     15  C   UNL A   1      30.820  27.941  23.502  1.00  0.00     0.131 A 
BRANCH  15  16
ATOM     16  N   UNL A   1      32.203  27.805  23.507  1.00  0.00    -0.315 N 
ATOM     17  C   UNL A   1      33.211  28.536  24.073  1.00  0.00     0.232 C 
ATOM     18  H   UNL A   1      32.523  27.025  22.999  1.00  0.00     0.170 HD
ATOM     19  O   UNL A   1      34.343  28.391  23.600  1.00  0.00    -0.274 OA
BRANCH  17  20
ATOM     20  C   UNL A   1      32.958  29.434  25.280  1.00  0.00     0.107 C 
ATOM     21  C   UNL A   1      34.046  29.367  26.319  1.00  0.00    -0.012 C 
ATOM     22  C   UNL A   1      31.748  28.918  26.074  1.00  0.00     0.087 C 
ATOM     23  C   UNL A   1      33.686  28.632  27.378  1.00  0.00     0.033 C 
ATOM     24  C   UNL A   1      32.331  28.044  27.189  1.00  0.00     0.205 C 
BRANCH  24  25
ATOM     25  N   UNL A   1      31.500  28.104  28.373  1.00  0.00    -0.352 N 
ATOM     26  H   UNL A   1      31.261  29.075  28.571  1.00  0.00     0.345 HD
ATOM     27  H   UNL A   1      32.008  27.709  29.164  1.00  0.00     0.345 HD
ATOM     28  H   UNL A   1      30.647  27.568  28.215  1.00  0.00     0.345 HD
ENDBRANCH  24  25
ENDBRANCH  17  20
ENDBRANCH  15  16
ENDBRANCH   8  10
ENDBRANCH   7   8
ENDBRANCH   6   7
ENDBRANCH   5   6
ENDBRANCH   4   5
ENDBRANCH   3   4
ENDBRANCH   2   3
ENDBRANCH   1   2
BRANCH   1  29
ATOM     29  C   UNL A   1      35.337  23.109  24.460  1.00  0.00     0.188 C 
BRANCH  29  30
ATOM     30  C   UNL A   1      36.834  23.471  24.692  1.00  0.00     0.188 C 
BRANCH  30  31
ATOM     31  O   UNL A   1      37.488  22.714  25.706  1.00  0.00    -0.376 OA
BRANCH  31  32
ATOM     32  C   UNL A   1      38.266  21.561  25.426  1.00  0.00     0.202 C 
BRANCH  32  33
ATOM     33  C   UNL A   1      39.600  21.436  26.160  1.00  0.00     0.261 C 
BRANCH  33  34
ATOM     34  O   UNL A   1      40.475  22.502  25.860  1.00  0.00    -0.460 OA
BRANCH  34  35
ATOM     35  C   UNL A   1      40.953  23.146  26.941  1.00  0.00     0.338 C 
ATOM     36  O   UNL A   1      40.881  22.790  28.104  1.00  0.00    -0.246 OA
BRANCH  35  37
ATOM     37  C   UNL A   1      41.541  24.411  26.487  1.00  0.00     0.060 A 
ATOM     38  C   UNL A   1      42.746  24.723  27.110  1.00  0.00     0.016 A 
ATOM     39  C   UNL A   1      40.649  25.379  26.001  1.00  0.00     0.016 A 
ATOM     40  C   UNL A   1      42.826  25.967  27.668  1.00  0.00     0.010 A 
ATOM     41  C   UNL A   1      40.710  26.606  26.583  1.00  0.00     0.010 A 
ATOM     42  C   UNL A   1      41.729  26.818  27.504  1.00  0.00    -0.014 A 
BRANCH  42  43
ATOM     43  C   UNL A   1      41.662  27.984  28.336  1.00  0.00     0.031 A 
ATOM     44  C   UNL A   1      42.834  28.849  28.144  1.00  0.00     0.074 A 
ATOM     45  C   UNL A   1      40.580  28.222  29.096  1.00  0.00     0.049 A 
ATOM     46  N   UNL A   1      43.788  29.059  28.984  1.00  0.00    -0.248 NA
ATOM     47  C   UNL A   1      43.114  29.316  26.775  1.00  0.00     0.031 C 
ATOM     48  C   UNL A   1      39.305  27.500  29.132  1.00  0.00     0.029 A 
ATOM     49  N   UNL A   1      40.363  29.273  29.922  1.00  0.00    -0.354 N 
ATOM     50  C   UNL A   1      44.670  29.897  28.317  1.00  0.00     0.074 A 
ATOM     51  C   UNL A   1      44.343  29.806  26.921  1.00  0.00     0.031 C 
ATOM     52  C   UNL A   1      38.381  28.269  29.751  1.00  0.00     0.029 A 
ATOM     53  C   UNL A   1      39.024  29.476  30.236  1.00  0.00     0.049 A 
ATOM     54  H   UNL A   1      41.088  29.843  30.269  1.00  0.00     0.167 HD
ATOM     55  C   UNL A   1      45.411  30.811  28.995  1.00  0.00     0.037 A 
ATOM     56  C   UNL A   1      38.524  30.647  30.708  1.00  0.00     0.037 A 
ATOM     57  C   UNL A   1      45.442  30.506  30.405  1.00  0.00     0.049 A 
ATOM     58  C   UNL A   1      39.682  31.385  31.308  1.00  0.00     0.074 A 
ATOM     59  C   UNL A   1      45.894  29.426  31.137  1.00  0.00     0.029 A 
ATOM     60  N   UNL A   1      44.578  31.194  31.229  1.00  0.00    -0.354 N 
ATOM     61  N   UNL A   1      40.333  30.961  32.364  1.00  0.00    -0.248 NA
ATOM     62  C   UNL A   1      40.440  32.287  30.447  1.00  0.00     0.031 C 
ATOM     63  C   UNL A   1      44.942  29.260  32.183  1.00  0.00     0.029 A 
ATOM     64  C   UNL A   1      43.998  30.283  32.077  1.00  0.00     0.049 A 
ATOM     65  H   UNL A   1      44.409  32.163  31.212  1.00  0.00     0.167 HD
ATOM     66  C   UNL A   1      41.676  31.195  32.086  1.00  0.00     0.074 A 
ATOM     67  C   UNL A   1      41.673  32.079  30.922  1.00  0.00     0.031 C 
ATOM     68  C   UNL A   1      42.663  30.418  32.627  1.00  0.00     0.037 A 
BRANCH  55  69
ATOM     69  C   UNL A   1      45.781  32.158  28.437  1.00  0.00     0.058 A 
ATOM     70  C   UNL A   1      47.138  32.526  28.400  1.00  0.00     0.135 A 
ATOM     71  C   UNL A   1      44.856  33.198  28.187  1.00  0.00     0.135 A 
ATOM     72  F   UNL A   1      48.099  31.615  28.620  1.00  0.00    -0.206 F 
ATOM     73  C   UNL A   1      47.543  33.846  28.216  1.00  0.00     0.059 A 
ATOM     74  C   UNL A   1      45.240  34.508  27.941  1.00  0.00     0.059 A 
ATOM     75  F   UNL A   1      43.531  33.030  28.272  1.00  0.00    -0.206 F 
ATOM     76  C   UNL A   1      46.582  34.832  28.007  1.00  0.00     0.060 A 
BRANCH  76  77
ATOM     77  S   UNL A   1      47.087  36.554  27.906  1.00  0.00     0.124 S 
ATOM     78  O   UNL A   1      47.820  36.565  26.645  1.00  0.00    -0.237 OA
ATOM     79  O   UNL A   1      45.803  37.246  27.909  1.00  0.00    -0.237 OA
ATOM     80  O   UNL A   1      47.895  36.737  29.108  1.00  0.00    -0.744 OA
ENDBRANCH  76  77
ENDBRANCH  55  69
BRANCH  56  81
ATOM     81  C   UNL A   1      37.248  31.291  30.286  1.00  0.00     0.058 A 
ATOM     82  C   UNL A   1      36.449  32.006  31.196  1.00  0.00     0.135 A 
ATOM     83  C   UNL A   1      36.896  31.430  28.924  1.00  0.00     0.135 A 
ATOM     84  F   UNL A   1      36.720  31.959  32.509  1.00  0.00    -0.206 F 
ATOM     85  C   UNL A   1      35.396  32.834  30.780  1.00  0.00     0.059 A 
ATOM     86  C   UNL A   1      35.843  32.230  28.489  1.00  0.00     0.059 A 
ATOM     87  F   UNL A   1      37.621  30.864  27.950  1.00  0.00    -0.206 F 
ATOM     88  C   UNL A   1      35.112  32.952  29.419  1.00  0.00     0.060 A 
BRANCH  88  89
ATOM     89  S   UNL A   1      33.880  34.148  28.852  1.00  0.00     0.124 S 
ATOM     90  O   UNL A   1      33.206  34.501  30.096  1.00  0.00    -0.237 OA
ATOM     91  O   UNL A   1      34.712  35.188  28.258  1.00  0.00    -0.237 OA
ATOM     92  O   UNL A   1      33.077  33.383  27.902  1.00  0.00    -0.744 OA
ENDBRANCH  88  89
ENDBRANCH  56  81
BRANCH  68  93
ATOM     93  C   UNL A   1      42.293  29.441  33.716  1.00  0.00     0.058 A 
ATOM     94  C   UNL A   1      41.740  28.169  33.478  1.00  0.00     0.135 A 
ATOM     95  C   UNL A   1      42.691  29.722  35.031  1.00  0.00     0.135 A 
ATOM     96  F   UNL A   1      41.442  27.773  32.234  1.00  0.00    -0.206 F 
ATOM     97  C   UNL A   1      41.551  27.239  34.501  1.00  0.00     0.059 A 
ATOM     98  C   UNL A   1      42.545  28.797  36.064  1.00  0.00     0.059 A 
ATOM     99  F   UNL A   1      43.294  30.888  35.315  1.00  0.00    -0.206 F 
ATOM    100  C   UNL A   1      41.961  27.562  35.794  1.00  0.00     0.060 A 
BRANCH 100 101
ATOM    101  S   UNL A   1      41.795  26.328  37.102  1.00  0.00     0.124 S 
ATOM    102  O   UNL A   1      41.877  25.077  36.354  1.00  0.00    -0.237 OA
ATOM    103  O   UNL A   1      42.934  26.625  37.966  1.00  0.00    -0.237 OA
ATOM    104  O   UNL A   1      40.489  26.623  37.685  1.00  0.00    -0.744 OA
ENDBRANCH 100 101
ENDBRANCH  68  93
ENDBRANCH  42  43
ENDBRANCH  35  37
ENDBRANCH  34  35
ENDBRANCH  33  34
ENDBRANCH  32  33
ENDBRANCH  31  32
ENDBRANCH  30  31
ENDBRANCH  29  30
ENDBRANCH   1  29
TORSDOF 26
ENDMDL
MODEL 3
REMARK VINA RESULT:      -9.4      3.223      9.435
REMARK SMILES Cc1nsc(NC(=O)[C@@H]2C=C[C@@H]([NH3+])C2)c1C(=O)OCCOCCOCCOCCOC(=O)c1ccc(-c2c3nc(c(-c4c(F)cc(S(=O)(=O)[O-])cc4F)c4ccc([nH]4)c(-c4c(F)cc(S(=O)(=O)[O-])cc4F)c4nc(c(-c5c(F)cc(S(=O)(=O)[O-])cc5F)c5ccc2[nH]5)C=C4)C=C3)cc1
REMARK SMILES IDX 24 1 23 2 22 3 21 4 20 5 19 6 18 7 16 8 17 9 15 10 1 11 2 12
REMARK SMILES IDX 3 13 4 14 5 15 6 16 7 17 8 19 9 20 10 21 14 22 11 23 12 24
REMARK SMILES IDX 13 25 25 29 26 30 27 31 28 32 29 33 30 34 31 35 32 36 33 37
REMARK SMILES IDX 34 38 98 39 35 40 97 41 36 42 37 43 38 44 91 45 39 46 96 47
REMARK SMILES IDX 90 48 92 49 40 50 95 51 89 52 88 53 41 55 75 56 54 57 74 58
REMARK SMILES IDX 55 59 58 60 73 61 93 62 56 63 57 64 72 66 94 67 59 68 42 69
REMARK SMILES IDX 43 70 52 71 44 72 45 73 51 74 53 75 46 76 47 77 48 78 49 79
REMARK SMILES IDX 50 80 76 81 77 82 86 83 78 84 79 85 85 86 87 87 80 88 81 89
REMARK SMILES IDX 82 90 83 91 84 92 60 93 61 94 70 95 62 96 63 97 69 98 71 99
REMARK SMILES IDX 64 100 65 101 66 102 67 103 68 104
REMARK H PARENT 6 18 13 26 13 27 13 28 92 54 58 65
REMARK Flexibility Score: inf
ROOT
ATOM      1  O   UNL A   1      33.868  25.806  25.400  1.00  0.00    -0.377 OA
ENDROOT
BRANCH   1   2
ATOM      2  C   UNL A   1      32.767  24.938  25.585  1.00  0.00     0.188 C 
BRANCH   2   3
ATOM      3  C   UNL A   1      32.054  24.564  24.269  1.00  0.00     0.188 C 
BRANCH   3   4
ATOM      4  O   UNL A   1      32.752  24.327  23.050  1.00  0.00    -0.376 OA
BRANCH   4   5
ATOM      5  C   UNL A   1      32.787  23.053  22.431  1.00  0.00     0.202 C 
BRANCH   5   6
ATOM      6  C   UNL A   1      31.690  22.004  22.672  1.00  0.00     0.261 C 
BRANCH   6   7
ATOM      7  O   UNL A   1      32.130  20.658  22.869  1.00  0.00    -0.460 OA
BRANCH   7   8
ATOM      8  C   UNL A   1      32.371  20.293  24.155  1.00  0.00     0.343 C 
ATOM      9  O   UNL A   1      31.556  20.381  25.068  1.00  0.00    -0.246 OA
BRANCH   8  10
ATOM     10  C   UNL A   1      33.634  19.584  24.301  1.00  0.00     0.117 A 
ATOM     11  C   UNL A   1      33.005  17.241  23.279  1.00  0.00     0.069 C 
ATOM     12  C   UNL A   1      33.934  18.226  23.904  1.00  0.00     0.068 A 
ATOM     13  N   UNL A   1      35.161  17.797  24.197  1.00  0.00    -0.195 NA
ATOM     14  S   UNL A   1      35.939  18.951  25.069  1.00  0.00    -0.017 S 
ATOM     15  C   UNL A   1      34.694  20.102  25.045  1.00  0.00     0.131 A 
BRANCH  15  16
ATOM     16  N   UNL A   1      34.694  21.269  25.799  1.00  0.00    -0.315 N 
ATOM     17  C   UNL A   1      35.654  22.203  26.074  1.00  0.00     0.232 C 
ATOM     18  H   UNL A   1      33.826  21.463  26.221  1.00  0.00     0.170 HD
ATOM     19  O   UNL A   1      35.471  22.920  27.064  1.00  0.00    -0.274 OA
BRANCH  17  20
ATOM     20  C   UNL A   1      36.858  22.397  25.158  1.00  0.00     0.107 C 
ATOM     21  C   UNL A   1      38.058  21.581  25.561  1.00  0.00    -0.012 C 
ATOM     22  C   UNL A   1      37.402  23.827  25.300  1.00  0.00     0.087 C 
ATOM     23  C   UNL A   1      38.991  22.324  26.169  1.00  0.00     0.033 C 
ATOM     24  C   UNL A   1      38.538  23.734  26.323  1.00  0.00     0.205 C 
BRANCH  24  25
ATOM     25  N   UNL A   1      39.567  24.711  26.034  1.00  0.00    -0.352 N 
ATOM     26  H   UNL A   1      40.483  24.272  26.111  1.00  0.00     0.345 HD
ATOM     27  H   UNL A   1      39.501  25.481  26.700  1.00  0.00     0.345 HD
ATOM     28  H   UNL A   1      39.439  25.068  25.088  1.00  0.00     0.345 HD
ENDBRANCH  24  25
ENDBRANCH  17  20
ENDBRANCH  15  16
ENDBRANCH   8  10
ENDBRANCH   7   8
ENDBRANCH   6   7
ENDBRANCH   5   6
ENDBRANCH   4   5
ENDBRANCH   3   4
ENDBRANCH   2   3
ENDBRANCH   1   2
BRANCH   1  29
ATOM     29  C   UNL A   1      33.799  27.020  26.146  1.00  0.00     0.188 C 
BRANCH  29  30
ATOM     30  C   UNL A   1      32.400  27.603  26.502  1.00  0.00     0.188 C 
BRANCH  30  31
ATOM     31  O   UNL A   1      32.423  28.855  27.182  1.00  0.00    -0.376 OA
BRANCH  31  32
ATOM     32  C   UNL A   1      32.862  30.057  26.569  1.00  0.00     0.202 C 
BRANCH  32  33
ATOM     33  C   UNL A   1      33.709  30.996  27.426  1.00  0.00     0.261 C 
BRANCH  33  34
ATOM     34  O   UNL A   1      35.072  30.631  27.431  1.00  0.00    -0.460 OA
BRANCH  34  35
ATOM     35  C   UNL A   1      35.869  31.476  28.112  1.00  0.00     0.338 C 
ATOM     36  O   UNL A   1      36.163  32.619  27.809  1.00  0.00    -0.246 OA
BRANCH  35  37
ATOM     37  C   UNL A   1      36.388  30.759  29.282  1.00  0.00     0.060 A 
ATOM     38  C   UNL A   1      37.168  31.549  30.121  1.00  0.00     0.016 A 
ATOM     39  C   UNL A   1      36.563  29.374  29.142  1.00  0.00     0.016 A 
ATOM     40  C   UNL A   1      38.399  31.051  30.438  1.00  0.00     0.010 A 
ATOM     41  C   UNL A   1      37.800  28.887  29.426  1.00  0.00     0.010 A 
ATOM     42  C   UNL A   1      38.726  29.783  29.948  1.00  0.00    -0.014 A 
BRANCH  42  43
ATOM     43  C   UNL A   1      40.102  29.385  29.998  1.00  0.00     0.031 A 
ATOM     44  C   UNL A   1      40.572  29.247  31.383  1.00  0.00     0.074 A 
ATOM     45  C   UNL A   1      40.776  29.105  28.869  1.00  0.00     0.049 A 
ATOM     46  N   UNL A   1      41.409  30.010  31.998  1.00  0.00    -0.248 NA
ATOM     47  C   UNL A   1      39.830  28.326  32.261  1.00  0.00     0.031 C 
ATOM     48  C   UNL A   1      40.270  29.011  27.497  1.00  0.00     0.029 A 
ATOM     49  N   UNL A   1      42.067  28.712  28.751  1.00  0.00    -0.354 N 
ATOM     50  C   UNL A   1      41.479  29.497  33.285  1.00  0.00     0.074 A 
ATOM     51  C   UNL A   1      40.325  28.657  33.451  1.00  0.00     0.031 C 
ATOM     52  C   UNL A   1      41.181  28.363  26.736  1.00  0.00     0.029 A 
ATOM     53  C   UNL A   1      42.358  28.093  27.541  1.00  0.00     0.049 A 
ATOM     54  H   UNL A   1      42.738  28.852  29.458  1.00  0.00     0.167 HD
ATOM     55  C   UNL A   1      42.625  29.582  34.008  1.00  0.00     0.037 A 
ATOM     56  C   UNL A   1      43.436  27.292  27.339  1.00  0.00     0.037 A 
ATOM     57  C   UNL A   1      43.520  30.562  33.443  1.00  0.00     0.049 A 
ATOM     58  C   UNL A   1      44.435  27.659  28.394  1.00  0.00     0.074 A 
ATOM     59  C   UNL A   1      43.426  31.922  33.217  1.00  0.00     0.029 A 
ATOM     60  N   UNL A   1      44.540  30.109  32.637  1.00  0.00    -0.354 N 
ATOM     61  N   UNL A   1      45.018  28.831  28.452  1.00  0.00    -0.248 NA
ATOM     62  C   UNL A   1      44.387  26.937  29.662  1.00  0.00     0.031 C 
ATOM     63  C   UNL A   1      44.070  32.137  31.966  1.00  0.00     0.029 A 
ATOM     64  C   UNL A   1      44.582  30.915  31.525  1.00  0.00     0.049 A 
ATOM     65  H   UNL A   1      45.132  29.345  32.824  1.00  0.00     0.167 HD
ATOM     66  C   UNL A   1      45.031  29.167  29.803  1.00  0.00     0.074 A 
ATOM     67  C   UNL A   1      44.694  27.930  30.504  1.00  0.00     0.031 C 
ATOM     68  C   UNL A   1      45.013  30.471  30.214  1.00  0.00     0.037 A 
BRANCH  55  69
ATOM     69  C   UNL A   1      43.070  28.527  34.983  1.00  0.00     0.058 A 
ATOM     70  C   UNL A   1      43.313  28.898  36.318  1.00  0.00     0.135 A 
ATOM     71  C   UNL A   1      43.522  27.239  34.613  1.00  0.00     0.135 A 
ATOM     72  F   UNL A   1      42.923  30.098  36.776  1.00  0.00    -0.206 F 
ATOM     73  C   UNL A   1      44.029  28.085  37.194  1.00  0.00     0.059 A 
ATOM     74  C   UNL A   1      44.183  26.390  35.486  1.00  0.00     0.059 A 
ATOM     75  F   UNL A   1      43.445  26.774  33.361  1.00  0.00    -0.206 F 
ATOM     76  C   UNL A   1      44.477  26.841  36.759  1.00  0.00     0.060 A 
BRANCH  76  77
ATOM     77  S   UNL A   1      45.517  25.848  37.837  1.00  0.00     0.124 S 
ATOM     78  O   UNL A   1      45.046  26.262  39.154  1.00  0.00    -0.237 OA
ATOM     79  O   UNL A   1      45.168  24.492  37.427  1.00  0.00    -0.237 OA
ATOM     80  O   UNL A   1      46.868  26.275  37.486  1.00  0.00    -0.744 OA
ENDBRANCH  76  77
ENDBRANCH  55  69
BRANCH  56  81
ATOM     81  C   UNL A   1      43.444  26.004  26.589  1.00  0.00     0.058 A 
ATOM     82  C   UNL A   1      44.226  25.831  25.433  1.00  0.00     0.135 A 
ATOM     83  C   UNL A   1      42.871  24.826  27.120  1.00  0.00     0.135 A 
ATOM     84  F   UNL A   1      44.832  26.886  24.868  1.00  0.00    -0.206 F 
ATOM     85  C   UNL A   1      44.456  24.569  24.865  1.00  0.00     0.059 A 
ATOM     86  C   UNL A   1      43.070  23.565  26.563  1.00  0.00     0.059 A 
ATOM     87  F   UNL A   1      42.167  24.840  28.261  1.00  0.00    -0.206 F 
ATOM     88  C   UNL A   1      43.886  23.438  25.450  1.00  0.00     0.060 A 
BRANCH  88  89
ATOM     89  S   UNL A   1      44.316  21.790  24.842  1.00  0.00     0.124 S 
ATOM     90  O   UNL A   1      45.514  21.485  25.617  1.00  0.00    -0.237 OA
ATOM     91  O   UNL A   1      43.123  21.020  25.177  1.00  0.00    -0.237 OA
ATOM     92  O   UNL A   1      44.534  22.002  23.414  1.00  0.00    -0.744 OA
ENDBRANCH  88  89
ENDBRANCH  56  81
BRANCH  68  93
ATOM     93  C   UNL A   1      45.212  31.554  29.180  1.00  0.00     0.058 A 
ATOM     94  C   UNL A   1      46.468  31.944  28.680  1.00  0.00     0.135 A 
ATOM     95  C   UNL A   1      44.082  32.075  28.533  1.00  0.00     0.135 A 
ATOM     96  F   UNL A   1      47.595  31.402  29.160  1.00  0.00    -0.206 F 
ATOM     97  C   UNL A   1      46.597  32.841  27.619  1.00  0.00     0.059 A 
ATOM     98  C   UNL A   1      44.185  32.946  27.450  1.00  0.00     0.059 A 
ATOM     99  F   UNL A   1      42.853  31.687  28.911  1.00  0.00    -0.206 F 
ATOM    100  C   UNL A   1      45.447  33.336  27.006  1.00  0.00     0.060 A 
BRANCH 100 101
ATOM    101  S   UNL A   1      45.613  34.430  25.579  1.00  0.00     0.124 S 
ATOM    102  O   UNL A   1      45.057  35.680  26.087  1.00  0.00    -0.237 OA
ATOM    103  O   UNL A   1      47.054  34.427  25.342  1.00  0.00    -0.237 OA
ATOM    104  O   UNL A   1      44.820  33.766  24.547  1.00  0.00    -0.744 OA
ENDBRANCH 100 101
ENDBRANCH  68  93
ENDBRANCH  42  43
ENDBRANCH  35  37
ENDBRANCH  34  35
ENDBRANCH  33  34
ENDBRANCH  32  33
ENDBRANCH  31  32
ENDBRANCH  30  31
ENDBRANCH  29  30
ENDBRANCH   1  29
TORSDOF 26
ENDMDL
