MODEL 1
REMARK VINA RESULT:      -6.5      0.000      0.000
REMARK SMILES C=CC[N@@H+](CC(=O)OCCOCCOCCOCCOC(=O)c1ccc(-c2c3nc(c(-c4c(F)cc(S(=O)(=O)[O-])cc4F)c4ccc([nH]4)c(-c4c(F)cc(S(=O)(=O)[O-])cc4F)c4nc(c(-c5c(F)cc(S(=O)(=O)[O-])cc5F)c5ccc2[nH]5)C=C4)C=C3)cc1)Cc1ccc(C(F)(F)F)cc1
REMARK SMILES IDX 13 1 12 2 11 3 10 4 9 5 8 6 6 7 7 8 5 9 4 10 3 12 2 13 1 14
REMARK SMILES IDX 89 15 90 16 91 17 99 18 92 19 98 20 93 21 94 22 95 23 96 24
REMARK SMILES IDX 97 25 14 26 15 27 16 28 17 29 18 30 19 31 20 32 21 33 22 34
REMARK SMILES IDX 23 35 24 36 88 37 25 38 87 39 26 40 27 41 28 42 81 43 29 44
REMARK SMILES IDX 86 45 80 46 82 47 30 48 85 49 79 50 78 51 31 53 65 54 44 55
REMARK SMILES IDX 64 56 45 57 48 58 63 59 83 60 46 61 47 62 62 64 84 65 49 66
REMARK SMILES IDX 32 67 33 68 42 69 34 70 35 71 41 72 43 73 36 74 37 75 38 76
REMARK SMILES IDX 39 77 40 78 66 79 67 80 76 81 68 82 69 83 75 84 77 85 70 86
REMARK SMILES IDX 71 87 72 88 73 89 74 90 50 91 51 92 60 93 52 94 53 95 59 96
REMARK SMILES IDX 61 97 54 98 55 99 56 100 57 101 58 102
REMARK H PARENT 4 11 82 52 48 63
REMARK Flexibility Score: inf
ROOT
ATOM      1  C   UNL A   1      40.088  34.170  29.713  1.00  0.00     0.188 C 
ENDROOT
BRANCH   1   2
ATOM      2  C   UNL A   1      41.827  35.436  29.343  1.00  0.00     0.188 C 
BRANCH   2   3
ATOM      3  O   UNL A   1      41.997  36.762  28.602  1.00  0.00    -0.376 OA
BRANCH   3   4
ATOM      4  C   UNL A   1      43.242  37.464  28.596  1.00  0.00     0.202 C 
BRANCH   4   5
ATOM      5  C   UNL A   1      43.476  38.998  28.744  1.00  0.00     0.261 C 
BRANCH   5   6
ATOM      6  O   UNL A   1      42.513  39.970  28.293  1.00  0.00    -0.459 OA
BRANCH   6   7
ATOM      7  C   UNL A   1      42.347  40.082  26.948  1.00  0.00     0.361 C 
ATOM      8  O   UNL A   1      41.243  40.211  26.418  1.00  0.00    -0.245 OA
BRANCH   7   9
ATOM      9  C   UNL A   1      43.627  39.948  26.112  1.00  0.00     0.387 C 
BRANCH   9  10
ATOM     10  N   UNL A   1      44.560  41.083  25.961  1.00  0.00    -0.319 N 
ATOM     11  H   UNL A   1      44.872  40.989  24.995  1.00  0.00     0.349 HD
BRANCH  10  12
ATOM     12  C   UNL A   1      45.861  40.929  26.597  1.00  0.00     0.291 C 
BRANCH  12  13
ATOM     13  C   UNL A   1      46.160  41.909  27.703  1.00  0.00     0.025 C 
ATOM     14  C   UNL A   1      45.676  41.836  28.952  1.00  0.00     0.010 C 
ENDBRANCH  12  13
ENDBRANCH  10  12
BRANCH  10  15
ATOM     15  C   UNL A   1      44.012  42.406  25.690  1.00  0.00     0.299 C 
BRANCH  15  16
ATOM     16  C   UNL A   1      43.615  42.681  24.267  1.00  0.00     0.006 A 
ATOM     17  C   UNL A   1      44.750  43.567  23.182  1.00  0.00     0.010 A 
ATOM     18  C   UNL A   1      41.987  42.180  23.645  1.00  0.00     0.010 A 
ATOM     19  C   UNL A   1      44.274  43.969  21.498  1.00  0.00     0.013 A 
ATOM     20  C   UNL A   1      41.502  42.584  21.945  1.00  0.00     0.013 A 
ATOM     21  C   UNL A   1      42.656  43.473  20.866  1.00  0.00     0.056 A 
BRANCH  21  22
ATOM     22  C   UNL A   1      42.371  43.735  19.417  1.00  0.00     0.416 C 
ATOM     23  F   UNL A   1      41.204  43.197  18.980  1.00  0.00    -0.166 F 
ATOM     24  F   UNL A   1      42.295  45.071  19.149  1.00  0.00    -0.166 F 
ATOM     25  F   UNL A   1      43.347  43.255  18.599  1.00  0.00    -0.166 F 
ENDBRANCH  21  22
ENDBRANCH  15  16
ENDBRANCH  10  15
ENDBRANCH   9  10
ENDBRANCH   7   9
ENDBRANCH   6   7
ENDBRANCH   5   6
ENDBRANCH   4   5
ENDBRANCH   3   4
ENDBRANCH   2   3
ENDBRANCH   1   2
BRANCH   1  26
ATOM     26  O   UNL A   1      39.696  33.324  30.920  1.00  0.00    -0.377 OA
BRANCH  26  27
ATOM     27  C   UNL A   1      38.589  32.449  30.793  1.00  0.00     0.188 C 
BRANCH  27  28
ATOM     28  C   UNL A   1      38.225  31.425  31.887  1.00  0.00     0.188 C 
BRANCH  28  29
ATOM     29  O   UNL A   1      36.991  31.399  32.582  1.00  0.00    -0.376 OA
BRANCH  29  30
ATOM     30  C   UNL A   1      36.117  32.507  32.623  1.00  0.00     0.202 C 
BRANCH  30  31
ATOM     31  C   UNL A   1      35.530  33.022  33.936  1.00  0.00     0.261 C 
BRANCH  31  32
ATOM     32  O   UNL A   1      36.378  33.891  34.681  1.00  0.00    -0.460 OA
BRANCH  32  33
ATOM     33  C   UNL A   1      37.272  33.278  35.495  1.00  0.00     0.338 C 
ATOM     34  O   UNL A   1      37.053  32.441  36.349  1.00  0.00    -0.246 OA
BRANCH  33  35
ATOM     35  C   UNL A   1      38.611  33.673  35.027  1.00  0.00     0.060 A 
ATOM     36  C   UNL A   1      38.733  34.675  34.046  1.00  0.00     0.016 A 
ATOM     37  C   UNL A   1      39.737  33.114  35.630  1.00  0.00     0.016 A 
ATOM     38  C   UNL A   1      39.991  35.134  33.674  1.00  0.00     0.010 A 
ATOM     39  C   UNL A   1      40.994  33.507  35.194  1.00  0.00     0.010 A 
ATOM     40  C   UNL A   1      41.118  34.481  34.185  1.00  0.00    -0.014 A 
BRANCH  40  41
ATOM     41  C   UNL A   1      42.355  34.461  33.384  1.00  0.00     0.031 A 
ATOM     42  C   UNL A   1      43.071  35.779  33.270  1.00  0.00     0.074 A 
ATOM     43  C   UNL A   1      42.761  33.368  32.721  1.00  0.00     0.049 A 
ATOM     44  N   UNL A   1      44.018  36.141  32.450  1.00  0.00    -0.248 NA
ATOM     45  C   UNL A   1      42.634  36.847  34.190  1.00  0.00     0.031 C 
ATOM     46  C   UNL A   1      42.166  32.038  32.821  1.00  0.00     0.029 A 
ATOM     47  N   UNL A   1      43.761  33.226  31.795  1.00  0.00    -0.354 N 
ATOM     48  C   UNL A   1      44.274  37.474  32.751  1.00  0.00     0.074 A 
ATOM     49  C   UNL A   1      43.371  37.871  33.801  1.00  0.00     0.031 C 
ATOM     50  C   UNL A   1      42.793  31.217  31.956  1.00  0.00     0.029 A 
ATOM     51  C   UNL A   1      43.792  31.983  31.211  1.00  0.00     0.049 A 
ATOM     52  H   UNL A   1      44.396  33.944  31.570  1.00  0.00     0.167 HD
ATOM     53  C   UNL A   1      45.186  38.298  32.194  1.00  0.00     0.037 A 
ATOM     54  C   UNL A   1      44.519  31.546  30.163  1.00  0.00     0.037 A 
ATOM     55  C   UNL A   1      46.048  37.893  31.122  1.00  0.00     0.049 A 
ATOM     56  C   UNL A   1      45.462  32.515  29.485  1.00  0.00     0.074 A 
ATOM     57  C   UNL A   1      46.996  38.640  30.454  1.00  0.00     0.029 A 
ATOM     58  N   UNL A   1      46.054  36.625  30.561  1.00  0.00    -0.354 N 
ATOM     59  N   UNL A   1      45.699  33.776  29.767  1.00  0.00    -0.248 NA
ATOM     60  C   UNL A   1      46.232  32.006  28.341  1.00  0.00     0.031 C 
ATOM     61  C   UNL A   1      47.541  37.836  29.449  1.00  0.00     0.029 A 
ATOM     62  C   UNL A   1      46.986  36.568  29.544  1.00  0.00     0.049 A 
ATOM     63  H   UNL A   1      45.479  35.877  30.845  1.00  0.00     0.167 HD
ATOM     64  C   UNL A   1      46.687  34.189  28.877  1.00  0.00     0.074 A 
ATOM     65  C   UNL A   1      46.993  33.048  28.040  1.00  0.00     0.031 C 
ATOM     66  C   UNL A   1      47.294  35.397  28.763  1.00  0.00     0.037 A 
BRANCH  53  67
ATOM     67  C   UNL A   1      45.263  39.703  32.715  1.00  0.00     0.058 A 
ATOM     68  C   UNL A   1      44.344  40.688  32.316  1.00  0.00     0.135 A 
ATOM     69  C   UNL A   1      46.260  40.070  33.633  1.00  0.00     0.135 A 
ATOM     70  F   UNL A   1      43.397  40.401  31.409  1.00  0.00    -0.206 F 
ATOM     71  C   UNL A   1      44.416  41.988  32.801  1.00  0.00     0.059 A 
ATOM     72  C   UNL A   1      46.331  41.356  34.158  1.00  0.00     0.059 A 
ATOM     73  F   UNL A   1      47.178  39.174  34.029  1.00  0.00    -0.206 F 
ATOM     74  C   UNL A   1      45.407  42.310  33.731  1.00  0.00     0.060 A 
BRANCH  74  75
ATOM     75  S   UNL A   1      45.456  43.990  34.382  1.00  0.00     0.124 S 
ATOM     76  O   UNL A   1      45.200  43.764  35.801  1.00  0.00    -0.237 OA
ATOM     77  O   UNL A   1      46.812  44.413  34.041  1.00  0.00    -0.237 OA
ATOM     78  O   UNL A   1      44.389  44.670  33.653  1.00  0.00    -0.744 OA
ENDBRANCH  74  75
ENDBRANCH  53  67
BRANCH  54  79
ATOM     79  C   UNL A   1      44.389  30.144  29.676  1.00  0.00     0.058 A 
ATOM     80  C   UNL A   1      43.363  29.785  28.789  1.00  0.00     0.135 A 
ATOM     81  C   UNL A   1      45.257  29.129  30.108  1.00  0.00     0.135 A 
ATOM     82  F   UNL A   1      42.501  30.716  28.351  1.00  0.00    -0.206 F 
ATOM     83  C   UNL A   1      43.179  28.470  28.374  1.00  0.00     0.059 A 
ATOM     84  C   UNL A   1      45.114  27.812  29.682  1.00  0.00     0.059 A 
ATOM     85  F   UNL A   1      46.264  29.416  30.948  1.00  0.00    -0.206 F 
ATOM     86  C   UNL A   1      44.062  27.489  28.828  1.00  0.00     0.060 A 
BRANCH  86  87
ATOM     87  S   UNL A   1      43.822  25.789  28.268  1.00  0.00     0.124 S 
ATOM     88  O   UNL A   1      45.186  25.275  28.296  1.00  0.00    -0.237 OA
ATOM     89  O   UNL A   1      42.918  25.259  29.283  1.00  0.00    -0.237 OA
ATOM     90  O   UNL A   1      43.236  25.952  26.941  1.00  0.00    -0.744 OA
ENDBRANCH  86  87
ENDBRANCH  54  79
BRANCH  66  91
ATOM     91  C   UNL A   1      48.417  35.531  27.772  1.00  0.00     0.058 A 
ATOM     92  C   UNL A   1      48.195  35.872  26.431  1.00  0.00     0.135 A 
ATOM     93  C   UNL A   1      49.748  35.426  28.215  1.00  0.00     0.135 A 
ATOM     94  F   UNL A   1      46.944  35.982  25.959  1.00  0.00    -0.206 F 
ATOM     95  C   UNL A   1      49.255  36.092  25.558  1.00  0.00     0.059 A 
ATOM     96  C   UNL A   1      50.820  35.676  27.369  1.00  0.00     0.059 A 
ATOM     97  F   UNL A   1      50.012  35.116  29.495  1.00  0.00    -0.206 F 
ATOM     98  C   UNL A   1      50.564  36.003  26.040  1.00  0.00     0.060 A 
BRANCH  98  99
ATOM     99  S   UNL A   1      51.925  36.363  24.911  1.00  0.00     0.124 S 
ATOM    100  O   UNL A   1      52.699  35.128  24.980  1.00  0.00    -0.237 OA
ATOM    101  O   UNL A   1      51.227  36.605  23.652  1.00  0.00    -0.237 OA
ATOM    102  O   UNL A   1      52.560  37.535  25.506  1.00  0.00    -0.744 OA
ENDBRANCH  98  99
ENDBRANCH  66  91
ENDBRANCH  40  41
ENDBRANCH  33  35
ENDBRANCH  32  33
ENDBRANCH  31  32
ENDBRANCH  30  31
ENDBRANCH  29  30
ENDBRANCH  28  29
ENDBRANCH  27  28
ENDBRANCH  26  27
ENDBRANCH   1  26
TORSDOF 29
ENDMDL
MODEL 2
REMARK VINA RESULT:      -6.5      9.119     15.252
REMARK SMILES C=CC[N@@H+](CC(=O)OCCOCCOCCOCCOC(=O)c1ccc(-c2c3nc(c(-c4c(F)cc(S(=O)(=O)[O-])cc4F)c4ccc([nH]4)c(-c4c(F)cc(S(=O)(=O)[O-])cc4F)c4nc(c(-c5c(F)cc(S(=O)(=O)[O-])cc5F)c5ccc2[nH]5)C=C4)C=C3)cc1)Cc1ccc(C(F)(F)F)cc1
REMARK SMILES IDX 13 1 12 2 11 3 10 4 9 5 8 6 6 7 7 8 5 9 4 10 3 12 2 13 1 14
REMARK SMILES IDX 89 15 90 16 91 17 99 18 92 19 98 20 93 21 94 22 95 23 96 24
REMARK SMILES IDX 97 25 14 26 15 27 16 28 17 29 18 30 19 31 20 32 21 33 22 34
REMARK SMILES IDX 23 35 24 36 88 37 25 38 87 39 26 40 27 41 28 42 81 43 29 44
REMARK SMILES IDX 86 45 80 46 82 47 30 48 85 49 79 50 78 51 31 53 65 54 44 55
REMARK SMILES IDX 64 56 45 57 48 58 63 59 83 60 46 61 47 62 62 64 84 65 49 66
REMARK SMILES IDX 32 67 33 68 42 69 34 70 35 71 41 72 43 73 36 74 37 75 38 76
REMARK SMILES IDX 39 77 40 78 66 79 67 80 76 81 68 82 69 83 75 84 77 85 70 86
REMARK SMILES IDX 71 87 72 88 73 89 74 90 50 91 51 92 60 93 52 94 53 95 59 96
REMARK SMILES IDX 61 97 54 98 55 99 56 100 57 101 58 102
REMARK H PARENT 4 11 82 52 48 63
REMARK Flexibility Score: inf
ROOT
ATOM      1  C   UNL A   1      38.417  28.592  30.037  1.00  0.00     0.188 C 
ENDROOT
BRANCH   1   2
ATOM      2  C   UNL A   1      37.251  30.337  29.438  1.00  0.00     0.188 C 
BRANCH   2   3
ATOM      3  O   UNL A   1      36.034  30.500  28.526  1.00  0.00    -0.376 OA
BRANCH   3   4
ATOM      4  C   UNL A   1      35.556  29.427  27.713  1.00  0.00     0.202 C 
BRANCH   4   5
ATOM      5  C   UNL A   1      34.127  29.238  27.122  1.00  0.00     0.261 C 
BRANCH   5   6
ATOM      6  O   UNL A   1      33.231  28.210  27.588  1.00  0.00    -0.459 OA
BRANCH   6   7
ATOM      7  C   UNL A   1      32.486  27.580  26.641  1.00  0.00     0.361 C 
ATOM      8  O   UNL A   1      31.361  27.132  26.862  1.00  0.00    -0.245 OA
BRANCH   7   9
ATOM      9  C   UNL A   1      33.177  27.378  25.285  1.00  0.00     0.387 C 
BRANCH   9  10
ATOM     10  N   UNL A   1      32.538  27.827  24.031  1.00  0.00    -0.319 N 
ATOM     11  H   UNL A   1      33.314  28.251  23.524  1.00  0.00     0.349 HD
BRANCH  10  12
ATOM     12  C   UNL A   1      31.703  29.016  24.130  1.00  0.00     0.291 C 
BRANCH  12  13
ATOM     13  C   UNL A   1      30.240  28.805  23.833  1.00  0.00     0.025 C 
ATOM     14  C   UNL A   1      29.704  28.729  22.606  1.00  0.00     0.010 C 
ENDBRANCH  12  13
ENDBRANCH  10  12
BRANCH  10  15
ATOM     15  C   UNL A   1      32.331  26.854  22.965  1.00  0.00     0.299 C 
BRANCH  15  16
ATOM     16  C   UNL A   1      32.516  25.410  23.340  1.00  0.00     0.006 A 
ATOM     17  C   UNL A   1      31.187  24.535  24.188  1.00  0.00     0.010 A 
ATOM     18  C   UNL A   1      34.077  24.555  22.997  1.00  0.00     0.010 A 
ATOM     19  C   UNL A   1      31.406  22.830  24.708  1.00  0.00     0.013 A 
ATOM     20  C   UNL A   1      34.302  22.833  23.520  1.00  0.00     0.013 A 
ATOM     21  C   UNL A   1      32.956  21.966  24.369  1.00  0.00     0.056 A 
BRANCH  21  22
ATOM     22  C   UNL A   1      33.027  20.510  24.723  1.00  0.00     0.416 C 
ATOM     23  F   UNL A   1      33.262  19.697  23.663  1.00  0.00    -0.166 F 
ATOM     24  F   UNL A   1      34.021  20.256  25.623  1.00  0.00    -0.166 F 
ATOM     25  F   UNL A   1      31.883  20.060  25.308  1.00  0.00    -0.166 F 
ENDBRANCH  21  22
ENDBRANCH  15  16
ENDBRANCH  10  15
ENDBRANCH   9  10
ENDBRANCH   7   9
ENDBRANCH   6   7
ENDBRANCH   5   6
ENDBRANCH   4   5
ENDBRANCH   3   4
ENDBRANCH   2   3
ENDBRANCH   1   2
BRANCH   1  26
ATOM     26  O   UNL A   1      39.665  28.463  30.904  1.00  0.00    -0.377 OA
BRANCH  26  27
ATOM     27  C   UNL A   1      40.495  29.601  31.056  1.00  0.00     0.188 C 
BRANCH  27  28
ATOM     28  C   UNL A   1      41.688  29.876  30.117  1.00  0.00     0.188 C 
BRANCH  28  29
ATOM     29  O   UNL A   1      42.717  28.945  29.836  1.00  0.00    -0.376 OA
BRANCH  29  30
ATOM     30  C   UNL A   1      44.057  29.335  29.615  1.00  0.00     0.202 C 
BRANCH  30  31
ATOM     31  C   UNL A   1      44.785  30.287  30.561  1.00  0.00     0.261 C 
BRANCH  31  32
ATOM     32  O   UNL A   1      46.192  30.088  30.658  1.00  0.00    -0.460 OA
BRANCH  32  33
ATOM     33  C   UNL A   1      46.598  29.258  31.651  1.00  0.00     0.338 C 
ATOM     34  O   UNL A   1      47.429  28.373  31.590  1.00  0.00    -0.246 OA
BRANCH  33  35
ATOM     35  C   UNL A   1      45.980  29.750  32.893  1.00  0.00     0.060 A 
ATOM     36  C   UNL A   1      45.217  28.869  33.683  1.00  0.00     0.016 A 
ATOM     37  C   UNL A   1      46.237  31.055  33.312  1.00  0.00     0.016 A 
ATOM     38  C   UNL A   1      44.719  29.290  34.910  1.00  0.00     0.010 A 
ATOM     39  C   UNL A   1      45.664  31.503  34.494  1.00  0.00     0.010 A 
ATOM     40  C   UNL A   1      44.868  30.634  35.266  1.00  0.00    -0.014 A 
BRANCH  40  41
ATOM     41  C   UNL A   1      43.865  31.254  36.149  1.00  0.00     0.031 A 
ATOM     42  C   UNL A   1      44.196  31.234  37.616  1.00  0.00     0.074 A 
ATOM     43  C   UNL A   1      42.693  31.715  35.689  1.00  0.00     0.049 A 
ATOM     44  N   UNL A   1      43.427  31.460  38.644  1.00  0.00    -0.248 NA
ATOM     45  C   UNL A   1      45.583  30.876  37.973  1.00  0.00     0.031 C 
ATOM     46  C   UNL A   1      42.313  31.830  34.283  1.00  0.00     0.029 A 
ATOM     47  N   UNL A   1      41.586  32.140  36.376  1.00  0.00    -0.354 N 
ATOM     48  C   UNL A   1      44.234  31.259  39.758  1.00  0.00     0.074 A 
ATOM     49  C   UNL A   1      45.539  30.865  39.292  1.00  0.00     0.031 C 
ATOM     50  C   UNL A   1      41.039  32.263  34.212  1.00  0.00     0.029 A 
ATOM     51  C   UNL A   1      40.507  32.401  35.567  1.00  0.00     0.049 A 
ATOM     52  H   UNL A   1      41.566  32.247  37.355  1.00  0.00     0.167 HD
ATOM     53  C   UNL A   1      43.911  31.392  41.061  1.00  0.00     0.037 A 
ATOM     54  C   UNL A   1      39.230  32.674  35.903  1.00  0.00     0.037 A 
ATOM     55  C   UNL A   1      42.595  31.747  41.504  1.00  0.00     0.049 A 
ATOM     56  C   UNL A   1      38.863  32.716  37.370  1.00  0.00     0.074 A 
ATOM     57  C   UNL A   1      42.132  31.887  42.796  1.00  0.00     0.029 A 
ATOM     58  N   UNL A   1      41.530  32.010  40.656  1.00  0.00    -0.354 N 
ATOM     59  N   UNL A   1      39.627  32.521  38.422  1.00  0.00    -0.248 NA
ATOM     60  C   UNL A   1      37.461  33.008  37.698  1.00  0.00     0.031 C 
ATOM     61  C   UNL A   1      40.768  32.185  42.730  1.00  0.00     0.029 A 
ATOM     62  C   UNL A   1      40.403  32.304  41.397  1.00  0.00     0.049 A 
ATOM     63  H   UNL A   1      41.570  31.988  39.672  1.00  0.00     0.167 HD
ATOM     64  C   UNL A   1      38.811  32.727  39.531  1.00  0.00     0.074 A 
ATOM     65  C   UNL A   1      37.494  33.049  39.023  1.00  0.00     0.031 C 
ATOM     66  C   UNL A   1      39.119  32.665  40.851  1.00  0.00     0.037 A 
BRANCH  53  67
ATOM     67  C   UNL A   1      44.984  31.121  42.075  1.00  0.00     0.058 A 
ATOM     68  C   UNL A   1      45.820  32.144  42.553  1.00  0.00     0.135 A 
ATOM     69  C   UNL A   1      45.174  29.827  42.584  1.00  0.00     0.135 A 
ATOM     70  F   UNL A   1      45.709  33.391  42.069  1.00  0.00    -0.206 F 
ATOM     71  C   UNL A   1      46.812  31.891  43.493  1.00  0.00     0.059 A 
ATOM     72  C   UNL A   1      46.138  29.557  43.550  1.00  0.00     0.059 A 
ATOM     73  F   UNL A   1      44.419  28.808  42.143  1.00  0.00    -0.206 F 
ATOM     74  C   UNL A   1      46.956  30.595  43.993  1.00  0.00     0.060 A 
BRANCH  74  75
ATOM     75  S   UNL A   1      48.220  30.297  45.245  1.00  0.00     0.124 S 
ATOM     76  O   UNL A   1      48.675  28.956  44.889  1.00  0.00    -0.237 OA
ATOM     77  O   UNL A   1      49.168  31.377  44.989  1.00  0.00    -0.237 OA
ATOM     78  O   UNL A   1      47.485  30.396  46.502  1.00  0.00    -0.744 OA
ENDBRANCH  74  75
ENDBRANCH  53  67
BRANCH  54  79
ATOM     79  C   UNL A   1      38.201  32.916  34.855  1.00  0.00     0.058 A 
ATOM     80  C   UNL A   1      37.503  31.847  34.273  1.00  0.00     0.135 A 
ATOM     81  C   UNL A   1      37.915  34.209  34.386  1.00  0.00     0.135 A 
ATOM     82  F   UNL A   1      37.744  30.591  34.678  1.00  0.00    -0.206 F 
ATOM     83  C   UNL A   1      36.588  32.043  33.244  1.00  0.00     0.059 A 
ATOM     84  C   UNL A   1      36.980  34.434  33.380  1.00  0.00     0.059 A 
ATOM     85  F   UNL A   1      38.542  35.272  34.914  1.00  0.00    -0.206 F 
ATOM     86  C   UNL A   1      36.333  33.343  32.804  1.00  0.00     0.060 A 
BRANCH  86  87
ATOM     87  S   UNL A   1      35.130  33.583  31.479  1.00  0.00     0.124 S 
ATOM     88  O   UNL A   1      35.985  33.574  30.299  1.00  0.00    -0.237 OA
ATOM     89  O   UNL A   1      34.258  32.425  31.646  1.00  0.00    -0.237 OA
ATOM     90  O   UNL A   1      34.521  34.869  31.808  1.00  0.00    -0.744 OA
ENDBRANCH  86  87
ENDBRANCH  54  79
BRANCH  66  91
ATOM     91  C   UNL A   1      38.054  33.045  41.843  1.00  0.00     0.058 A 
ATOM     92  C   UNL A   1      37.172  32.104  42.391  1.00  0.00     0.135 A 
ATOM     93  C   UNL A   1      38.002  34.363  42.331  1.00  0.00     0.135 A 
ATOM     94  F   UNL A   1      37.180  30.835  41.956  1.00  0.00    -0.206 F 
ATOM     95  C   UNL A   1      36.264  32.459  43.383  1.00  0.00     0.059 A 
ATOM     96  C   UNL A   1      37.128  34.730  43.346  1.00  0.00     0.059 A 
ATOM     97  F   UNL A   1      38.837  35.297  41.848  1.00  0.00    -0.206 F 
ATOM     98  C   UNL A   1      36.258  33.772  43.862  1.00  0.00     0.060 A 
BRANCH  98  99
ATOM     99  S   UNL A   1      35.124  34.198  45.199  1.00  0.00     0.124 S 
ATOM    100  O   UNL A   1      34.188  35.087  44.520  1.00  0.00    -0.237 OA
ATOM    101  O   UNL A   1      34.594  32.892  45.582  1.00  0.00    -0.237 OA
ATOM    102  O   UNL A   1      35.988  34.833  46.189  1.00  0.00    -0.744 OA
ENDBRANCH  98  99
ENDBRANCH  66  91
ENDBRANCH  40  41
ENDBRANCH  33  35
ENDBRANCH  32  33
ENDBRANCH  31  32
ENDBRANCH  30  31
ENDBRANCH  29  30
ENDBRANCH  28  29
ENDBRANCH  27  28
ENDBRANCH  26  27
ENDBRANCH   1  26
TORSDOF 29
ENDMDL
MODEL 3
REMARK VINA RESULT:      -6.3      7.151     12.323
REMARK SMILES C=CC[N@@H+](CC(=O)OCCOCCOCCOCCOC(=O)c1ccc(-c2c3nc(c(-c4c(F)cc(S(=O)(=O)[O-])cc4F)c4ccc([nH]4)c(-c4c(F)cc(S(=O)(=O)[O-])cc4F)c4nc(c(-c5c(F)cc(S(=O)(=O)[O-])cc5F)c5ccc2[nH]5)C=C4)C=C3)cc1)Cc1ccc(C(F)(F)F)cc1
REMARK SMILES IDX 13 1 12 2 11 3 10 4 9 5 8 6 6 7 7 8 5 9 4 10 3 12 2 13 1 14
REMARK SMILES IDX 89 15 90 16 91 17 99 18 92 19 98 20 93 21 94 22 95 23 96 24
REMARK SMILES IDX 97 25 14 26 15 27 16 28 17 29 18 30 19 31 20 32 21 33 22 34
REMARK SMILES IDX 23 35 24 36 88 37 25 38 87 39 26 40 27 41 28 42 81 43 29 44
REMARK SMILES IDX 86 45 80 46 82 47 30 48 85 49 79 50 78 51 31 53 65 54 44 55
REMARK SMILES IDX 64 56 45 57 48 58 63 59 83 60 46 61 47 62 62 64 84 65 49 66
REMARK SMILES IDX 32 67 33 68 42 69 34 70 35 71 41 72 43 73 36 74 37 75 38 76
REMARK SMILES IDX 39 77 40 78 66 79 67 80 76 81 68 82 69 83 75 84 77 85 70 86
REMARK SMILES IDX 71 87 72 88 73 89 74 90 50 91 51 92 60 93 52 94 53 95 59 96
REMARK SMILES IDX 61 97 54 98 55 99 56 100 57 101 58 102
REMARK H PARENT 4 11 82 52 48 63
REMARK Flexibility Score: inf
ROOT
ATOM      1  C   UNL A   1      38.479  28.715  29.961  1.00  0.00     0.188 C 
ENDROOT
BRANCH   1   2
ATOM      2  C   UNL A   1      37.275  30.418  29.319  1.00  0.00     0.188 C 
BRANCH   2   3
ATOM      3  O   UNL A   1      35.968  30.518  28.531  1.00  0.00    -0.376 OA
BRANCH   3   4
ATOM      4  C   UNL A   1      35.458  29.415  27.779  1.00  0.00     0.202 C 
BRANCH   4   5
ATOM      5  C   UNL A   1      34.034  29.250  27.170  1.00  0.00     0.261 C 
BRANCH   5   6
ATOM      6  O   UNL A   1      33.135  28.204  27.588  1.00  0.00    -0.459 OA
BRANCH   6   7
ATOM      7  C   UNL A   1      32.397  27.612  26.611  1.00  0.00     0.361 C 
ATOM      8  O   UNL A   1      31.251  27.201  26.793  1.00  0.00    -0.245 OA
BRANCH   7   9
ATOM      9  C   UNL A   1      33.120  27.404  25.273  1.00  0.00     0.387 C 
BRANCH   9  10
ATOM     10  N   UNL A   1      32.567  27.947  24.016  1.00  0.00    -0.319 N 
ATOM     11  H   UNL A   1      33.334  28.517  23.661  1.00  0.00     0.349 HD
BRANCH  10  12
ATOM     12  C   UNL A   1      31.587  29.014  24.158  1.00  0.00     0.291 C 
BRANCH  12  13
ATOM     13  C   UNL A   1      30.217  28.713  23.603  1.00  0.00     0.025 C 
ATOM     14  C   UNL A   1      29.330  29.632  23.197  1.00  0.00     0.010 C 
ENDBRANCH  12  13
ENDBRANCH  10  12
BRANCH  10  15
ATOM     15  C   UNL A   1      32.594  27.110  22.822  1.00  0.00     0.299 C 
BRANCH  15  16
ATOM     16  C   UNL A   1      32.639  25.626  23.053  1.00  0.00     0.006 A 
ATOM     17  C   UNL A   1      31.098  24.697  23.169  1.00  0.00     0.010 A 
ATOM     18  C   UNL A   1      34.222  24.768  23.268  1.00  0.00     0.010 A 
ATOM     19  C   UNL A   1      31.121  22.934  23.512  1.00  0.00     0.013 A 
ATOM     20  C   UNL A   1      34.250  22.989  23.614  1.00  0.00     0.013 A 
ATOM     21  C   UNL A   1      32.692  22.068  23.726  1.00  0.00     0.056 A 
BRANCH  21  22
ATOM     22  C   UNL A   1      32.643  20.578  23.890  1.00  0.00     0.416 C 
ATOM     23  F   UNL A   1      33.835  20.021  24.219  1.00  0.00    -0.166 F 
ATOM     24  F   UNL A   1      31.768  20.205  24.869  1.00  0.00    -0.166 F 
ATOM     25  F   UNL A   1      32.219  19.944  22.763  1.00  0.00    -0.166 F 
ENDBRANCH  21  22
ENDBRANCH  15  16
ENDBRANCH  10  15
ENDBRANCH   9  10
ENDBRANCH   7   9
ENDBRANCH   6   7
ENDBRANCH   5   6
ENDBRANCH   4   5
ENDBRANCH   3   4
ENDBRANCH   2   3
ENDBRANCH   1   2
BRANCH   1  26
ATOM     26  O   UNL A   1      39.909  28.631  30.484  1.00  0.00    -0.377 OA
BRANCH  26  27
ATOM     27  C   UNL A   1      40.897  29.432  29.860  1.00  0.00     0.188 C 
BRANCH  27  28
ATOM     28  C   UNL A   1      41.189  30.876  30.317  1.00  0.00     0.188 C 
BRANCH  28  29
ATOM     29  O   UNL A   1      40.264  31.944  30.236  1.00  0.00    -0.376 OA
BRANCH  29  30
ATOM     30  C   UNL A   1      40.647  33.296  30.380  1.00  0.00     0.202 C 
BRANCH  30  31
ATOM     31  C   UNL A   1      41.967  33.824  29.822  1.00  0.00     0.261 C 
BRANCH  31  32
ATOM     32  O   UNL A   1      41.968  35.204  29.470  1.00  0.00    -0.460 OA
BRANCH  32  33
ATOM     33  C   UNL A   1      42.154  35.472  28.154  1.00  0.00     0.338 C 
ATOM     34  O   UNL A   1      41.437  36.120  27.416  1.00  0.00    -0.246 OA
BRANCH  33  35
ATOM     35  C   UNL A   1      43.502  34.989  27.810  1.00  0.00     0.060 A 
ATOM     36  C   UNL A   1      43.734  34.436  26.536  1.00  0.00     0.016 A 
ATOM     37  C   UNL A   1      44.544  35.172  28.718  1.00  0.00     0.016 A 
ATOM     38  C   UNL A   1      45.023  34.076  26.160  1.00  0.00     0.010 A 
ATOM     39  C   UNL A   1      45.814  34.729  28.376  1.00  0.00     0.010 A 
ATOM     40  C   UNL A   1      46.040  34.140  27.117  1.00  0.00    -0.014 A 
BRANCH  40  41
ATOM     41  C   UNL A   1      47.182  33.214  27.008  1.00  0.00     0.031 A 
ATOM     42  C   UNL A   1      48.518  33.863  26.771  1.00  0.00     0.074 A 
ATOM     43  C   UNL A   1      47.027  31.882  27.020  1.00  0.00     0.049 A 
ATOM     44  N   UNL A   1      49.643  33.329  26.385  1.00  0.00    -0.248 NA
ATOM     45  C   UNL A   1      48.584  35.325  26.967  1.00  0.00     0.031 C 
ATOM     46  C   UNL A   1      45.784  31.169  27.303  1.00  0.00     0.029 A 
ATOM     47  N   UNL A   1      47.933  30.892  26.745  1.00  0.00    -0.354 N 
ATOM     48  C   UNL A   1      50.536  34.390  26.282  1.00  0.00     0.074 A 
ATOM     49  C   UNL A   1      49.826  35.599  26.614  1.00  0.00     0.031 C 
ATOM     50  C   UNL A   1      45.999  29.848  27.150  1.00  0.00     0.029 A 
ATOM     51  C   UNL A   1      47.376  29.637  26.708  1.00  0.00     0.049 A 
ATOM     52  H   UNL A   1      48.890  31.063  26.588  1.00  0.00     0.167 HD
ATOM     53  C   UNL A   1      51.841  34.356  25.938  1.00  0.00     0.037 A 
ATOM     54  C   UNL A   1      47.922  28.468  26.315  1.00  0.00     0.037 A 
ATOM     55  C   UNL A   1      52.517  33.146  25.573  1.00  0.00     0.049 A 
ATOM     56  C   UNL A   1      49.356  28.467  25.833  1.00  0.00     0.074 A 
ATOM     57  C   UNL A   1      53.828  32.981  25.178  1.00  0.00     0.029 A 
ATOM     58  N   UNL A   1      51.922  31.894  25.553  1.00  0.00    -0.354 N 
ATOM     59  N   UNL A   1      50.197  29.472  25.732  1.00  0.00    -0.248 NA
ATOM     60  C   UNL A   1      49.914  27.177  25.404  1.00  0.00     0.031 C 
ATOM     61  C   UNL A   1      54.014  31.631  24.868  1.00  0.00     0.029 A 
ATOM     62  C   UNL A   1      52.839  30.947  25.143  1.00  0.00     0.049 A 
ATOM     63  H   UNL A   1      50.985  31.707  25.795  1.00  0.00     0.167 HD
ATOM     64  C   UNL A   1      51.397  28.923  25.288  1.00  0.00     0.074 A 
ATOM     65  C   UNL A   1      51.169  27.502  25.128  1.00  0.00     0.031 C 
ATOM     66  C   UNL A   1      52.584  29.532  25.041  1.00  0.00     0.037 A 
BRANCH  53  67
ATOM     67  C   UNL A   1      52.587  35.658  25.913  1.00  0.00     0.058 A 
ATOM     68  C   UNL A   1      53.267  36.138  27.045  1.00  0.00     0.135 A 
ATOM     69  C   UNL A   1      52.635  36.430  24.743  1.00  0.00     0.135 A 
ATOM     70  F   UNL A   1      53.219  35.459  28.202  1.00  0.00    -0.206 F 
ATOM     71  C   UNL A   1      53.959  37.343  27.019  1.00  0.00     0.059 A 
ATOM     72  C   UNL A   1      53.349  37.622  24.684  1.00  0.00     0.059 A 
ATOM     73  F   UNL A   1      51.982  36.029  23.640  1.00  0.00    -0.206 F 
ATOM     74  C   UNL A   1      54.004  38.073  25.830  1.00  0.00     0.060 A 
BRANCH  74  75
ATOM     75  S   UNL A   1      54.944  39.611  25.804  1.00  0.00     0.124 S 
ATOM     76  O   UNL A   1      54.179  40.408  24.850  1.00  0.00    -0.237 OA
ATOM     77  O   UNL A   1      54.866  40.042  27.197  1.00  0.00    -0.237 OA
ATOM     78  O   UNL A   1      56.268  39.194  25.353  1.00  0.00    -0.744 OA
ENDBRANCH  74  75
ENDBRANCH  53  67
BRANCH  54  79
ATOM     79  C   UNL A   1      47.128  27.208  26.342  1.00  0.00     0.058 A 
ATOM     80  C   UNL A   1      46.336  26.835  25.246  1.00  0.00     0.135 A 
ATOM     81  C   UNL A   1      47.113  26.370  27.469  1.00  0.00     0.135 A 
ATOM     82  F   UNL A   1      46.309  27.605  24.147  1.00  0.00    -0.206 F 
ATOM     83  C   UNL A   1      45.533  25.700  25.276  1.00  0.00     0.059 A 
ATOM     84  C   UNL A   1      46.343  25.212  27.510  1.00  0.00     0.059 A 
ATOM     85  F   UNL A   1      47.860  26.671  28.543  1.00  0.00    -0.206 F 
ATOM     86  C   UNL A   1      45.544  24.893  26.414  1.00  0.00     0.060 A 
BRANCH  86  87
ATOM     87  S   UNL A   1      44.509  23.413  26.432  1.00  0.00     0.124 S 
ATOM     88  O   UNL A   1      43.256  23.936  26.963  1.00  0.00    -0.237 OA
ATOM     89  O   UNL A   1      44.498  23.034  25.023  1.00  0.00    -0.237 OA
ATOM     90  O   UNL A   1      45.238  22.505  27.312  1.00  0.00    -0.744 OA
ENDBRANCH  86  87
ENDBRANCH  54  79
BRANCH  66  91
ATOM     91  C   UNL A   1      53.757  28.667  24.671  1.00  0.00     0.058 A 
ATOM     92  C   UNL A   1      54.045  28.325  23.342  1.00  0.00     0.135 A 
ATOM     93  C   UNL A   1      54.669  28.273  25.666  1.00  0.00     0.135 A 
ATOM     94  F   UNL A   1      53.205  28.675  22.356  1.00  0.00    -0.206 F 
ATOM     95  C   UNL A   1      55.193  27.611  23.013  1.00  0.00     0.059 A 
ATOM     96  C   UNL A   1      55.839  27.591  25.356  1.00  0.00     0.059 A 
ATOM     97  F   UNL A   1      54.445  28.590  26.952  1.00  0.00    -0.206 F 
ATOM     98  C   UNL A   1      56.089  27.259  24.026  1.00  0.00     0.060 A 
BRANCH  98  99
ATOM     99  S   UNL A   1      57.608  26.397  23.574  1.00  0.00     0.124 S 
ATOM    100  O   UNL A   1      57.455  25.135  24.290  1.00  0.00    -0.237 OA
ATOM    101  O   UNL A   1      57.497  26.318  22.120  1.00  0.00    -0.237 OA
ATOM    102  O   UNL A   1      58.661  27.277  24.070  1.00  0.00    -0.744 OA
ENDBRANCH  98  99
ENDBRANCH  66  91
ENDBRANCH  40  41
ENDBRANCH  33  35
ENDBRANCH  32  33
ENDBRANCH  31  32
ENDBRANCH  30  31
ENDBRANCH  29  30
ENDBRANCH  28  29
ENDBRANCH  27  28
ENDBRANCH  26  27
ENDBRANCH   1  26
TORSDOF 29
ENDMDL
