MODEL 1
REMARK VINA RESULT:      -7.4      0.000      0.000
REMARK SMILES O=C(OCCOCCOCCOCCOC(=O)c1ccc(-c2c3nc(c(-c4c(F)cc(S(=O)(=O)[O-])cc4F)c4ccc([nH]4)c(-c4c(F)cc(S(=O)(=O)[O-])cc4F)c4nc(c(-c5c(F)cc(S(=O)(=O)[O-])cc5F)c5ccc2[nH]5)C=C4)C=C3)cc1)C1=Cc2c(ccc(Cl)c2Cl)O[C@H]1C(F)(F)F
REMARK SMILES IDX 10 1 9 2 8 3 7 4 6 5 5 6 4 7 3 8 2 9 1 10 84 11 85 12 95 13
REMARK SMILES IDX 86 14 94 15 87 16 92 17 88 18 90 19 93 20 89 21 91 22 96 23
REMARK SMILES IDX 97 24 98 25 99 26 11 27 12 28 13 29 14 30 15 31 16 32 17 33
REMARK SMILES IDX 18 34 19 35 83 36 20 37 82 38 21 39 22 40 23 41 76 42 24 43
REMARK SMILES IDX 81 44 75 45 77 46 25 47 80 48 74 49 73 50 26 52 60 53 39 54
REMARK SMILES IDX 59 55 40 56 43 57 58 58 78 59 41 60 42 61 57 63 79 64 44 65
REMARK SMILES IDX 27 66 28 67 37 68 29 69 30 70 36 71 38 72 31 73 32 74 33 75
REMARK SMILES IDX 34 76 35 77 61 78 62 79 71 80 63 81 64 82 70 83 72 84 65 85
REMARK SMILES IDX 66 86 67 87 68 88 69 89 45 90 46 91 55 92 47 93 48 94 54 95
REMARK SMILES IDX 56 96 49 97 50 98 51 99 52 100 53 101
REMARK H PARENT 77 51 43 62
REMARK Flexibility Score: inf
ROOT
ATOM      1  C   UNL A   1      32.844  35.432  31.808  1.00  0.00     0.188 C 
ENDROOT
BRANCH   1   2
ATOM      2  O   UNL A   1      33.163  35.228  33.184  1.00  0.00    -0.377 OA
BRANCH   2   3
ATOM      3  C   UNL A   1      34.392  35.753  33.664  1.00  0.00     0.188 C 
BRANCH   3   4
ATOM      4  C   UNL A   1      35.528  34.736  33.786  1.00  0.00     0.188 C 
BRANCH   4   5
ATOM      5  O   UNL A   1      35.053  33.430  34.078  1.00  0.00    -0.376 OA
BRANCH   5   6
ATOM      6  C   UNL A   1      35.377  32.454  33.094  1.00  0.00     0.202 C 
BRANCH   6   7
ATOM      7  C   UNL A   1      36.630  31.663  33.471  1.00  0.00     0.261 C 
BRANCH   7   8
ATOM      8  O   UNL A   1      37.374  32.251  34.569  1.00  0.00    -0.460 OA
BRANCH   8   9
ATOM      9  C   UNL A   1      38.278  31.697  35.414  1.00  0.00     0.338 C 
ATOM     10  O   UNL A   1      38.336  30.472  35.503  1.00  0.00    -0.246 OA
BRANCH   9  11
ATOM     11  C   UNL A   1      39.292  32.499  36.138  1.00  0.00     0.087 C 
ATOM     12  C   UNL A   1      39.989  33.483  35.583  1.00  0.00     0.029 C 
ATOM     13  C   UNL A   1      39.285  32.446  37.657  1.00  0.00     0.316 C 
ATOM     14  C   UNL A   1      41.125  34.094  36.210  1.00  0.00     0.037 A 
ATOM     15  O   UNL A   1      40.346  33.223  38.326  1.00  0.00    -0.475 OA
ATOM     16  C   UNL A   1      41.202  33.993  37.589  1.00  0.00     0.129 A 
ATOM     17  C   UNL A   1      42.099  34.789  35.459  1.00  0.00     0.070 A 
ATOM     18  C   UNL A   1      42.199  34.706  38.248  1.00  0.00     0.049 A 
ATOM     19  C   UNL A   1      43.082  35.511  36.127  1.00  0.00     0.060 A 
ATOM     20  Cl  UNL A   1      42.116  34.684  33.721  1.00  0.00    -0.082 Cl
ATOM     21  C   UNL A   1      43.116  35.482  37.522  1.00  0.00     0.026 A 
ATOM     22  Cl  UNL A   1      44.247  36.475  35.292  1.00  0.00    -0.083 Cl
BRANCH  13  23
ATOM     23  C   UNL A   1      37.901  32.955  38.170  1.00  0.00     0.430 C 
ATOM     24  F   UNL A   1      37.223  33.660  37.229  1.00  0.00    -0.167 F 
ATOM     25  F   UNL A   1      37.103  31.938  38.571  1.00  0.00    -0.167 F 
ATOM     26  F   UNL A   1      38.030  33.780  39.240  1.00  0.00    -0.167 F 
ENDBRANCH  13  23
ENDBRANCH   9  11
ENDBRANCH   8   9
ENDBRANCH   7   8
ENDBRANCH   6   7
ENDBRANCH   5   6
ENDBRANCH   4   5
ENDBRANCH   3   4
ENDBRANCH   2   3
ENDBRANCH   1   2
BRANCH   1  27
ATOM     27  C   UNL A   1      33.477  36.705  31.200  1.00  0.00     0.188 C 
BRANCH  27  28
ATOM     28  O   UNL A   1      32.927  37.289  30.016  1.00  0.00    -0.376 OA
BRANCH  28  29
ATOM     29  C   UNL A   1      33.526  36.948  28.774  1.00  0.00     0.202 C 
BRANCH  29  30
ATOM     30  C   UNL A   1      33.351  35.457  28.415  1.00  0.00     0.261 C 
BRANCH  30  31
ATOM     31  O   UNL A   1      34.547  34.816  27.923  1.00  0.00    -0.460 OA
BRANCH  31  32
ATOM     32  C   UNL A   1      34.674  33.502  28.239  1.00  0.00     0.338 C 
ATOM     33  O   UNL A   1      33.897  32.606  27.933  1.00  0.00    -0.246 OA
BRANCH  32  34
ATOM     34  C   UNL A   1      35.985  33.247  28.901  1.00  0.00     0.060 A 
ATOM     35  C   UNL A   1      36.314  34.021  30.021  1.00  0.00     0.016 A 
ATOM     36  C   UNL A   1      36.892  32.285  28.441  1.00  0.00     0.016 A 
ATOM     37  C   UNL A   1      37.570  33.901  30.627  1.00  0.00     0.010 A 
ATOM     38  C   UNL A   1      38.155  32.162  29.050  1.00  0.00     0.010 A 
ATOM     39  C   UNL A   1      38.524  33.012  30.111  1.00  0.00    -0.014 A 
BRANCH  39  40
ATOM     40  C   UNL A   1      39.954  33.175  30.507  1.00  0.00     0.031 A 
ATOM     41  C   UNL A   1      40.544  32.158  31.460  1.00  0.00     0.074 A 
ATOM     42  C   UNL A   1      40.750  34.130  29.988  1.00  0.00     0.049 A 
ATOM     43  N   UNL A   1      41.762  32.062  31.930  1.00  0.00    -0.248 NA
ATOM     44  C   UNL A   1      39.631  31.110  31.943  1.00  0.00     0.031 C 
ATOM     45  C   UNL A   1      40.334  35.153  29.030  1.00  0.00     0.029 A 
ATOM     46  N   UNL A   1      42.086  34.391  30.194  1.00  0.00    -0.354 N 
ATOM     47  C   UNL A   1      41.763  30.937  32.750  1.00  0.00     0.074 A 
ATOM     48  C   UNL A   1      40.413  30.419  32.759  1.00  0.00     0.031 C 
ATOM     49  C   UNL A   1      41.391  35.934  28.738  1.00  0.00     0.029 A 
ATOM     50  C   UNL A   1      42.556  35.483  29.501  1.00  0.00     0.049 A 
ATOM     51  H   UNL A   1      42.654  33.844  30.784  1.00  0.00     0.167 HD
ATOM     52  C   UNL A   1      42.794  30.366  33.418  1.00  0.00     0.037 A 
ATOM     53  C   UNL A   1      43.778  36.060  29.493  1.00  0.00     0.037 A 
ATOM     54  C   UNL A   1      44.140  30.877  33.423  1.00  0.00     0.049 A 
ATOM     55  C   UNL A   1      44.897  35.453  30.309  1.00  0.00     0.074 A 
ATOM     56  C   UNL A   1      45.247  30.376  34.085  1.00  0.00     0.029 A 
ATOM     57  N   UNL A   1      44.562  32.005  32.736  1.00  0.00    -0.354 N 
ATOM     58  N   UNL A   1      44.881  34.382  31.069  1.00  0.00    -0.248 NA
ATOM     59  C   UNL A   1      46.203  36.127  30.258  1.00  0.00     0.031 C 
ATOM     60  C   UNL A   1      46.328  31.228  33.838  1.00  0.00     0.029 A 
ATOM     61  C   UNL A   1      45.910  32.226  32.972  1.00  0.00     0.049 A 
ATOM     62  H   UNL A   1      43.989  32.566  32.165  1.00  0.00     0.167 HD
ATOM     63  C   UNL A   1      46.179  34.241  31.558  1.00  0.00     0.074 A 
ATOM     64  C   UNL A   1      46.956  35.322  30.994  1.00  0.00     0.031 C 
ATOM     65  C   UNL A   1      46.680  33.301  32.399  1.00  0.00     0.037 A 
BRANCH  52  66
ATOM     66  C   UNL A   1      42.501  29.122  34.214  1.00  0.00     0.058 A 
ATOM     67  C   UNL A   1      42.692  27.840  33.673  1.00  0.00     0.135 A 
ATOM     68  C   UNL A   1      42.055  29.212  35.543  1.00  0.00     0.135 A 
ATOM     69  F   UNL A   1      43.096  27.696  32.400  1.00  0.00    -0.206 F 
ATOM     70  C   UNL A   1      42.429  26.691  34.412  1.00  0.00     0.059 A 
ATOM     71  C   UNL A   1      41.816  28.076  36.311  1.00  0.00     0.059 A 
ATOM     72  F   UNL A   1      41.852  30.410  36.109  1.00  0.00    -0.206 F 
ATOM     73  C   UNL A   1      41.995  26.820  35.733  1.00  0.00     0.060 A 
BRANCH  73  74
ATOM     74  S   UNL A   1      41.674  25.319  36.683  1.00  0.00     0.124 S 
ATOM     75  O   UNL A   1      41.508  24.331  35.621  1.00  0.00    -0.237 OA
ATOM     76  O   UNL A   1      42.888  25.192  37.482  1.00  0.00    -0.237 OA
ATOM     77  O   UNL A   1      40.464  25.642  37.432  1.00  0.00    -0.744 OA
ENDBRANCH  73  74
ENDBRANCH  52  66
BRANCH  53  78
ATOM     78  C   UNL A   1      44.018  37.305  28.706  1.00  0.00     0.058 A 
ATOM     79  C   UNL A   1      44.453  37.262  27.371  1.00  0.00     0.135 A 
ATOM     80  C   UNL A   1      43.863  38.570  29.294  1.00  0.00     0.135 A 
ATOM     81  F   UNL A   1      44.640  36.080  26.764  1.00  0.00    -0.206 F 
ATOM     82  C   UNL A   1      44.748  38.422  26.657  1.00  0.00     0.059 A 
ATOM     83  C   UNL A   1      44.120  39.745  28.593  1.00  0.00     0.059 A 
ATOM     84  F   UNL A   1      43.447  38.674  30.566  1.00  0.00    -0.206 F 
ATOM     85  C   UNL A   1      44.576  39.661  27.278  1.00  0.00     0.060 A 
BRANCH  85  86
ATOM     86  S   UNL A   1      44.928  41.163  26.339  1.00  0.00     0.124 S 
ATOM     87  O   UNL A   1      46.349  41.005  26.048  1.00  0.00    -0.237 OA
ATOM     88  O   UNL A   1      44.024  41.030  25.201  1.00  0.00    -0.237 OA
ATOM     89  O   UNL A   1      44.590  42.231  27.274  1.00  0.00    -0.744 OA
ENDBRANCH  85  86
ENDBRANCH  53  78
BRANCH  65  90
ATOM     90  C   UNL A   1      48.150  33.368  32.730  1.00  0.00     0.058 A 
ATOM     91  C   UNL A   1      49.120  32.715  31.952  1.00  0.00     0.135 A 
ATOM     92  C   UNL A   1      48.599  34.129  33.824  1.00  0.00     0.135 A 
ATOM     93  F   UNL A   1      48.751  31.976  30.894  1.00  0.00    -0.206 F 
ATOM     94  C   UNL A   1      50.474  32.780  32.269  1.00  0.00     0.059 A 
ATOM     95  C   UNL A   1      49.950  34.234  34.140  1.00  0.00     0.059 A 
ATOM     96  F   UNL A   1      47.719  34.789  34.595  1.00  0.00    -0.206 F 
ATOM     97  C   UNL A   1      50.880  33.540  33.367  1.00  0.00     0.060 A 
BRANCH  97  98
ATOM     98  S   UNL A   1      52.639  33.620  33.764  1.00  0.00     0.124 S 
ATOM     99  O   UNL A   1      53.104  32.315  33.305  1.00  0.00    -0.237 OA
ATOM    100  O   UNL A   1      53.086  34.765  32.975  1.00  0.00    -0.237 OA
ATOM    101  O   UNL A   1      52.654  33.819  35.210  1.00  0.00    -0.744 OA
ENDBRANCH  97  98
ENDBRANCH  65  90
ENDBRANCH  39  40
ENDBRANCH  32  34
ENDBRANCH  31  32
ENDBRANCH  30  31
ENDBRANCH  29  30
ENDBRANCH  28  29
ENDBRANCH  27  28
ENDBRANCH   1  27
TORSDOF 24
ENDMDL
MODEL 2
REMARK VINA RESULT:      -7.2      7.798     14.786
REMARK SMILES O=C(OCCOCCOCCOCCOC(=O)c1ccc(-c2c3nc(c(-c4c(F)cc(S(=O)(=O)[O-])cc4F)c4ccc([nH]4)c(-c4c(F)cc(S(=O)(=O)[O-])cc4F)c4nc(c(-c5c(F)cc(S(=O)(=O)[O-])cc5F)c5ccc2[nH]5)C=C4)C=C3)cc1)C1=Cc2c(ccc(Cl)c2Cl)O[C@H]1C(F)(F)F
REMARK SMILES IDX 10 1 9 2 8 3 7 4 6 5 5 6 4 7 3 8 2 9 1 10 84 11 85 12 95 13
REMARK SMILES IDX 86 14 94 15 87 16 92 17 88 18 90 19 93 20 89 21 91 22 96 23
REMARK SMILES IDX 97 24 98 25 99 26 11 27 12 28 13 29 14 30 15 31 16 32 17 33
REMARK SMILES IDX 18 34 19 35 83 36 20 37 82 38 21 39 22 40 23 41 76 42 24 43
REMARK SMILES IDX 81 44 75 45 77 46 25 47 80 48 74 49 73 50 26 52 60 53 39 54
REMARK SMILES IDX 59 55 40 56 43 57 58 58 78 59 41 60 42 61 57 63 79 64 44 65
REMARK SMILES IDX 27 66 28 67 37 68 29 69 30 70 36 71 38 72 31 73 32 74 33 75
REMARK SMILES IDX 34 76 35 77 61 78 62 79 71 80 63 81 64 82 70 83 72 84 65 85
REMARK SMILES IDX 66 86 67 87 68 88 69 89 45 90 46 91 55 92 47 93 48 94 54 95
REMARK SMILES IDX 56 96 49 97 50 98 51 99 52 100 53 101
REMARK H PARENT 77 51 43 62
REMARK Flexibility Score: inf
ROOT
ATOM      1  C   UNL A   1      47.796  43.070  29.148  1.00  0.00     0.188 C 
ENDROOT
BRANCH   1   2
ATOM      2  O   UNL A   1      47.484  44.042  28.151  1.00  0.00    -0.377 OA
BRANCH   2   3
ATOM      3  C   UNL A   1      46.113  44.303  27.886  1.00  0.00     0.188 C 
BRANCH   3   4
ATOM      4  C   UNL A   1      45.844  45.153  26.644  1.00  0.00     0.188 C 
BRANCH   4   5
ATOM      5  O   UNL A   1      44.944  44.522  25.743  1.00  0.00    -0.376 OA
BRANCH   5   6
ATOM      6  C   UNL A   1      44.703  43.148  26.021  1.00  0.00     0.202 C 
BRANCH   6   7
ATOM      7  C   UNL A   1      43.839  42.494  24.943  1.00  0.00     0.261 C 
BRANCH   7   8
ATOM      8  O   UNL A   1      43.889  43.183  23.667  1.00  0.00    -0.460 OA
BRANCH   8   9
ATOM      9  C   UNL A   1      44.666  42.962  22.578  1.00  0.00     0.338 C 
ATOM     10  O   UNL A   1      45.474  42.035  22.603  1.00  0.00    -0.246 OA
BRANCH   9  11
ATOM     11  C   UNL A   1      44.493  43.705  21.308  1.00  0.00     0.087 C 
ATOM     12  C   UNL A   1      45.426  43.785  20.366  1.00  0.00     0.029 C 
ATOM     13  C   UNL A   1      43.081  44.088  20.898  1.00  0.00     0.316 C 
ATOM     14  C   UNL A   1      45.348  44.691  19.257  1.00  0.00     0.037 A 
ATOM     15  O   UNL A   1      42.970  44.871  19.652  1.00  0.00    -0.475 OA
ATOM     16  C   UNL A   1      44.084  45.133  18.905  1.00  0.00     0.129 A 
ATOM     17  C   UNL A   1      46.500  45.086  18.542  1.00  0.00     0.070 A 
ATOM     18  C   UNL A   1      43.948  45.883  17.740  1.00  0.00     0.049 A 
ATOM     19  C   UNL A   1      46.354  45.821  17.372  1.00  0.00     0.060 A 
ATOM     20  Cl  UNL A   1      48.089  44.722  19.157  1.00  0.00    -0.082 Cl
ATOM     21  C   UNL A   1      45.074  46.201  16.964  1.00  0.00     0.026 A 
ATOM     22  Cl  UNL A   1      47.699  46.255  16.379  1.00  0.00    -0.083 Cl
BRANCH  13  23
ATOM     23  C   UNL A   1      42.233  42.787  20.743  1.00  0.00     0.430 C 
ATOM     24  F   UNL A   1      41.355  42.857  19.710  1.00  0.00    -0.167 F 
ATOM     25  F   UNL A   1      43.008  41.695  20.544  1.00  0.00    -0.167 F 
ATOM     26  F   UNL A   1      41.492  42.529  21.850  1.00  0.00    -0.167 F 
ENDBRANCH  13  23
ENDBRANCH   9  11
ENDBRANCH   8   9
ENDBRANCH   7   8
ENDBRANCH   6   7
ENDBRANCH   5   6
ENDBRANCH   4   5
ENDBRANCH   3   4
ENDBRANCH   2   3
ENDBRANCH   1   2
BRANCH   1  27
ATOM     27  C   UNL A   1      49.000  42.168  28.790  1.00  0.00     0.188 C 
BRANCH  27  28
ATOM     28  O   UNL A   1      49.075  40.832  29.295  1.00  0.00    -0.376 OA
BRANCH  28  29
ATOM     29  C   UNL A   1      49.299  39.787  28.360  1.00  0.00     0.202 C 
BRANCH  29  30
ATOM     30  C   UNL A   1      49.482  38.410  29.033  1.00  0.00     0.261 C 
BRANCH  30  31
ATOM     31  O   UNL A   1      48.693  37.350  28.452  1.00  0.00    -0.460 OA
BRANCH  31  32
ATOM     32  C   UNL A   1      49.332  36.162  28.305  1.00  0.00     0.338 C 
ATOM     33  O   UNL A   1      50.541  35.979  28.367  1.00  0.00    -0.246 OA
BRANCH  32  34
ATOM     34  C   UNL A   1      48.348  35.048  28.198  1.00  0.00     0.060 A 
ATOM     35  C   UNL A   1      48.285  34.127  29.252  1.00  0.00     0.016 A 
ATOM     36  C   UNL A   1      47.508  34.882  27.090  1.00  0.00     0.016 A 
ATOM     37  C   UNL A   1      47.455  33.003  29.168  1.00  0.00     0.010 A 
ATOM     38  C   UNL A   1      46.673  33.752  27.005  1.00  0.00     0.010 A 
ATOM     39  C   UNL A   1      46.686  32.774  28.018  1.00  0.00    -0.014 A 
BRANCH  39  40
ATOM     40  C   UNL A   1      46.127  31.410  27.781  1.00  0.00     0.031 A 
ATOM     41  C   UNL A   1      47.070  30.336  27.283  1.00  0.00     0.074 A 
ATOM     42  C   UNL A   1      44.853  31.084  28.073  1.00  0.00     0.049 A 
ATOM     43  N   UNL A   1      46.839  29.073  27.031  1.00  0.00    -0.248 NA
ATOM     44  C   UNL A   1      48.461  30.751  27.039  1.00  0.00     0.031 C 
ATOM     45  C   UNL A   1      43.841  31.999  28.597  1.00  0.00     0.029 A 
ATOM     46  N   UNL A   1      44.192  29.880  27.972  1.00  0.00    -0.354 N 
ATOM     47  C   UNL A   1      48.056  28.541  26.615  1.00  0.00     0.074 A 
ATOM     48  C   UNL A   1      49.007  29.630  26.592  1.00  0.00     0.031 C 
ATOM     49  C   UNL A   1      42.687  31.326  28.764  1.00  0.00     0.029 A 
ATOM     50  C   UNL A   1      42.868  29.937  28.341  1.00  0.00     0.049 A 
ATOM     51  H   UNL A   1      44.628  29.053  27.664  1.00  0.00     0.167 HD
ATOM     52  C   UNL A   1      48.368  27.261  26.300  1.00  0.00     0.037 A 
ATOM     53  C   UNL A   1      41.909  28.984  28.327  1.00  0.00     0.037 A 
ATOM     54  C   UNL A   1      47.428  26.171  26.312  1.00  0.00     0.049 A 
ATOM     55  C   UNL A   1      42.260  27.577  27.898  1.00  0.00     0.074 A 
ATOM     56  C   UNL A   1      47.649  24.842  25.992  1.00  0.00     0.029 A 
ATOM     57  N   UNL A   1      46.090  26.281  26.657  1.00  0.00    -0.354 N 
ATOM     58  N   UNL A   1      43.420  27.092  27.518  1.00  0.00    -0.248 NA
ATOM     59  C   UNL A   1      41.174  26.586  27.905  1.00  0.00     0.031 C 
ATOM     60  C   UNL A   1      46.434  24.158  26.097  1.00  0.00     0.029 A 
ATOM     61  C   UNL A   1      45.469  25.048  26.542  1.00  0.00     0.049 A 
ATOM     62  H   UNL A   1      45.647  27.113  26.943  1.00  0.00     0.167 HD
ATOM     63  C   UNL A   1      43.205  25.736  27.272  1.00  0.00     0.074 A 
ATOM     64  C   UNL A   1      41.813  25.475  27.564  1.00  0.00     0.031 C 
ATOM     65  C   UNL A   1      44.082  24.794  26.844  1.00  0.00     0.037 A 
BRANCH  52  66
ATOM     66  C   UNL A   1      49.792  26.971  25.906  1.00  0.00     0.058 A 
ATOM     67  C   UNL A   1      50.723  26.464  26.828  1.00  0.00     0.135 A 
ATOM     68  C   UNL A   1      50.223  27.172  24.584  1.00  0.00     0.135 A 
ATOM     69  F   UNL A   1      50.371  26.273  28.109  1.00  0.00    -0.206 F 
ATOM     70  C   UNL A   1      52.036  26.188  26.459  1.00  0.00     0.059 A 
ATOM     71  C   UNL A   1      51.523  26.874  24.186  1.00  0.00     0.059 A 
ATOM     72  F   UNL A   1      49.377  27.658  23.664  1.00  0.00    -0.206 F 
ATOM     73  C   UNL A   1      52.426  26.393  25.134  1.00  0.00     0.060 A 
BRANCH  73  74
ATOM     74  S   UNL A   1      54.128  26.015  24.670  1.00  0.00     0.124 S 
ATOM     75  O   UNL A   1      54.876  26.921  25.537  1.00  0.00    -0.237 OA
ATOM     76  O   UNL A   1      54.231  24.596  24.996  1.00  0.00    -0.237 OA
ATOM     77  O   UNL A   1      54.172  26.332  23.246  1.00  0.00    -0.744 OA
ENDBRANCH  73  74
ENDBRANCH  52  66
BRANCH  53  78
ATOM     78  C   UNL A   1      40.506  29.321  28.707  1.00  0.00     0.058 A 
ATOM     79  C   UNL A   1      39.507  29.523  27.740  1.00  0.00     0.135 A 
ATOM     80  C   UNL A   1      40.146  29.494  30.053  1.00  0.00     0.135 A 
ATOM     81  F   UNL A   1      39.799  29.392  26.437  1.00  0.00    -0.206 F 
ATOM     82  C   UNL A   1      38.215  29.909  28.090  1.00  0.00     0.059 A 
ATOM     83  C   UNL A   1      38.854  29.848  30.430  1.00  0.00     0.059 A 
ATOM     84  F   UNL A   1      41.057  29.312  31.021  1.00  0.00    -0.206 F 
ATOM     85  C   UNL A   1      37.898  30.067  29.440  1.00  0.00     0.060 A 
BRANCH  85  86
ATOM     86  S   UNL A   1      36.212  30.534  29.890  1.00  0.00     0.124 S 
ATOM     87  O   UNL A   1      35.491  30.276  28.649  1.00  0.00    -0.237 OA
ATOM     88  O   UNL A   1      35.927  29.625  30.996  1.00  0.00    -0.237 OA
ATOM     89  O   UNL A   1      36.341  31.939  30.264  1.00  0.00    -0.744 OA
ENDBRANCH  85  86
ENDBRANCH  53  78
BRANCH  65  90
ATOM     90  C   UNL A   1      43.579  23.378  26.703  1.00  0.00     0.058 A 
ATOM     91  C   UNL A   1      43.288  22.813  25.451  1.00  0.00     0.135 A 
ATOM     92  C   UNL A   1      43.419  22.564  27.837  1.00  0.00     0.135 A 
ATOM     93  F   UNL A   1      43.424  23.542  24.332  1.00  0.00    -0.206 F 
ATOM     94  C   UNL A   1      42.820  21.507  25.331  1.00  0.00     0.059 A 
ATOM     95  C   UNL A   1      42.984  21.246  27.739  1.00  0.00     0.059 A 
ATOM     96  F   UNL A   1      43.698  23.045  29.060  1.00  0.00    -0.206 F 
ATOM     97  C   UNL A   1      42.669  20.731  26.483  1.00  0.00     0.060 A 
BRANCH  97  98
ATOM     98  S   UNL A   1      42.066  19.038  26.313  1.00  0.00     0.124 S 
ATOM     99  O   UNL A   1      43.036  18.472  25.382  1.00  0.00    -0.237 OA
ATOM    100  O   UNL A   1      42.139  18.542  27.684  1.00  0.00    -0.237 OA
ATOM    101  O   UNL A   1      40.715  19.208  25.786  1.00  0.00    -0.744 OA
ENDBRANCH  97  98
ENDBRANCH  65  90
ENDBRANCH  39  40
ENDBRANCH  32  34
ENDBRANCH  31  32
ENDBRANCH  30  31
ENDBRANCH  29  30
ENDBRANCH  28  29
ENDBRANCH  27  28
ENDBRANCH   1  27
TORSDOF 24
ENDMDL
MODEL 3
REMARK VINA RESULT:      -7.1      8.265     14.964
REMARK SMILES O=C(OCCOCCOCCOCCOC(=O)c1ccc(-c2c3nc(c(-c4c(F)cc(S(=O)(=O)[O-])cc4F)c4ccc([nH]4)c(-c4c(F)cc(S(=O)(=O)[O-])cc4F)c4nc(c(-c5c(F)cc(S(=O)(=O)[O-])cc5F)c5ccc2[nH]5)C=C4)C=C3)cc1)C1=Cc2c(ccc(Cl)c2Cl)O[C@H]1C(F)(F)F
REMARK SMILES IDX 10 1 9 2 8 3 7 4 6 5 5 6 4 7 3 8 2 9 1 10 84 11 85 12 95 13
REMARK SMILES IDX 86 14 94 15 87 16 92 17 88 18 90 19 93 20 89 21 91 22 96 23
REMARK SMILES IDX 97 24 98 25 99 26 11 27 12 28 13 29 14 30 15 31 16 32 17 33
REMARK SMILES IDX 18 34 19 35 83 36 20 37 82 38 21 39 22 40 23 41 76 42 24 43
REMARK SMILES IDX 81 44 75 45 77 46 25 47 80 48 74 49 73 50 26 52 60 53 39 54
REMARK SMILES IDX 59 55 40 56 43 57 58 58 78 59 41 60 42 61 57 63 79 64 44 65
REMARK SMILES IDX 27 66 28 67 37 68 29 69 30 70 36 71 38 72 31 73 32 74 33 75
REMARK SMILES IDX 34 76 35 77 61 78 62 79 71 80 63 81 64 82 70 83 72 84 65 85
REMARK SMILES IDX 66 86 67 87 68 88 69 89 45 90 46 91 55 92 47 93 48 94 54 95
REMARK SMILES IDX 56 96 49 97 50 98 51 99 52 100 53 101
REMARK H PARENT 77 51 43 62
REMARK Flexibility Score: inf
ROOT
ATOM      1  C   UNL A   1      43.305  40.086  26.273  1.00  0.00     0.188 C 
ENDROOT
BRANCH   1   2
ATOM      2  O   UNL A   1      42.430  41.200  26.106  1.00  0.00    -0.377 OA
BRANCH   2   3
ATOM      3  C   UNL A   1      41.714  41.303  24.883  1.00  0.00     0.188 C 
BRANCH   3   4
ATOM      4  C   UNL A   1      42.397  42.142  23.802  1.00  0.00     0.188 C 
BRANCH   4   5
ATOM      5  O   UNL A   1      41.892  41.865  22.504  1.00  0.00    -0.376 OA
BRANCH   5   6
ATOM      6  C   UNL A   1      41.262  42.972  21.870  1.00  0.00     0.202 C 
BRANCH   6   7
ATOM      7  C   UNL A   1      41.611  43.050  20.384  1.00  0.00     0.261 C 
BRANCH   7   8
ATOM      8  O   UNL A   1      42.479  44.165  20.054  1.00  0.00    -0.460 OA
BRANCH   8   9
ATOM      9  C   UNL A   1      43.716  44.181  19.499  1.00  0.00     0.338 C 
ATOM     10  O   UNL A   1      44.417  43.174  19.579  1.00  0.00    -0.246 OA
BRANCH   9  11
ATOM     11  C   UNL A   1      44.212  45.315  18.684  1.00  0.00     0.087 C 
ATOM     12  C   UNL A   1      45.479  45.462  18.315  1.00  0.00     0.029 C 
ATOM     13  C   UNL A   1      43.187  46.151  17.936  1.00  0.00     0.316 C 
ATOM     14  C   UNL A   1      45.996  46.668  17.736  1.00  0.00     0.037 A 
ATOM     15  O   UNL A   1      43.729  47.298  17.181  1.00  0.00    -0.475 OA
ATOM     16  C   UNL A   1      45.079  47.502  17.119  1.00  0.00     0.129 A 
ATOM     17  C   UNL A   1      47.375  46.971  17.769  1.00  0.00     0.070 A 
ATOM     18  C   UNL A   1      45.560  48.598  16.409  1.00  0.00     0.049 A 
ATOM     19  C   UNL A   1      47.847  48.059  17.044  1.00  0.00     0.060 A 
ATOM     20  Cl  UNL A   1      48.461  46.042  18.765  1.00  0.00    -0.082 Cl
ATOM     21  C   UNL A   1      46.938  48.858  16.349  1.00  0.00     0.026 A 
ATOM     22  Cl  UNL A   1      49.529  48.441  16.941  1.00  0.00    -0.083 Cl
BRANCH  13  23
ATOM     23  C   UNL A   1      42.414  45.227  16.943  1.00  0.00     0.430 C 
ATOM     24  F   UNL A   1      41.238  44.782  17.455  1.00  0.00    -0.167 F 
ATOM     25  F   UNL A   1      42.138  45.853  15.776  1.00  0.00    -0.167 F 
ATOM     26  F   UNL A   1      43.128  44.119  16.621  1.00  0.00    -0.167 F 
ENDBRANCH  13  23
ENDBRANCH   9  11
ENDBRANCH   8   9
ENDBRANCH   7   8
ENDBRANCH   6   7
ENDBRANCH   5   6
ENDBRANCH   4   5
ENDBRANCH   3   4
ENDBRANCH   2   3
ENDBRANCH   1   2
BRANCH   1  27
ATOM     27  C   UNL A   1      44.684  40.454  26.868  1.00  0.00     0.188 C 
BRANCH  27  28
ATOM     28  O   UNL A   1      45.000  40.113  28.220  1.00  0.00    -0.376 OA
BRANCH  28  29
ATOM     29  C   UNL A   1      44.805  38.765  28.622  1.00  0.00     0.202 C 
BRANCH  29  30
ATOM     30  C   UNL A   1      45.950  37.833  28.169  1.00  0.00     0.261 C 
BRANCH  30  31
ATOM     31  O   UNL A   1      46.978  37.622  29.160  1.00  0.00    -0.460 OA
BRANCH  31  32
ATOM     32  C   UNL A   1      46.619  36.848  30.215  1.00  0.00     0.338 C 
ATOM     33  O   UNL A   1      46.158  37.244  31.279  1.00  0.00    -0.246 OA
BRANCH  32  34
ATOM     34  C   UNL A   1      46.721  35.403  29.864  1.00  0.00     0.060 A 
ATOM     35  C   UNL A   1      46.304  35.009  28.586  1.00  0.00     0.016 A 
ATOM     36  C   UNL A   1      47.198  34.437  30.758  1.00  0.00     0.016 A 
ATOM     37  C   UNL A   1      46.280  33.656  28.229  1.00  0.00     0.010 A 
ATOM     38  C   UNL A   1      47.175  33.077  30.401  1.00  0.00     0.010 A 
ATOM     39  C   UNL A   1      46.659  32.672  29.154  1.00  0.00    -0.014 A 
BRANCH  39  40
ATOM     40  C   UNL A   1      46.263  31.255  28.906  1.00  0.00     0.031 A 
ATOM     41  C   UNL A   1      44.825  30.865  29.171  1.00  0.00     0.074 A 
ATOM     42  C   UNL A   1      47.106  30.345  28.379  1.00  0.00     0.049 A 
ATOM     43  N   UNL A   1      44.228  29.712  29.007  1.00  0.00    -0.248 NA
ATOM     44  C   UNL A   1      43.947  31.924  29.693  1.00  0.00     0.031 C 
ATOM     45  C   UNL A   1      48.505  30.583  28.033  1.00  0.00     0.029 A 
ATOM     46  N   UNL A   1      46.899  29.027  28.037  1.00  0.00    -0.354 N 
ATOM     47  C   UNL A   1      42.905  29.913  29.389  1.00  0.00     0.074 A 
ATOM     48  C   UNL A   1      42.801  31.280  29.848  1.00  0.00     0.031 C 
ATOM     49  C   UNL A   1      49.033  29.449  27.536  1.00  0.00     0.029 A 
ATOM     50  C   UNL A   1      48.018  28.394  27.545  1.00  0.00     0.049 A 
ATOM     51  H   UNL A   1      46.028  28.577  28.136  1.00  0.00     0.167 HD
ATOM     52  C   UNL A   1      41.860  29.052  29.343  1.00  0.00     0.037 A 
ATOM     53  C   UNL A   1      48.206  27.113  27.160  1.00  0.00     0.037 A 
ATOM     54  C   UNL A   1      41.953  27.687  28.895  1.00  0.00     0.049 A 
ATOM     55  C   UNL A   1      47.045  26.145  27.190  1.00  0.00     0.074 A 
ATOM     56  C   UNL A   1      40.952  26.734  28.830  1.00  0.00     0.029 A 
ATOM     57  N   UNL A   1      43.113  27.079  28.440  1.00  0.00    -0.354 N 
ATOM     58  N   UNL A   1      45.798  26.357  27.545  1.00  0.00    -0.248 NA
ATOM     59  C   UNL A   1      47.313  24.765  26.759  1.00  0.00     0.031 C 
ATOM     60  C   UNL A   1      41.516  25.535  28.380  1.00  0.00     0.029 A 
ATOM     61  C   UNL A   1      42.856  25.759  28.107  1.00  0.00     0.049 A 
ATOM     62  H   UNL A   1      43.990  27.521  28.364  1.00  0.00     0.167 HD
ATOM     63  C   UNL A   1      45.133  25.148  27.349  1.00  0.00     0.074 A 
ATOM     64  C   UNL A   1      46.109  24.216  26.827  1.00  0.00     0.031 C 
ATOM     65  C   UNL A   1      43.832  24.838  27.579  1.00  0.00     0.037 A 
BRANCH  52  66
ATOM     66  C   UNL A   1      40.520  29.562  29.801  1.00  0.00     0.058 A 
ATOM     67  C   UNL A   1      40.244  29.791  31.160  1.00  0.00     0.135 A 
ATOM     68  C   UNL A   1      39.511  29.858  28.870  1.00  0.00     0.135 A 
ATOM     69  F   UNL A   1      41.165  29.506  32.094  1.00  0.00    -0.206 F 
ATOM     70  C   UNL A   1      39.008  30.271  31.581  1.00  0.00     0.059 A 
ATOM     71  C   UNL A   1      38.278  30.368  29.266  1.00  0.00     0.059 A 
ATOM     72  F   UNL A   1      39.718  29.655  27.561  1.00  0.00    -0.206 F 
ATOM     73  C   UNL A   1      38.032  30.560  30.625  1.00  0.00     0.060 A 
BRANCH  73  74
ATOM     74  S   UNL A   1      36.440  31.198  31.188  1.00  0.00     0.124 S 
ATOM     75  O   UNL A   1      36.816  32.510  31.705  1.00  0.00    -0.237 OA
ATOM     76  O   UNL A   1      35.655  31.202  29.958  1.00  0.00    -0.237 OA
ATOM     77  O   UNL A   1      36.019  30.226  32.193  1.00  0.00    -0.744 OA
ENDBRANCH  73  74
ENDBRANCH  52  66
BRANCH  53  78
ATOM     78  C   UNL A   1      49.557  26.645  26.732  1.00  0.00     0.058 A 
ATOM     79  C   UNL A   1      49.935  26.619  25.380  1.00  0.00     0.135 A 
ATOM     80  C   UNL A   1      50.484  26.166  27.672  1.00  0.00     0.135 A 
ATOM     81  F   UNL A   1      49.081  27.045  24.436  1.00  0.00    -0.206 F 
ATOM     82  C   UNL A   1      51.169  26.115  24.972  1.00  0.00     0.059 A 
ATOM     83  C   UNL A   1      51.735  25.686  27.293  1.00  0.00     0.059 A 
ATOM     84  F   UNL A   1      50.179  26.168  28.978  1.00  0.00    -0.206 F 
ATOM     85  C   UNL A   1      52.063  25.651  25.939  1.00  0.00     0.060 A 
BRANCH  85  86
ATOM     86  S   UNL A   1      53.674  25.029  25.409  1.00  0.00     0.124 S 
ATOM     87  O   UNL A   1      53.380  23.623  25.157  1.00  0.00    -0.237 OA
ATOM     88  O   UNL A   1      53.945  25.847  24.230  1.00  0.00    -0.237 OA
ATOM     89  O   UNL A   1      54.533  25.299  26.558  1.00  0.00    -0.744 OA
ENDBRANCH  85  86
ENDBRANCH  53  78
BRANCH  65  90
ATOM     90  C   UNL A   1      43.370  23.445  27.231  1.00  0.00     0.058 A 
ATOM     91  C   UNL A   1      43.284  22.427  28.194  1.00  0.00     0.135 A 
ATOM     92  C   UNL A   1      42.972  23.134  25.920  1.00  0.00     0.135 A 
ATOM     93  F   UNL A   1      43.649  22.665  29.464  1.00  0.00    -0.206 F 
ATOM     94  C   UNL A   1      42.860  21.143  27.863  1.00  0.00     0.059 A 
ATOM     95  C   UNL A   1      42.514  21.867  25.572  1.00  0.00     0.059 A 
ATOM     96  F   UNL A   1      43.016  24.073  24.960  1.00  0.00    -0.206 F 
ATOM     97  C   UNL A   1      42.479  20.872  26.547  1.00  0.00     0.060 A 
BRANCH  97  98
ATOM     98  S   UNL A   1      41.927  19.204  26.131  1.00  0.00     0.124 S 
ATOM     99  O   UNL A   1      42.761  18.897  24.974  1.00  0.00    -0.237 OA
ATOM    100  O   UNL A   1      42.235  18.460  27.349  1.00  0.00    -0.237 OA
ATOM    101  O   UNL A   1      40.505  19.376  25.852  1.00  0.00    -0.744 OA
ENDBRANCH  97  98
ENDBRANCH  65  90
ENDBRANCH  39  40
ENDBRANCH  32  34
ENDBRANCH  31  32
ENDBRANCH  30  31
ENDBRANCH  29  30
ENDBRANCH  28  29
ENDBRANCH  27  28
ENDBRANCH   1  27
TORSDOF 24
ENDMDL
