MODEL 1
REMARK VINA RESULT:     -10.3      0.000      0.000
REMARK SMILES Cc1cccc(C(=O)OCCOCCOCCOCCOC(=O)c2ccc(-c3c4nc(c(-c5c(F)cc(S(=O)(=O)[O-])cc5F)c5ccc([nH]5)c(-c5c(F)cc(S(=O)(=O)[O-])cc5F)c5nc(c(-c6c(F)cc(S(=O)(=O)[O-])cc6F)c6ccc3[nH]6)C=C5)C=C4)cc2)c1NC(=O)Cc1ccccc1
REMARK SMILES IDX 15 1 14 2 13 3 12 4 11 5 10 6 9 7 7 8 8 9 6 10 1 11 2 12
REMARK SMILES IDX 3 13 90 14 4 15 5 16 91 17 92 18 93 20 94 21 95 22 96 23
REMARK SMILES IDX 100 24 97 25 99 26 98 27 16 28 17 29 18 30 19 31 20 32 21 33
REMARK SMILES IDX 22 34 23 35 24 36 25 37 89 38 26 39 88 40 27 41 28 42 29 43
REMARK SMILES IDX 82 44 30 45 87 46 81 47 83 48 31 49 86 50 80 51 79 52 32 54
REMARK SMILES IDX 66 55 45 56 65 57 46 58 49 59 64 60 84 61 47 62 48 63 63 65
REMARK SMILES IDX 85 66 50 67 33 68 34 69 43 70 35 71 36 72 42 73 44 74 37 75
REMARK SMILES IDX 38 76 39 77 40 78 41 79 67 80 68 81 77 82 69 83 70 84 76 85
REMARK SMILES IDX 78 86 71 87 72 88 73 89 74 90 75 91 51 92 52 93 61 94 53 95
REMARK SMILES IDX 54 96 60 97 62 98 55 99 56 100 57 101 58 102 59 103
REMARK H PARENT 91 19 83 53 49 64
REMARK Flexibility Score: inf
ROOT
ATOM      1  O   UNL A   1      48.700  19.650  38.073  1.00  0.00    -0.377 OA
ENDROOT
BRANCH   1   2
ATOM      2  C   UNL A   1      48.920  19.849  39.469  1.00  0.00     0.188 C 
BRANCH   2   3
ATOM      3  C   UNL A   1      48.857  18.575  40.318  1.00  0.00     0.188 C 
BRANCH   3   4
ATOM      4  O   UNL A   1      47.773  17.690  40.037  1.00  0.00    -0.376 OA
BRANCH   4   5
ATOM      5  C   UNL A   1      46.466  18.179  40.341  1.00  0.00     0.202 C 
BRANCH   5   6
ATOM      6  C   UNL A   1      45.320  17.407  39.710  1.00  0.00     0.261 C 
BRANCH   6   7
ATOM      7  O   UNL A   1      44.501  17.005  40.821  1.00  0.00    -0.460 OA
BRANCH   7   8
ATOM      8  C   UNL A   1      43.267  16.647  40.471  1.00  0.00     0.340 C 
ATOM      9  O   UNL A   1      42.658  17.022  39.467  1.00  0.00    -0.246 OA
BRANCH   8  10
ATOM     10  C   UNL A   1      42.917  15.412  41.178  1.00  0.00     0.083 A 
ATOM     11  C   UNL A   1      42.007  13.204  44.128  1.00  0.00     0.046 C 
ATOM     12  C   UNL A   1      42.317  13.762  42.752  1.00  0.00    -0.027 A 
ATOM     13  C   UNL A   1      41.557  13.063  41.759  1.00  0.00     0.005 A 
ATOM     14  C   UNL A   1      43.189  14.897  42.475  1.00  0.00     0.058 A 
ATOM     15  C   UNL A   1      41.489  13.500  40.468  1.00  0.00     0.001 A 
ATOM     16  C   UNL A   1      42.105  14.695  40.214  1.00  0.00     0.018 A 
BRANCH  14  17
ATOM     17  N   UNL A   1      44.182  15.142  43.549  1.00  0.00    -0.325 N 
ATOM     18  C   UNL A   1      45.173  14.996  44.501  1.00  0.00     0.228 C 
ATOM     19  H   UNL A   1      44.012  16.103  43.676  1.00  0.00     0.169 HD
ATOM     20  O   UNL A   1      45.074  16.030  45.209  1.00  0.00    -0.274 OA
BRANCH  18  21
ATOM     21  C   UNL A   1      46.193  13.930  45.128  1.00  0.00     0.135 C 
BRANCH  21  22
ATOM     22  C   UNL A   1      47.146  13.940  46.437  1.00  0.00    -0.039 A 
ATOM     23  C   UNL A   1      48.066  14.956  46.832  1.00  0.00     0.004 A 
ATOM     24  C   UNL A   1      47.403  12.732  47.115  1.00  0.00     0.004 A 
ATOM     25  C   UNL A   1      49.138  14.820  47.739  1.00  0.00     0.000 A 
ATOM     26  C   UNL A   1      48.470  12.574  48.050  1.00  0.00     0.000 A 
ATOM     27  C   UNL A   1      49.352  13.609  48.346  1.00  0.00     0.000 A 
ENDBRANCH  21  22
ENDBRANCH  18  21
ENDBRANCH  14  17
ENDBRANCH   8  10
ENDBRANCH   7   8
ENDBRANCH   6   7
ENDBRANCH   5   6
ENDBRANCH   4   5
ENDBRANCH   3   4
ENDBRANCH   2   3
ENDBRANCH   1   2
BRANCH   1  28
ATOM     28  C   UNL A   1      49.141  20.776  37.301  1.00  0.00     0.188 C 
BRANCH  28  29
ATOM     29  C   UNL A   1      48.021  21.245  36.382  1.00  0.00     0.188 C 
BRANCH  29  30
ATOM     30  O   UNL A   1      46.897  21.687  37.134  1.00  0.00    -0.376 OA
BRANCH  30  31
ATOM     31  C   UNL A   1      45.663  21.734  36.440  1.00  0.00     0.202 C 
BRANCH  31  32
ATOM     32  C   UNL A   1      45.489  23.057  35.690  1.00  0.00     0.261 C 
BRANCH  32  33
ATOM     33  O   UNL A   1      44.229  23.638  36.084  1.00  0.00    -0.460 OA
BRANCH  33  34
ATOM     34  C   UNL A   1      44.303  24.951  36.412  1.00  0.00     0.338 C 
ATOM     35  O   UNL A   1      44.722  25.370  37.497  1.00  0.00    -0.246 OA
BRANCH  34  36
ATOM     36  C   UNL A   1      43.651  25.796  35.374  1.00  0.00     0.060 A 
ATOM     37  C   UNL A   1      44.387  26.754  34.685  1.00  0.00     0.016 A 
ATOM     38  C   UNL A   1      42.274  25.772  35.171  1.00  0.00     0.016 A 
ATOM     39  C   UNL A   1      43.723  27.752  33.940  1.00  0.00     0.010 A 
ATOM     40  C   UNL A   1      41.644  26.838  34.508  1.00  0.00     0.010 A 
ATOM     41  C   UNL A   1      42.345  27.935  33.990  1.00  0.00    -0.014 A 
BRANCH  41  42
ATOM     42  C   UNL A   1      41.582  29.124  33.449  1.00  0.00     0.031 A 
ATOM     43  C   UNL A   1      40.936  30.013  34.483  1.00  0.00     0.074 A 
ATOM     44  C   UNL A   1      41.479  29.594  32.147  1.00  0.00     0.049 A 
ATOM     45  N   UNL A   1      40.059  30.935  34.226  1.00  0.00    -0.248 NA
ATOM     46  C   UNL A   1      41.260  29.975  35.917  1.00  0.00     0.031 C 
ATOM     47  C   UNL A   1      41.099  30.943  31.745  1.00  0.00     0.029 A 
ATOM     48  N   UNL A   1      41.703  29.063  30.844  1.00  0.00    -0.354 N 
ATOM     49  C   UNL A   1      40.272  31.890  35.192  1.00  0.00     0.074 A 
ATOM     50  C   UNL A   1      40.781  31.157  36.321  1.00  0.00     0.031 C 
ATOM     51  C   UNL A   1      40.858  31.026  30.426  1.00  0.00     0.029 A 
ATOM     52  C   UNL A   1      40.875  29.693  29.863  1.00  0.00     0.049 A 
ATOM     53  H   UNL A   1      42.351  28.349  30.644  1.00  0.00     0.167 HD
ATOM     54  C   UNL A   1      40.324  33.207  34.836  1.00  0.00     0.037 A 
ATOM     55  C   UNL A   1      39.919  29.203  28.971  1.00  0.00     0.037 A 
ATOM     56  C   UNL A   1      39.770  33.500  33.503  1.00  0.00     0.049 A 
ATOM     57  C   UNL A   1      38.653  30.018  29.177  1.00  0.00     0.074 A 
ATOM     58  C   UNL A   1      40.227  34.248  32.428  1.00  0.00     0.029 A 
ATOM     59  N   UNL A   1      38.624  32.835  33.042  1.00  0.00    -0.354 N 
ATOM     60  N   UNL A   1      38.446  30.665  30.289  1.00  0.00    -0.248 NA
ATOM     61  C   UNL A   1      37.566  30.219  28.224  1.00  0.00     0.031 C 
ATOM     62  C   UNL A   1      39.395  33.968  31.308  1.00  0.00     0.029 A 
ATOM     63  C   UNL A   1      38.402  33.081  31.701  1.00  0.00     0.049 A 
ATOM     64  H   UNL A   1      38.050  32.266  33.603  1.00  0.00     0.167 HD
ATOM     65  C   UNL A   1      37.423  31.533  30.128  1.00  0.00     0.074 A 
ATOM     66  C   UNL A   1      36.805  31.123  28.879  1.00  0.00     0.031 C 
ATOM     67  C   UNL A   1      37.227  32.563  30.998  1.00  0.00     0.037 A 
BRANCH  54  68
ATOM     68  C   UNL A   1      41.120  34.228  35.639  1.00  0.00     0.058 A 
ATOM     69  C   UNL A   1      42.524  34.286  35.535  1.00  0.00     0.135 A 
ATOM     70  C   UNL A   1      40.564  35.104  36.603  1.00  0.00     0.135 A 
ATOM     71  F   UNL A   1      43.185  33.456  34.714  1.00  0.00    -0.206 F 
ATOM     72  C   UNL A   1      43.304  35.185  36.272  1.00  0.00     0.059 A 
ATOM     73  C   UNL A   1      41.313  36.059  37.297  1.00  0.00     0.059 A 
ATOM     74  F   UNL A   1      39.273  35.039  36.960  1.00  0.00    -0.206 F 
ATOM     75  C   UNL A   1      42.687  36.090  37.130  1.00  0.00     0.060 A 
BRANCH  75  76
ATOM     76  S   UNL A   1      43.674  37.326  37.998  1.00  0.00     0.124 S 
ATOM     77  O   UNL A   1      44.754  36.516  38.552  1.00  0.00    -0.237 OA
ATOM     78  O   UNL A   1      44.050  38.245  36.928  1.00  0.00    -0.237 OA
ATOM     79  O   UNL A   1      42.737  37.874  38.977  1.00  0.00    -0.744 OA
ENDBRANCH  75  76
ENDBRANCH  54  68
BRANCH  55  80
ATOM     80  C   UNL A   1      39.898  27.861  28.246  1.00  0.00     0.058 A 
ATOM     81  C   UNL A   1      40.361  27.768  26.928  1.00  0.00     0.135 A 
ATOM     82  C   UNL A   1      39.571  26.618  28.809  1.00  0.00     0.135 A 
ATOM     83  F   UNL A   1      40.434  28.887  26.196  1.00  0.00    -0.206 F 
ATOM     84  C   UNL A   1      40.828  26.565  26.356  1.00  0.00     0.059 A 
ATOM     85  C   UNL A   1      40.087  25.399  28.303  1.00  0.00     0.059 A 
ATOM     86  F   UNL A   1      38.827  26.566  29.923  1.00  0.00    -0.206 F 
ATOM     87  C   UNL A   1      40.827  25.407  27.125  1.00  0.00     0.060 A 
BRANCH  87  88
ATOM     88  S   UNL A   1      41.960  24.023  26.723  1.00  0.00     0.124 S 
ATOM     89  O   UNL A   1      41.056  22.879  26.697  1.00  0.00    -0.237 OA
ATOM     90  O   UNL A   1      42.526  24.383  25.425  1.00  0.00    -0.237 OA
ATOM     91  O   UNL A   1      42.917  24.030  27.826  1.00  0.00    -0.744 OA
ENDBRANCH  87  88
ENDBRANCH  55  80
BRANCH  67  92
ATOM     92  C   UNL A   1      35.919  33.261  31.167  1.00  0.00     0.058 A 
ATOM     93  C   UNL A   1      35.187  33.191  32.364  1.00  0.00     0.135 A 
ATOM     94  C   UNL A   1      35.483  34.207  30.215  1.00  0.00     0.135 A 
ATOM     95  F   UNL A   1      35.567  32.384  33.367  1.00  0.00    -0.206 F 
ATOM     96  C   UNL A   1      34.071  33.989  32.590  1.00  0.00     0.059 A 
ATOM     97  C   UNL A   1      34.401  35.043  30.439  1.00  0.00     0.059 A 
ATOM     98  F   UNL A   1      36.114  34.371  29.043  1.00  0.00    -0.206 F 
ATOM     99  C   UNL A   1      33.689  34.915  31.623  1.00  0.00     0.060 A 
BRANCH  99 100
ATOM    100  S   UNL A   1      32.289  35.998  31.933  1.00  0.00     0.124 S 
ATOM    101  O   UNL A   1      31.944  36.413  30.579  1.00  0.00    -0.237 OA
ATOM    102  O   UNL A   1      31.333  35.110  32.587  1.00  0.00    -0.237 OA
ATOM    103  O   UNL A   1      32.854  37.036  32.790  1.00  0.00    -0.744 OA
ENDBRANCH  99 100
ENDBRANCH  67  92
ENDBRANCH  41  42
ENDBRANCH  34  36
ENDBRANCH  33  34
ENDBRANCH  32  33
ENDBRANCH  31  32
ENDBRANCH  30  31
ENDBRANCH  29  30
ENDBRANCH  28  29
ENDBRANCH   1  28
TORSDOF 26
ENDMDL
MODEL 2
REMARK VINA RESULT:      -9.7      7.231     15.366
REMARK SMILES Cc1cccc(C(=O)OCCOCCOCCOCCOC(=O)c2ccc(-c3c4nc(c(-c5c(F)cc(S(=O)(=O)[O-])cc5F)c5ccc([nH]5)c(-c5c(F)cc(S(=O)(=O)[O-])cc5F)c5nc(c(-c6c(F)cc(S(=O)(=O)[O-])cc6F)c6ccc3[nH]6)C=C5)C=C4)cc2)c1NC(=O)Cc1ccccc1
REMARK SMILES IDX 15 1 14 2 13 3 12 4 11 5 10 6 9 7 7 8 8 9 6 10 1 11 2 12
REMARK SMILES IDX 3 13 90 14 4 15 5 16 91 17 92 18 93 20 94 21 95 22 96 23
REMARK SMILES IDX 100 24 97 25 99 26 98 27 16 28 17 29 18 30 19 31 20 32 21 33
REMARK SMILES IDX 22 34 23 35 24 36 25 37 89 38 26 39 88 40 27 41 28 42 29 43
REMARK SMILES IDX 82 44 30 45 87 46 81 47 83 48 31 49 86 50 80 51 79 52 32 54
REMARK SMILES IDX 66 55 45 56 65 57 46 58 49 59 64 60 84 61 47 62 48 63 63 65
REMARK SMILES IDX 85 66 50 67 33 68 34 69 43 70 35 71 36 72 42 73 44 74 37 75
REMARK SMILES IDX 38 76 39 77 40 78 41 79 67 80 68 81 77 82 69 83 70 84 76 85
REMARK SMILES IDX 78 86 71 87 72 88 73 89 74 90 75 91 51 92 52 93 61 94 53 95
REMARK SMILES IDX 54 96 60 97 62 98 55 99 56 100 57 101 58 102 59 103
REMARK H PARENT 91 19 83 53 49 64
REMARK Flexibility Score: inf
ROOT
ATOM      1  O   UNL A   1      43.082  21.499  25.039  1.00  0.00    -0.377 OA
ENDROOT
BRANCH   1   2
ATOM      2  C   UNL A   1      42.208  21.982  26.058  1.00  0.00     0.188 C 
BRANCH   2   3
ATOM      3  C   UNL A   1      41.041  21.050  26.400  1.00  0.00     0.188 C 
BRANCH   3   4
ATOM      4  O   UNL A   1      39.867  21.680  26.912  1.00  0.00    -0.376 OA
BRANCH   4   5
ATOM      5  C   UNL A   1      39.875  23.109  26.926  1.00  0.00     0.202 C 
BRANCH   5   6
ATOM      6  C   UNL A   1      38.576  23.770  26.502  1.00  0.00     0.261 C 
BRANCH   6   7
ATOM      7  O   UNL A   1      37.837  22.727  25.845  1.00  0.00    -0.460 OA
BRANCH   7   8
ATOM      8  C   UNL A   1      36.567  23.043  25.601  1.00  0.00     0.340 C 
ATOM      9  O   UNL A   1      36.158  24.118  25.157  1.00  0.00    -0.246 OA
BRANCH   8  10
ATOM     10  C   UNL A   1      35.786  21.809  25.492  1.00  0.00     0.083 A 
ATOM     11  C   UNL A   1      32.770  19.628  24.748  1.00  0.00     0.046 C 
ATOM     12  C   UNL A   1      34.141  20.161  25.116  1.00  0.00    -0.027 A 
ATOM     13  C   UNL A   1      35.149  19.210  24.752  1.00  0.00     0.005 A 
ATOM     14  C   UNL A   1      34.416  21.479  25.676  1.00  0.00     0.058 A 
ATOM     15  C   UNL A   1      36.477  19.524  24.782  1.00  0.00     0.001 A 
ATOM     16  C   UNL A   1      36.771  20.827  25.080  1.00  0.00     0.018 A 
BRANCH  14  17
ATOM     17  N   UNL A   1      33.246  22.069  26.372  1.00  0.00    -0.325 N 
ATOM     18  C   UNL A   1      32.055  22.708  26.660  1.00  0.00     0.228 C 
ATOM     19  H   UNL A   1      33.503  21.839  27.293  1.00  0.00     0.169 HD
ATOM     20  O   UNL A   1      32.123  22.942  27.894  1.00  0.00    -0.274 OA
BRANCH  18  21
ATOM     21  C   UNL A   1      30.793  23.423  25.979  1.00  0.00     0.135 C 
BRANCH  21  22
ATOM     22  C   UNL A   1      30.629  24.737  25.045  1.00  0.00    -0.039 A 
ATOM     23  C   UNL A   1      30.829  24.830  23.636  1.00  0.00     0.004 A 
ATOM     24  C   UNL A   1      30.623  26.014  25.642  1.00  0.00     0.004 A 
ATOM     25  C   UNL A   1      31.045  26.006  22.888  1.00  0.00     0.000 A 
ATOM     26  C   UNL A   1      30.820  27.220  24.904  1.00  0.00     0.000 A 
ATOM     27  C   UNL A   1      31.054  27.217  23.532  1.00  0.00     0.000 A 
ENDBRANCH  21  22
ENDBRANCH  18  21
ENDBRANCH  14  17
ENDBRANCH   8  10
ENDBRANCH   7   8
ENDBRANCH   6   7
ENDBRANCH   5   6
ENDBRANCH   4   5
ENDBRANCH   3   4
ENDBRANCH   2   3
ENDBRANCH   1   2
BRANCH   1  28
ATOM     28  C   UNL A   1      44.158  22.413  24.786  1.00  0.00     0.188 C 
BRANCH  28  29
ATOM     29  C   UNL A   1      45.025  22.551  26.030  1.00  0.00     0.188 C 
BRANCH  29  30
ATOM     30  O   UNL A   1      46.374  22.840  25.681  1.00  0.00    -0.376 OA
BRANCH  30  31
ATOM     31  C   UNL A   1      46.612  24.119  25.123  1.00  0.00     0.202 C 
BRANCH  31  32
ATOM     32  C   UNL A   1      47.644  24.905  25.935  1.00  0.00     0.261 C 
BRANCH  32  33
ATOM     33  O   UNL A   1      47.853  24.219  27.186  1.00  0.00    -0.460 OA
BRANCH  33  34
ATOM     34  C   UNL A   1      48.834  24.753  27.954  1.00  0.00     0.338 C 
ATOM     35  O   UNL A   1      50.041  24.576  27.756  1.00  0.00    -0.246 OA
BRANCH  34  36
ATOM     36  C   UNL A   1      48.263  25.422  29.156  1.00  0.00     0.060 A 
ATOM     37  C   UNL A   1      49.086  25.774  30.221  1.00  0.00     0.016 A 
ATOM     38  C   UNL A   1      46.890  25.571  29.326  1.00  0.00     0.016 A 
ATOM     39  C   UNL A   1      48.519  26.114  31.467  1.00  0.00     0.010 A 
ATOM     40  C   UNL A   1      46.364  25.812  30.606  1.00  0.00     0.010 A 
ATOM     41  C   UNL A   1      47.166  25.956  31.746  1.00  0.00    -0.014 A 
BRANCH  41  42
ATOM     42  C   UNL A   1      46.520  26.036  33.111  1.00  0.00     0.031 A 
ATOM     43  C   UNL A   1      45.896  27.363  33.464  1.00  0.00     0.074 A 
ATOM     44  C   UNL A   1      46.309  25.038  34.052  1.00  0.00     0.049 A 
ATOM     45  N   UNL A   1      45.504  27.708  34.653  1.00  0.00    -0.248 NA
ATOM     46  C   UNL A   1      45.610  28.423  32.485  1.00  0.00     0.031 C 
ATOM     47  C   UNL A   1      45.333  25.066  35.135  1.00  0.00     0.029 A 
ATOM     48  N   UNL A   1      46.837  23.739  34.307  1.00  0.00    -0.354 N 
ATOM     49  C   UNL A   1      44.445  28.556  34.433  1.00  0.00     0.074 A 
ATOM     50  C   UNL A   1      44.728  29.168  33.161  1.00  0.00     0.031 C 
ATOM     51  C   UNL A   1      45.528  24.070  36.016  1.00  0.00     0.029 A 
ATOM     52  C   UNL A   1      46.770  23.399  35.694  1.00  0.00     0.049 A 
ATOM     53  H   UNL A   1      47.204  23.147  33.611  1.00  0.00     0.167 HD
ATOM     54  C   UNL A   1      43.298  28.404  35.158  1.00  0.00     0.037 A 
ATOM     55  C   UNL A   1      47.740  23.049  36.635  1.00  0.00     0.037 A 
ATOM     56  C   UNL A   1      43.449  27.580  36.370  1.00  0.00     0.049 A 
ATOM     57  C   UNL A   1      47.561  23.968  37.831  1.00  0.00     0.074 A 
ATOM     58  C   UNL A   1      42.713  26.534  36.904  1.00  0.00     0.029 A 
ATOM     59  N   UNL A   1      44.607  27.669  37.156  1.00  0.00    -0.354 N 
ATOM     60  N   UNL A   1      46.944  25.111  37.711  1.00  0.00    -0.248 NA
ATOM     61  C   UNL A   1      47.985  23.725  39.205  1.00  0.00     0.031 C 
ATOM     62  C   UNL A   1      43.470  25.954  37.960  1.00  0.00     0.029 A 
ATOM     63  C   UNL A   1      44.652  26.666  38.105  1.00  0.00     0.049 A 
ATOM     64  H   UNL A   1      45.300  28.360  37.046  1.00  0.00     0.167 HD
ATOM     65  C   UNL A   1      46.653  25.602  38.936  1.00  0.00     0.074 A 
ATOM     66  C   UNL A   1      47.445  24.787  39.841  1.00  0.00     0.031 C 
ATOM     67  C   UNL A   1      45.723  26.584  39.100  1.00  0.00     0.037 A 
BRANCH  54  68
ATOM     68  C   UNL A   1      41.940  28.831  34.616  1.00  0.00     0.058 A 
ATOM     69  C   UNL A   1      41.380  28.188  33.493  1.00  0.00     0.135 A 
ATOM     70  C   UNL A   1      41.190  29.931  35.099  1.00  0.00     0.135 A 
ATOM     71  F   UNL A   1      42.025  27.178  32.890  1.00  0.00    -0.206 F 
ATOM     72  C   UNL A   1      40.150  28.561  32.939  1.00  0.00     0.059 A 
ATOM     73  C   UNL A   1      39.927  30.276  34.609  1.00  0.00     0.059 A 
ATOM     74  F   UNL A   1      41.673  30.762  36.035  1.00  0.00    -0.206 F 
ATOM     75  C   UNL A   1      39.414  29.587  33.523  1.00  0.00     0.060 A 
BRANCH  75  76
ATOM     76  S   UNL A   1      37.777  29.999  32.885  1.00  0.00     0.124 S 
ATOM     77  O   UNL A   1      37.053  28.748  33.080  1.00  0.00    -0.237 OA
ATOM     78  O   UNL A   1      37.372  31.111  33.739  1.00  0.00    -0.237 OA
ATOM     79  O   UNL A   1      38.042  30.359  31.493  1.00  0.00    -0.744 OA
ENDBRANCH  75  76
ENDBRANCH  54  68
BRANCH  55  80
ATOM     80  C   UNL A   1      49.027  22.257  36.420  1.00  0.00     0.058 A 
ATOM     81  C   UNL A   1      48.971  20.942  35.945  1.00  0.00     0.135 A 
ATOM     82  C   UNL A   1      50.335  22.754  36.527  1.00  0.00     0.135 A 
ATOM     83  F   UNL A   1      47.820  20.267  36.067  1.00  0.00    -0.206 F 
ATOM     84  C   UNL A   1      50.043  20.316  35.275  1.00  0.00     0.059 A 
ATOM     85  C   UNL A   1      51.418  22.194  35.805  1.00  0.00     0.059 A 
ATOM     86  F   UNL A   1      50.572  23.857  37.252  1.00  0.00    -0.206 F 
ATOM     87  C   UNL A   1      51.221  21.025  35.075  1.00  0.00     0.060 A 
BRANCH  87  88
ATOM     88  S   UNL A   1      52.365  20.567  33.717  1.00  0.00     0.124 S 
ATOM     89  O   UNL A   1      51.613  20.962  32.531  1.00  0.00    -0.237 OA
ATOM     90  O   UNL A   1      53.565  21.360  33.971  1.00  0.00    -0.237 OA
ATOM     91  O   UNL A   1      52.541  19.128  33.886  1.00  0.00    -0.744 OA
ENDBRANCH  87  88
ENDBRANCH  55  80
BRANCH  67  92
ATOM     92  C   UNL A   1      45.669  27.477  40.295  1.00  0.00     0.058 A 
ATOM     93  C   UNL A   1      44.903  27.160  41.428  1.00  0.00     0.135 A 
ATOM     94  C   UNL A   1      46.570  28.556  40.422  1.00  0.00     0.135 A 
ATOM     95  F   UNL A   1      44.077  26.102  41.437  1.00  0.00    -0.206 F 
ATOM     96  C   UNL A   1      45.000  27.889  42.608  1.00  0.00     0.059 A 
ATOM     97  C   UNL A   1      46.715  29.267  41.604  1.00  0.00     0.059 A 
ATOM     98  F   UNL A   1      47.362  28.939  39.410  1.00  0.00    -0.206 F 
ATOM     99  C   UNL A   1      45.913  28.937  42.687  1.00  0.00     0.060 A 
BRANCH  99 100
ATOM    100  S   UNL A   1      46.096  29.843  44.228  1.00  0.00     0.124 S 
ATOM    101  O   UNL A   1      44.704  30.121  44.563  1.00  0.00    -0.237 OA
ATOM    102  O   UNL A   1      46.774  28.879  45.090  1.00  0.00    -0.237 OA
ATOM    103  O   UNL A   1      46.899  30.998  43.842  1.00  0.00    -0.744 OA
ENDBRANCH  99 100
ENDBRANCH  67  92
ENDBRANCH  41  42
ENDBRANCH  34  36
ENDBRANCH  33  34
ENDBRANCH  32  33
ENDBRANCH  31  32
ENDBRANCH  30  31
ENDBRANCH  29  30
ENDBRANCH  28  29
ENDBRANCH   1  28
TORSDOF 26
ENDMDL
MODEL 3
REMARK VINA RESULT:      -8.8      6.547     15.456
REMARK SMILES Cc1cccc(C(=O)OCCOCCOCCOCCOC(=O)c2ccc(-c3c4nc(c(-c5c(F)cc(S(=O)(=O)[O-])cc5F)c5ccc([nH]5)c(-c5c(F)cc(S(=O)(=O)[O-])cc5F)c5nc(c(-c6c(F)cc(S(=O)(=O)[O-])cc6F)c6ccc3[nH]6)C=C5)C=C4)cc2)c1NC(=O)Cc1ccccc1
REMARK SMILES IDX 15 1 14 2 13 3 12 4 11 5 10 6 9 7 7 8 8 9 6 10 1 11 2 12
REMARK SMILES IDX 3 13 90 14 4 15 5 16 91 17 92 18 93 20 94 21 95 22 96 23
REMARK SMILES IDX 100 24 97 25 99 26 98 27 16 28 17 29 18 30 19 31 20 32 21 33
REMARK SMILES IDX 22 34 23 35 24 36 25 37 89 38 26 39 88 40 27 41 28 42 29 43
REMARK SMILES IDX 82 44 30 45 87 46 81 47 83 48 31 49 86 50 80 51 79 52 32 54
REMARK SMILES IDX 66 55 45 56 65 57 46 58 49 59 64 60 84 61 47 62 48 63 63 65
REMARK SMILES IDX 85 66 50 67 33 68 34 69 43 70 35 71 36 72 42 73 44 74 37 75
REMARK SMILES IDX 38 76 39 77 40 78 41 79 67 80 68 81 77 82 69 83 70 84 76 85
REMARK SMILES IDX 78 86 71 87 72 88 73 89 74 90 75 91 51 92 52 93 61 94 53 95
REMARK SMILES IDX 54 96 60 97 62 98 55 99 56 100 57 101 58 102 59 103
REMARK H PARENT 91 19 83 53 49 64
REMARK Flexibility Score: inf
ROOT
ATOM      1  O   UNL A   1      40.985  24.856  26.563  1.00  0.00    -0.377 OA
ENDROOT
BRANCH   1   2
ATOM      2  C   UNL A   1      39.592  24.847  26.870  1.00  0.00     0.188 C 
BRANCH   2   3
ATOM      3  C   UNL A   1      38.877  23.524  26.575  1.00  0.00     0.188 C 
BRANCH   3   4
ATOM      4  O   UNL A   1      37.990  23.529  25.456  1.00  0.00    -0.376 OA
BRANCH   4   5
ATOM      5  C   UNL A   1      36.656  23.972  25.713  1.00  0.00     0.202 C 
BRANCH   5   6
ATOM      6  C   UNL A   1      35.680  23.796  24.563  1.00  0.00     0.261 C 
BRANCH   6   7
ATOM      7  O   UNL A   1      34.690  22.884  25.066  1.00  0.00    -0.460 OA
BRANCH   7   8
ATOM      8  C   UNL A   1      33.729  23.474  25.772  1.00  0.00     0.340 C 
ATOM      9  O   UNL A   1      33.787  23.782  26.965  1.00  0.00    -0.246 OA
BRANCH   8  10
ATOM     10  C   UNL A   1      32.793  24.119  24.848  1.00  0.00     0.083 A 
ATOM     11  C   UNL A   1      31.669  26.378  22.012  1.00  0.00     0.046 C 
ATOM     12  C   UNL A   1      31.748  25.378  23.149  1.00  0.00    -0.027 A 
ATOM     13  C   UNL A   1      30.766  24.350  22.965  1.00  0.00     0.005 A 
ATOM     14  C   UNL A   1      32.727  25.397  24.229  1.00  0.00     0.058 A 
ATOM     15  C   UNL A   1      30.759  23.219  23.727  1.00  0.00     0.001 A 
ATOM     16  C   UNL A   1      31.804  23.087  24.602  1.00  0.00     0.018 A 
BRANCH  14  17
ATOM     17  N   UNL A   1      33.305  26.743  24.464  1.00  0.00    -0.325 N 
ATOM     18  C   UNL A   1      33.616  27.982  24.992  1.00  0.00     0.228 C 
ATOM     19  H   UNL A   1      33.890  26.782  23.673  1.00  0.00     0.169 HD
ATOM     20  O   UNL A   1      34.175  28.588  24.042  1.00  0.00    -0.274 OA
BRANCH  18  21
ATOM     21  C   UNL A   1      33.327  28.946  26.238  1.00  0.00     0.135 C 
BRANCH  21  22
ATOM     22  C   UNL A   1      34.280  29.831  27.204  1.00  0.00    -0.039 A 
ATOM     23  C   UNL A   1      34.061  31.169  27.649  1.00  0.00     0.004 A 
ATOM     24  C   UNL A   1      35.624  29.449  27.391  1.00  0.00     0.004 A 
ATOM     25  C   UNL A   1      35.027  32.055  28.171  1.00  0.00     0.000 A 
ATOM     26  C   UNL A   1      36.614  30.321  27.934  1.00  0.00     0.000 A 
ATOM     27  C   UNL A   1      36.324  31.631  28.302  1.00  0.00     0.000 A 
ENDBRANCH  21  22
ENDBRANCH  18  21
ENDBRANCH  14  17
ENDBRANCH   8  10
ENDBRANCH   7   8
ENDBRANCH   6   7
ENDBRANCH   5   6
ENDBRANCH   4   5
ENDBRANCH   3   4
ENDBRANCH   2   3
ENDBRANCH   1   2
BRANCH   1  28
ATOM     28  C   UNL A   1      41.786  25.032  27.740  1.00  0.00     0.188 C 
BRANCH  28  29
ATOM     29  C   UNL A   1      42.786  23.889  27.862  1.00  0.00     0.188 C 
BRANCH  29  30
ATOM     30  O   UNL A   1      43.594  23.793  26.695  1.00  0.00    -0.376 OA
BRANCH  30  31
ATOM     31  C   UNL A   1      44.673  22.878  26.759  1.00  0.00     0.202 C 
BRANCH  31  32
ATOM     32  C   UNL A   1      45.912  23.417  26.041  1.00  0.00     0.261 C 
BRANCH  32  33
ATOM     33  O   UNL A   1      46.853  23.866  27.037  1.00  0.00    -0.460 OA
BRANCH  33  34
ATOM     34  C   UNL A   1      47.092  25.200  27.013  1.00  0.00     0.338 C 
ATOM     35  O   UNL A   1      47.671  25.783  26.091  1.00  0.00    -0.246 OA
BRANCH  34  36
ATOM     36  C   UNL A   1      46.727  25.827  28.314  1.00  0.00     0.060 A 
ATOM     37  C   UNL A   1      47.671  25.936  29.329  1.00  0.00     0.016 A 
ATOM     38  C   UNL A   1      45.414  26.175  28.615  1.00  0.00     0.016 A 
ATOM     39  C   UNL A   1      47.260  26.235  30.646  1.00  0.00     0.010 A 
ATOM     40  C   UNL A   1      45.028  26.367  29.952  1.00  0.00     0.010 A 
ATOM     41  C   UNL A   1      45.923  26.266  31.026  1.00  0.00    -0.014 A 
BRANCH  41  42
ATOM     42  C   UNL A   1      45.399  26.311  32.444  1.00  0.00     0.031 A 
ATOM     43  C   UNL A   1      45.023  27.678  32.962  1.00  0.00     0.074 A 
ATOM     44  C   UNL A   1      45.098  25.270  33.311  1.00  0.00     0.049 A 
ATOM     45  N   UNL A   1      44.779  27.960  34.205  1.00  0.00    -0.248 NA
ATOM     46  C   UNL A   1      44.841  28.859  32.105  1.00  0.00     0.031 C 
ATOM     47  C   UNL A   1      44.220  25.342  34.474  1.00  0.00     0.029 A 
ATOM     48  N   UNL A   1      45.428  23.887  33.408  1.00  0.00    -0.354 N 
ATOM     49  C   UNL A   1      43.857  28.978  34.151  1.00  0.00     0.074 A 
ATOM     50  C   UNL A   1      44.142  29.661  32.916  1.00  0.00     0.031 C 
ATOM     51  C   UNL A   1      44.316  24.246  35.246  1.00  0.00     0.029 A 
ATOM     52  C   UNL A   1      45.407  23.428  34.762  1.00  0.00     0.049 A 
ATOM     53  H   UNL A   1      45.643  23.316  32.634  1.00  0.00     0.167 HD
ATOM     54  C   UNL A   1      42.756  28.934  34.957  1.00  0.00     0.037 A 
ATOM     55  C   UNL A   1      46.374  22.842  35.581  1.00  0.00     0.037 A 
ATOM     56  C   UNL A   1      42.860  27.982  36.077  1.00  0.00     0.049 A 
ATOM     57  C   UNL A   1      46.432  23.656  36.862  1.00  0.00     0.074 A 
ATOM     58  C   UNL A   1      42.006  27.014  36.583  1.00  0.00     0.029 A 
ATOM     59  N   UNL A   1      44.071  27.815  36.765  1.00  0.00    -0.354 N 
ATOM     60  N   UNL A   1      46.000  24.886  36.894  1.00  0.00    -0.248 NA
ATOM     61  C   UNL A   1      46.910  23.217  38.169  1.00  0.00     0.031 C 
ATOM     62  C   UNL A   1      42.734  26.224  37.516  1.00  0.00     0.029 A 
ATOM     63  C   UNL A   1      44.023  26.729  37.617  1.00  0.00     0.049 A 
ATOM     64  H   UNL A   1      44.857  28.399  36.654  1.00  0.00     0.167 HD
ATOM     65  C   UNL A   1      45.881  25.294  38.177  1.00  0.00     0.074 A 
ATOM     66  C   UNL A   1      46.596  24.283  38.937  1.00  0.00     0.031 C 
ATOM     67  C   UNL A   1      45.136  26.386  38.505  1.00  0.00     0.037 A 
BRANCH  54  68
ATOM     68  C   UNL A   1      41.449  29.615  34.574  1.00  0.00     0.058 A 
ATOM     69  C   UNL A   1      40.616  29.063  33.580  1.00  0.00     0.135 A 
ATOM     70  C   UNL A   1      41.014  30.865  35.079  1.00  0.00     0.135 A 
ATOM     71  F   UNL A   1      40.950  27.920  32.963  1.00  0.00    -0.206 F 
ATOM     72  C   UNL A   1      39.419  29.664  33.171  1.00  0.00     0.059 A 
ATOM     73  C   UNL A   1      39.790  31.447  34.740  1.00  0.00     0.059 A 
ATOM     74  F   UNL A   1      41.784  31.610  35.886  1.00  0.00    -0.206 F 
ATOM     75  C   UNL A   1      38.997  30.842  33.779  1.00  0.00     0.060 A 
BRANCH  75  76
ATOM     76  S   UNL A   1      37.403  31.564  33.338  1.00  0.00     0.124 S 
ATOM     77  O   UNL A   1      36.679  30.406  32.825  1.00  0.00    -0.237 OA
ATOM     78  O   UNL A   1      36.932  32.098  34.612  1.00  0.00    -0.237 OA
ATOM     79  O   UNL A   1      37.758  32.573  32.342  1.00  0.00    -0.744 OA
ENDBRANCH  75  76
ENDBRANCH  54  68
BRANCH  55  80
ATOM     80  C   UNL A   1      47.497  21.887  35.188  1.00  0.00     0.058 A 
ATOM     81  C   UNL A   1      48.635  22.373  34.534  1.00  0.00     0.135 A 
ATOM     82  C   UNL A   1      47.591  20.530  35.532  1.00  0.00     0.135 A 
ATOM     83  F   UNL A   1      48.558  23.556  33.910  1.00  0.00    -0.206 F 
ATOM     84  C   UNL A   1      49.883  21.715  34.562  1.00  0.00     0.059 A 
ATOM     85  C   UNL A   1      48.837  19.862  35.643  1.00  0.00     0.059 A 
ATOM     86  F   UNL A   1      46.486  19.848  35.867  1.00  0.00    -0.206 F 
ATOM     87  C   UNL A   1      50.002  20.522  35.264  1.00  0.00     0.060 A 
BRANCH  87  88
ATOM     88  S   UNL A   1      51.636  19.964  35.882  1.00  0.00     0.124 S 
ATOM     89  O   UNL A   1      51.322  18.659  36.453  1.00  0.00    -0.237 OA
ATOM     90  O   UNL A   1      52.478  19.921  34.689  1.00  0.00    -0.237 OA
ATOM     91  O   UNL A   1      52.006  20.991  36.851  1.00  0.00    -0.744 OA
ENDBRANCH  87  88
ENDBRANCH  55  80
BRANCH  67  92
ATOM     92  C   UNL A   1      45.313  27.156  39.771  1.00  0.00     0.058 A 
ATOM     93  C   UNL A   1      45.880  28.441  39.787  1.00  0.00     0.135 A 
ATOM     94  C   UNL A   1      44.705  26.718  40.967  1.00  0.00     0.135 A 
ATOM     95  F   UNL A   1      46.410  28.984  38.679  1.00  0.00    -0.206 F 
ATOM     96  C   UNL A   1      45.872  29.233  40.930  1.00  0.00     0.059 A 
ATOM     97  C   UNL A   1      44.647  27.510  42.103  1.00  0.00     0.059 A 
ATOM     98  F   UNL A   1      44.121  25.515  41.062  1.00  0.00    -0.206 F 
ATOM     99  C   UNL A   1      45.248  28.760  42.081  1.00  0.00     0.060 A 
BRANCH  99 100
ATOM    100  S   UNL A   1      45.173  29.801  43.543  1.00  0.00     0.124 S 
ATOM    101  O   UNL A   1      44.242  29.053  44.380  1.00  0.00    -0.237 OA
ATOM    102  O   UNL A   1      46.560  29.818  43.999  1.00  0.00    -0.237 OA
ATOM    103  O   UNL A   1      44.678  31.071  43.023  1.00  0.00    -0.744 OA
ENDBRANCH  99 100
ENDBRANCH  67  92
ENDBRANCH  41  42
ENDBRANCH  34  36
ENDBRANCH  33  34
ENDBRANCH  32  33
ENDBRANCH  31  32
ENDBRANCH  30  31
ENDBRANCH  29  30
ENDBRANCH  28  29
ENDBRANCH   1  28
TORSDOF 26
ENDMDL
