MODEL 1
REMARK VINA RESULT:      -9.8      0.000      0.000
REMARK SMILES O=C(OCCOCCOCCOCCOC(=O)c1ccc(-c2c3nc(c(-c4c(F)cc(S(=O)(=O)[O-])cc4F)c4ccc([nH]4)c(-c4c(F)cc(S(=O)(=O)[O-])cc4F)c4nc(c(-c5c(F)cc(S(=O)(=O)[O-])cc5F)c5ccc2[nH]5)C=C4)C=C3)cc1)C1=Cc2cc(Cl)cc(Cl)c2O[C@@H]1C(F)(F)F
REMARK SMILES IDX 10 1 9 2 8 3 7 4 6 5 5 6 4 7 3 8 2 9 1 10 84 11 85 12 95 13
REMARK SMILES IDX 86 14 94 15 87 16 93 17 88 18 91 19 89 20 90 21 92 22 96 23
REMARK SMILES IDX 97 24 98 25 99 26 11 27 12 28 13 29 14 30 15 31 16 32 17 33
REMARK SMILES IDX 18 34 19 35 83 36 20 37 82 38 21 39 22 40 23 41 76 42 24 43
REMARK SMILES IDX 81 44 75 45 77 46 25 47 80 48 74 49 73 50 26 52 60 53 39 54
REMARK SMILES IDX 59 55 40 56 43 57 58 58 78 59 41 60 42 61 57 63 79 64 44 65
REMARK SMILES IDX 27 66 28 67 37 68 29 69 30 70 36 71 38 72 31 73 32 74 33 75
REMARK SMILES IDX 34 76 35 77 61 78 62 79 71 80 63 81 64 82 70 83 72 84 65 85
REMARK SMILES IDX 66 86 67 87 68 88 69 89 45 90 46 91 55 92 47 93 48 94 54 95
REMARK SMILES IDX 56 96 49 97 50 98 51 99 52 100 53 101
REMARK H PARENT 77 51 43 62
REMARK Flexibility Score: inf
ROOT
ATOM      1  C   UNL A   1      34.169  35.063  30.130  1.00  0.00     0.188 C 
ENDROOT
BRANCH   1   2
ATOM      2  O   UNL A   1      34.516  34.399  28.918  1.00  0.00    -0.377 OA
BRANCH   2   3
ATOM      3  C   UNL A   1      34.503  32.978  28.976  1.00  0.00     0.188 C 
BRANCH   3   4
ATOM      4  C   UNL A   1      35.664  32.368  28.206  1.00  0.00     0.188 C 
BRANCH   4   5
ATOM      5  O   UNL A   1      35.255  31.404  27.250  1.00  0.00    -0.376 OA
BRANCH   5   6
ATOM      6  C   UNL A   1      33.999  30.762  27.415  1.00  0.00     0.202 C 
BRANCH   6   7
ATOM      7  C   UNL A   1      34.068  29.288  27.817  1.00  0.00     0.261 C 
BRANCH   7   8
ATOM      8  O   UNL A   1      33.640  28.415  26.752  1.00  0.00    -0.460 OA
BRANCH   8   9
ATOM      9  C   UNL A   1      32.351  28.003  26.768  1.00  0.00     0.338 C 
ATOM     10  O   UNL A   1      31.570  28.305  27.657  1.00  0.00    -0.246 OA
BRANCH   9  11
ATOM     11  C   UNL A   1      32.019  27.027  25.695  1.00  0.00     0.087 C 
ATOM     12  C   UNL A   1      32.998  26.132  25.493  1.00  0.00     0.027 C 
ATOM     13  C   UNL A   1      30.580  26.644  25.503  1.00  0.00     0.316 C 
ATOM     14  C   UNL A   1      32.647  24.759  25.853  1.00  0.00     0.020 A 
ATOM     15  O   UNL A   1      30.277  25.273  25.863  1.00  0.00    -0.474 OA
ATOM     16  C   UNL A   1      33.675  23.833  26.064  1.00  0.00     0.032 A 
ATOM     17  C   UNL A   1      31.320  24.426  26.147  1.00  0.00     0.146 A 
ATOM     18  C   UNL A   1      33.386  22.604  26.648  1.00  0.00     0.043 A 
ATOM     19  C   UNL A   1      31.053  23.201  26.776  1.00  0.00     0.085 A 
ATOM     20  Cl  UNL A   1      34.652  21.470  26.912  1.00  0.00    -0.084 Cl
ATOM     21  C   UNL A   1      32.087  22.299  27.046  1.00  0.00     0.045 A 
ATOM     22  Cl  UNL A   1      29.462  22.792  27.309  1.00  0.00    -0.080 Cl
BRANCH  13  23
ATOM     23  C   UNL A   1      30.082  27.029  24.107  1.00  0.00     0.430 C 
ATOM     24  F   UNL A   1      29.801  28.351  24.025  1.00  0.00    -0.167 F 
ATOM     25  F   UNL A   1      31.033  26.783  23.168  1.00  0.00    -0.167 F 
ATOM     26  F   UNL A   1      28.975  26.346  23.741  1.00  0.00    -0.167 F 
ENDBRANCH  13  23
ENDBRANCH   9  11
ENDBRANCH   8   9
ENDBRANCH   7   8
ENDBRANCH   6   7
ENDBRANCH   5   6
ENDBRANCH   4   5
ENDBRANCH   3   4
ENDBRANCH   2   3
ENDBRANCH   1   2
BRANCH   1  27
ATOM     27  C   UNL A   1      34.619  34.380  31.445  1.00  0.00     0.188 C 
BRANCH  27  28
ATOM     28  O   UNL A   1      35.338  35.056  32.474  1.00  0.00    -0.376 OA
BRANCH  28  29
ATOM     29  C   UNL A   1      36.498  34.462  33.017  1.00  0.00     0.202 C 
BRANCH  29  30
ATOM     30  C   UNL A   1      37.337  33.657  32.013  1.00  0.00     0.261 C 
BRANCH  30  31
ATOM     31  O   UNL A   1      37.708  32.340  32.460  1.00  0.00    -0.460 OA
BRANCH  31  32
ATOM     32  C   UNL A   1      37.340  31.305  31.653  1.00  0.00     0.338 C 
ATOM     33  O   UNL A   1      36.211  30.928  31.429  1.00  0.00    -0.246 OA
BRANCH  32  34
ATOM     34  C   UNL A   1      38.541  30.801  30.919  1.00  0.00     0.060 A 
ATOM     35  C   UNL A   1      39.630  30.340  31.675  1.00  0.00     0.016 A 
ATOM     36  C   UNL A   1      38.589  30.714  29.525  1.00  0.00     0.016 A 
ATOM     37  C   UNL A   1      40.762  29.802  31.047  1.00  0.00     0.010 A 
ATOM     38  C   UNL A   1      39.731  30.197  28.895  1.00  0.00     0.010 A 
ATOM     39  C   UNL A   1      40.835  29.758  29.650  1.00  0.00    -0.014 A 
BRANCH  39  40
ATOM     40  C   UNL A   1      42.128  29.465  28.967  1.00  0.00     0.031 A 
ATOM     41  C   UNL A   1      42.338  28.068  28.438  1.00  0.00     0.074 A 
ATOM     42  C   UNL A   1      43.103  30.384  28.828  1.00  0.00     0.049 A 
ATOM     43  N   UNL A   1      43.415  27.524  27.936  1.00  0.00    -0.248 NA
ATOM     44  C   UNL A   1      41.175  27.167  28.491  1.00  0.00     0.031 C 
ATOM     45  C   UNL A   1      43.017  31.784  29.239  1.00  0.00     0.029 A 
ATOM     46  N   UNL A   1      44.377  30.265  28.318  1.00  0.00    -0.354 N 
ATOM     47  C   UNL A   1      43.068  26.210  27.638  1.00  0.00     0.074 A 
ATOM     48  C   UNL A   1      41.683  26.038  28.017  1.00  0.00     0.031 C 
ATOM     49  C   UNL A   1      44.199  32.383  28.999  1.00  0.00     0.029 A 
ATOM     50  C   UNL A   1      45.141  31.402  28.456  1.00  0.00     0.049 A 
ATOM     51  H   UNL A   1      44.711  29.442  27.893  1.00  0.00     0.167 HD
ATOM     52  C   UNL A   1      43.835  25.233  27.103  1.00  0.00     0.037 A 
ATOM     53  C   UNL A   1      46.454  31.614  28.217  1.00  0.00     0.037 A 
ATOM     54  C   UNL A   1      45.208  25.404  26.711  1.00  0.00     0.049 A 
ATOM     55  C   UNL A   1      47.309  30.482  27.690  1.00  0.00     0.074 A 
ATOM     56  C   UNL A   1      46.048  24.480  26.115  1.00  0.00     0.029 A 
ATOM     57  N   UNL A   1      45.947  26.562  26.887  1.00  0.00    -0.354 N 
ATOM     58  N   UNL A   1      46.956  29.259  27.372  1.00  0.00    -0.248 NA
ATOM     59  C   UNL A   1      48.744  30.755  27.500  1.00  0.00     0.031 C 
ATOM     60  C   UNL A   1      47.314  25.059  25.989  1.00  0.00     0.029 A 
ATOM     61  C   UNL A   1      47.245  26.362  26.452  1.00  0.00     0.049 A 
ATOM     62  H   UNL A   1      45.599  27.403  27.263  1.00  0.00     0.167 HD
ATOM     63  C   UNL A   1      48.119  28.627  26.930  1.00  0.00     0.074 A 
ATOM     64  C   UNL A   1      49.180  29.608  26.998  1.00  0.00     0.031 C 
ATOM     65  C   UNL A   1      48.293  27.350  26.513  1.00  0.00     0.037 A 
BRANCH  52  66
ATOM     66  C   UNL A   1      43.230  23.868  26.938  1.00  0.00     0.058 A 
ATOM     67  C   UNL A   1      42.793  23.397  25.691  1.00  0.00     0.135 A 
ATOM     68  C   UNL A   1      43.174  22.988  28.031  1.00  0.00     0.135 A 
ATOM     69  F   UNL A   1      42.804  24.205  24.619  1.00  0.00    -0.206 F 
ATOM     70  C   UNL A   1      42.326  22.097  25.533  1.00  0.00     0.059 A 
ATOM     71  C   UNL A   1      42.734  21.677  27.891  1.00  0.00     0.059 A 
ATOM     72  F   UNL A   1      43.571  23.397  29.247  1.00  0.00    -0.206 F 
ATOM     73  C   UNL A   1      42.311  21.240  26.637  1.00  0.00     0.060 A 
BRANCH  73  74
ATOM     74  S   UNL A   1      41.762  19.538  26.399  1.00  0.00     0.124 S 
ATOM     75  O   UNL A   1      40.320  19.713  26.256  1.00  0.00    -0.237 OA
ATOM     76  O   UNL A   1      42.477  19.149  25.189  1.00  0.00    -0.237 OA
ATOM     77  O   UNL A   1      42.193  18.867  27.622  1.00  0.00    -0.744 OA
ENDBRANCH  73  74
ENDBRANCH  52  66
BRANCH  53  78
ATOM     78  C   UNL A   1      47.085  32.929  28.537  1.00  0.00     0.058 A 
ATOM     79  C   UNL A   1      47.561  33.220  29.825  1.00  0.00     0.135 A 
ATOM     80  C   UNL A   1      47.154  33.951  27.575  1.00  0.00     0.135 A 
ATOM     81  F   UNL A   1      47.499  32.289  30.789  1.00  0.00    -0.206 F 
ATOM     82  C   UNL A   1      48.055  34.479  30.156  1.00  0.00     0.059 A 
ATOM     83  C   UNL A   1      47.674  35.207  27.873  1.00  0.00     0.059 A 
ATOM     84  F   UNL A   1      46.717  33.730  26.325  1.00  0.00    -0.206 F 
ATOM     85  C   UNL A   1      48.106  35.468  29.172  1.00  0.00     0.060 A 
BRANCH  85  86
ATOM     86  S   UNL A   1      48.767  37.093  29.601  1.00  0.00     0.124 S 
ATOM     87  O   UNL A   1      48.399  37.880  28.431  1.00  0.00    -0.237 OA
ATOM     88  O   UNL A   1      48.046  37.399  30.833  1.00  0.00    -0.237 OA
ATOM     89  O   UNL A   1      50.196  36.838  29.768  1.00  0.00    -0.744 OA
ENDBRANCH  85  86
ENDBRANCH  53  78
BRANCH  65  90
ATOM     90  C   UNL A   1      49.671  26.928  26.075  1.00  0.00     0.058 A 
ATOM     91  C   UNL A   1      50.082  27.035  24.737  1.00  0.00     0.135 A 
ATOM     92  C   UNL A   1      50.618  26.492  27.016  1.00  0.00     0.135 A 
ATOM     93  F   UNL A   1      49.216  27.442  23.795  1.00  0.00    -0.206 F 
ATOM     94  C   UNL A   1      51.378  26.713  24.346  1.00  0.00     0.059 A 
ATOM     95  C   UNL A   1      51.927  26.192  26.652  1.00  0.00     0.059 A 
ATOM     96  F   UNL A   1      50.282  26.382  28.312  1.00  0.00    -0.206 F 
ATOM     97  C   UNL A   1      52.296  26.298  25.313  1.00  0.00     0.060 A 
BRANCH  97  98
ATOM     98  S   UNL A   1      53.988  25.934  24.798  1.00  0.00     0.124 S 
ATOM     99  O   UNL A   1      53.940  26.258  23.376  1.00  0.00    -0.237 OA
ATOM    100  O   UNL A   1      54.770  26.846  25.629  1.00  0.00    -0.237 OA
ATOM    101  O   UNL A   1      54.143  24.517  25.114  1.00  0.00    -0.744 OA
ENDBRANCH  97  98
ENDBRANCH  65  90
ENDBRANCH  39  40
ENDBRANCH  32  34
ENDBRANCH  31  32
ENDBRANCH  30  31
ENDBRANCH  29  30
ENDBRANCH  28  29
ENDBRANCH  27  28
ENDBRANCH   1  27
TORSDOF 24
ENDMDL
MODEL 2
REMARK VINA RESULT:      -9.3      2.161      3.171
REMARK SMILES O=C(OCCOCCOCCOCCOC(=O)c1ccc(-c2c3nc(c(-c4c(F)cc(S(=O)(=O)[O-])cc4F)c4ccc([nH]4)c(-c4c(F)cc(S(=O)(=O)[O-])cc4F)c4nc(c(-c5c(F)cc(S(=O)(=O)[O-])cc5F)c5ccc2[nH]5)C=C4)C=C3)cc1)C1=Cc2cc(Cl)cc(Cl)c2O[C@@H]1C(F)(F)F
REMARK SMILES IDX 10 1 9 2 8 3 7 4 6 5 5 6 4 7 3 8 2 9 1 10 84 11 85 12 95 13
REMARK SMILES IDX 86 14 94 15 87 16 93 17 88 18 91 19 89 20 90 21 92 22 96 23
REMARK SMILES IDX 97 24 98 25 99 26 11 27 12 28 13 29 14 30 15 31 16 32 17 33
REMARK SMILES IDX 18 34 19 35 83 36 20 37 82 38 21 39 22 40 23 41 76 42 24 43
REMARK SMILES IDX 81 44 75 45 77 46 25 47 80 48 74 49 73 50 26 52 60 53 39 54
REMARK SMILES IDX 59 55 40 56 43 57 58 58 78 59 41 60 42 61 57 63 79 64 44 65
REMARK SMILES IDX 27 66 28 67 37 68 29 69 30 70 36 71 38 72 31 73 32 74 33 75
REMARK SMILES IDX 34 76 35 77 61 78 62 79 71 80 63 81 64 82 70 83 72 84 65 85
REMARK SMILES IDX 66 86 67 87 68 88 69 89 45 90 46 91 55 92 47 93 48 94 54 95
REMARK SMILES IDX 56 96 49 97 50 98 51 99 52 100 53 101
REMARK H PARENT 77 51 43 62
REMARK Flexibility Score: inf
ROOT
ATOM      1  C   UNL A   1      33.188  36.524  29.411  1.00  0.00     0.188 C 
ENDROOT
BRANCH   1   2
ATOM      2  O   UNL A   1      34.012  35.883  28.442  1.00  0.00    -0.377 OA
BRANCH   2   3
ATOM      3  C   UNL A   1      34.065  34.464  28.531  1.00  0.00     0.188 C 
BRANCH   3   4
ATOM      4  C   UNL A   1      35.322  33.901  27.885  1.00  0.00     0.188 C 
BRANCH   4   5
ATOM      5  O   UNL A   1      35.176  32.556  27.459  1.00  0.00    -0.376 OA
BRANCH   5   6
ATOM      6  C   UNL A   1      33.952  31.883  27.713  1.00  0.00     0.202 C 
BRANCH   6   7
ATOM      7  C   UNL A   1      34.031  30.357  27.698  1.00  0.00     0.261 C 
BRANCH   7   8
ATOM      8  O   UNL A   1      33.559  29.801  26.454  1.00  0.00    -0.460 OA
BRANCH   8   9
ATOM      9  C   UNL A   1      32.408  29.090  26.490  1.00  0.00     0.338 C 
ATOM     10  O   UNL A   1      31.633  29.130  27.433  1.00  0.00    -0.246 OA
BRANCH   9  11
ATOM     11  C   UNL A   1      32.253  28.143  25.353  1.00  0.00     0.087 C 
ATOM     12  C   UNL A   1      33.383  27.472  25.083  1.00  0.00     0.027 C 
ATOM     13  C   UNL A   1      30.912  27.500  25.142  1.00  0.00     0.316 C 
ATOM     14  C   UNL A   1      33.312  26.036  25.348  1.00  0.00     0.020 A 
ATOM     15  O   UNL A   1      30.888  26.076  25.407  1.00  0.00    -0.474 OA
ATOM     16  C   UNL A   1      34.504  25.317  25.488  1.00  0.00     0.032 A 
ATOM     17  C   UNL A   1      32.080  25.431  25.625  1.00  0.00     0.146 A 
ATOM     18  C   UNL A   1      34.470  24.017  25.987  1.00  0.00     0.043 A 
ATOM     19  C   UNL A   1      32.069  24.138  26.168  1.00  0.00     0.085 A 
ATOM     20  Cl  UNL A   1      35.938  23.138  26.163  1.00  0.00    -0.084 Cl
ATOM     21  C   UNL A   1      33.263  23.439  26.368  1.00  0.00     0.045 A 
ATOM     22  Cl  UNL A   1      30.598  23.391  26.679  1.00  0.00    -0.080 Cl
BRANCH  13  23
ATOM     23  C   UNL A   1      30.322  27.874  23.778  1.00  0.00     0.430 C 
ATOM     24  F   UNL A   1      31.265  27.860  22.806  1.00  0.00    -0.167 F 
ATOM     25  F   UNL A   1      29.371  26.980  23.400  1.00  0.00    -0.167 F 
ATOM     26  F   UNL A   1      29.743  29.094  23.776  1.00  0.00    -0.167 F 
ENDBRANCH  13  23
ENDBRANCH   9  11
ENDBRANCH   8   9
ENDBRANCH   7   8
ENDBRANCH   6   7
ENDBRANCH   5   6
ENDBRANCH   4   5
ENDBRANCH   3   4
ENDBRANCH   2   3
ENDBRANCH   1   2
BRANCH   1  27
ATOM     27  C   UNL A   1      33.120  35.861  30.809  1.00  0.00     0.188 C 
BRANCH  27  28
ATOM     28  O   UNL A   1      33.233  36.590  32.029  1.00  0.00    -0.376 OA
BRANCH  28  29
ATOM     29  C   UNL A   1      34.061  36.095  33.060  1.00  0.00     0.202 C 
BRANCH  29  30
ATOM     30  C   UNL A   1      35.253  35.254  32.579  1.00  0.00     0.261 C 
BRANCH  30  31
ATOM     31  O   UNL A   1      35.365  33.961  33.202  1.00  0.00    -0.460 OA
BRANCH  31  32
ATOM     32  C   UNL A   1      35.175  32.883  32.389  1.00  0.00     0.338 C 
ATOM     33  O   UNL A   1      34.113  32.409  32.051  1.00  0.00    -0.246 OA
BRANCH  32  34
ATOM     34  C   UNL A   1      36.489  32.467  31.808  1.00  0.00     0.060 A 
ATOM     35  C   UNL A   1      37.408  31.823  32.651  1.00  0.00     0.016 A 
ATOM     36  C   UNL A   1      36.801  32.637  30.456  1.00  0.00     0.016 A 
ATOM     37  C   UNL A   1      38.632  31.357  32.152  1.00  0.00     0.010 A 
ATOM     38  C   UNL A   1      38.037  32.192  29.962  1.00  0.00     0.010 A 
ATOM     39  C   UNL A   1      38.971  31.568  30.810  1.00  0.00    -0.014 A 
BRANCH  39  40
ATOM     40  C   UNL A   1      40.366  31.345  30.336  1.00  0.00     0.031 A 
ATOM     41  C   UNL A   1      40.689  30.010  29.716  1.00  0.00     0.074 A 
ATOM     42  C   UNL A   1      41.335  32.274  30.460  1.00  0.00     0.049 A 
ATOM     43  N   UNL A   1      41.845  29.518  29.356  1.00  0.00    -0.248 NA
ATOM     44  C   UNL A   1      39.549  29.107  29.476  1.00  0.00     0.031 C 
ATOM     45  C   UNL A   1      41.156  33.626  30.987  1.00  0.00     0.029 A 
ATOM     46  N   UNL A   1      42.679  32.207  30.169  1.00  0.00    -0.354 N 
ATOM     47  C   UNL A   1      41.577  28.242  28.873  1.00  0.00     0.074 A 
ATOM     48  C   UNL A   1      40.151  28.033  28.987  1.00  0.00     0.031 C 
ATOM     49  C   UNL A   1      42.351  34.245  31.016  1.00  0.00     0.029 A 
ATOM     50  C   UNL A   1      43.389  33.324  30.550  1.00  0.00     0.049 A 
ATOM     51  H   UNL A   1      43.096  31.430  29.729  1.00  0.00     0.167 HD
ATOM     52  C   UNL A   1      42.441  27.323  28.384  1.00  0.00     0.037 A 
ATOM     53  C   UNL A   1      44.720  33.559  30.564  1.00  0.00     0.037 A 
ATOM     54  C   UNL A   1      43.858  27.533  28.254  1.00  0.00     0.049 A 
ATOM     55  C   UNL A   1      45.672  32.485  30.082  1.00  0.00     0.074 A 
ATOM     56  C   UNL A   1      44.805  26.673  27.723  1.00  0.00     0.029 A 
ATOM     57  N   UNL A   1      44.536  28.667  28.669  1.00  0.00    -0.354 N 
ATOM     58  N   UNL A   1      45.400  31.300  29.588  1.00  0.00    -0.248 NA
ATOM     59  C   UNL A   1      47.113  32.776  30.171  1.00  0.00     0.031 C 
ATOM     60  C   UNL A   1      46.063  27.261  27.877  1.00  0.00     0.029 A 
ATOM     61  C   UNL A   1      45.893  28.512  28.448  1.00  0.00     0.049 A 
ATOM     62  H   UNL A   1      44.114  29.465  29.062  1.00  0.00     0.167 HD
ATOM     63  C   UNL A   1      46.632  30.717  29.293  1.00  0.00     0.074 A 
ATOM     64  C   UNL A   1      47.648  31.685  29.641  1.00  0.00     0.031 C 
ATOM     65  C   UNL A   1      46.898  29.488  28.788  1.00  0.00     0.037 A 
BRANCH  52  66
ATOM     66  C   UNL A   1      41.898  25.982  27.981  1.00  0.00     0.058 A 
ATOM     67  C   UNL A   1      41.197  25.797  26.780  1.00  0.00     0.135 A 
ATOM     68  C   UNL A   1      42.165  24.851  28.770  1.00  0.00     0.135 A 
ATOM     69  F   UNL A   1      40.896  26.847  26.001  1.00  0.00    -0.206 F 
ATOM     70  C   UNL A   1      40.785  24.533  26.373  1.00  0.00     0.059 A 
ATOM     71  C   UNL A   1      41.783  23.576  28.370  1.00  0.00     0.059 A 
ATOM     72  F   UNL A   1      42.822  24.980  29.933  1.00  0.00    -0.206 F 
ATOM     73  C   UNL A   1      41.093  23.426  27.169  1.00  0.00     0.060 A 
BRANCH  73  74
ATOM     74  S   UNL A   1      40.605  21.787  26.592  1.00  0.00     0.124 S 
ATOM     75  O   UNL A   1      41.614  21.526  25.571  1.00  0.00    -0.237 OA
ATOM     76  O   UNL A   1      40.711  20.988  27.807  1.00  0.00    -0.237 OA
ATOM     77  O   UNL A   1      39.248  21.991  26.094  1.00  0.00    -0.744 OA
ENDBRANCH  73  74
ENDBRANCH  52  66
BRANCH  53  78
ATOM     78  C   UNL A   1      45.263  34.834  31.117  1.00  0.00     0.058 A 
ATOM     79  C   UNL A   1      45.506  35.947  30.295  1.00  0.00     0.135 A 
ATOM     80  C   UNL A   1      45.623  34.940  32.471  1.00  0.00     0.135 A 
ATOM     81  F   UNL A   1      45.202  35.894  28.990  1.00  0.00    -0.206 F 
ATOM     82  C   UNL A   1      46.108  37.102  30.786  1.00  0.00     0.059 A 
ATOM     83  C   UNL A   1      46.197  36.095  32.992  1.00  0.00     0.059 A 
ATOM     84  F   UNL A   1      45.412  33.910  33.306  1.00  0.00    -0.206 F 
ATOM     85  C   UNL A   1      46.451  37.166  32.137  1.00  0.00     0.060 A 
BRANCH  85  86
ATOM     86  S   UNL A   1      47.214  38.676  32.772  1.00  0.00     0.124 S 
ATOM     87  O   UNL A   1      46.082  39.329  33.419  1.00  0.00    -0.237 OA
ATOM     88  O   UNL A   1      48.242  38.146  33.662  1.00  0.00    -0.237 OA
ATOM     89  O   UNL A   1      47.716  39.329  31.566  1.00  0.00    -0.744 OA
ENDBRANCH  85  86
ENDBRANCH  53  78
BRANCH  65  90
ATOM     90  C   UNL A   1      48.337  29.112  28.554  1.00  0.00     0.058 A 
ATOM     91  C   UNL A   1      49.062  28.361  29.491  1.00  0.00     0.135 A 
ATOM     92  C   UNL A   1      48.972  29.434  27.343  1.00  0.00     0.135 A 
ATOM     93  F   UNL A   1      48.506  28.029  30.668  1.00  0.00    -0.206 F 
ATOM     94  C   UNL A   1      50.369  27.953  29.243  1.00  0.00     0.059 A 
ATOM     95  C   UNL A   1      50.268  29.012  27.061  1.00  0.00     0.059 A 
ATOM     96  F   UNL A   1      48.321  30.142  26.406  1.00  0.00    -0.206 F 
ATOM     97  C   UNL A   1      50.962  28.278  28.021  1.00  0.00     0.060 A 
BRANCH  97  98
ATOM     98  S   UNL A   1      52.640  27.697  27.692  1.00  0.00     0.124 S 
ATOM     99  O   UNL A   1      53.415  28.919  27.870  1.00  0.00    -0.237 OA
ATOM    100  O   UNL A   1      52.823  26.675  28.719  1.00  0.00    -0.237 OA
ATOM    101  O   UNL A   1      52.564  27.195  26.323  1.00  0.00    -0.744 OA
ENDBRANCH  97  98
ENDBRANCH  65  90
ENDBRANCH  39  40
ENDBRANCH  32  34
ENDBRANCH  31  32
ENDBRANCH  30  31
ENDBRANCH  29  30
ENDBRANCH  28  29
ENDBRANCH  27  28
ENDBRANCH   1  27
TORSDOF 24
ENDMDL
MODEL 3
REMARK VINA RESULT:      -9.2      5.908     12.037
REMARK SMILES O=C(OCCOCCOCCOCCOC(=O)c1ccc(-c2c3nc(c(-c4c(F)cc(S(=O)(=O)[O-])cc4F)c4ccc([nH]4)c(-c4c(F)cc(S(=O)(=O)[O-])cc4F)c4nc(c(-c5c(F)cc(S(=O)(=O)[O-])cc5F)c5ccc2[nH]5)C=C4)C=C3)cc1)C1=Cc2cc(Cl)cc(Cl)c2O[C@@H]1C(F)(F)F
REMARK SMILES IDX 10 1 9 2 8 3 7 4 6 5 5 6 4 7 3 8 2 9 1 10 84 11 85 12 95 13
REMARK SMILES IDX 86 14 94 15 87 16 93 17 88 18 91 19 89 20 90 21 92 22 96 23
REMARK SMILES IDX 97 24 98 25 99 26 11 27 12 28 13 29 14 30 15 31 16 32 17 33
REMARK SMILES IDX 18 34 19 35 83 36 20 37 82 38 21 39 22 40 23 41 76 42 24 43
REMARK SMILES IDX 81 44 75 45 77 46 25 47 80 48 74 49 73 50 26 52 60 53 39 54
REMARK SMILES IDX 59 55 40 56 43 57 58 58 78 59 41 60 42 61 57 63 79 64 44 65
REMARK SMILES IDX 27 66 28 67 37 68 29 69 30 70 36 71 38 72 31 73 32 74 33 75
REMARK SMILES IDX 34 76 35 77 61 78 62 79 71 80 63 81 64 82 70 83 72 84 65 85
REMARK SMILES IDX 66 86 67 87 68 88 69 89 45 90 46 91 55 92 47 93 48 94 54 95
REMARK SMILES IDX 56 96 49 97 50 98 51 99 52 100 53 101
REMARK H PARENT 77 51 43 62
REMARK Flexibility Score: inf
ROOT
ATOM      1  C   UNL A   1      41.752  21.344  26.226  1.00  0.00     0.188 C 
ENDROOT
BRANCH   1   2
ATOM      2  O   UNL A   1      40.472  21.466  26.841  1.00  0.00    -0.377 OA
BRANCH   2   3
ATOM      3  C   UNL A   1      39.368  21.077  26.033  1.00  0.00     0.188 C 
BRANCH   3   4
ATOM      4  C   UNL A   1      38.357  22.202  25.873  1.00  0.00     0.188 C 
BRANCH   4   5
ATOM      5  O   UNL A   1      37.024  21.796  26.135  1.00  0.00    -0.376 OA
BRANCH   5   6
ATOM      6  C   UNL A   1      35.967  22.376  25.386  1.00  0.00     0.202 C 
BRANCH   6   7
ATOM      7  C   UNL A   1      34.679  22.637  26.167  1.00  0.00     0.261 C 
BRANCH   7   8
ATOM      8  O   UNL A   1      33.840  23.615  25.519  1.00  0.00    -0.460 OA
BRANCH   8   9
ATOM      9  C   UNL A   1      33.424  24.666  26.263  1.00  0.00     0.338 C 
ATOM     10  O   UNL A   1      32.849  24.535  27.333  1.00  0.00    -0.246 OA
BRANCH   9  11
ATOM     11  C   UNL A   1      33.591  25.982  25.589  1.00  0.00     0.087 C 
ATOM     12  C   UNL A   1      34.072  25.864  24.342  1.00  0.00     0.027 C 
ATOM     13  C   UNL A   1      32.636  27.086  25.940  1.00  0.00     0.316 C 
ATOM     14  C   UNL A   1      33.134  26.258  23.292  1.00  0.00     0.020 A 
ATOM     15  O   UNL A   1      31.731  27.451  24.869  1.00  0.00    -0.474 OA
ATOM     16  C   UNL A   1      33.361  25.815  21.984  1.00  0.00     0.032 A 
ATOM     17  C   UNL A   1      31.945  26.919  23.622  1.00  0.00     0.146 A 
ATOM     18  C   UNL A   1      32.363  25.958  21.025  1.00  0.00     0.043 A 
ATOM     19  C   UNL A   1      30.934  27.015  22.655  1.00  0.00     0.085 A 
ATOM     20  Cl  UNL A   1      32.643  25.407  19.420  1.00  0.00    -0.084 Cl
ATOM     21  C   UNL A   1      31.134  26.517  21.364  1.00  0.00     0.045 A 
ATOM     22  Cl  UNL A   1      29.385  27.677  23.036  1.00  0.00    -0.080 Cl
BRANCH  13  23
ATOM     23  C   UNL A   1      33.369  28.285  26.551  1.00  0.00     0.430 C 
ATOM     24  F   UNL A   1      32.561  28.999  27.371  1.00  0.00    -0.167 F 
ATOM     25  F   UNL A   1      34.418  27.875  27.313  1.00  0.00    -0.167 F 
ATOM     26  F   UNL A   1      33.861  29.127  25.617  1.00  0.00    -0.167 F 
ENDBRANCH  13  23
ENDBRANCH   9  11
ENDBRANCH   8   9
ENDBRANCH   7   8
ENDBRANCH   6   7
ENDBRANCH   5   6
ENDBRANCH   4   5
ENDBRANCH   3   4
ENDBRANCH   2   3
ENDBRANCH   1   2
BRANCH   1  27
ATOM     27  C   UNL A   1      42.245  22.562  25.407  1.00  0.00     0.188 C 
BRANCH  27  28
ATOM     28  O   UNL A   1      43.432  22.548  24.619  1.00  0.00    -0.376 OA
BRANCH  28  29
ATOM     29  C   UNL A   1      44.684  22.741  25.244  1.00  0.00     0.202 C 
BRANCH  29  30
ATOM     30  C   UNL A   1      45.032  24.206  25.548  1.00  0.00     0.261 C 
BRANCH  30  31
ATOM     31  O   UNL A   1      44.207  24.822  26.553  1.00  0.00    -0.460 OA
BRANCH  31  32
ATOM     32  C   UNL A   1      43.436  25.868  26.142  1.00  0.00     0.338 C 
ATOM     33  O   UNL A   1      43.094  26.112  25.006  1.00  0.00    -0.246 OA
BRANCH  32  34
ATOM     34  C   UNL A   1      42.902  26.587  27.339  1.00  0.00     0.060 A 
ATOM     35  C   UNL A   1      43.295  27.920  27.536  1.00  0.00     0.016 A 
ATOM     36  C   UNL A   1      41.987  26.004  28.221  1.00  0.00     0.016 A 
ATOM     37  C   UNL A   1      42.784  28.666  28.607  1.00  0.00     0.010 A 
ATOM     38  C   UNL A   1      41.494  26.744  29.307  1.00  0.00     0.010 A 
ATOM     39  C   UNL A   1      41.905  28.073  29.521  1.00  0.00    -0.014 A 
BRANCH  39  40
ATOM     40  C   UNL A   1      41.583  28.747  30.811  1.00  0.00     0.031 A 
ATOM     41  C   UNL A   1      40.404  29.686  30.834  1.00  0.00     0.074 A 
ATOM     42  C   UNL A   1      42.310  28.563  31.930  1.00  0.00     0.049 A 
ATOM     43  N   UNL A   1      40.004  30.494  31.780  1.00  0.00    -0.248 NA
ATOM     44  C   UNL A   1      39.570  29.719  29.620  1.00  0.00     0.031 C 
ATOM     45  C   UNL A   1      43.440  27.645  32.071  1.00  0.00     0.029 A 
ATOM     46  N   UNL A   1      42.217  29.166  33.166  1.00  0.00    -0.354 N 
ATOM     47  C   UNL A   1      38.890  31.150  31.268  1.00  0.00     0.074 A 
ATOM     48  C   UNL A   1      38.677  30.649  29.928  1.00  0.00     0.031 C 
ATOM     49  C   UNL A   1      43.956  27.773  33.307  1.00  0.00     0.029 A 
ATOM     50  C   UNL A   1      43.224  28.811  34.036  1.00  0.00     0.049 A 
ATOM     51  H   UNL A   1      41.497  29.793  33.404  1.00  0.00     0.167 HD
ATOM     52  C   UNL A   1      38.115  32.090  31.857  1.00  0.00     0.037 A 
ATOM     53  C   UNL A   1      43.544  29.296  35.256  1.00  0.00     0.037 A 
ATOM     54  C   UNL A   1      38.314  32.580  33.194  1.00  0.00     0.049 A 
ATOM     55  C   UNL A   1      42.706  30.403  35.862  1.00  0.00     0.074 A 
ATOM     56  C   UNL A   1      37.547  33.499  33.891  1.00  0.00     0.029 A 
ATOM     57  N   UNL A   1      39.353  32.210  34.031  1.00  0.00    -0.354 N 
ATOM     58  N   UNL A   1      41.631  30.981  35.384  1.00  0.00    -0.248 NA
ATOM     59  C   UNL A   1      43.134  30.930  37.169  1.00  0.00     0.031 C 
ATOM     60  C   UNL A   1      38.160  33.733  35.125  1.00  0.00     0.029 A 
ATOM     61  C   UNL A   1      39.274  32.915  35.220  1.00  0.00     0.049 A 
ATOM     62  H   UNL A   1      40.044  31.544  33.813  1.00  0.00     0.167 HD
ATOM     63  C   UNL A   1      41.247  31.924  36.338  1.00  0.00     0.074 A 
ATOM     64  C   UNL A   1      42.189  31.823  37.430  1.00  0.00     0.031 C 
ATOM     65  C   UNL A   1      40.212  32.799  36.308  1.00  0.00     0.037 A 
BRANCH  52  66
ATOM     66  C   UNL A   1      36.996  32.691  31.056  1.00  0.00     0.058 A 
ATOM     67  C   UNL A   1      37.229  33.654  30.063  1.00  0.00     0.135 A 
ATOM     68  C   UNL A   1      35.683  32.224  31.225  1.00  0.00     0.135 A 
ATOM     69  F   UNL A   1      38.462  34.150  29.876  1.00  0.00    -0.206 F 
ATOM     70  C   UNL A   1      36.197  34.130  29.262  1.00  0.00     0.059 A 
ATOM     71  C   UNL A   1      34.640  32.667  30.419  1.00  0.00     0.059 A 
ATOM     72  F   UNL A   1      35.408  31.310  32.169  1.00  0.00    -0.206 F 
ATOM     73  C   UNL A   1      34.908  33.622  29.439  1.00  0.00     0.060 A 
BRANCH  73  74
ATOM     74  S   UNL A   1      33.594  34.205  28.347  1.00  0.00     0.124 S 
ATOM     75  O   UNL A   1      34.309  35.174  27.523  1.00  0.00    -0.237 OA
ATOM     76  O   UNL A   1      33.186  32.978  27.673  1.00  0.00    -0.237 OA
ATOM     77  O   UNL A   1      32.612  34.769  29.268  1.00  0.00    -0.744 OA
ENDBRANCH  73  74
ENDBRANCH  52  66
BRANCH  53  78
ATOM     78  C   UNL A   1      44.755  28.807  35.978  1.00  0.00     0.058 A 
ATOM     79  C   UNL A   1      46.025  29.354  35.736  1.00  0.00     0.135 A 
ATOM     80  C   UNL A   1      44.676  27.725  36.872  1.00  0.00     0.135 A 
ATOM     81  F   UNL A   1      46.162  30.374  34.875  1.00  0.00    -0.206 F 
ATOM     82  C   UNL A   1      47.172  28.833  36.329  1.00  0.00     0.059 A 
ATOM     83  C   UNL A   1      45.804  27.208  37.501  1.00  0.00     0.059 A 
ATOM     84  F   UNL A   1      43.488  27.163  37.145  1.00  0.00    -0.206 F 
ATOM     85  C   UNL A   1      47.051  27.758  37.210  1.00  0.00     0.060 A 
BRANCH  85  86
ATOM     86  S   UNL A   1      48.540  27.099  37.991  1.00  0.00     0.124 S 
ATOM     87  O   UNL A   1      48.057  25.832  38.527  1.00  0.00    -0.237 OA
ATOM     88  O   UNL A   1      49.461  27.007  36.863  1.00  0.00    -0.237 OA
ATOM     89  O   UNL A   1      48.876  28.118  38.982  1.00  0.00    -0.744 OA
ENDBRANCH  85  86
ENDBRANCH  53  78
BRANCH  65  90
ATOM     90  C   UNL A   1      40.018  33.709  37.492  1.00  0.00     0.058 A 
ATOM     91  C   UNL A   1      40.651  34.959  37.570  1.00  0.00     0.135 A 
ATOM     92  C   UNL A   1      39.124  33.364  38.519  1.00  0.00     0.135 A 
ATOM     93  F   UNL A   1      41.519  35.337  36.618  1.00  0.00    -0.206 F 
ATOM     94  C   UNL A   1      40.415  35.830  38.629  1.00  0.00     0.059 A 
ATOM     95  C   UNL A   1      38.850  34.231  39.573  1.00  0.00     0.059 A 
ATOM     96  F   UNL A   1      38.482  32.185  38.489  1.00  0.00    -0.206 F 
ATOM     97  C   UNL A   1      39.507  35.459  39.623  1.00  0.00     0.060 A 
BRANCH  97  98
ATOM     98  S   UNL A   1      39.171  36.622  40.964  1.00  0.00     0.124 S 
ATOM     99  O   UNL A   1      40.517  36.911  41.447  1.00  0.00    -0.237 OA
ATOM    100  O   UNL A   1      38.499  37.715  40.268  1.00  0.00    -0.237 OA
ATOM    101  O   UNL A   1      38.328  35.855  41.876  1.00  0.00    -0.744 OA
ENDBRANCH  97  98
ENDBRANCH  65  90
ENDBRANCH  39  40
ENDBRANCH  32  34
ENDBRANCH  31  32
ENDBRANCH  30  31
ENDBRANCH  29  30
ENDBRANCH  28  29
ENDBRANCH  27  28
ENDBRANCH   1  27
TORSDOF 24
ENDMDL
