MODEL 1
REMARK VINA RESULT:      -8.1      0.000      0.000
REMARK SMILES Cc1ccccc1C(=O)Nc1ccc(OCC(=O)OCCOCCOCCOCCOC(=O)c2ccc(-c3c4nc(c(-c5c(F)cc(S(=O)(=O)[O-])cc5F)c5ccc([nH]5)c(-c5c(F)cc(S(=O)(=O)[O-])cc5F)c5nc(c(-c6c(F)cc(S(=O)(=O)[O-])cc6F)c6ccc3[nH]6)C=C5)C=C4)cc2)c(-c2nc3ccccc3s2)c1
REMARK SMILES IDX 24 1 23 2 22 3 21 4 20 5 19 6 17 7 18 8 16 9 15 10 14 11
REMARK SMILES IDX 11 12 12 13 110 14 13 15 100 16 10 17 8 18 9 19 7 21 1 22
REMARK SMILES IDX 2 23 3 24 4 25 6 26 5 27 101 28 102 29 109 30 103 31 108 32
REMARK SMILES IDX 104 33 107 34 105 35 106 36 25 37 26 38 27 39 28 40 29 41
REMARK SMILES IDX 30 42 31 43 32 44 33 45 34 46 35 47 99 48 36 49 98 50 37 51
REMARK SMILES IDX 38 52 39 53 92 54 40 55 97 56 91 57 93 58 41 59 96 60 90 61
REMARK SMILES IDX 89 62 42 64 76 65 55 66 75 67 56 68 59 69 74 70 94 71 57 72
REMARK SMILES IDX 58 73 73 75 95 76 60 77 43 78 44 79 53 80 45 81 46 82 52 83
REMARK SMILES IDX 54 84 47 85 48 86 49 87 50 88 51 89 77 90 78 91 87 92 79 93
REMARK SMILES IDX 80 94 86 95 88 96 81 97 82 98 83 99 84 100 85 101 61 102
REMARK SMILES IDX 62 103 71 104 63 105 64 106 70 107 72 108 65 109 66 110
REMARK SMILES IDX 67 111 68 112 69 113
REMARK H PARENT 10 20 93 63 59 74
REMARK Flexibility Score: inf
ROOT
ATOM      1  C   UNL A   1      41.700  35.698  28.052  1.00  0.00     0.188 C 
ENDROOT
BRANCH   1   2
ATOM      2  C   UNL A   1      41.481  34.768  29.246  1.00  0.00     0.188 C 
BRANCH   2   3
ATOM      3  O   UNL A   1      41.819  35.107  30.582  1.00  0.00    -0.376 OA
BRANCH   3   4
ATOM      4  C   UNL A   1      43.169  35.441  30.847  1.00  0.00     0.202 C 
BRANCH   4   5
ATOM      5  C   UNL A   1      43.814  35.094  32.199  1.00  0.00     0.261 C 
BRANCH   5   6
ATOM      6  O   UNL A   1      44.162  36.235  32.984  1.00  0.00    -0.461 OA
BRANCH   6   7
ATOM      7  C   UNL A   1      45.471  36.376  33.288  1.00  0.00     0.344 C 
ATOM      8  O   UNL A   1      46.400  35.831  32.702  1.00  0.00    -0.248 OA
BRANCH   7   9
ATOM      9  C   UNL A   1      45.669  37.379  34.433  1.00  0.00     0.352 C 
BRANCH   9  10
ATOM     10  O   UNL A   1      44.684  38.273  34.883  1.00  0.00    -0.481 OA
BRANCH  10  11
ATOM     11  C   UNL A   1      44.695  39.485  35.495  1.00  0.00     0.130 A 
ATOM     12  C   UNL A   1      44.271  41.334  37.667  1.00  0.00     0.042 A 
ATOM     13  C   UNL A   1      44.902  40.123  37.892  1.00  0.00     0.030 A 
ATOM     14  C   UNL A   1      44.143  41.697  36.325  1.00  0.00     0.041 A 
ATOM     15  C   UNL A   1      45.127  39.236  36.829  1.00  0.00     0.049 A 
ATOM     16  C   UNL A   1      44.254  40.791  35.192  1.00  0.00     0.055 A 
BRANCH  12  17
ATOM     17  N   UNL A   1      43.967  42.131  38.796  1.00  0.00    -0.322 N 
ATOM     18  C   UNL A   1      42.931  42.407  39.689  1.00  0.00     0.255 C 
ATOM     19  O   UNL A   1      43.093  43.441  40.360  1.00  0.00    -0.269 OA
ATOM     20  H   UNL A   1      44.755  42.672  39.034  1.00  0.00     0.170 HD
BRANCH  18  21
ATOM     21  C   UNL A   1      41.802  41.520  40.164  1.00  0.00     0.043 A 
ATOM     22  C   UNL A   1      39.980  43.252  40.317  1.00  0.00     0.045 C 
ATOM     23  C   UNL A   1      40.471  41.864  40.391  1.00  0.00    -0.038 A 
ATOM     24  C   UNL A   1      39.505  40.885  40.735  1.00  0.00     0.004 A 
ATOM     25  C   UNL A   1      39.874  39.578  41.017  1.00  0.00     0.000 A 
ATOM     26  C   UNL A   1      42.161  40.192  40.518  1.00  0.00     0.014 A 
ATOM     27  C   UNL A   1      41.216  39.237  40.942  1.00  0.00     0.001 A 
ENDBRANCH  18  21
ENDBRANCH  12  17
BRANCH  16  28
ATOM     28  C   UNL A   1      43.562  41.336  33.966  1.00  0.00     0.128 A 
ATOM     29  N   UNL A   1      42.986  40.548  33.062  1.00  0.00    -0.236 NA
ATOM     30  S   UNL A   1      43.538  42.955  33.407  1.00  0.00    -0.114 S 
ATOM     31  C   UNL A   1      43.201  41.064  31.788  1.00  0.00     0.082 A 
ATOM     32  C   UNL A   1      43.633  42.385  31.776  1.00  0.00     0.055 A 
ATOM     33  C   UNL A   1      43.083  40.381  30.557  1.00  0.00     0.030 A 
ATOM     34  C   UNL A   1      44.034  43.021  30.587  1.00  0.00     0.021 A 
ATOM     35  C   UNL A   1      43.537  40.979  29.378  1.00  0.00     0.002 A 
ATOM     36  C   UNL A   1      44.028  42.278  29.400  1.00  0.00     0.002 A 
ENDBRANCH  16  28
ENDBRANCH  10  11
ENDBRANCH   9  10
ENDBRANCH   7   9
ENDBRANCH   6   7
ENDBRANCH   5   6
ENDBRANCH   4   5
ENDBRANCH   3   4
ENDBRANCH   2   3
ENDBRANCH   1   2
BRANCH   1  37
ATOM     37  O   UNL A   1      42.981  35.866  27.501  1.00  0.00    -0.377 OA
BRANCH  37  38
ATOM     38  C   UNL A   1      43.285  37.129  26.994  1.00  0.00     0.188 C 
BRANCH  38  39
ATOM     39  C   UNL A   1      44.460  37.832  27.639  1.00  0.00     0.188 C 
BRANCH  39  40
ATOM     40  O   UNL A   1      45.713  37.761  27.003  1.00  0.00    -0.376 OA
BRANCH  40  41
ATOM     41  C   UNL A   1      46.454  36.561  27.123  1.00  0.00     0.202 C 
BRANCH  41  42
ATOM     42  C   UNL A   1      46.830  35.742  25.874  1.00  0.00     0.261 C 
BRANCH  42  43
ATOM     43  O   UNL A   1      46.163  34.479  25.680  1.00  0.00    -0.460 OA
BRANCH  43  44
ATOM     44  C   UNL A   1      46.359  33.488  26.611  1.00  0.00     0.338 C 
ATOM     45  O   UNL A   1      47.362  33.190  27.203  1.00  0.00    -0.246 OA
BRANCH  44  46
ATOM     46  C   UNL A   1      44.987  33.045  27.008  1.00  0.00     0.060 A 
ATOM     47  C   UNL A   1      44.578  33.067  28.339  1.00  0.00     0.016 A 
ATOM     48  C   UNL A   1      44.345  32.203  26.102  1.00  0.00     0.016 A 
ATOM     49  C   UNL A   1      43.748  32.037  28.809  1.00  0.00     0.010 A 
ATOM     50  C   UNL A   1      43.654  31.095  26.600  1.00  0.00     0.010 A 
ATOM     51  C   UNL A   1      43.515  30.916  27.986  1.00  0.00    -0.014 A 
BRANCH  51  52
ATOM     52  C   UNL A   1      43.699  29.538  28.575  1.00  0.00     0.031 A 
ATOM     53  C   UNL A   1      45.017  28.850  28.845  1.00  0.00     0.074 A 
ATOM     54  C   UNL A   1      42.605  28.998  29.192  1.00  0.00     0.049 A 
ATOM     55  N   UNL A   1      45.148  27.579  29.090  1.00  0.00    -0.248 NA
ATOM     56  C   UNL A   1      46.308  29.518  28.883  1.00  0.00     0.031 C 
ATOM     57  C   UNL A   1      42.578  27.860  30.089  1.00  0.00     0.029 A 
ATOM     58  N   UNL A   1      41.280  29.442  29.244  1.00  0.00    -0.354 N 
ATOM     59  C   UNL A   1      46.432  27.300  29.540  1.00  0.00     0.074 A 
ATOM     60  C   UNL A   1      47.130  28.535  29.277  1.00  0.00     0.031 C 
ATOM     61  C   UNL A   1      41.383  27.735  30.672  1.00  0.00     0.029 A 
ATOM     62  C   UNL A   1      40.458  28.545  29.936  1.00  0.00     0.049 A 
ATOM     63  H   UNL A   1      40.963  30.282  28.843  1.00  0.00     0.167 HD
ATOM     64  C   UNL A   1      46.729  26.095  30.145  1.00  0.00     0.037 A 
ATOM     65  C   UNL A   1      39.442  27.932  29.274  1.00  0.00     0.037 A 
ATOM     66  C   UNL A   1      45.544  25.172  30.169  1.00  0.00     0.049 A 
ATOM     67  C   UNL A   1      39.854  26.535  28.721  1.00  0.00     0.074 A 
ATOM     68  C   UNL A   1      44.969  24.297  31.080  1.00  0.00     0.029 A 
ATOM     69  N   UNL A   1      44.662  25.135  29.073  1.00  0.00    -0.354 N 
ATOM     70  N   UNL A   1      40.908  25.853  29.152  1.00  0.00    -0.248 NA
ATOM     71  C   UNL A   1      39.233  25.818  27.610  1.00  0.00     0.031 C 
ATOM     72  C   UNL A   1      43.662  23.926  30.608  1.00  0.00     0.029 A 
ATOM     73  C   UNL A   1      43.471  24.475  29.350  1.00  0.00     0.049 A 
ATOM     74  H   UNL A   1      44.868  25.537  28.199  1.00  0.00     0.167 HD
ATOM     75  C   UNL A   1      41.271  24.865  28.271  1.00  0.00     0.074 A 
ATOM     76  C   UNL A   1      40.109  24.808  27.395  1.00  0.00     0.031 C 
ATOM     77  C   UNL A   1      42.505  24.238  28.259  1.00  0.00     0.037 A 
BRANCH  64  78
ATOM     78  C   UNL A   1      48.090  25.743  30.855  1.00  0.00     0.058 A 
ATOM     79  C   UNL A   1      49.291  25.523  30.124  1.00  0.00     0.135 A 
ATOM     80  C   UNL A   1      48.282  25.561  32.250  1.00  0.00     0.135 A 
ATOM     81  F   UNL A   1      49.326  25.668  28.794  1.00  0.00    -0.206 F 
ATOM     82  C   UNL A   1      50.524  25.146  30.709  1.00  0.00     0.059 A 
ATOM     83  C   UNL A   1      49.512  25.249  32.861  1.00  0.00     0.059 A 
ATOM     84  F   UNL A   1      47.275  25.607  33.122  1.00  0.00    -0.206 F 
ATOM     85  C   UNL A   1      50.629  25.017  32.085  1.00  0.00     0.060 A 
BRANCH  85  86
ATOM     86  S   UNL A   1      52.196  24.529  32.851  1.00  0.00     0.124 S 
ATOM     87  O   UNL A   1      52.190  23.084  32.652  1.00  0.00    -0.237 OA
ATOM     88  O   UNL A   1      53.175  25.278  32.071  1.00  0.00    -0.237 OA
ATOM     89  O   UNL A   1      52.045  24.963  34.238  1.00  0.00    -0.744 OA
ENDBRANCH  85  86
ENDBRANCH  64  78
BRANCH  65  90
ATOM     90  C   UNL A   1      38.297  28.918  29.230  1.00  0.00     0.058 A 
ATOM     91  C   UNL A   1      37.752  29.246  30.499  1.00  0.00     0.135 A 
ATOM     92  C   UNL A   1      38.264  29.977  28.288  1.00  0.00     0.135 A 
ATOM     93  F   UNL A   1      37.754  28.320  31.472  1.00  0.00    -0.206 F 
ATOM     94  C   UNL A   1      37.356  30.547  30.857  1.00  0.00     0.059 A 
ATOM     95  C   UNL A   1      37.872  31.293  28.628  1.00  0.00     0.059 A 
ATOM     96  F   UNL A   1      38.765  29.789  27.056  1.00  0.00    -0.206 F 
ATOM     97  C   UNL A   1      37.447  31.578  29.925  1.00  0.00     0.060 A 
BRANCH  97  98
ATOM     98  S   UNL A   1      37.158  33.297  30.466  1.00  0.00     0.124 S 
ATOM     99  O   UNL A   1      35.735  33.468  30.203  1.00  0.00    -0.237 OA
ATOM    100  O   UNL A   1      37.539  33.263  31.878  1.00  0.00    -0.237 OA
ATOM    101  O   UNL A   1      38.049  34.069  29.606  1.00  0.00    -0.744 OA
ENDBRANCH  97  98
ENDBRANCH  65  90
BRANCH  77 102
ATOM    102  C   UNL A   1      43.023  23.308  27.156  1.00  0.00     0.058 A 
ATOM    103  C   UNL A   1      43.934  23.694  26.160  1.00  0.00     0.135 A 
ATOM    104  C   UNL A   1      42.752  21.910  27.208  1.00  0.00     0.135 A 
ATOM    105  F   UNL A   1      44.365  24.959  26.065  1.00  0.00    -0.206 F 
ATOM    106  C   UNL A   1      44.485  22.781  25.252  1.00  0.00     0.059 A 
ATOM    107  C   UNL A   1      43.347  20.976  26.362  1.00  0.00     0.059 A 
ATOM    108  F   UNL A   1      41.899  21.391  28.103  1.00  0.00    -0.206 F 
ATOM    109  C   UNL A   1      44.188  21.426  25.361  1.00  0.00     0.060 A 
BRANCH 109 110
ATOM    110  S   UNL A   1      44.921  20.243  24.215  1.00  0.00     0.124 S 
ATOM    111  O   UNL A   1      44.181  19.029  24.542  1.00  0.00    -0.237 OA
ATOM    112  O   UNL A   1      44.627  20.831  22.912  1.00  0.00    -0.237 OA
ATOM    113  O   UNL A   1      46.332  20.243  24.588  1.00  0.00    -0.744 OA
ENDBRANCH 109 110
ENDBRANCH  77 102
ENDBRANCH  51  52
ENDBRANCH  44  46
ENDBRANCH  43  44
ENDBRANCH  42  43
ENDBRANCH  41  42
ENDBRANCH  40  41
ENDBRANCH  39  40
ENDBRANCH  38  39
ENDBRANCH  37  38
ENDBRANCH   1  37
TORSDOF 28
ENDMDL
MODEL 2
REMARK VINA RESULT:      -7.9      5.137     12.647
REMARK SMILES Cc1ccccc1C(=O)Nc1ccc(OCC(=O)OCCOCCOCCOCCOC(=O)c2ccc(-c3c4nc(c(-c5c(F)cc(S(=O)(=O)[O-])cc5F)c5ccc([nH]5)c(-c5c(F)cc(S(=O)(=O)[O-])cc5F)c5nc(c(-c6c(F)cc(S(=O)(=O)[O-])cc6F)c6ccc3[nH]6)C=C5)C=C4)cc2)c(-c2nc3ccccc3s2)c1
REMARK SMILES IDX 24 1 23 2 22 3 21 4 20 5 19 6 17 7 18 8 16 9 15 10 14 11
REMARK SMILES IDX 11 12 12 13 110 14 13 15 100 16 10 17 8 18 9 19 7 21 1 22
REMARK SMILES IDX 2 23 3 24 4 25 6 26 5 27 101 28 102 29 109 30 103 31 108 32
REMARK SMILES IDX 104 33 107 34 105 35 106 36 25 37 26 38 27 39 28 40 29 41
REMARK SMILES IDX 30 42 31 43 32 44 33 45 34 46 35 47 99 48 36 49 98 50 37 51
REMARK SMILES IDX 38 52 39 53 92 54 40 55 97 56 91 57 93 58 41 59 96 60 90 61
REMARK SMILES IDX 89 62 42 64 76 65 55 66 75 67 56 68 59 69 74 70 94 71 57 72
REMARK SMILES IDX 58 73 73 75 95 76 60 77 43 78 44 79 53 80 45 81 46 82 52 83
REMARK SMILES IDX 54 84 47 85 48 86 49 87 50 88 51 89 77 90 78 91 87 92 79 93
REMARK SMILES IDX 80 94 86 95 88 96 81 97 82 98 83 99 84 100 85 101 61 102
REMARK SMILES IDX 62 103 71 104 63 105 64 106 70 107 72 108 65 109 66 110
REMARK SMILES IDX 67 111 68 112 69 113
REMARK H PARENT 10 20 93 63 59 74
REMARK Flexibility Score: inf
ROOT
ATOM      1  C   UNL A   1      46.152  19.634  37.143  1.00  0.00     0.188 C 
ENDROOT
BRANCH   1   2
ATOM      2  C   UNL A   1      45.973  19.106  35.719  1.00  0.00     0.188 C 
BRANCH   2   3
ATOM      3  O   UNL A   1      46.509  19.742  34.569  1.00  0.00    -0.376 OA
BRANCH   3   4
ATOM      4  C   UNL A   1      47.587  20.640  34.765  1.00  0.00     0.202 C 
BRANCH   4   5
ATOM      5  C   UNL A   1      49.029  20.221  34.435  1.00  0.00     0.261 C 
BRANCH   5   6
ATOM      6  O   UNL A   1      49.913  21.318  34.208  1.00  0.00    -0.461 OA
BRANCH   6   7
ATOM      7  C   UNL A   1      49.698  22.425  34.953  1.00  0.00     0.344 C 
ATOM      8  O   UNL A   1      49.090  22.458  36.018  1.00  0.00    -0.248 OA
BRANCH   7   9
ATOM      9  C   UNL A   1      50.382  23.652  34.335  1.00  0.00     0.352 C 
BRANCH   9  10
ATOM     10  O   UNL A   1      49.887  24.963  34.421  1.00  0.00    -0.481 OA
BRANCH  10  11
ATOM     11  C   UNL A   1      48.987  25.698  33.716  1.00  0.00     0.130 A 
ATOM     12  C   UNL A   1      47.788  26.803  31.338  1.00  0.00     0.042 A 
ATOM     13  C   UNL A   1      48.117  25.460  31.397  1.00  0.00     0.030 A 
ATOM     14  C   UNL A   1      47.799  27.471  32.564  1.00  0.00     0.041 A 
ATOM     15  C   UNL A   1      48.679  24.921  32.563  1.00  0.00     0.049 A 
ATOM     16  C   UNL A   1      48.465  27.007  33.771  1.00  0.00     0.055 A 
BRANCH  12  17
ATOM     17  N   UNL A   1      47.336  27.309  30.097  1.00  0.00    -0.322 N 
ATOM     18  C   UNL A   1      47.772  27.549  28.793  1.00  0.00     0.255 C 
ATOM     19  O   UNL A   1      47.034  28.304  28.136  1.00  0.00    -0.269 OA
ATOM     20  H   UNL A   1      46.394  27.585  30.181  1.00  0.00     0.170 HD
BRANCH  18  21
ATOM     21  C   UNL A   1      48.823  26.830  27.978  1.00  0.00     0.043 A 
ATOM     22  C   UNL A   1      47.556  26.607  25.812  1.00  0.00     0.045 C 
ATOM     23  C   UNL A   1      48.768  26.456  26.636  1.00  0.00    -0.038 A 
ATOM     24  C   UNL A   1      49.888  25.879  25.987  1.00  0.00     0.004 A 
ATOM     25  C   UNL A   1      51.024  25.514  26.696  1.00  0.00     0.000 A 
ATOM     26  C   UNL A   1      49.970  26.391  28.691  1.00  0.00     0.014 A 
ATOM     27  C   UNL A   1      51.051  25.740  28.064  1.00  0.00     0.001 A 
ENDBRANCH  18  21
ENDBRANCH  12  17
BRANCH  16  28
ATOM     28  C   UNL A   1      48.750  28.141  34.727  1.00  0.00     0.128 A 
ATOM     29  N   UNL A   1      47.958  29.204  34.829  1.00  0.00    -0.236 NA
ATOM     30  S   UNL A   1      50.154  28.384  35.678  1.00  0.00    -0.114 S 
ATOM     31  C   UNL A   1      48.731  30.346  35.018  1.00  0.00     0.082 A 
ATOM     32  C   UNL A   1      50.045  30.086  35.389  1.00  0.00     0.055 A 
ATOM     33  C   UNL A   1      48.339  31.688  34.818  1.00  0.00     0.030 A 
ATOM     34  C   UNL A   1      51.003  31.113  35.485  1.00  0.00     0.021 A 
ATOM     35  C   UNL A   1      49.293  32.709  34.847  1.00  0.00     0.002 A 
ATOM     36  C   UNL A   1      50.615  32.418  35.156  1.00  0.00     0.002 A 
ENDBRANCH  16  28
ENDBRANCH  10  11
ENDBRANCH   9  10
ENDBRANCH   7   9
ENDBRANCH   6   7
ENDBRANCH   5   6
ENDBRANCH   4   5
ENDBRANCH   3   4
ENDBRANCH   2   3
ENDBRANCH   1   2
BRANCH   1  37
ATOM     37  O   UNL A   1      45.820  18.835  38.249  1.00  0.00    -0.377 OA
BRANCH  37  38
ATOM     38  C   UNL A   1      46.740  18.800  39.297  1.00  0.00     0.188 C 
BRANCH  38  39
ATOM     39  C   UNL A   1      46.602  19.896  40.332  1.00  0.00     0.188 C 
BRANCH  39  40
ATOM     40  O   UNL A   1      47.078  21.181  40.013  1.00  0.00    -0.376 OA
BRANCH  40  41
ATOM     41  C   UNL A   1      46.146  22.139  39.546  1.00  0.00     0.202 C 
BRANCH  41  42
ATOM     42  C   UNL A   1      46.058  22.482  38.047  1.00  0.00     0.261 C 
BRANCH  42  43
ATOM     43  O   UNL A   1      45.354  23.686  37.680  1.00  0.00    -0.460 OA
BRANCH  43  44
ATOM     44  C   UNL A   1      45.926  24.519  36.751  1.00  0.00     0.338 C 
ATOM     45  O   UNL A   1      46.815  24.293  35.974  1.00  0.00    -0.246 OA
BRANCH  44  46
ATOM     46  C   UNL A   1      45.000  25.689  36.648  1.00  0.00     0.060 A 
ATOM     47  C   UNL A   1      43.640  25.515  36.403  1.00  0.00     0.016 A 
ATOM     48  C   UNL A   1      45.606  26.906  36.345  1.00  0.00     0.016 A 
ATOM     49  C   UNL A   1      42.978  26.442  35.582  1.00  0.00     0.010 A 
ATOM     50  C   UNL A   1      44.993  27.737  35.404  1.00  0.00     0.010 A 
ATOM     51  C   UNL A   1      43.736  27.398  34.877  1.00  0.00    -0.014 A 
BRANCH  51  52
ATOM     52  C   UNL A   1      43.482  27.575  33.400  1.00  0.00     0.031 A 
ATOM     53  C   UNL A   1      43.978  26.673  32.293  1.00  0.00     0.074 A 
ATOM     54  C   UNL A   1      42.477  28.436  33.061  1.00  0.00     0.049 A 
ATOM     55  N   UNL A   1      43.983  26.987  31.031  1.00  0.00    -0.248 NA
ATOM     56  C   UNL A   1      44.501  25.329  32.492  1.00  0.00     0.031 C 
ATOM     57  C   UNL A   1      41.825  28.561  31.773  1.00  0.00     0.029 A 
ATOM     58  N   UNL A   1      41.728  29.314  33.853  1.00  0.00    -0.354 N 
ATOM     59  C   UNL A   1      44.259  25.872  30.252  1.00  0.00     0.074 A 
ATOM     60  C   UNL A   1      44.682  24.902  31.233  1.00  0.00     0.031 C 
ATOM     61  C   UNL A   1      40.750  29.349  31.851  1.00  0.00     0.029 A 
ATOM     62  C   UNL A   1      40.834  30.070  33.086  1.00  0.00     0.049 A 
ATOM     63  H   UNL A   1      41.819  29.390  34.829  1.00  0.00     0.167 HD
ATOM     64  C   UNL A   1      44.026  25.878  28.891  1.00  0.00     0.037 A 
ATOM     65  C   UNL A   1      40.979  31.421  33.042  1.00  0.00     0.037 A 
ATOM     66  C   UNL A   1      43.534  27.214  28.412  1.00  0.00     0.049 A 
ATOM     67  C   UNL A   1      41.825  31.884  31.818  1.00  0.00     0.074 A 
ATOM     68  C   UNL A   1      42.569  27.670  27.525  1.00  0.00     0.029 A 
ATOM     69  N   UNL A   1      44.050  28.395  28.976  1.00  0.00    -0.354 N 
ATOM     70  N   UNL A   1      42.052  31.129  30.750  1.00  0.00    -0.248 NA
ATOM     71  C   UNL A   1      42.564  33.138  31.692  1.00  0.00     0.031 C 
ATOM     72  C   UNL A   1      42.378  29.081  27.730  1.00  0.00     0.029 A 
ATOM     73  C   UNL A   1      43.304  29.524  28.661  1.00  0.00     0.049 A 
ATOM     74  H   UNL A   1      44.858  28.418  29.538  1.00  0.00     0.167 HD
ATOM     75  C   UNL A   1      43.108  31.598  30.009  1.00  0.00     0.074 A 
ATOM     76  C   UNL A   1      43.300  32.926  30.575  1.00  0.00     0.031 C 
ATOM     77  C   UNL A   1      43.799  30.854  29.069  1.00  0.00     0.037 A 
BRANCH  64  78
ATOM     78  C   UNL A   1      44.124  24.623  27.944  1.00  0.00     0.058 A 
ATOM     79  C   UNL A   1      45.370  24.024  27.607  1.00  0.00     0.135 A 
ATOM     80  C   UNL A   1      43.038  23.980  27.295  1.00  0.00     0.135 A 
ATOM     81  F   UNL A   1      46.517  24.470  28.135  1.00  0.00    -0.206 F 
ATOM     82  C   UNL A   1      45.517  22.935  26.714  1.00  0.00     0.059 A 
ATOM     83  C   UNL A   1      43.152  22.855  26.453  1.00  0.00     0.059 A 
ATOM     84  F   UNL A   1      41.787  24.435  27.373  1.00  0.00    -0.206 F 
ATOM     85  C   UNL A   1      44.397  22.348  26.144  1.00  0.00     0.060 A 
BRANCH  85  86
ATOM     86  S   UNL A   1      44.566  20.959  24.995  1.00  0.00     0.124 S 
ATOM     87  O   UNL A   1      44.592  21.638  23.704  1.00  0.00    -0.237 OA
ATOM     88  O   UNL A   1      45.819  20.347  25.421  1.00  0.00    -0.237 OA
ATOM     89  O   UNL A   1      43.368  20.161  25.250  1.00  0.00    -0.744 OA
ENDBRANCH  85  86
ENDBRANCH  64  78
BRANCH  65  90
ATOM     90  C   UNL A   1      40.337  31.967  34.296  1.00  0.00     0.058 A 
ATOM     91  C   UNL A   1      41.247  32.263  35.344  1.00  0.00     0.135 A 
ATOM     92  C   UNL A   1      39.210  32.826  34.241  1.00  0.00     0.135 A 
ATOM     93  F   UNL A   1      42.360  31.523  35.472  1.00  0.00    -0.206 F 
ATOM     94  C   UNL A   1      41.137  33.401  36.164  1.00  0.00     0.059 A 
ATOM     95  C   UNL A   1      39.081  33.976  35.054  1.00  0.00     0.059 A 
ATOM     96  F   UNL A   1      38.285  32.651  33.281  1.00  0.00    -0.206 F 
ATOM     97  C   UNL A   1      40.067  34.274  35.995  1.00  0.00     0.060 A 
BRANCH  97  98
ATOM     98  S   UNL A   1      40.060  35.861  36.896  1.00  0.00     0.124 S 
ATOM     99  O   UNL A   1      41.422  35.933  37.406  1.00  0.00    -0.237 OA
ATOM    100  O   UNL A   1      39.726  36.828  35.851  1.00  0.00    -0.237 OA
ATOM    101  O   UNL A   1      39.025  35.663  37.906  1.00  0.00    -0.744 OA
ENDBRANCH  97  98
ENDBRANCH  65  90
BRANCH  77 102
ATOM    102  C   UNL A   1      45.116  31.263  28.400  1.00  0.00     0.058 A 
ATOM    103  C   UNL A   1      45.205  31.874  27.139  1.00  0.00     0.135 A 
ATOM    104  C   UNL A   1      46.338  31.226  29.133  1.00  0.00     0.135 A 
ATOM    105  F   UNL A   1      44.116  32.077  26.387  1.00  0.00    -0.206 F 
ATOM    106  C   UNL A   1      46.416  32.354  26.622  1.00  0.00     0.059 A 
ATOM    107  C   UNL A   1      47.535  31.764  28.667  1.00  0.00     0.059 A 
ATOM    108  F   UNL A   1      46.411  30.670  30.352  1.00  0.00    -0.206 F 
ATOM    109  C   UNL A   1      47.574  32.296  27.391  1.00  0.00     0.060 A 
BRANCH 109 110
ATOM    110  S   UNL A   1      49.126  32.943  26.742  1.00  0.00     0.124 S 
ATOM    111  O   UNL A   1      49.505  33.885  27.789  1.00  0.00    -0.237 OA
ATOM    112  O   UNL A   1      49.957  31.747  26.638  1.00  0.00    -0.237 OA
ATOM    113  O   UNL A   1      48.737  33.537  25.467  1.00  0.00    -0.744 OA
ENDBRANCH 109 110
ENDBRANCH  77 102
ENDBRANCH  51  52
ENDBRANCH  44  46
ENDBRANCH  43  44
ENDBRANCH  42  43
ENDBRANCH  41  42
ENDBRANCH  40  41
ENDBRANCH  39  40
ENDBRANCH  38  39
ENDBRANCH  37  38
ENDBRANCH   1  37
TORSDOF 28
ENDMDL
MODEL 3
REMARK VINA RESULT:      -7.9      4.912     13.178
REMARK SMILES Cc1ccccc1C(=O)Nc1ccc(OCC(=O)OCCOCCOCCOCCOC(=O)c2ccc(-c3c4nc(c(-c5c(F)cc(S(=O)(=O)[O-])cc5F)c5ccc([nH]5)c(-c5c(F)cc(S(=O)(=O)[O-])cc5F)c5nc(c(-c6c(F)cc(S(=O)(=O)[O-])cc6F)c6ccc3[nH]6)C=C5)C=C4)cc2)c(-c2nc3ccccc3s2)c1
REMARK SMILES IDX 24 1 23 2 22 3 21 4 20 5 19 6 17 7 18 8 16 9 15 10 14 11
REMARK SMILES IDX 11 12 12 13 110 14 13 15 100 16 10 17 8 18 9 19 7 21 1 22
REMARK SMILES IDX 2 23 3 24 4 25 6 26 5 27 101 28 102 29 109 30 103 31 108 32
REMARK SMILES IDX 104 33 107 34 105 35 106 36 25 37 26 38 27 39 28 40 29 41
REMARK SMILES IDX 30 42 31 43 32 44 33 45 34 46 35 47 99 48 36 49 98 50 37 51
REMARK SMILES IDX 38 52 39 53 92 54 40 55 97 56 91 57 93 58 41 59 96 60 90 61
REMARK SMILES IDX 89 62 42 64 76 65 55 66 75 67 56 68 59 69 74 70 94 71 57 72
REMARK SMILES IDX 58 73 73 75 95 76 60 77 43 78 44 79 53 80 45 81 46 82 52 83
REMARK SMILES IDX 54 84 47 85 48 86 49 87 50 88 51 89 77 90 78 91 87 92 79 93
REMARK SMILES IDX 80 94 86 95 88 96 81 97 82 98 83 99 84 100 85 101 61 102
REMARK SMILES IDX 62 103 71 104 63 105 64 106 70 107 72 108 65 109 66 110
REMARK SMILES IDX 67 111 68 112 69 113
REMARK H PARENT 10 20 93 63 59 74
REMARK Flexibility Score: inf
ROOT
ATOM      1  C   UNL A   1      41.641  35.501  38.109  1.00  0.00     0.188 C 
ENDROOT
BRANCH   1   2
ATOM      2  C   UNL A   1      42.571  34.674  38.997  1.00  0.00     0.188 C 
BRANCH   2   3
ATOM      3  O   UNL A   1      42.755  33.273  38.857  1.00  0.00    -0.376 OA
BRANCH   3   4
ATOM      4  C   UNL A   1      43.310  32.809  37.639  1.00  0.00     0.202 C 
BRANCH   4   5
ATOM      5  C   UNL A   1      44.821  32.557  37.509  1.00  0.00     0.261 C 
BRANCH   5   6
ATOM      6  O   UNL A   1      45.404  31.928  38.650  1.00  0.00    -0.461 OA
BRANCH   6   7
ATOM      7  C   UNL A   1      46.081  30.781  38.421  1.00  0.00     0.344 C 
ATOM      8  O   UNL A   1      47.251  30.706  38.064  1.00  0.00    -0.248 OA
BRANCH   7   9
ATOM      9  C   UNL A   1      45.216  29.554  38.740  1.00  0.00     0.352 C 
BRANCH   9  10
ATOM     10  O   UNL A   1      45.013  28.478  37.860  1.00  0.00    -0.481 OA
BRANCH  10  11
ATOM     11  C   UNL A   1      44.676  27.170  38.005  1.00  0.00     0.130 A 
ATOM     12  C   UNL A   1      45.146  24.388  38.602  1.00  0.00     0.042 A 
ATOM     13  C   UNL A   1      45.611  25.375  39.454  1.00  0.00     0.030 A 
ATOM     14  C   UNL A   1      44.219  24.814  37.649  1.00  0.00     0.041 A 
ATOM     15  C   UNL A   1      45.360  26.726  39.172  1.00  0.00     0.049 A 
ATOM     16  C   UNL A   1      44.004  26.193  37.240  1.00  0.00     0.055 A 
BRANCH  12  17
ATOM     17  N   UNL A   1      45.533  23.055  38.877  1.00  0.00    -0.322 N 
ATOM     18  C   UNL A   1      45.995  21.901  38.243  1.00  0.00     0.255 C 
ATOM     19  O   UNL A   1      45.907  20.868  38.930  1.00  0.00    -0.269 OA
ATOM     20  H   UNL A   1      45.448  22.884  39.843  1.00  0.00     0.170 HD
BRANCH  18  21
ATOM     21  C   UNL A   1      46.829  21.754  36.990  1.00  0.00     0.043 A 
ATOM     22  C   UNL A   1      44.989  21.904  35.276  1.00  0.00     0.045 C 
ATOM     23  C   UNL A   1      46.409  21.813  35.662  1.00  0.00    -0.038 A 
ATOM     24  C   UNL A   1      47.338  21.762  34.593  1.00  0.00     0.004 A 
ATOM     25  C   UNL A   1      48.680  21.491  34.817  1.00  0.00     0.000 A 
ATOM     26  C   UNL A   1      48.194  21.416  37.187  1.00  0.00     0.014 A 
ATOM     27  C   UNL A   1      49.105  21.282  36.120  1.00  0.00     0.001 A 
ENDBRANCH  18  21
ENDBRANCH  12  17
BRANCH  16  28
ATOM     28  C   UNL A   1      43.362  26.282  35.876  1.00  0.00     0.128 A 
ATOM     29  N   UNL A   1      43.870  25.673  34.808  1.00  0.00    -0.236 NA
ATOM     30  S   UNL A   1      42.049  27.271  35.395  1.00  0.00    -0.114 S 
ATOM     31  C   UNL A   1      43.718  26.487  33.689  1.00  0.00     0.082 A 
ATOM     32  C   UNL A   1      42.811  27.526  33.864  1.00  0.00     0.055 A 
ATOM     33  C   UNL A   1      44.413  26.397  32.464  1.00  0.00     0.030 A 
ATOM     34  C   UNL A   1      42.638  28.528  32.891  1.00  0.00     0.021 A 
ATOM     35  C   UNL A   1      44.298  27.417  31.515  1.00  0.00     0.002 A 
ATOM     36  C   UNL A   1      43.435  28.482  31.739  1.00  0.00     0.002 A 
ENDBRANCH  16  28
ENDBRANCH  10  11
ENDBRANCH   9  10
ENDBRANCH   7   9
ENDBRANCH   6   7
ENDBRANCH   5   6
ENDBRANCH   4   5
ENDBRANCH   3   4
ENDBRANCH   2   3
ENDBRANCH   1   2
BRANCH   1  37
ATOM     37  O   UNL A   1      40.266  35.575  38.387  1.00  0.00    -0.377 OA
BRANCH  37  38
ATOM     38  C   UNL A   1      39.485  34.494  37.979  1.00  0.00     0.188 C 
BRANCH  38  39
ATOM     39  C   UNL A   1      39.535  34.166  36.503  1.00  0.00     0.188 C 
BRANCH  39  40
ATOM     40  O   UNL A   1      38.323  33.945  35.824  1.00  0.00    -0.376 OA
BRANCH  40  41
ATOM     41  C   UNL A   1      37.810  32.625  35.788  1.00  0.00     0.202 C 
BRANCH  41  42
ATOM     42  C   UNL A   1      38.423  31.571  34.848  1.00  0.00     0.261 C 
BRANCH  42  43
ATOM     43  O   UNL A   1      37.516  30.683  34.163  1.00  0.00    -0.460 OA
BRANCH  43  44
ATOM     44  C   UNL A   1      36.853  31.154  33.056  1.00  0.00     0.338 C 
ATOM     45  O   UNL A   1      35.955  31.950  32.991  1.00  0.00    -0.246 OA
BRANCH  44  46
ATOM     46  C   UNL A   1      37.690  30.735  31.889  1.00  0.00     0.060 A 
ATOM     47  C   UNL A   1      38.810  29.927  32.056  1.00  0.00     0.016 A 
ATOM     48  C   UNL A   1      37.581  31.541  30.757  1.00  0.00     0.016 A 
ATOM     49  C   UNL A   1      39.939  30.160  31.254  1.00  0.00     0.010 A 
ATOM     50  C   UNL A   1      38.750  31.881  30.070  1.00  0.00     0.010 A 
ATOM     51  C   UNL A   1      39.979  31.318  30.449  1.00  0.00    -0.014 A 
BRANCH  51  52
ATOM     52  C   UNL A   1      41.207  32.194  30.507  1.00  0.00     0.031 A 
ATOM     53  C   UNL A   1      41.426  33.367  31.435  1.00  0.00     0.074 A 
ATOM     54  C   UNL A   1      42.324  31.704  29.890  1.00  0.00     0.049 A 
ATOM     55  N   UNL A   1      42.356  34.263  31.284  1.00  0.00    -0.248 NA
ATOM     56  C   UNL A   1      40.636  33.639  32.626  1.00  0.00     0.031 C 
ATOM     57  C   UNL A   1      43.688  32.170  30.047  1.00  0.00     0.029 A 
ATOM     58  N   UNL A   1      42.491  30.582  29.071  1.00  0.00    -0.354 N 
ATOM     59  C   UNL A   1      42.458  35.056  32.419  1.00  0.00     0.074 A 
ATOM     60  C   UNL A   1      41.281  34.683  33.166  1.00  0.00     0.031 C 
ATOM     61  C   UNL A   1      44.552  31.336  29.462  1.00  0.00     0.029 A 
ATOM     62  C   UNL A   1      43.802  30.482  28.590  1.00  0.00     0.049 A 
ATOM     63  H   UNL A   1      41.775  29.943  28.859  1.00  0.00     0.167 HD
ATOM     64  C   UNL A   1      43.554  35.870  32.625  1.00  0.00     0.037 A 
ATOM     65  C   UNL A   1      44.025  30.564  27.252  1.00  0.00     0.037 A 
ATOM     66  C   UNL A   1      44.514  35.820  31.470  1.00  0.00     0.049 A 
ATOM     67  C   UNL A   1      44.376  32.013  26.799  1.00  0.00     0.074 A 
ATOM     68  C   UNL A   1      45.891  35.768  31.309  1.00  0.00     0.029 A 
ATOM     69  N   UNL A   1      44.023  35.730  30.154  1.00  0.00    -0.354 N 
ATOM     70  N   UNL A   1      44.787  32.965  27.627  1.00  0.00    -0.248 NA
ATOM     71  C   UNL A   1      44.220  32.571  25.458  1.00  0.00     0.031 C 
ATOM     72  C   UNL A   1      46.188  35.434  29.942  1.00  0.00     0.029 A 
ATOM     73  C   UNL A   1      45.002  35.395  29.226  1.00  0.00     0.049 A 
ATOM     74  H   UNL A   1      43.082  35.889  29.915  1.00  0.00     0.167 HD
ATOM     75  C   UNL A   1      44.662  34.213  27.071  1.00  0.00     0.074 A 
ATOM     76  C   UNL A   1      44.428  33.891  25.670  1.00  0.00     0.031 C 
ATOM     77  C   UNL A   1      44.666  35.397  27.788  1.00  0.00     0.037 A 
BRANCH  64  78
ATOM     78  C   UNL A   1      43.864  36.664  33.949  1.00  0.00     0.058 A 
ATOM     79  C   UNL A   1      44.430  36.038  35.093  1.00  0.00     0.135 A 
ATOM     80  C   UNL A   1      43.589  38.038  34.182  1.00  0.00     0.135 A 
ATOM     81  F   UNL A   1      44.784  34.747  35.071  1.00  0.00    -0.206 F 
ATOM     82  C   UNL A   1      44.670  36.693  36.326  1.00  0.00     0.059 A 
ATOM     83  C   UNL A   1      43.877  38.727  35.376  1.00  0.00     0.059 A 
ATOM     84  F   UNL A   1      42.956  38.801  33.291  1.00  0.00    -0.206 F 
ATOM     85  C   UNL A   1      44.397  38.046  36.457  1.00  0.00     0.060 A 
BRANCH  85  86
ATOM     86  S   UNL A   1      44.692  38.900  38.027  1.00  0.00     0.124 S 
ATOM     87  O   UNL A   1      43.558  38.453  38.829  1.00  0.00    -0.237 OA
ATOM     88  O   UNL A   1      45.998  38.388  38.424  1.00  0.00    -0.237 OA
ATOM     89  O   UNL A   1      44.666  40.313  37.654  1.00  0.00    -0.744 OA
ENDBRANCH  85  86
ENDBRANCH  64  78
BRANCH  65  90
ATOM     90  C   UNL A   1      43.729  29.197  26.679  1.00  0.00     0.058 A 
ATOM     91  C   UNL A   1      44.688  28.202  27.001  1.00  0.00     0.135 A 
ATOM     92  C   UNL A   1      42.401  28.712  26.560  1.00  0.00     0.135 A 
ATOM     93  F   UNL A   1      45.973  28.558  27.159  1.00  0.00    -0.206 F 
ATOM     94  C   UNL A   1      44.346  26.878  27.333  1.00  0.00     0.059 A 
ATOM     95  C   UNL A   1      42.036  27.386  26.890  1.00  0.00     0.059 A 
ATOM     96  F   UNL A   1      41.404  29.565  26.271  1.00  0.00    -0.206 F 
ATOM     97  C   UNL A   1      43.013  26.481  27.306  1.00  0.00     0.060 A 
BRANCH  97  98
ATOM     98  S   UNL A   1      42.557  24.840  27.963  1.00  0.00     0.124 S 
ATOM     99  O   UNL A   1      43.485  24.684  29.075  1.00  0.00    -0.237 OA
ATOM    100  O   UNL A   1      41.153  25.014  28.332  1.00  0.00    -0.237 OA
ATOM    101  O   UNL A   1      42.791  23.953  26.827  1.00  0.00    -0.744 OA
ENDBRANCH  97  98
ENDBRANCH  65  90
BRANCH  77 102
ATOM    102  C   UNL A   1      44.298  36.778  27.234  1.00  0.00     0.058 A 
ATOM    103  C   UNL A   1      42.982  37.241  27.076  1.00  0.00     0.135 A 
ATOM    104  C   UNL A   1      45.307  37.765  27.034  1.00  0.00     0.135 A 
ATOM    105  F   UNL A   1      41.932  36.453  27.339  1.00  0.00    -0.206 F 
ATOM    106  C   UNL A   1      42.691  38.556  26.693  1.00  0.00     0.059 A 
ATOM    107  C   UNL A   1      45.035  39.096  26.727  1.00  0.00     0.059 A 
ATOM    108  F   UNL A   1      46.611  37.472  27.147  1.00  0.00    -0.206 F 
ATOM    109  C   UNL A   1      43.721  39.477  26.522  1.00  0.00     0.060 A 
BRANCH 109 110
ATOM    110  S   UNL A   1      43.348  41.179  26.062  1.00  0.00     0.124 S 
ATOM    111  O   UNL A   1      43.996  41.273  24.758  1.00  0.00    -0.237 OA
ATOM    112  O   UNL A   1      41.888  41.196  26.043  1.00  0.00    -0.237 OA
ATOM    113  O   UNL A   1      43.961  41.960  27.131  1.00  0.00    -0.744 OA
ENDBRANCH 109 110
ENDBRANCH  77 102
ENDBRANCH  51  52
ENDBRANCH  44  46
ENDBRANCH  43  44
ENDBRANCH  42  43
ENDBRANCH  41  42
ENDBRANCH  40  41
ENDBRANCH  39  40
ENDBRANCH  38  39
ENDBRANCH  37  38
ENDBRANCH   1  37
TORSDOF 28
ENDMDL
