MODEL 1
REMARK VINA RESULT:      -8.6      0.000      0.000
REMARK SMILES O=C(OCCOCCOCCOCCOC(=O)c1ccc(-n2cc(CSc3nc4ccccc4c(=O)n3-c3ccc(Cl)cc3)nn2)cc1)c1ccc(-c2c3nc(c(-c4c(F)cc(S(=O)(=O)[O-])cc4F)c4ccc([nH]4)c(-c4c(F)cc(S(=O)(=O)[O-])cc4F)c4nc(c(-c5c(F)cc(S(=O)(=O)[O-])cc5F)c5ccc2[nH]5)C=C4)C=C3)cc1
REMARK SMILES IDX 10 1 9 2 8 3 7 4 6 5 5 6 4 7 3 8 2 9 1 10 49 11 50 12 114 13
REMARK SMILES IDX 51 14 113 15 52 16 53 17 54 18 107 19 55 20 112 21 106 22
REMARK SMILES IDX 108 23 56 24 111 25 105 26 104 27 57 29 91 30 70 31 90 32
REMARK SMILES IDX 71 33 74 34 89 35 109 36 72 37 73 38 88 40 110 41 75 42
REMARK SMILES IDX 58 43 59 44 68 45 60 46 61 47 67 48 69 49 62 50 63 51 64 52
REMARK SMILES IDX 65 53 66 54 92 55 93 56 102 57 94 58 95 59 101 60 103 61
REMARK SMILES IDX 96 62 97 63 98 64 99 65 100 66 76 67 77 68 86 69 78 70 79 71
REMARK SMILES IDX 85 72 87 73 80 74 81 75 82 76 83 77 84 78 11 79 12 80 13 81
REMARK SMILES IDX 14 82 15 83 16 84 17 85 18 86 19 87 48 88 20 89 47 90 21 91
REMARK SMILES IDX 22 92 23 93 46 94 24 95 45 96 25 97 26 98 27 99 28 100
REMARK SMILES IDX 37 101 29 102 35 103 30 104 34 105 36 106 31 107 33 108
REMARK SMILES IDX 32 109 38 110 39 111 44 112 40 113 43 114 41 115 42 116
REMARK H PARENT 108 28 74 39
REMARK Flexibility Score: inf
ROOT
ATOM      1  C   UNL A   1      37.023  23.306  25.223  1.00  0.00     0.188 C 
ENDROOT
BRANCH   1   2
ATOM      2  O   UNL A   1      38.144  23.300  26.075  1.00  0.00    -0.377 OA
BRANCH   2   3
ATOM      3  C   UNL A   1      38.942  22.135  25.951  1.00  0.00     0.188 C 
BRANCH   3   4
ATOM      4  C   UNL A   1      39.907  21.808  27.106  1.00  0.00     0.188 C 
BRANCH   4   5
ATOM      5  O   UNL A   1      41.269  22.196  27.208  1.00  0.00    -0.376 OA
BRANCH   5   6
ATOM      6  C   UNL A   1      41.976  23.324  26.733  1.00  0.00     0.202 C 
BRANCH   6   7
ATOM      7  C   UNL A   1      42.259  23.675  25.270  1.00  0.00     0.261 C 
BRANCH   7   8
ATOM      8  O   UNL A   1      42.880  22.665  24.496  1.00  0.00    -0.460 OA
BRANCH   8   9
ATOM      9  C   UNL A   1      44.200  22.551  24.243  1.00  0.00     0.338 C 
ATOM     10  O   UNL A   1      44.557  21.808  23.330  1.00  0.00    -0.246 OA
BRANCH   9  11
ATOM     11  C   UNL A   1      45.244  23.146  25.118  1.00  0.00     0.060 A 
ATOM     12  C   UNL A   1      45.592  22.719  26.405  1.00  0.00     0.016 A 
ATOM     13  C   UNL A   1      45.912  24.255  24.561  1.00  0.00     0.016 A 
ATOM     14  C   UNL A   1      46.422  23.479  27.193  1.00  0.00     0.010 A 
ATOM     15  C   UNL A   1      46.764  25.013  25.335  1.00  0.00     0.010 A 
ATOM     16  C   UNL A   1      46.887  24.674  26.678  1.00  0.00    -0.014 A 
BRANCH  16  17
ATOM     17  C   UNL A   1      47.258  25.666  27.662  1.00  0.00     0.031 A 
ATOM     18  C   UNL A   1      48.694  25.701  28.025  1.00  0.00     0.074 A 
ATOM     19  C   UNL A   1      46.261  26.441  28.139  1.00  0.00     0.049 A 
ATOM     20  N   UNL A   1      49.239  25.596  29.194  1.00  0.00    -0.248 NA
ATOM     21  C   UNL A   1      49.662  25.698  26.912  1.00  0.00     0.031 C 
ATOM     22  C   UNL A   1      44.863  26.497  27.674  1.00  0.00     0.029 A 
ATOM     23  N   UNL A   1      46.318  27.453  29.038  1.00  0.00    -0.354 N 
ATOM     24  C   UNL A   1      50.604  25.768  28.980  1.00  0.00     0.074 A 
ATOM     25  C   UNL A   1      50.822  25.643  27.563  1.00  0.00     0.031 C 
ATOM     26  C   UNL A   1      44.302  27.652  28.079  1.00  0.00     0.029 A 
ATOM     27  C   UNL A   1      45.246  28.337  28.933  1.00  0.00     0.049 A 
ATOM     28  H   UNL A   1      47.041  27.553  29.697  1.00  0.00     0.167 HD
ATOM     29  C   UNL A   1      51.422  26.278  29.940  1.00  0.00     0.037 A 
ATOM     30  C   UNL A   1      45.269  29.617  29.373  1.00  0.00     0.037 A 
ATOM     31  C   UNL A   1      50.887  26.096  31.260  1.00  0.00     0.049 A 
ATOM     32  C   UNL A   1      46.342  29.680  30.407  1.00  0.00     0.074 A 
ATOM     33  C   UNL A   1      50.566  24.989  32.021  1.00  0.00     0.029 A 
ATOM     34  N   UNL A   1      50.256  27.158  31.864  1.00  0.00    -0.354 N 
ATOM     35  N   UNL A   1      46.295  29.011  31.534  1.00  0.00    -0.248 NA
ATOM     36  C   UNL A   1      47.677  30.070  29.976  1.00  0.00     0.031 C 
ATOM     37  C   UNL A   1      49.388  25.356  32.735  1.00  0.00     0.029 A 
ATOM     38  C   UNL A   1      49.088  26.680  32.409  1.00  0.00     0.049 A 
ATOM     39  H   UNL A   1      50.581  28.086  31.899  1.00  0.00     0.167 HD
ATOM     40  C   UNL A   1      47.595  28.563  31.747  1.00  0.00     0.074 A 
ATOM     41  C   UNL A   1      48.412  29.300  30.785  1.00  0.00     0.031 C 
ATOM     42  C   UNL A   1      47.856  27.437  32.479  1.00  0.00     0.037 A 
BRANCH  29  43
ATOM     43  C   UNL A   1      52.516  27.263  29.615  1.00  0.00     0.058 A 
ATOM     44  C   UNL A   1      52.211  28.478  28.977  1.00  0.00     0.135 A 
ATOM     45  C   UNL A   1      53.889  26.925  29.668  1.00  0.00     0.135 A 
ATOM     46  F   UNL A   1      50.936  28.880  28.851  1.00  0.00    -0.206 F 
ATOM     47  C   UNL A   1      53.197  29.274  28.388  1.00  0.00     0.059 A 
ATOM     48  C   UNL A   1      54.890  27.729  29.143  1.00  0.00     0.059 A 
ATOM     49  F   UNL A   1      54.318  25.749  30.143  1.00  0.00    -0.206 F 
ATOM     50  C   UNL A   1      54.532  28.879  28.464  1.00  0.00     0.060 A 
BRANCH  50  51
ATOM     51  S   UNL A   1      55.794  29.825  27.596  1.00  0.00     0.124 S 
ATOM     52  O   UNL A   1      56.970  29.556  28.415  1.00  0.00    -0.237 OA
ATOM     53  O   UNL A   1      55.780  29.210  26.273  1.00  0.00    -0.237 OA
ATOM     54  O   UNL A   1      55.285  31.193  27.650  1.00  0.00    -0.744 OA
ENDBRANCH  50  51
ENDBRANCH  29  43
BRANCH  30  55
ATOM     55  C   UNL A   1      44.783  30.781  28.585  1.00  0.00     0.058 A 
ATOM     56  C   UNL A   1      44.006  31.791  29.172  1.00  0.00     0.135 A 
ATOM     57  C   UNL A   1      45.253  31.043  27.275  1.00  0.00     0.135 A 
ATOM     58  F   UNL A   1      43.551  31.642  30.425  1.00  0.00    -0.206 F 
ATOM     59  C   UNL A   1      43.725  32.993  28.510  1.00  0.00     0.059 A 
ATOM     60  C   UNL A   1      44.968  32.221  26.590  1.00  0.00     0.059 A 
ATOM     61  F   UNL A   1      46.078  30.194  26.645  1.00  0.00    -0.206 F 
ATOM     62  C   UNL A   1      44.220  33.201  27.221  1.00  0.00     0.060 A 
BRANCH  62  63
ATOM     63  S   UNL A   1      43.975  34.801  26.415  1.00  0.00     0.124 S 
ATOM     64  O   UNL A   1      45.325  35.353  26.423  1.00  0.00    -0.237 OA
ATOM     65  O   UNL A   1      43.454  34.409  25.109  1.00  0.00    -0.237 OA
ATOM     66  O   UNL A   1      43.018  35.479  27.286  1.00  0.00    -0.744 OA
ENDBRANCH  62  63
ENDBRANCH  30  55
BRANCH  42  67
ATOM     67  C   UNL A   1      46.709  26.781  33.213  1.00  0.00     0.058 A 
ATOM     68  C   UNL A   1      45.905  25.773  32.647  1.00  0.00     0.135 A 
ATOM     69  C   UNL A   1      46.542  27.031  34.581  1.00  0.00     0.135 A 
ATOM     70  F   UNL A   1      46.083  25.391  31.376  1.00  0.00    -0.206 F 
ATOM     71  C   UNL A   1      44.955  25.074  33.394  1.00  0.00     0.059 A 
ATOM     72  C   UNL A   1      45.622  26.325  35.355  1.00  0.00     0.059 A 
ATOM     73  F   UNL A   1      47.330  27.925  35.200  1.00  0.00    -0.206 F 
ATOM     74  C   UNL A   1      44.825  25.354  34.752  1.00  0.00     0.060 A 
BRANCH  74  75
ATOM     75  S   UNL A   1      43.670  24.372  35.740  1.00  0.00     0.124 S 
ATOM     76  O   UNL A   1      42.891  23.691  34.713  1.00  0.00    -0.237 OA
ATOM     77  O   UNL A   1      44.565  23.523  36.523  1.00  0.00    -0.237 OA
ATOM     78  O   UNL A   1      42.944  25.376  36.514  1.00  0.00    -0.744 OA
ENDBRANCH  74  75
ENDBRANCH  42  67
ENDBRANCH  16  17
ENDBRANCH   9  11
ENDBRANCH   8   9
ENDBRANCH   7   8
ENDBRANCH   6   7
ENDBRANCH   5   6
ENDBRANCH   4   5
ENDBRANCH   3   4
ENDBRANCH   2   3
ENDBRANCH   1   2
BRANCH   1  79
ATOM     79  C   UNL A   1      35.678  23.219  25.973  1.00  0.00     0.188 C 
BRANCH  79  80
ATOM     80  O   UNL A   1      34.468  22.964  25.280  1.00  0.00    -0.376 OA
BRANCH  80  81
ATOM     81  C   UNL A   1      33.780  24.023  24.634  1.00  0.00     0.202 C 
BRANCH  81  82
ATOM     82  C   UNL A   1      32.625  24.779  25.324  1.00  0.00     0.261 C 
BRANCH  82  83
ATOM     83  O   UNL A   1      32.944  26.033  25.945  1.00  0.00    -0.460 OA
BRANCH  83  84
ATOM     84  C   UNL A   1      32.290  27.129  25.468  1.00  0.00     0.338 C 
ATOM     85  O   UNL A   1      31.326  27.158  24.752  1.00  0.00    -0.246 OA
BRANCH  84  86
ATOM     86  C   UNL A   1      32.824  28.323  26.179  1.00  0.00     0.060 A 
ATOM     87  C   UNL A   1      34.159  28.278  26.605  1.00  0.00     0.018 A 
ATOM     88  C   UNL A   1      32.063  29.485  26.355  1.00  0.00     0.018 A 
ATOM     89  C   UNL A   1      34.741  29.391  27.202  1.00  0.00     0.029 A 
ATOM     90  C   UNL A   1      32.641  30.606  26.966  1.00  0.00     0.029 A 
ATOM     91  C   UNL A   1      33.975  30.543  27.395  1.00  0.00     0.066 A 
BRANCH  91  92
ATOM     92  N   UNL A   1      34.494  31.546  28.237  1.00  0.00    -0.220 N 
ATOM     93  C   UNL A   1      35.536  31.320  29.114  1.00  0.00     0.141 A 
ATOM     94  N   UNL A   1      33.865  32.684  28.566  1.00  0.00    -0.062 NA
ATOM     95  C   UNL A   1      35.453  32.316  30.053  1.00  0.00     0.093 A 
ATOM     96  N   UNL A   1      34.494  33.208  29.612  1.00  0.00    -0.134 NA
BRANCH  95  97
ATOM     97  C   UNL A   1      35.885  32.425  31.469  1.00  0.00     0.138 C 
BRANCH  97  98
ATOM     98  S   UNL A   1      36.551  31.155  32.525  1.00  0.00    -0.081 SA
BRANCH  98  99
ATOM     99  C   UNL A   1      37.720  31.680  33.698  1.00  0.00     0.176 A 
ATOM    100  N   UNL A   1      37.142  32.273  34.703  1.00  0.00    -0.223 NA
ATOM    101  N   UNL A   1      39.096  31.513  33.649  1.00  0.00    -0.255 N 
ATOM    102  C   UNL A   1      37.938  32.872  35.681  1.00  0.00     0.079 A 
ATOM    103  C   UNL A   1      39.808  32.601  34.180  1.00  0.00     0.266 A 
ATOM    104  C   UNL A   1      37.406  33.252  36.913  1.00  0.00     0.029 A 
ATOM    105  C   UNL A   1      39.248  33.211  35.390  1.00  0.00     0.066 A 
ATOM    106  O   UNL A   1      40.823  33.105  33.700  1.00  0.00    -0.268 OA
ATOM    107  C   UNL A   1      38.169  34.021  37.800  1.00  0.00     0.002 A 
ATOM    108  C   UNL A   1      40.004  34.028  36.232  1.00  0.00     0.016 A 
ATOM    109  C   UNL A   1      39.452  34.443  37.443  1.00  0.00     0.001 A 
BRANCH 101 110
ATOM    110  C   UNL A   1      39.848  30.433  33.028  1.00  0.00     0.051 A 
ATOM    111  C   UNL A   1      40.328  29.364  33.818  1.00  0.00     0.028 A 
ATOM    112  C   UNL A   1      40.162  30.366  31.667  1.00  0.00     0.028 A 
ATOM    113  C   UNL A   1      41.258  28.436  33.340  1.00  0.00     0.022 A 
ATOM    114  C   UNL A   1      41.131  29.470  31.186  1.00  0.00     0.022 A 
ATOM    115  C   UNL A   1      41.707  28.536  32.035  1.00  0.00     0.041 A 
ATOM    116  Cl  UNL A   1      42.956  27.503  31.472  1.00  0.00    -0.084 Cl
ENDBRANCH 101 110
ENDBRANCH  98  99
ENDBRANCH  97  98
ENDBRANCH  95  97
ENDBRANCH  91  92
ENDBRANCH  84  86
ENDBRANCH  83  84
ENDBRANCH  82  83
ENDBRANCH  81  82
ENDBRANCH  80  81
ENDBRANCH  79  80
ENDBRANCH   1  79
TORSDOF 28
ENDMDL
MODEL 2
REMARK VINA RESULT:      -8.5      5.887     12.966
REMARK SMILES O=C(OCCOCCOCCOCCOC(=O)c1ccc(-n2cc(CSc3nc4ccccc4c(=O)n3-c3ccc(Cl)cc3)nn2)cc1)c1ccc(-c2c3nc(c(-c4c(F)cc(S(=O)(=O)[O-])cc4F)c4ccc([nH]4)c(-c4c(F)cc(S(=O)(=O)[O-])cc4F)c4nc(c(-c5c(F)cc(S(=O)(=O)[O-])cc5F)c5ccc2[nH]5)C=C4)C=C3)cc1
REMARK SMILES IDX 10 1 9 2 8 3 7 4 6 5 5 6 4 7 3 8 2 9 1 10 49 11 50 12 114 13
REMARK SMILES IDX 51 14 113 15 52 16 53 17 54 18 107 19 55 20 112 21 106 22
REMARK SMILES IDX 108 23 56 24 111 25 105 26 104 27 57 29 91 30 70 31 90 32
REMARK SMILES IDX 71 33 74 34 89 35 109 36 72 37 73 38 88 40 110 41 75 42
REMARK SMILES IDX 58 43 59 44 68 45 60 46 61 47 67 48 69 49 62 50 63 51 64 52
REMARK SMILES IDX 65 53 66 54 92 55 93 56 102 57 94 58 95 59 101 60 103 61
REMARK SMILES IDX 96 62 97 63 98 64 99 65 100 66 76 67 77 68 86 69 78 70 79 71
REMARK SMILES IDX 85 72 87 73 80 74 81 75 82 76 83 77 84 78 11 79 12 80 13 81
REMARK SMILES IDX 14 82 15 83 16 84 17 85 18 86 19 87 48 88 20 89 47 90 21 91
REMARK SMILES IDX 22 92 23 93 46 94 24 95 45 96 25 97 26 98 27 99 28 100
REMARK SMILES IDX 37 101 29 102 35 103 30 104 34 105 36 106 31 107 33 108
REMARK SMILES IDX 32 109 38 110 39 111 44 112 40 113 43 114 41 115 42 116
REMARK H PARENT 108 28 74 39
REMARK Flexibility Score: inf
ROOT
ATOM      1  C   UNL A   1      44.850  27.264  31.632  1.00  0.00     0.188 C 
ENDROOT
BRANCH   1   2
ATOM      2  O   UNL A   1      44.118  26.144  32.071  1.00  0.00    -0.377 OA
BRANCH   2   3
ATOM      3  C   UNL A   1      44.927  25.011  32.341  1.00  0.00     0.188 C 
BRANCH   3   4
ATOM      4  C   UNL A   1      44.614  24.202  33.614  1.00  0.00     0.188 C 
BRANCH   4   5
ATOM      5  O   UNL A   1      43.382  24.172  34.318  1.00  0.00    -0.376 OA
BRANCH   5   6
ATOM      6  C   UNL A   1      42.680  25.154  35.052  1.00  0.00     0.202 C 
BRANCH   6   7
ATOM      7  C   UNL A   1      43.292  26.275  35.895  1.00  0.00     0.261 C 
BRANCH   7   8
ATOM      8  O   UNL A   1      44.695  26.219  36.083  1.00  0.00    -0.460 OA
BRANCH   8   9
ATOM      9  C   UNL A   1      45.582  27.183  35.764  1.00  0.00     0.338 C 
ATOM     10  O   UNL A   1      46.725  26.846  35.456  1.00  0.00    -0.246 OA
BRANCH   9  11
ATOM     11  C   UNL A   1      45.294  28.632  35.928  1.00  0.00     0.060 A 
ATOM     12  C   UNL A   1      45.111  29.311  37.140  1.00  0.00     0.016 A 
ATOM     13  C   UNL A   1      45.189  29.350  34.720  1.00  0.00     0.016 A 
ATOM     14  C   UNL A   1      44.642  30.601  37.155  1.00  0.00     0.010 A 
ATOM     15  C   UNL A   1      44.739  30.653  34.723  1.00  0.00     0.010 A 
ATOM     16  C   UNL A   1      44.348  31.196  35.942  1.00  0.00    -0.014 A 
BRANCH  16  17
ATOM     17  C   UNL A   1      43.377  32.266  35.999  1.00  0.00     0.031 A 
ATOM     18  C   UNL A   1      43.938  33.635  36.081  1.00  0.00     0.074 A 
ATOM     19  C   UNL A   1      42.079  31.899  35.976  1.00  0.00     0.049 A 
ATOM     20  N   UNL A   1      43.714  34.552  36.967  1.00  0.00    -0.248 NA
ATOM     21  C   UNL A   1      45.013  33.971  35.130  1.00  0.00     0.031 C 
ATOM     22  C   UNL A   1      41.528  30.550  35.753  1.00  0.00     0.029 A 
ATOM     23  N   UNL A   1      40.968  32.676  35.993  1.00  0.00    -0.354 N 
ATOM     24  C   UNL A   1      44.432  35.664  36.534  1.00  0.00     0.074 A 
ATOM     25  C   UNL A   1      45.343  35.201  35.520  1.00  0.00     0.031 C 
ATOM     26  C   UNL A   1      40.239  30.648  35.378  1.00  0.00     0.029 A 
ATOM     27  C   UNL A   1      39.846  32.037  35.469  1.00  0.00     0.049 A 
ATOM     28  H   UNL A   1      40.956  33.596  36.341  1.00  0.00     0.167 HD
ATOM     29  C   UNL A   1      44.039  36.931  36.831  1.00  0.00     0.037 A 
ATOM     30  C   UNL A   1      38.766  32.682  34.971  1.00  0.00     0.037 A 
ATOM     31  C   UNL A   1      43.217  36.981  38.008  1.00  0.00     0.049 A 
ATOM     32  C   UNL A   1      38.777  34.042  35.584  1.00  0.00     0.074 A 
ATOM     33  C   UNL A   1      43.419  36.656  39.335  1.00  0.00     0.029 A 
ATOM     34  N   UNL A   1      41.854  37.074  37.852  1.00  0.00    -0.354 N 
ATOM     35  N   UNL A   1      38.644  34.252  36.871  1.00  0.00    -0.248 NA
ATOM     36  C   UNL A   1      39.439  35.112  34.849  1.00  0.00     0.031 C 
ATOM     37  C   UNL A   1      42.183  36.098  39.774  1.00  0.00     0.029 A 
ATOM     38  C   UNL A   1      41.284  36.163  38.708  1.00  0.00     0.049 A 
ATOM     39  H   UNL A   1      41.376  37.680  37.240  1.00  0.00     0.167 HD
ATOM     40  C   UNL A   1      39.535  35.277  37.168  1.00  0.00     0.074 A 
ATOM     41  C   UNL A   1      39.951  35.806  35.870  1.00  0.00     0.031 C 
ATOM     42  C   UNL A   1      40.076  35.421  38.417  1.00  0.00     0.037 A 
BRANCH  29  43
ATOM     43  C   UNL A   1      44.114  38.048  35.822  1.00  0.00     0.058 A 
ATOM     44  C   UNL A   1      44.708  39.276  36.165  1.00  0.00     0.135 A 
ATOM     45  C   UNL A   1      43.376  38.039  34.615  1.00  0.00     0.135 A 
ATOM     46  F   UNL A   1      45.410  39.399  37.303  1.00  0.00    -0.206 F 
ATOM     47  C   UNL A   1      44.534  40.425  35.390  1.00  0.00     0.059 A 
ATOM     48  C   UNL A   1      43.241  39.153  33.799  1.00  0.00     0.059 A 
ATOM     49  F   UNL A   1      42.665  36.976  34.220  1.00  0.00    -0.206 F 
ATOM     50  C   UNL A   1      43.784  40.354  34.217  1.00  0.00     0.060 A 
BRANCH  50  51
ATOM     51  S   UNL A   1      43.444  41.854  33.282  1.00  0.00     0.124 S 
ATOM     52  O   UNL A   1      43.262  42.827  34.353  1.00  0.00    -0.237 OA
ATOM     53  O   UNL A   1      44.658  41.998  32.485  1.00  0.00    -0.237 OA
ATOM     54  O   UNL A   1      42.242  41.514  32.525  1.00  0.00    -0.744 OA
ENDBRANCH  50  51
ENDBRANCH  29  43
BRANCH  30  55
ATOM     55  C   UNL A   1      38.108  32.340  33.681  1.00  0.00     0.058 A 
ATOM     56  C   UNL A   1      36.717  32.426  33.523  1.00  0.00     0.135 A 
ATOM     57  C   UNL A   1      38.854  32.124  32.498  1.00  0.00     0.135 A 
ATOM     58  F   UNL A   1      35.936  32.667  34.586  1.00  0.00    -0.206 F 
ATOM     59  C   UNL A   1      36.103  32.320  32.268  1.00  0.00     0.059 A 
ATOM     60  C   UNL A   1      38.265  31.995  31.244  1.00  0.00     0.059 A 
ATOM     61  F   UNL A   1      40.195  32.113  32.509  1.00  0.00    -0.206 F 
ATOM     62  C   UNL A   1      36.889  32.114  31.132  1.00  0.00     0.060 A 
BRANCH  62  63
ATOM     63  S   UNL A   1      36.118  32.112  29.497  1.00  0.00     0.124 S 
ATOM     64  O   UNL A   1      34.703  32.228  29.831  1.00  0.00    -0.237 OA
ATOM     65  O   UNL A   1      36.725  33.281  28.871  1.00  0.00    -0.237 OA
ATOM     66  O   UNL A   1      36.521  30.826  28.932  1.00  0.00    -0.744 OA
ENDBRANCH  62  63
ENDBRANCH  30  55
BRANCH  42  67
ATOM     67  C   UNL A   1      39.544  34.546  39.529  1.00  0.00     0.058 A 
ATOM     68  C   UNL A   1      39.998  33.235  39.766  1.00  0.00     0.135 A 
ATOM     69  C   UNL A   1      38.705  35.110  40.499  1.00  0.00     0.135 A 
ATOM     70  F   UNL A   1      40.895  32.665  38.951  1.00  0.00    -0.206 F 
ATOM     71  C   UNL A   1      39.607  32.504  40.890  1.00  0.00     0.059 A 
ATOM     72  C   UNL A   1      38.324  34.413  41.645  1.00  0.00     0.059 A 
ATOM     73  F   UNL A   1      38.297  36.383  40.374  1.00  0.00    -0.206 F 
ATOM     74  C   UNL A   1      38.773  33.106  41.829  1.00  0.00     0.060 A 
BRANCH  74  75
ATOM     75  S   UNL A   1      38.355  32.197  43.336  1.00  0.00     0.124 S 
ATOM     76  O   UNL A   1      37.843  30.940  42.805  1.00  0.00    -0.237 OA
ATOM     77  O   UNL A   1      39.642  32.117  44.024  1.00  0.00    -0.237 OA
ATOM     78  O   UNL A   1      37.365  33.052  43.986  1.00  0.00    -0.744 OA
ENDBRANCH  74  75
ENDBRANCH  42  67
ENDBRANCH  16  17
ENDBRANCH   9  11
ENDBRANCH   8   9
ENDBRANCH   7   8
ENDBRANCH   6   7
ENDBRANCH   5   6
ENDBRANCH   4   5
ENDBRANCH   3   4
ENDBRANCH   2   3
ENDBRANCH   1   2
BRANCH   1  79
ATOM     79  C   UNL A   1      45.653  27.008  30.340  1.00  0.00     0.188 C 
BRANCH  79  80
ATOM     80  O   UNL A   1      45.020  27.005  29.072  1.00  0.00    -0.376 OA
BRANCH  80  81
ATOM     81  C   UNL A   1      45.786  26.814  27.894  1.00  0.00     0.202 C 
BRANCH  81  82
ATOM     82  C   UNL A   1      46.263  25.413  27.456  1.00  0.00     0.261 C 
BRANCH  82  83
ATOM     83  O   UNL A   1      45.266  24.511  26.953  1.00  0.00    -0.460 OA
BRANCH  83  84
ATOM     84  C   UNL A   1      44.663  23.702  27.869  1.00  0.00     0.338 C 
ATOM     85  O   UNL A   1      45.102  23.325  28.922  1.00  0.00    -0.246 OA
BRANCH  84  86
ATOM     86  C   UNL A   1      43.240  23.535  27.464  1.00  0.00     0.060 A 
ATOM     87  C   UNL A   1      42.896  22.357  26.786  1.00  0.00     0.018 A 
ATOM     88  C   UNL A   1      42.256  24.471  27.805  1.00  0.00     0.018 A 
ATOM     89  C   UNL A   1      41.569  22.105  26.452  1.00  0.00     0.029 A 
ATOM     90  C   UNL A   1      40.919  24.226  27.462  1.00  0.00     0.029 A 
ATOM     91  C   UNL A   1      40.590  23.048  26.776  1.00  0.00     0.066 A 
BRANCH  91  92
ATOM     92  N   UNL A   1      39.317  22.902  26.193  1.00  0.00    -0.220 N 
ATOM     93  C   UNL A   1      38.463  23.966  25.982  1.00  0.00     0.141 A 
ATOM     94  N   UNL A   1      38.633  21.750  26.104  1.00  0.00    -0.062 NA
ATOM     95  C   UNL A   1      37.212  23.420  25.861  1.00  0.00     0.093 A 
ATOM     96  N   UNL A   1      37.372  22.048  25.813  1.00  0.00    -0.134 NA
BRANCH  95  97
ATOM     97  C   UNL A   1      35.842  23.938  26.105  1.00  0.00     0.138 C 
BRANCH  97  98
ATOM     98  S   UNL A   1      34.440  23.082  26.794  1.00  0.00    -0.081 SA
BRANCH  98  99
ATOM     99  C   UNL A   1      33.501  22.142  25.676  1.00  0.00     0.176 A 
ATOM    100  N   UNL A   1      33.558  20.874  25.965  1.00  0.00    -0.223 NA
ATOM    101  N   UNL A   1      32.753  22.608  24.604  1.00  0.00    -0.255 N 
ATOM    102  C   UNL A   1      32.965  19.956  25.096  1.00  0.00     0.079 A 
ATOM    103  C   UNL A   1      32.778  21.750  23.492  1.00  0.00     0.266 A 
ATOM    104  C   UNL A   1      32.727  18.639  25.488  1.00  0.00     0.029 A 
ATOM    105  C   UNL A   1      32.714  20.314  23.783  1.00  0.00     0.066 A 
ATOM    106  O   UNL A   1      32.890  22.093  22.316  1.00  0.00    -0.268 OA
ATOM    107  C   UNL A   1      32.313  17.690  24.546  1.00  0.00     0.002 A 
ATOM    108  C   UNL A   1      32.360  19.372  22.816  1.00  0.00     0.016 A 
ATOM    109  C   UNL A   1      32.168  18.047  23.203  1.00  0.00     0.001 A 
BRANCH 101 110
ATOM    110  C   UNL A   1      32.072  23.887  24.474  1.00  0.00     0.051 A 
ATOM    111  C   UNL A   1      32.658  24.922  23.711  1.00  0.00     0.028 A 
ATOM    112  C   UNL A   1      30.848  24.198  25.074  1.00  0.00     0.028 A 
ATOM    113  C   UNL A   1      32.190  26.240  23.749  1.00  0.00     0.022 A 
ATOM    114  C   UNL A   1      30.394  25.525  25.160  1.00  0.00     0.022 A 
ATOM    115  C   UNL A   1      31.091  26.547  24.532  1.00  0.00     0.041 A 
ATOM    116  Cl  UNL A   1      30.591  28.179  24.712  1.00  0.00    -0.084 Cl
ENDBRANCH 101 110
ENDBRANCH  98  99
ENDBRANCH  97  98
ENDBRANCH  95  97
ENDBRANCH  91  92
ENDBRANCH  84  86
ENDBRANCH  83  84
ENDBRANCH  82  83
ENDBRANCH  81  82
ENDBRANCH  80  81
ENDBRANCH  79  80
ENDBRANCH   1  79
TORSDOF 28
ENDMDL
MODEL 3
REMARK VINA RESULT:      -8.5      4.643     10.384
REMARK SMILES O=C(OCCOCCOCCOCCOC(=O)c1ccc(-n2cc(CSc3nc4ccccc4c(=O)n3-c3ccc(Cl)cc3)nn2)cc1)c1ccc(-c2c3nc(c(-c4c(F)cc(S(=O)(=O)[O-])cc4F)c4ccc([nH]4)c(-c4c(F)cc(S(=O)(=O)[O-])cc4F)c4nc(c(-c5c(F)cc(S(=O)(=O)[O-])cc5F)c5ccc2[nH]5)C=C4)C=C3)cc1
REMARK SMILES IDX 10 1 9 2 8 3 7 4 6 5 5 6 4 7 3 8 2 9 1 10 49 11 50 12 114 13
REMARK SMILES IDX 51 14 113 15 52 16 53 17 54 18 107 19 55 20 112 21 106 22
REMARK SMILES IDX 108 23 56 24 111 25 105 26 104 27 57 29 91 30 70 31 90 32
REMARK SMILES IDX 71 33 74 34 89 35 109 36 72 37 73 38 88 40 110 41 75 42
REMARK SMILES IDX 58 43 59 44 68 45 60 46 61 47 67 48 69 49 62 50 63 51 64 52
REMARK SMILES IDX 65 53 66 54 92 55 93 56 102 57 94 58 95 59 101 60 103 61
REMARK SMILES IDX 96 62 97 63 98 64 99 65 100 66 76 67 77 68 86 69 78 70 79 71
REMARK SMILES IDX 85 72 87 73 80 74 81 75 82 76 83 77 84 78 11 79 12 80 13 81
REMARK SMILES IDX 14 82 15 83 16 84 17 85 18 86 19 87 48 88 20 89 47 90 21 91
REMARK SMILES IDX 22 92 23 93 46 94 24 95 45 96 25 97 26 98 27 99 28 100
REMARK SMILES IDX 37 101 29 102 35 103 30 104 34 105 36 106 31 107 33 108
REMARK SMILES IDX 32 109 38 110 39 111 44 112 40 113 43 114 41 115 42 116
REMARK H PARENT 108 28 74 39
REMARK Flexibility Score: inf
ROOT
ATOM      1  C   UNL A   1      44.190  24.609  30.562  1.00  0.00     0.188 C 
ENDROOT
BRANCH   1   2
ATOM      2  O   UNL A   1      45.535  25.018  30.639  1.00  0.00    -0.377 OA
BRANCH   2   3
ATOM      3  C   UNL A   1      45.761  26.315  30.113  1.00  0.00     0.188 C 
BRANCH   3   4
ATOM      4  C   UNL A   1      45.853  26.455  28.582  1.00  0.00     0.188 C 
BRANCH   4   5
ATOM      5  O   UNL A   1      44.939  27.134  27.735  1.00  0.00    -0.376 OA
BRANCH   5   6
ATOM      6  C   UNL A   1      44.493  28.474  27.696  1.00  0.00     0.202 C 
BRANCH   6   7
ATOM      7  C   UNL A   1      44.004  29.238  26.463  1.00  0.00     0.261 C 
BRANCH   7   8
ATOM      8  O   UNL A   1      44.750  30.387  26.105  1.00  0.00    -0.460 OA
BRANCH   8   9
ATOM      9  C   UNL A   1      45.752  30.942  26.818  1.00  0.00     0.338 C 
ATOM     10  O   UNL A   1      46.860  31.037  26.292  1.00  0.00    -0.246 OA
BRANCH   9  11
ATOM     11  C   UNL A   1      45.622  31.290  28.258  1.00  0.00     0.060 A 
ATOM     12  C   UNL A   1      46.415  30.803  29.305  1.00  0.00     0.016 A 
ATOM     13  C   UNL A   1      44.577  32.188  28.552  1.00  0.00     0.016 A 
ATOM     14  C   UNL A   1      46.065  31.031  30.612  1.00  0.00     0.010 A 
ATOM     15  C   UNL A   1      44.229  32.443  29.861  1.00  0.00     0.010 A 
ATOM     16  C   UNL A   1      44.905  31.743  30.856  1.00  0.00    -0.014 A 
BRANCH  16  17
ATOM     17  C   UNL A   1      44.285  31.492  32.138  1.00  0.00     0.031 A 
ATOM     18  C   UNL A   1      44.980  32.078  33.308  1.00  0.00     0.074 A 
ATOM     19  C   UNL A   1      43.156  30.755  32.124  1.00  0.00     0.049 A 
ATOM     20  N   UNL A   1      45.411  31.487  34.375  1.00  0.00    -0.248 NA
ATOM     21  C   UNL A   1      45.382  33.493  33.203  1.00  0.00     0.031 C 
ATOM     22  C   UNL A   1      42.395  30.294  30.948  1.00  0.00     0.029 A 
ATOM     23  N   UNL A   1      42.360  30.387  33.157  1.00  0.00    -0.354 N 
ATOM     24  C   UNL A   1      45.914  32.506  35.182  1.00  0.00     0.074 A 
ATOM     25  C   UNL A   1      46.038  33.673  34.348  1.00  0.00     0.031 C 
ATOM     26  C   UNL A   1      41.142  29.974  31.322  1.00  0.00     0.029 A 
ATOM     27  C   UNL A   1      41.060  30.076  32.762  1.00  0.00     0.049 A 
ATOM     28  H   UNL A   1      42.668  30.345  34.091  1.00  0.00     0.167 HD
ATOM     29  C   UNL A   1      45.930  32.405  36.538  1.00  0.00     0.037 A 
ATOM     30  C   UNL A   1      39.986  30.110  33.584  1.00  0.00     0.037 A 
ATOM     31  C   UNL A   1      45.913  31.038  36.979  1.00  0.00     0.049 A 
ATOM     32  C   UNL A   1      40.521  29.981  34.970  1.00  0.00     0.074 A 
ATOM     33  C   UNL A   1      46.769  29.966  36.818  1.00  0.00     0.029 A 
ATOM     34  N   UNL A   1      44.720  30.501  37.401  1.00  0.00    -0.354 N 
ATOM     35  N   UNL A   1      41.152  28.916  35.401  1.00  0.00    -0.248 NA
ATOM     36  C   UNL A   1      40.805  31.206  35.705  1.00  0.00     0.031 C 
ATOM     37  C   UNL A   1      45.920  28.830  36.677  1.00  0.00     0.029 A 
ATOM     38  C   UNL A   1      44.601  29.265  36.811  1.00  0.00     0.049 A 
ATOM     39  H   UNL A   1      44.071  30.923  38.010  1.00  0.00     0.167 HD
ATOM     40  C   UNL A   1      42.190  29.400  36.191  1.00  0.00     0.074 A 
ATOM     41  C   UNL A   1      41.885  30.816  36.388  1.00  0.00     0.031 C 
ATOM     42  C   UNL A   1      43.345  28.690  36.376  1.00  0.00     0.037 A 
BRANCH  29  43
ATOM     43  C   UNL A   1      45.586  33.570  37.429  1.00  0.00     0.058 A 
ATOM     44  C   UNL A   1      46.414  33.901  38.517  1.00  0.00     0.135 A 
ATOM     45  C   UNL A   1      44.321  34.203  37.407  1.00  0.00     0.135 A 
ATOM     46  F   UNL A   1      47.626  33.337  38.647  1.00  0.00    -0.206 F 
ATOM     47  C   UNL A   1      45.992  34.758  39.536  1.00  0.00     0.059 A 
ATOM     48  C   UNL A   1      43.905  35.104  38.376  1.00  0.00     0.059 A 
ATOM     49  F   UNL A   1      43.387  33.901  36.497  1.00  0.00    -0.206 F 
ATOM     50  C   UNL A   1      44.728  35.341  39.462  1.00  0.00     0.060 A 
BRANCH  50  51
ATOM     51  S   UNL A   1      44.123  36.340  40.832  1.00  0.00     0.124 S 
ATOM     52  O   UNL A   1      42.746  35.872  40.944  1.00  0.00    -0.237 OA
ATOM     53  O   UNL A   1      45.022  35.949  41.913  1.00  0.00    -0.237 OA
ATOM     54  O   UNL A   1      44.289  37.708  40.350  1.00  0.00    -0.744 OA
ENDBRANCH  50  51
ENDBRANCH  29  43
BRANCH  30  55
ATOM     55  C   UNL A   1      38.685  30.741  33.234  1.00  0.00     0.058 A 
ATOM     56  C   UNL A   1      38.534  32.135  33.194  1.00  0.00     0.135 A 
ATOM     57  C   UNL A   1      37.604  29.985  32.719  1.00  0.00     0.135 A 
ATOM     58  F   UNL A   1      39.524  32.928  33.627  1.00  0.00    -0.206 F 
ATOM     59  C   UNL A   1      37.391  32.744  32.660  1.00  0.00     0.059 A 
ATOM     60  C   UNL A   1      36.450  30.568  32.203  1.00  0.00     0.059 A 
ATOM     61  F   UNL A   1      37.668  28.649  32.622  1.00  0.00    -0.206 F 
ATOM     62  C   UNL A   1      36.357  31.950  32.159  1.00  0.00     0.060 A 
BRANCH  62  63
ATOM     63  S   UNL A   1      34.941  32.728  31.348  1.00  0.00     0.124 S 
ATOM     64  O   UNL A   1      34.726  31.847  30.206  1.00  0.00    -0.237 OA
ATOM     65  O   UNL A   1      33.925  32.679  32.394  1.00  0.00    -0.237 OA
ATOM     66  O   UNL A   1      35.430  34.066  31.020  1.00  0.00    -0.744 OA
ENDBRANCH  62  63
ENDBRANCH  30  55
BRANCH  42  67
ATOM     67  C   UNL A   1      43.404  27.274  35.850  1.00  0.00     0.058 A 
ATOM     68  C   UNL A   1      43.615  26.961  34.494  1.00  0.00     0.135 A 
ATOM     69  C   UNL A   1      43.448  26.210  36.760  1.00  0.00     0.135 A 
ATOM     70  F   UNL A   1      43.705  27.931  33.576  1.00  0.00    -0.206 F 
ATOM     71  C   UNL A   1      43.821  25.651  34.058  1.00  0.00     0.059 A 
ATOM     72  C   UNL A   1      43.682  24.897  36.353  1.00  0.00     0.059 A 
ATOM     73  F   UNL A   1      43.330  26.449  38.077  1.00  0.00    -0.206 F 
ATOM     74  C   UNL A   1      43.859  24.624  34.998  1.00  0.00     0.060 A 
BRANCH  74  75
ATOM     75  S   UNL A   1      44.234  22.944  34.443  1.00  0.00     0.124 S 
ATOM     76  O   UNL A   1      43.024  22.586  33.712  1.00  0.00    -0.237 OA
ATOM     77  O   UNL A   1      45.431  23.139  33.628  1.00  0.00    -0.237 OA
ATOM     78  O   UNL A   1      44.452  22.214  35.689  1.00  0.00    -0.744 OA
ENDBRANCH  74  75
ENDBRANCH  42  67
ENDBRANCH  16  17
ENDBRANCH   9  11
ENDBRANCH   8   9
ENDBRANCH   7   8
ENDBRANCH   6   7
ENDBRANCH   5   6
ENDBRANCH   4   5
ENDBRANCH   3   4
ENDBRANCH   2   3
ENDBRANCH   1   2
BRANCH   1  79
ATOM     79  C   UNL A   1      43.955  23.444  29.580  1.00  0.00     0.188 C 
BRANCH  79  80
ATOM     80  O   UNL A   1      42.663  23.170  29.062  1.00  0.00    -0.376 OA
BRANCH  80  81
ATOM     81  C   UNL A   1      42.481  22.131  28.115  1.00  0.00     0.202 C 
BRANCH  81  82
ATOM     82  C   UNL A   1      41.945  22.413  26.696  1.00  0.00     0.261 C 
BRANCH  82  83
ATOM     83  O   UNL A   1      40.540  22.681  26.570  1.00  0.00    -0.460 OA
BRANCH  83  84
ATOM     84  C   UNL A   1      39.762  21.649  26.139  1.00  0.00     0.338 C 
ATOM     85  O   UNL A   1      39.949  20.471  26.292  1.00  0.00    -0.246 OA
BRANCH  84  86
ATOM     86  C   UNL A   1      38.483  22.220  25.635  1.00  0.00     0.060 A 
ATOM     87  C   UNL A   1      37.724  21.430  24.760  1.00  0.00     0.018 A 
ATOM     88  C   UNL A   1      38.004  23.463  26.066  1.00  0.00     0.018 A 
ATOM     89  C   UNL A   1      36.481  21.874  24.318  1.00  0.00     0.029 A 
ATOM     90  C   UNL A   1      36.757  23.918  25.616  1.00  0.00     0.029 A 
ATOM     91  C   UNL A   1      36.012  23.122  24.734  1.00  0.00     0.066 A 
BRANCH  91  92
ATOM     92  N   UNL A   1      34.896  23.661  24.066  1.00  0.00    -0.220 N 
ATOM     93  C   UNL A   1      33.887  24.338  24.721  1.00  0.00     0.141 A 
ATOM     94  N   UNL A   1      34.479  23.305  22.841  1.00  0.00    -0.062 NA
ATOM     95  C   UNL A   1      32.803  24.292  23.882  1.00  0.00     0.093 A 
ATOM     96  N   UNL A   1      33.242  23.762  22.684  1.00  0.00    -0.134 NA
BRANCH  95  97
ATOM     97  C   UNL A   1      31.336  24.357  24.102  1.00  0.00     0.138 C 
BRANCH  97  98
ATOM     98  S   UNL A   1      30.410  25.543  25.055  1.00  0.00    -0.081 SA
BRANCH  98  99
ATOM     99  C   UNL A   1      30.271  27.130  24.363  1.00  0.00     0.176 A 
ATOM    100  N   UNL A   1      29.107  27.298  23.805  1.00  0.00    -0.223 NA
ATOM    101  N   UNL A   1      31.222  28.140  24.375  1.00  0.00    -0.255 N 
ATOM    102  C   UNL A   1      28.866  28.471  23.088  1.00  0.00     0.079 A 
ATOM    103  C   UNL A   1      31.238  28.904  23.197  1.00  0.00     0.266 A 
ATOM    104  C   UNL A   1      27.572  28.847  22.730  1.00  0.00     0.029 A 
ATOM    105  C   UNL A   1      29.930  29.219  22.614  1.00  0.00     0.066 A 
ATOM    106  O   UNL A   1      32.241  29.290  22.598  1.00  0.00    -0.268 OA
ATOM    107  C   UNL A   1      27.368  29.917  21.850  1.00  0.00     0.002 A 
ATOM    108  C   UNL A   1      29.753  30.250  21.689  1.00  0.00     0.016 A 
ATOM    109  C   UNL A   1      28.460  30.592  21.299  1.00  0.00     0.001 A 
BRANCH 101 110
ATOM    110  C   UNL A   1      32.237  28.406  25.384  1.00  0.00     0.051 A 
ATOM    111  C   UNL A   1      32.513  29.737  25.770  1.00  0.00     0.028 A 
ATOM    112  C   UNL A   1      33.002  27.422  26.017  1.00  0.00     0.028 A 
ATOM    113  C   UNL A   1      33.632  30.078  26.537  1.00  0.00     0.022 A 
ATOM    114  C   UNL A   1      34.156  27.753  26.747  1.00  0.00     0.022 A 
ATOM    115  C   UNL A   1      34.489  29.081  26.968  1.00  0.00     0.041 A 
ATOM    116  Cl  UNL A   1      35.945  29.489  27.780  1.00  0.00    -0.084 Cl
ENDBRANCH 101 110
ENDBRANCH  98  99
ENDBRANCH  97  98
ENDBRANCH  95  97
ENDBRANCH  91  92
ENDBRANCH  84  86
ENDBRANCH  83  84
ENDBRANCH  82  83
ENDBRANCH  81  82
ENDBRANCH  80  81
ENDBRANCH  79  80
ENDBRANCH   1  79
TORSDOF 28
ENDMDL
