MODEL 1
REMARK VINA RESULT:      -9.9      0.000      0.000
REMARK SMILES C[C@H]1OCC[C@H]1c1nnnn1CCC(=O)OCCOCCOCCOCCOC(=O)c1ccc(-c2c3nc(c(-c4c(F)cc(S(=O)(=O)[O-])cc4F)c4ccc([nH]4)c(-c4c(F)cc(S(=O)(=O)[O-])cc4F)c4nc(c(-c5c(F)cc(S(=O)(=O)[O-])cc5F)c5ccc2[nH]5)C=C4)C=C3)cc1
REMARK SMILES IDX 22 1 21 2 20 3 19 4 18 5 17 6 16 7 14 8 15 9 13 10 12 11
REMARK SMILES IDX 11 12 7 13 8 14 9 15 10 16 6 17 1 18 2 19 3 20 4 21 5 22
REMARK SMILES IDX 23 23 24 24 25 25 26 26 27 27 28 28 29 29 30 30 31 31 32 32
REMARK SMILES IDX 96 33 33 34 95 35 34 36 35 37 36 38 89 39 37 40 94 41 88 42
REMARK SMILES IDX 90 43 38 44 93 45 87 46 86 47 39 49 73 50 52 51 72 52 53 53
REMARK SMILES IDX 56 54 71 55 91 56 54 57 55 58 70 60 92 61 57 62 40 63 41 64
REMARK SMILES IDX 50 65 42 66 43 67 49 68 51 69 44 70 45 71 46 72 47 73 48 74
REMARK SMILES IDX 74 75 75 76 84 77 76 78 77 79 83 80 85 81 78 82 79 83 80 84
REMARK SMILES IDX 81 85 82 86 58 87 59 88 68 89 60 90 61 91 67 92 69 93 62 94
REMARK SMILES IDX 63 95 64 96 65 97 66 98
REMARK H PARENT 90 48 56 59
REMARK Flexibility Score: inf
ROOT
ATOM      1  O   UNL A   1      39.304  22.743  26.475  1.00  0.00    -0.377 OA
ENDROOT
BRANCH   1   2
ATOM      2  C   UNL A   1      38.070  22.526  25.823  1.00  0.00     0.188 C 
BRANCH   2   3
ATOM      3  C   UNL A   1      37.031  23.644  26.032  1.00  0.00     0.188 C 
BRANCH   3   4
ATOM      4  O   UNL A   1      35.652  23.322  26.192  1.00  0.00    -0.376 OA
BRANCH   4   5
ATOM      5  C   UNL A   1      35.252  21.958  26.114  1.00  0.00     0.202 C 
BRANCH   5   6
ATOM      6  C   UNL A   1      33.764  21.644  25.929  1.00  0.00     0.261 C 
BRANCH   6   7
ATOM      7  O   UNL A   1      33.474  20.671  24.906  1.00  0.00    -0.463 OA
BRANCH   7   8
ATOM      8  C   UNL A   1      32.862  21.140  23.801  1.00  0.00     0.307 C 
ATOM      9  O   UNL A   1      32.137  20.473  23.067  1.00  0.00    -0.252 OA
BRANCH   8  10
ATOM     10  C   UNL A   1      33.125  22.595  23.485  1.00  0.00     0.146 C 
BRANCH  10  11
ATOM     11  C   UNL A   1      32.021  23.469  22.913  1.00  0.00     0.160 C 
BRANCH  11  12
ATOM     12  N   UNL A   1      32.375  24.788  22.452  1.00  0.00    -0.229 N 
ATOM     13  C   UNL A   1      32.121  26.013  23.027  1.00  0.00     0.157 A 
ATOM     14  N   UNL A   1      32.806  26.914  22.350  1.00  0.00    -0.113 NA
ATOM     15  N   UNL A   1      33.450  26.244  21.346  1.00  0.00    -0.024 NA
ATOM     16  N   UNL A   1      33.169  24.952  21.386  1.00  0.00    -0.045 NA
BRANCH  13  17
ATOM     17  C   UNL A   1      31.154  26.274  24.140  1.00  0.00     0.090 C 
ATOM     18  C   UNL A   1      33.129  25.828  25.817  1.00  0.00     0.039 C 
ATOM     19  C   UNL A   1      31.742  26.389  25.557  1.00  0.00     0.126 C 
ATOM     20  O   UNL A   1      31.747  27.781  25.928  1.00  0.00    -0.378 OA
ATOM     21  C   UNL A   1      31.323  28.551  24.801  1.00  0.00     0.161 C 
ATOM     22  C   UNL A   1      30.460  27.622  23.977  1.00  0.00     0.043 C 
ENDBRANCH  13  17
ENDBRANCH  11  12
ENDBRANCH  10  11
ENDBRANCH   8  10
ENDBRANCH   7   8
ENDBRANCH   6   7
ENDBRANCH   5   6
ENDBRANCH   4   5
ENDBRANCH   3   4
ENDBRANCH   2   3
ENDBRANCH   1   2
BRANCH   1  23
ATOM     23  C   UNL A   1      40.100  21.570  26.649  1.00  0.00     0.188 C 
BRANCH  23  24
ATOM     24  C   UNL A   1      41.162  21.612  27.773  1.00  0.00     0.188 C 
BRANCH  24  25
ATOM     25  O   UNL A   1      42.269  20.725  27.578  1.00  0.00    -0.376 OA
BRANCH  25  26
ATOM     26  C   UNL A   1      41.976  19.408  27.124  1.00  0.00     0.202 C 
BRANCH  26  27
ATOM     27  C   UNL A   1      42.795  18.961  25.909  1.00  0.00     0.261 C 
BRANCH  27  28
ATOM     28  O   UNL A   1      43.193  20.013  25.034  1.00  0.00    -0.460 OA
BRANCH  28  29
ATOM     29  C   UNL A   1      44.522  20.221  24.932  1.00  0.00     0.338 C 
ATOM     30  O   UNL A   1      45.391  19.370  24.881  1.00  0.00    -0.246 OA
BRANCH  29  31
ATOM     31  C   UNL A   1      44.801  21.663  24.963  1.00  0.00     0.060 A 
ATOM     32  C   UNL A   1      45.758  22.075  25.891  1.00  0.00     0.016 A 
ATOM     33  C   UNL A   1      43.979  22.579  24.290  1.00  0.00     0.016 A 
ATOM     34  C   UNL A   1      45.727  23.379  26.323  1.00  0.00     0.010 A 
ATOM     35  C   UNL A   1      43.954  23.890  24.720  1.00  0.00     0.010 A 
ATOM     36  C   UNL A   1      44.754  24.240  25.804  1.00  0.00    -0.014 A 
BRANCH  36  37
ATOM     37  C   UNL A   1      44.547  25.477  26.530  1.00  0.00     0.031 A 
ATOM     38  C   UNL A   1      45.639  26.455  26.426  1.00  0.00     0.074 A 
ATOM     39  C   UNL A   1      43.435  25.691  27.260  1.00  0.00     0.049 A 
ATOM     40  N   UNL A   1      46.444  26.842  27.357  1.00  0.00    -0.248 NA
ATOM     41  C   UNL A   1      45.932  26.996  25.093  1.00  0.00     0.031 C 
ATOM     42  C   UNL A   1      42.185  24.926  27.195  1.00  0.00     0.029 A 
ATOM     43  N   UNL A   1      43.151  26.690  28.146  1.00  0.00    -0.354 N 
ATOM     44  C   UNL A   1      47.193  27.859  26.783  1.00  0.00     0.074 A 
ATOM     45  C   UNL A   1      46.963  27.798  25.361  1.00  0.00     0.031 C 
ATOM     46  C   UNL A   1      41.217  25.607  27.843  1.00  0.00     0.029 A 
ATOM     47  C   UNL A   1      41.809  26.771  28.483  1.00  0.00     0.049 A 
ATOM     48  H   UNL A   1      43.835  27.296  28.511  1.00  0.00     0.167 HD
ATOM     49  C   UNL A   1      47.713  28.859  27.540  1.00  0.00     0.037 A 
ATOM     50  C   UNL A   1      41.200  27.749  29.192  1.00  0.00     0.037 A 
ATOM     51  C   UNL A   1      47.725  28.546  28.943  1.00  0.00     0.049 A 
ATOM     52  C   UNL A   1      42.210  28.435  30.031  1.00  0.00     0.074 A 
ATOM     53  C   UNL A   1      48.537  27.847  29.806  1.00  0.00     0.029 A 
ATOM     54  N   UNL A   1      46.548  28.790  29.596  1.00  0.00    -0.354 N 
ATOM     55  N   UNL A   1      42.846  27.865  31.019  1.00  0.00    -0.248 NA
ATOM     56  C   UNL A   1      42.755  29.721  29.603  1.00  0.00     0.031 C 
ATOM     57  C   UNL A   1      47.756  27.569  30.967  1.00  0.00     0.029 A 
ATOM     58  C   UNL A   1      46.483  28.099  30.780  1.00  0.00     0.049 A 
ATOM     59  H   UNL A   1      45.838  29.385  29.261  1.00  0.00     0.167 HD
ATOM     60  C   UNL A   1      44.068  28.505  31.061  1.00  0.00     0.074 A 
ATOM     61  C   UNL A   1      43.896  29.731  30.297  1.00  0.00     0.031 C 
ATOM     62  C   UNL A   1      45.204  27.841  31.410  1.00  0.00     0.037 A 
BRANCH  49  63
ATOM     63  C   UNL A   1      47.795  30.282  27.061  1.00  0.00     0.058 A 
ATOM     64  C   UNL A   1      49.017  30.975  27.133  1.00  0.00     0.135 A 
ATOM     65  C   UNL A   1      46.648  31.071  26.811  1.00  0.00     0.135 A 
ATOM     66  F   UNL A   1      50.158  30.317  27.394  1.00  0.00    -0.206 F 
ATOM     67  C   UNL A   1      49.089  32.362  27.006  1.00  0.00     0.059 A 
ATOM     68  C   UNL A   1      46.704  32.445  26.624  1.00  0.00     0.059 A 
ATOM     69  F   UNL A   1      45.412  30.553  26.842  1.00  0.00    -0.206 F 
ATOM     70  C   UNL A   1      47.924  33.088  26.765  1.00  0.00     0.060 A 
BRANCH  70  71
ATOM     71  S   UNL A   1      47.989  34.887  26.704  1.00  0.00     0.124 S 
ATOM     72  O   UNL A   1      49.347  35.142  27.168  1.00  0.00    -0.237 OA
ATOM     73  O   UNL A   1      47.732  35.158  25.293  1.00  0.00    -0.237 OA
ATOM     74  O   UNL A   1      46.921  35.289  27.615  1.00  0.00    -0.744 OA
ENDBRANCH  70  71
ENDBRANCH  49  63
BRANCH  50  75
ATOM     75  C   UNL A   1      39.823  28.265  29.003  1.00  0.00     0.058 A 
ATOM     76  C   UNL A   1      38.887  28.251  30.049  1.00  0.00     0.135 A 
ATOM     77  C   UNL A   1      39.477  29.018  27.861  1.00  0.00     0.135 A 
ATOM     78  F   UNL A   1      39.151  27.583  31.182  1.00  0.00    -0.206 F 
ATOM     79  C   UNL A   1      37.693  28.974  29.984  1.00  0.00     0.059 A 
ATOM     80  C   UNL A   1      38.286  29.731  27.767  1.00  0.00     0.059 A 
ATOM     81  F   UNL A   1      40.331  29.155  26.835  1.00  0.00    -0.206 F 
ATOM     82  C   UNL A   1      37.411  29.726  28.844  1.00  0.00     0.060 A 
BRANCH  82  83
ATOM     83  S   UNL A   1      35.953  30.792  28.826  1.00  0.00     0.124 S 
ATOM     84  O   UNL A   1      36.432  31.943  28.069  1.00  0.00    -0.237 OA
ATOM     85  O   UNL A   1      34.967  29.951  28.154  1.00  0.00    -0.237 OA
ATOM     86  O   UNL A   1      35.695  31.039  30.243  1.00  0.00    -0.744 OA
ENDBRANCH  82  83
ENDBRANCH  50  75
BRANCH  62  87
ATOM     87  C   UNL A   1      45.073  26.675  32.341  1.00  0.00     0.058 A 
ATOM     88  C   UNL A   1      44.900  25.345  31.927  1.00  0.00     0.135 A 
ATOM     89  C   UNL A   1      45.184  26.915  33.719  1.00  0.00     0.135 A 
ATOM     90  F   UNL A   1      44.862  25.030  30.624  1.00  0.00    -0.206 F 
ATOM     91  C   UNL A   1      44.806  24.302  32.851  1.00  0.00     0.059 A 
ATOM     92  C   UNL A   1      45.120  25.888  34.655  1.00  0.00     0.059 A 
ATOM     93  F   UNL A   1      45.394  28.163  34.171  1.00  0.00    -0.206 F 
ATOM     94  C   UNL A   1      44.915  24.583  34.214  1.00  0.00     0.060 A 
BRANCH  94  95
ATOM     95  S   UNL A   1      44.865  23.226  35.405  1.00  0.00     0.124 S 
ATOM     96  O   UNL A   1      43.897  22.319  34.797  1.00  0.00    -0.237 OA
ATOM     97  O   UNL A   1      46.249  22.760  35.418  1.00  0.00    -0.237 OA
ATOM     98  O   UNL A   1      44.424  23.873  36.640  1.00  0.00    -0.744 OA
ENDBRANCH  94  95
ENDBRANCH  62  87
ENDBRANCH  36  37
ENDBRANCH  29  31
ENDBRANCH  28  29
ENDBRANCH  27  28
ENDBRANCH  26  27
ENDBRANCH  25  26
ENDBRANCH  24  25
ENDBRANCH  23  24
ENDBRANCH   1  23
TORSDOF 26
ENDMDL
MODEL 2
REMARK VINA RESULT:      -9.6      3.049      4.290
REMARK SMILES C[C@H]1OCC[C@H]1c1nnnn1CCC(=O)OCCOCCOCCOCCOC(=O)c1ccc(-c2c3nc(c(-c4c(F)cc(S(=O)(=O)[O-])cc4F)c4ccc([nH]4)c(-c4c(F)cc(S(=O)(=O)[O-])cc4F)c4nc(c(-c5c(F)cc(S(=O)(=O)[O-])cc5F)c5ccc2[nH]5)C=C4)C=C3)cc1
REMARK SMILES IDX 22 1 21 2 20 3 19 4 18 5 17 6 16 7 14 8 15 9 13 10 12 11
REMARK SMILES IDX 11 12 7 13 8 14 9 15 10 16 6 17 1 18 2 19 3 20 4 21 5 22
REMARK SMILES IDX 23 23 24 24 25 25 26 26 27 27 28 28 29 29 30 30 31 31 32 32
REMARK SMILES IDX 96 33 33 34 95 35 34 36 35 37 36 38 89 39 37 40 94 41 88 42
REMARK SMILES IDX 90 43 38 44 93 45 87 46 86 47 39 49 73 50 52 51 72 52 53 53
REMARK SMILES IDX 56 54 71 55 91 56 54 57 55 58 70 60 92 61 57 62 40 63 41 64
REMARK SMILES IDX 50 65 42 66 43 67 49 68 51 69 44 70 45 71 46 72 47 73 48 74
REMARK SMILES IDX 74 75 75 76 84 77 76 78 77 79 83 80 85 81 78 82 79 83 80 84
REMARK SMILES IDX 81 85 82 86 58 87 59 88 68 89 60 90 61 91 67 92 69 93 62 94
REMARK SMILES IDX 63 95 64 96 65 97 66 98
REMARK H PARENT 90 48 56 59
REMARK Flexibility Score: inf
ROOT
ATOM      1  O   UNL A   1      37.396  23.535  25.681  1.00  0.00    -0.377 OA
ENDROOT
BRANCH   1   2
ATOM      2  C   UNL A   1      36.461  22.609  26.195  1.00  0.00     0.188 C 
BRANCH   2   3
ATOM      3  C   UNL A   1      34.996  22.906  25.824  1.00  0.00     0.188 C 
BRANCH   3   4
ATOM      4  O   UNL A   1      33.955  22.032  26.252  1.00  0.00    -0.376 OA
BRANCH   4   5
ATOM      5  C   UNL A   1      33.169  21.368  25.268  1.00  0.00     0.202 C 
BRANCH   5   6
ATOM      6  C   UNL A   1      31.970  22.110  24.669  1.00  0.00     0.261 C 
BRANCH   6   7
ATOM      7  O   UNL A   1      30.933  22.443  25.612  1.00  0.00    -0.463 OA
BRANCH   7   8
ATOM      8  C   UNL A   1      30.903  23.725  26.029  1.00  0.00     0.307 C 
ATOM      9  O   UNL A   1      30.996  24.081  27.202  1.00  0.00    -0.252 OA
BRANCH   8  10
ATOM     10  C   UNL A   1      30.736  24.756  24.937  1.00  0.00     0.146 C 
BRANCH  10  11
ATOM     11  C   UNL A   1      29.966  26.039  25.202  1.00  0.00     0.160 C 
BRANCH  11  12
ATOM     12  N   UNL A   1      30.423  27.245  24.557  1.00  0.00    -0.229 N 
ATOM     13  C   UNL A   1      31.296  28.206  25.017  1.00  0.00     0.157 A 
ATOM     14  N   UNL A   1      31.560  29.012  24.006  1.00  0.00    -0.113 NA
ATOM     15  N   UNL A   1      30.825  28.562  22.944  1.00  0.00    -0.024 NA
ATOM     16  N   UNL A   1      30.109  27.502  23.281  1.00  0.00    -0.045 NA
BRANCH  13  17
ATOM     17  C   UNL A   1      31.760  28.362  26.432  1.00  0.00     0.090 C 
ATOM     18  C   UNL A   1      33.722  26.710  25.859  1.00  0.00     0.039 C 
ATOM     19  C   UNL A   1      33.130  27.760  26.783  1.00  0.00     0.126 C 
ATOM     20  O   UNL A   1      34.078  28.838  26.899  1.00  0.00    -0.378 OA
ATOM     21  C   UNL A   1      33.428  30.054  26.523  1.00  0.00     0.161 C 
ATOM     22  C   UNL A   1      31.958  29.829  26.799  1.00  0.00     0.043 C 
ENDBRANCH  13  17
ENDBRANCH  11  12
ENDBRANCH  10  11
ENDBRANCH   8  10
ENDBRANCH   7   8
ENDBRANCH   6   7
ENDBRANCH   5   6
ENDBRANCH   4   5
ENDBRANCH   3   4
ENDBRANCH   2   3
ENDBRANCH   1   2
BRANCH   1  23
ATOM     23  C   UNL A   1      38.731  23.360  26.157  1.00  0.00     0.188 C 
BRANCH  23  24
ATOM     24  C   UNL A   1      39.301  21.922  26.109  1.00  0.00     0.188 C 
BRANCH  24  25
ATOM     25  O   UNL A   1      39.973  21.510  27.305  1.00  0.00    -0.376 OA
BRANCH  25  26
ATOM     26  C   UNL A   1      41.286  20.976  27.162  1.00  0.00     0.202 C 
BRANCH  26  27
ATOM     27  C   UNL A   1      42.097  21.592  26.018  1.00  0.00     0.261 C 
BRANCH  27  28
ATOM     28  O   UNL A   1      42.936  22.681  26.396  1.00  0.00    -0.460 OA
BRANCH  28  29
ATOM     29  C   UNL A   1      42.797  23.808  25.668  1.00  0.00     0.338 C 
ATOM     30  O   UNL A   1      43.298  24.041  24.583  1.00  0.00    -0.246 OA
BRANCH  29  31
ATOM     31  C   UNL A   1      41.989  24.783  26.413  1.00  0.00     0.060 A 
ATOM     32  C   UNL A   1      41.579  25.906  25.694  1.00  0.00     0.016 A 
ATOM     33  C   UNL A   1      41.862  24.709  27.808  1.00  0.00     0.016 A 
ATOM     34  C   UNL A   1      41.267  27.048  26.392  1.00  0.00     0.010 A 
ATOM     35  C   UNL A   1      41.541  25.854  28.508  1.00  0.00     0.010 A 
ATOM     36  C   UNL A   1      41.356  27.032  27.788  1.00  0.00    -0.014 A 
BRANCH  36  37
ATOM     37  C   UNL A   1      41.354  28.325  28.442  1.00  0.00     0.031 A 
ATOM     38  C   UNL A   1      42.541  29.155  28.192  1.00  0.00     0.074 A 
ATOM     39  C   UNL A   1      40.339  28.715  29.237  1.00  0.00     0.049 A 
ATOM     40  N   UNL A   1      43.460  29.494  29.032  1.00  0.00    -0.248 NA
ATOM     41  C   UNL A   1      42.786  29.578  26.807  1.00  0.00     0.031 C 
ATOM     42  C   UNL A   1      39.006  28.106  29.316  1.00  0.00     0.029 A 
ATOM     43  N   UNL A   1      40.247  29.792  30.071  1.00  0.00    -0.354 N 
ATOM     44  C   UNL A   1      44.272  30.377  28.337  1.00  0.00     0.074 A 
ATOM     45  C   UNL A   1      43.922  30.262  26.943  1.00  0.00     0.031 C 
ATOM     46  C   UNL A   1      38.181  28.936  29.987  1.00  0.00     0.029 A 
ATOM     47  C   UNL A   1      38.956  30.055  30.501  1.00  0.00     0.049 A 
ATOM     48  H   UNL A   1      41.025  30.330  30.343  1.00  0.00     0.167 HD
ATOM     49  C   UNL A   1      44.966  31.348  28.983  1.00  0.00     0.037 A 
ATOM     50  C   UNL A   1      38.525  31.139  31.185  1.00  0.00     0.037 A 
ATOM     51  C   UNL A   1      45.057  31.119  30.400  1.00  0.00     0.049 A 
ATOM     52  C   UNL A   1      39.674  31.745  31.899  1.00  0.00     0.074 A 
ATOM     53  C   UNL A   1      45.848  30.377  31.245  1.00  0.00     0.029 A 
ATOM     54  N   UNL A   1      43.973  31.543  31.120  1.00  0.00    -0.354 N 
ATOM     55  N   UNL A   1      40.317  31.160  32.873  1.00  0.00    -0.248 NA
ATOM     56  C   UNL A   1      40.329  32.928  31.345  1.00  0.00     0.031 C 
ATOM     57  C   UNL A   1      45.138  30.265  32.478  1.00  0.00     0.029 A 
ATOM     58  C   UNL A   1      43.924  30.935  32.350  1.00  0.00     0.049 A 
ATOM     59  H   UNL A   1      43.313  32.199  30.799  1.00  0.00     0.167 HD
ATOM     60  C   UNL A   1      41.605  31.648  32.781  1.00  0.00     0.074 A 
ATOM     61  C   UNL A   1      41.516  32.839  31.951  1.00  0.00     0.031 C 
ATOM     62  C   UNL A   1      42.680  30.872  33.089  1.00  0.00     0.037 A 
BRANCH  49  63
ATOM     63  C   UNL A   1      45.175  32.721  28.404  1.00  0.00     0.058 A 
ATOM     64  C   UNL A   1      46.479  33.184  28.155  1.00  0.00     0.135 A 
ATOM     65  C   UNL A   1      44.152  33.697  28.366  1.00  0.00     0.135 A 
ATOM     66  F   UNL A   1      47.521  32.338  28.198  1.00  0.00    -0.206 F 
ATOM     67  C   UNL A   1      46.754  34.531  27.923  1.00  0.00     0.059 A 
ATOM     68  C   UNL A   1      44.395  35.032  28.079  1.00  0.00     0.059 A 
ATOM     69  F   UNL A   1      42.888  33.411  28.707  1.00  0.00    -0.206 F 
ATOM     70  C   UNL A   1      45.705  35.449  27.902  1.00  0.00     0.060 A 
BRANCH  70  71
ATOM     71  S   UNL A   1      46.058  37.204  27.708  1.00  0.00     0.124 S 
ATOM     72  O   UNL A   1      44.863  37.663  27.009  1.00  0.00    -0.237 OA
ATOM     73  O   UNL A   1      46.200  37.646  29.092  1.00  0.00    -0.237 OA
ATOM     74  O   UNL A   1      47.291  37.212  26.927  1.00  0.00    -0.744 OA
ENDBRANCH  70  71
ENDBRANCH  49  63
BRANCH  50  75
ATOM     75  C   UNL A   1      37.207  31.807  31.064  1.00  0.00     0.058 A 
ATOM     76  C   UNL A   1      36.342  31.922  32.163  1.00  0.00     0.135 A 
ATOM     77  C   UNL A   1      36.880  32.574  29.926  1.00  0.00     0.135 A 
ATOM     78  F   UNL A   1      36.596  31.249  33.296  1.00  0.00    -0.206 F 
ATOM     79  C   UNL A   1      35.237  32.776  32.150  1.00  0.00     0.059 A 
ATOM     80  C   UNL A   1      35.774  33.417  29.883  1.00  0.00     0.059 A 
ATOM     81  F   UNL A   1      37.679  32.591  28.847  1.00  0.00    -0.206 F 
ATOM     82  C   UNL A   1      34.972  33.534  31.010  1.00  0.00     0.060 A 
BRANCH  82  83
ATOM     83  S   UNL A   1      33.648  34.761  31.050  1.00  0.00     0.124 S 
ATOM     84  O   UNL A   1      32.979  34.440  32.307  1.00  0.00    -0.237 OA
ATOM     85  O   UNL A   1      34.393  36.016  31.027  1.00  0.00    -0.237 OA
ATOM     86  O   UNL A   1      32.880  34.473  29.842  1.00  0.00    -0.744 OA
ENDBRANCH  82  83
ENDBRANCH  50  75
BRANCH  62  87
ATOM     87  C   UNL A   1      42.490  29.786  34.103  1.00  0.00     0.058 A 
ATOM     88  C   UNL A   1      42.528  29.983  35.493  1.00  0.00     0.135 A 
ATOM     89  C   UNL A   1      42.199  28.493  33.640  1.00  0.00     0.135 A 
ATOM     90  F   UNL A   1      42.725  31.204  36.009  1.00  0.00    -0.206 F 
ATOM     91  C   UNL A   1      42.320  28.927  36.383  1.00  0.00     0.059 A 
ATOM     92  C   UNL A   1      41.963  27.433  34.509  1.00  0.00     0.059 A 
ATOM     93  F   UNL A   1      42.106  28.256  32.321  1.00  0.00    -0.206 F 
ATOM     94  C   UNL A   1      42.040  27.654  35.882  1.00  0.00     0.060 A 
BRANCH  94  95
ATOM     95  S   UNL A   1      41.701  26.304  37.032  1.00  0.00     0.124 S 
ATOM     96  O   UNL A   1      42.857  26.360  37.921  1.00  0.00    -0.237 OA
ATOM     97  O   UNL A   1      40.427  26.700  37.625  1.00  0.00    -0.237 OA
ATOM     98  O   UNL A   1      41.635  25.128  36.167  1.00  0.00    -0.744 OA
ENDBRANCH  94  95
ENDBRANCH  62  87
ENDBRANCH  36  37
ENDBRANCH  29  31
ENDBRANCH  28  29
ENDBRANCH  27  28
ENDBRANCH  26  27
ENDBRANCH  25  26
ENDBRANCH  24  25
ENDBRANCH  23  24
ENDBRANCH   1  23
TORSDOF 26
ENDMDL
MODEL 3
REMARK VINA RESULT:      -9.3      1.990      2.571
REMARK SMILES C[C@H]1OCC[C@H]1c1nnnn1CCC(=O)OCCOCCOCCOCCOC(=O)c1ccc(-c2c3nc(c(-c4c(F)cc(S(=O)(=O)[O-])cc4F)c4ccc([nH]4)c(-c4c(F)cc(S(=O)(=O)[O-])cc4F)c4nc(c(-c5c(F)cc(S(=O)(=O)[O-])cc5F)c5ccc2[nH]5)C=C4)C=C3)cc1
REMARK SMILES IDX 22 1 21 2 20 3 19 4 18 5 17 6 16 7 14 8 15 9 13 10 12 11
REMARK SMILES IDX 11 12 7 13 8 14 9 15 10 16 6 17 1 18 2 19 3 20 4 21 5 22
REMARK SMILES IDX 23 23 24 24 25 25 26 26 27 27 28 28 29 29 30 30 31 31 32 32
REMARK SMILES IDX 96 33 33 34 95 35 34 36 35 37 36 38 89 39 37 40 94 41 88 42
REMARK SMILES IDX 90 43 38 44 93 45 87 46 86 47 39 49 73 50 52 51 72 52 53 53
REMARK SMILES IDX 56 54 71 55 91 56 54 57 55 58 70 60 92 61 57 62 40 63 41 64
REMARK SMILES IDX 50 65 42 66 43 67 49 68 51 69 44 70 45 71 46 72 47 73 48 74
REMARK SMILES IDX 74 75 75 76 84 77 76 78 77 79 83 80 85 81 78 82 79 83 80 84
REMARK SMILES IDX 81 85 82 86 58 87 59 88 68 89 60 90 61 91 67 92 69 93 62 94
REMARK SMILES IDX 63 95 64 96 65 97 66 98
REMARK H PARENT 90 48 56 59
REMARK Flexibility Score: inf
ROOT
ATOM      1  O   UNL A   1      38.475  22.435  25.772  1.00  0.00    -0.377 OA
ENDROOT
BRANCH   1   2
ATOM      2  C   UNL A   1      37.606  21.410  25.334  1.00  0.00     0.188 C 
BRANCH   2   3
ATOM      3  C   UNL A   1      36.109  21.709  25.543  1.00  0.00     0.188 C 
BRANCH   3   4
ATOM      4  O   UNL A   1      35.186  20.643  25.746  1.00  0.00    -0.376 OA
BRANCH   4   5
ATOM      5  C   UNL A   1      34.229  20.360  24.730  1.00  0.00     0.202 C 
BRANCH   5   6
ATOM      6  C   UNL A   1      33.146  21.403  24.435  1.00  0.00     0.261 C 
BRANCH   6   7
ATOM      7  O   UNL A   1      32.008  21.356  25.317  1.00  0.00    -0.463 OA
BRANCH   7   8
ATOM      8  C   UNL A   1      31.883  22.387  26.177  1.00  0.00     0.307 C 
ATOM      9  O   UNL A   1      32.635  22.601  27.125  1.00  0.00    -0.252 OA
BRANCH   8  10
ATOM     10  C   UNL A   1      30.716  23.310  25.914  1.00  0.00     0.146 C 
BRANCH  10  11
ATOM     11  C   UNL A   1      30.865  24.488  24.965  1.00  0.00     0.160 C 
BRANCH  11  12
ATOM     12  N   UNL A   1      31.202  25.770  25.529  1.00  0.00    -0.229 N 
ATOM     13  C   UNL A   1      31.445  26.969  24.895  1.00  0.00     0.157 A 
ATOM     14  N   UNL A   1      31.515  27.899  25.827  1.00  0.00    -0.113 NA
ATOM     15  N   UNL A   1      31.348  27.264  27.028  1.00  0.00    -0.024 NA
ATOM     16  N   UNL A   1      31.185  25.963  26.854  1.00  0.00    -0.045 NA
BRANCH  13  17
ATOM     17  C   UNL A   1      31.695  27.148  23.430  1.00  0.00     0.090 C 
ATOM     18  C   UNL A   1      30.393  29.426  23.594  1.00  0.00     0.039 C 
ATOM     19  C   UNL A   1      31.339  28.517  22.827  1.00  0.00     0.126 C 
ATOM     20  O   UNL A   1      32.563  29.239  22.599  1.00  0.00    -0.378 OA
ATOM     21  C   UNL A   1      33.647  28.473  23.129  1.00  0.00     0.161 C 
ATOM     22  C   UNL A   1      33.179  27.035  23.096  1.00  0.00     0.043 C 
ENDBRANCH  13  17
ENDBRANCH  11  12
ENDBRANCH  10  11
ENDBRANCH   8  10
ENDBRANCH   7   8
ENDBRANCH   6   7
ENDBRANCH   5   6
ENDBRANCH   4   5
ENDBRANCH   3   4
ENDBRANCH   2   3
ENDBRANCH   1   2
BRANCH   1  23
ATOM     23  C   UNL A   1      39.537  21.993  26.618  1.00  0.00     0.188 C 
BRANCH  23  24
ATOM     24  C   UNL A   1      40.083  20.568  26.359  1.00  0.00     0.188 C 
BRANCH  24  25
ATOM     25  O   UNL A   1      40.915  20.052  27.404  1.00  0.00    -0.376 OA
BRANCH  25  26
ATOM     26  C   UNL A   1      41.946  19.145  27.027  1.00  0.00     0.202 C 
BRANCH  26  27
ATOM     27  C   UNL A   1      42.680  19.524  25.737  1.00  0.00     0.261 C 
BRANCH  27  28
ATOM     28  O   UNL A   1      43.885  20.261  25.927  1.00  0.00    -0.460 OA
BRANCH  28  29
ATOM     29  C   UNL A   1      43.945  21.458  25.308  1.00  0.00     0.338 C 
ATOM     30  O   UNL A   1      44.553  21.721  24.287  1.00  0.00    -0.246 OA
BRANCH  29  31
ATOM     31  C   UNL A   1      43.210  22.458  26.094  1.00  0.00     0.060 A 
ATOM     32  C   UNL A   1      42.552  23.443  25.358  1.00  0.00     0.016 A 
ATOM     33  C   UNL A   1      43.375  22.557  27.484  1.00  0.00     0.016 A 
ATOM     34  C   UNL A   1      42.274  24.639  25.975  1.00  0.00     0.010 A 
ATOM     35  C   UNL A   1      43.089  23.757  28.103  1.00  0.00     0.010 A 
ATOM     36  C   UNL A   1      42.644  24.813  27.312  1.00  0.00    -0.014 A 
BRANCH  36  37
ATOM     37  C   UNL A   1      42.644  26.177  27.802  1.00  0.00     0.031 A 
ATOM     38  C   UNL A   1      43.852  26.954  27.491  1.00  0.00     0.074 A 
ATOM     39  C   UNL A   1      41.611  26.674  28.510  1.00  0.00     0.049 A 
ATOM     40  N   UNL A   1      44.749  27.382  28.313  1.00  0.00    -0.248 NA
ATOM     41  C   UNL A   1      44.146  27.200  26.073  1.00  0.00     0.031 C 
ATOM     42  C   UNL A   1      40.267  26.097  28.620  1.00  0.00     0.029 A 
ATOM     43  N   UNL A   1      41.512  27.847  29.203  1.00  0.00    -0.354 N 
ATOM     44  C   UNL A   1      45.598  28.163  27.541  1.00  0.00     0.074 A 
ATOM     45  C   UNL A   1      45.288  27.882  26.162  1.00  0.00     0.031 C 
ATOM     46  C   UNL A   1      39.436  27.014  29.157  1.00  0.00     0.029 A 
ATOM     47  C   UNL A   1      40.213  28.177  29.555  1.00  0.00     0.049 A 
ATOM     48  H   UNL A   1      42.290  28.404  29.432  1.00  0.00     0.167 HD
ATOM     49  C   UNL A   1      46.288  29.198  28.086  1.00  0.00     0.037 A 
ATOM     50  C   UNL A   1      39.779  29.343  30.086  1.00  0.00     0.037 A 
ATOM     51  C   UNL A   1      46.330  29.143  29.522  1.00  0.00     0.049 A 
ATOM     52  C   UNL A   1      40.915  30.017  30.758  1.00  0.00     0.074 A 
ATOM     53  C   UNL A   1      47.083  28.501  30.478  1.00  0.00     0.029 A 
ATOM     54  N   UNL A   1      45.232  29.666  30.150  1.00  0.00    -0.354 N 
ATOM     55  N   UNL A   1      41.518  29.548  31.817  1.00  0.00    -0.248 NA
ATOM     56  C   UNL A   1      41.607  31.114  30.085  1.00  0.00     0.031 C 
ATOM     57  C   UNL A   1      46.334  28.550  31.691  1.00  0.00     0.029 A 
ATOM     58  C   UNL A   1      45.136  29.214  31.443  1.00  0.00     0.049 A 
ATOM     59  H   UNL A   1      44.594  30.286  29.730  1.00  0.00     0.167 HD
ATOM     60  C   UNL A   1      42.817  30.005  31.707  1.00  0.00     0.074 A 
ATOM     61  C   UNL A   1      42.773  31.086  30.735  1.00  0.00     0.031 C 
ATOM     62  C   UNL A   1      43.869  29.259  32.143  1.00  0.00     0.037 A 
BRANCH  49  63
ATOM     63  C   UNL A   1      46.536  30.486  27.350  1.00  0.00     0.058 A 
ATOM     64  C   UNL A   1      47.846  30.988  27.244  1.00  0.00     0.135 A 
ATOM     65  C   UNL A   1      45.498  31.382  27.007  1.00  0.00     0.135 A 
ATOM     66  F   UNL A   1      48.898  30.222  27.575  1.00  0.00    -0.206 F 
ATOM     67  C   UNL A   1      48.104  32.304  26.861  1.00  0.00     0.059 A 
ATOM     68  C   UNL A   1      45.734  32.677  26.568  1.00  0.00     0.059 A 
ATOM     69  F   UNL A   1      44.206  31.070  27.184  1.00  0.00    -0.206 F 
ATOM     70  C   UNL A   1      47.039  33.144  26.539  1.00  0.00     0.060 A 
BRANCH  70  71
ATOM     71  S   UNL A   1      47.352  34.873  26.146  1.00  0.00     0.124 S 
ATOM     72  O   UNL A   1      48.103  35.304  27.318  1.00  0.00    -0.237 OA
ATOM     73  O   UNL A   1      48.108  34.775  24.900  1.00  0.00    -0.237 OA
ATOM     74  O   UNL A   1      46.010  35.432  26.011  1.00  0.00    -0.744 OA
ENDBRANCH  70  71
ENDBRANCH  49  63
BRANCH  50  75
ATOM     75  C   UNL A   1      38.477  30.008  29.842  1.00  0.00     0.058 A 
ATOM     76  C   UNL A   1      37.780  30.652  30.875  1.00  0.00     0.135 A 
ATOM     77  C   UNL A   1      38.014  30.244  28.531  1.00  0.00     0.135 A 
ATOM     78  F   UNL A   1      38.173  30.505  32.150  1.00  0.00    -0.206 F 
ATOM     79  C   UNL A   1      36.709  31.512  30.623  1.00  0.00     0.059 A 
ATOM     80  C   UNL A   1      36.938  31.082  28.255  1.00  0.00     0.059 A 
ATOM     81  F   UNL A   1      38.652  29.733  27.466  1.00  0.00    -0.206 F 
ATOM     82  C   UNL A   1      36.307  31.734  29.306  1.00  0.00     0.060 A 
BRANCH  82  83
ATOM     83  S   UNL A   1      35.037  32.972  28.965  1.00  0.00     0.124 S 
ATOM     84  O   UNL A   1      35.790  34.216  29.082  1.00  0.00    -0.237 OA
ATOM     85  O   UNL A   1      34.610  32.610  27.617  1.00  0.00    -0.237 OA
ATOM     86  O   UNL A   1      34.046  32.740  30.013  1.00  0.00    -0.744 OA
ENDBRANCH  82  83
ENDBRANCH  50  75
BRANCH  62  87
ATOM     87  C   UNL A   1      43.629  28.309  33.276  1.00  0.00     0.058 A 
ATOM     88  C   UNL A   1      43.457  26.924  33.128  1.00  0.00     0.135 A 
ATOM     89  C   UNL A   1      43.631  28.825  34.581  1.00  0.00     0.135 A 
ATOM     90  F   UNL A   1      43.520  26.349  31.918  1.00  0.00    -0.206 F 
ATOM     91  C   UNL A   1      43.258  26.092  34.232  1.00  0.00     0.059 A 
ATOM     92  C   UNL A   1      43.461  28.012  35.697  1.00  0.00     0.059 A 
ATOM     93  F   UNL A   1      43.835  30.137  34.787  1.00  0.00    -0.206 F 
ATOM     94  C   UNL A   1      43.260  26.646  35.514  1.00  0.00     0.060 A 
BRANCH  94  95
ATOM     95  S   UNL A   1      43.075  25.563  36.948  1.00  0.00     0.124 S 
ATOM     96  O   UNL A   1      44.120  24.570  36.719  1.00  0.00    -0.237 OA
ATOM     97  O   UNL A   1      43.299  26.472  38.068  1.00  0.00    -0.237 OA
ATOM     98  O   UNL A   1      41.706  25.066  36.825  1.00  0.00    -0.744 OA
ENDBRANCH  94  95
ENDBRANCH  62  87
ENDBRANCH  36  37
ENDBRANCH  29  31
ENDBRANCH  28  29
ENDBRANCH  27  28
ENDBRANCH  26  27
ENDBRANCH  25  26
ENDBRANCH  24  25
ENDBRANCH  23  24
ENDBRANCH   1  23
TORSDOF 26
ENDMDL
