MODEL 1
REMARK VINA RESULT:     -10.1      0.000      0.000
REMARK SMILES Cc1cc(Br)cc2c1O[C@H](C(F)(F)F)C(C(=O)OCCOCCOCCOCCOC(=O)c1ccc(-c3c4nc(c(-c5c(F)cc(S(=O)(=O)[O-])cc5F)c5ccc([nH]5)c(-c5c(F)cc(S(=O)(=O)[O-])cc5F)c5nc(c(-c6c(F)cc(S(=O)(=O)[O-])cc6F)c6ccc3[nH]6)C=C5)C=C4)cc1)=C2
REMARK SMILES IDX 25 1 24 2 23 3 22 4 21 5 20 6 19 7 18 8 16 9 17 10 15 11
REMARK SMILES IDX 1 12 2 13 3 14 8 15 4 16 7 17 9 18 5 19 6 20 99 21 10 22
REMARK SMILES IDX 11 23 12 24 13 25 14 26 26 27 27 28 28 29 29 30 30 31 31 32
REMARK SMILES IDX 32 33 33 34 34 35 98 36 35 37 97 38 36 39 37 40 38 41 91 42
REMARK SMILES IDX 39 43 96 44 90 45 92 46 40 47 95 48 89 49 88 50 41 52 75 53
REMARK SMILES IDX 54 54 74 55 55 56 58 57 73 58 93 59 56 60 57 61 72 63 94 64
REMARK SMILES IDX 59 65 42 66 43 67 52 68 44 69 45 70 51 71 53 72 46 73 47 74
REMARK SMILES IDX 48 75 49 76 50 77 76 78 77 79 86 80 78 81 79 82 85 83 87 84
REMARK SMILES IDX 80 85 81 86 82 87 83 88 84 89 60 90 61 91 70 92 62 93 63 94
REMARK SMILES IDX 69 95 71 96 64 97 65 98 66 99 67 100 68 101
REMARK H PARENT 92 51 58 62
REMARK Flexibility Score: inf
ROOT
ATOM      1  C   UNL A   1      34.752  22.864  26.577  1.00  0.00     0.188 C 
ENDROOT
BRANCH   1   2
ATOM      2  O   UNL A   1      33.476  23.490  26.469  1.00  0.00    -0.377 OA
BRANCH   2   3
ATOM      3  C   UNL A   1      32.344  22.698  26.776  1.00  0.00     0.188 C 
BRANCH   3   4
ATOM      4  C   UNL A   1      31.300  22.658  25.644  1.00  0.00     0.188 C 
BRANCH   4   5
ATOM      5  O   UNL A   1      31.687  22.205  24.361  1.00  0.00    -0.376 OA
BRANCH   5   6
ATOM      6  C   UNL A   1      31.939  23.066  23.261  1.00  0.00     0.202 C 
BRANCH   6   7
ATOM      7  C   UNL A   1      33.257  23.800  22.938  1.00  0.00     0.261 C 
BRANCH   7   8
ATOM      8  O   UNL A   1      33.493  25.052  23.571  1.00  0.00    -0.460 OA
BRANCH   8   9
ATOM      9  C   UNL A   1      33.532  26.129  22.767  1.00  0.00     0.338 C 
ATOM     10  O   UNL A   1      33.644  26.140  21.553  1.00  0.00    -0.246 OA
BRANCH   9  11
ATOM     11  C   UNL A   1      33.228  27.316  23.592  1.00  0.00     0.087 C 
ATOM     12  C   UNL A   1      31.025  31.293  25.932  1.00  0.00     0.048 C 
ATOM     13  C   UNL A   1      32.269  30.475  26.138  1.00  0.00    -0.007 A 
ATOM     14  C   UNL A   1      33.076  30.711  27.261  1.00  0.00     0.023 A 
ATOM     15  C   UNL A   1      32.645  29.481  25.221  1.00  0.00     0.130 A 
ATOM     16  C   UNL A   1      34.233  29.960  27.465  1.00  0.00     0.019 A 
ATOM     17  C   UNL A   1      33.775  28.695  25.463  1.00  0.00     0.019 A 
ATOM     18  O   UNL A   1      31.855  29.329  24.116  1.00  0.00    -0.475 OA
ATOM     19  Br  UNL A   1      35.303  30.275  28.990  1.00  0.00    -0.051 Br
ATOM     20  C   UNL A   1      34.588  28.954  26.571  1.00  0.00     0.027 A 
ATOM     21  C   UNL A   1      34.061  27.557  24.611  1.00  0.00     0.027 C 
ATOM     22  C   UNL A   1      32.072  28.206  23.219  1.00  0.00     0.316 C 
BRANCH  22  23
ATOM     23  C   UNL A   1      30.757  27.427  23.104  1.00  0.00     0.430 C 
ATOM     24  F   UNL A   1      30.569  26.963  21.846  1.00  0.00    -0.167 F 
ATOM     25  F   UNL A   1      30.725  26.358  23.929  1.00  0.00    -0.167 F 
ATOM     26  F   UNL A   1      29.692  28.207  23.411  1.00  0.00    -0.167 F 
ENDBRANCH  22  23
ENDBRANCH   9  11
ENDBRANCH   8   9
ENDBRANCH   7   8
ENDBRANCH   6   7
ENDBRANCH   5   6
ENDBRANCH   4   5
ENDBRANCH   3   4
ENDBRANCH   2   3
ENDBRANCH   1   2
BRANCH   1  27
ATOM     27  C   UNL A   1      34.968  21.456  25.977  1.00  0.00     0.188 C 
BRANCH  27  28
ATOM     28  O   UNL A   1      35.321  21.459  24.599  1.00  0.00    -0.376 OA
BRANCH  28  29
ATOM     29  C   UNL A   1      36.643  21.812  24.228  1.00  0.00     0.202 C 
BRANCH  29  30
ATOM     30  C   UNL A   1      37.775  21.285  25.120  1.00  0.00     0.261 C 
BRANCH  30  31
ATOM     31  O   UNL A   1      38.235  22.179  26.142  1.00  0.00    -0.460 OA
BRANCH  31  32
ATOM     32  C   UNL A   1      39.556  22.168  26.418  1.00  0.00     0.338 C 
ATOM     33  O   UNL A   1      40.363  21.305  26.115  1.00  0.00    -0.246 OA
BRANCH  32  34
ATOM     34  C   UNL A   1      39.903  23.481  26.994  1.00  0.00     0.060 A 
ATOM     35  C   UNL A   1      39.196  24.617  26.580  1.00  0.00     0.016 A 
ATOM     36  C   UNL A   1      40.929  23.584  27.937  1.00  0.00     0.016 A 
ATOM     37  C   UNL A   1      39.544  25.872  27.078  1.00  0.00     0.010 A 
ATOM     38  C   UNL A   1      41.292  24.843  28.415  1.00  0.00     0.010 A 
ATOM     39  C   UNL A   1      40.626  25.993  27.958  1.00  0.00    -0.014 A 
BRANCH  39  40
ATOM     40  C   UNL A   1      41.204  27.325  28.249  1.00  0.00     0.031 A 
ATOM     41  C   UNL A   1      42.687  27.505  28.077  1.00  0.00     0.074 A 
ATOM     42  C   UNL A   1      40.434  28.346  28.662  1.00  0.00     0.049 A 
ATOM     43  N   UNL A   1      43.441  28.525  28.388  1.00  0.00    -0.248 NA
ATOM     44  C   UNL A   1      43.417  26.378  27.473  1.00  0.00     0.031 C 
ATOM     45  C   UNL A   1      38.978  28.307  28.799  1.00  0.00     0.029 A 
ATOM     46  N   UNL A   1      40.776  29.614  29.056  1.00  0.00    -0.354 N 
ATOM     47  C   UNL A   1      44.733  28.163  28.022  1.00  0.00     0.074 A 
ATOM     48  C   UNL A   1      44.665  26.819  27.494  1.00  0.00     0.031 C 
ATOM     49  C   UNL A   1      38.553  29.494  29.262  1.00  0.00     0.029 A 
ATOM     50  C   UNL A   1      39.710  30.359  29.498  1.00  0.00     0.049 A 
ATOM     51  H   UNL A   1      41.698  29.958  29.026  1.00  0.00     0.167 HD
ATOM     52  C   UNL A   1      45.870  28.890  28.116  1.00  0.00     0.037 A 
ATOM     53  C   UNL A   1      39.678  31.586  30.055  1.00  0.00     0.037 A 
ATOM     54  C   UNL A   1      45.924  30.224  28.659  1.00  0.00     0.049 A 
ATOM     55  C   UNL A   1      40.971  32.341  30.241  1.00  0.00     0.074 A 
ATOM     56  C   UNL A   1      47.028  31.043  28.819  1.00  0.00     0.029 A 
ATOM     57  N   UNL A   1      44.830  30.932  29.132  1.00  0.00    -0.354 N 
ATOM     58  N   UNL A   1      42.192  31.981  29.922  1.00  0.00    -0.248 NA
ATOM     59  C   UNL A   1      40.881  33.668  30.864  1.00  0.00     0.031 C 
ATOM     60  C   UNL A   1      46.608  32.224  29.437  1.00  0.00     0.029 A 
ATOM     61  C   UNL A   1      45.233  32.171  29.600  1.00  0.00     0.049 A 
ATOM     62  H   UNL A   1      43.901  30.602  29.135  1.00  0.00     0.167 HD
ATOM     63  C   UNL A   1      43.010  33.052  30.268  1.00  0.00     0.074 A 
ATOM     64  C   UNL A   1      42.143  34.075  30.816  1.00  0.00     0.031 C 
ATOM     65  C   UNL A   1      44.354  33.182  30.137  1.00  0.00     0.037 A 
BRANCH  52  66
ATOM     66  C   UNL A   1      47.150  28.256  27.648  1.00  0.00     0.058 A 
ATOM     67  C   UNL A   1      48.019  27.603  28.536  1.00  0.00     0.135 A 
ATOM     68  C   UNL A   1      47.489  28.256  26.285  1.00  0.00     0.135 A 
ATOM     69  F   UNL A   1      47.760  27.593  29.853  1.00  0.00    -0.206 F 
ATOM     70  C   UNL A   1      49.184  26.983  28.092  1.00  0.00     0.059 A 
ATOM     71  C   UNL A   1      48.632  27.617  25.814  1.00  0.00     0.059 A 
ATOM     72  F   UNL A   1      46.699  28.874  25.392  1.00  0.00    -0.206 F 
ATOM     73  C   UNL A   1      49.477  26.989  26.728  1.00  0.00     0.060 A 
BRANCH  73  74
ATOM     74  S   UNL A   1      50.977  26.156  26.167  1.00  0.00     0.124 S 
ATOM     75  O   UNL A   1      52.015  26.994  26.759  1.00  0.00    -0.237 OA
ATOM     76  O   UNL A   1      50.827  24.827  26.749  1.00  0.00    -0.237 OA
ATOM     77  O   UNL A   1      50.879  26.216  24.712  1.00  0.00    -0.744 OA
ENDBRANCH  73  74
ENDBRANCH  52  66
BRANCH  53  78
ATOM     78  C   UNL A   1      38.380  32.177  30.477  1.00  0.00     0.058 A 
ATOM     79  C   UNL A   1      37.794  31.830  31.703  1.00  0.00     0.135 A 
ATOM     80  C   UNL A   1      37.705  33.112  29.675  1.00  0.00     0.135 A 
ATOM     81  F   UNL A   1      38.390  30.930  32.499  1.00  0.00    -0.206 F 
ATOM     82  C   UNL A   1      36.586  32.382  32.118  1.00  0.00     0.059 A 
ATOM     83  C   UNL A   1      36.512  33.700  30.080  1.00  0.00     0.059 A 
ATOM     84  F   UNL A   1      38.225  33.484  28.494  1.00  0.00    -0.206 F 
ATOM     85  C   UNL A   1      35.958  33.324  31.303  1.00  0.00     0.060 A 
BRANCH  85  86
ATOM     86  S   UNL A   1      34.425  34.081  31.886  1.00  0.00     0.124 S 
ATOM     87  O   UNL A   1      33.924  33.064  32.804  1.00  0.00    -0.237 OA
ATOM     88  O   UNL A   1      34.912  35.313  32.499  1.00  0.00    -0.237 OA
ATOM     89  O   UNL A   1      33.651  34.260  30.661  1.00  0.00    -0.744 OA
ENDBRANCH  85  86
ENDBRANCH  53  78
BRANCH  65  90
ATOM     90  C   UNL A   1      44.971  34.494  30.544  1.00  0.00     0.058 A 
ATOM     91  C   UNL A   1      45.458  34.721  31.841  1.00  0.00     0.135 A 
ATOM     92  C   UNL A   1      45.113  35.529  29.604  1.00  0.00     0.135 A 
ATOM     93  F   UNL A   1      45.349  33.766  32.780  1.00  0.00    -0.206 F 
ATOM     94  C   UNL A   1      46.026  35.938  32.202  1.00  0.00     0.059 A 
ATOM     95  C   UNL A   1      45.710  36.742  29.933  1.00  0.00     0.059 A 
ATOM     96  F   UNL A   1      44.682  35.363  28.344  1.00  0.00    -0.206 F 
ATOM     97  C   UNL A   1      46.147  36.943  31.241  1.00  0.00     0.060 A 
BRANCH  97  98
ATOM     98  S   UNL A   1      46.888  38.517  31.725  1.00  0.00     0.124 S 
ATOM     99  O   UNL A   1      48.291  38.297  31.390  1.00  0.00    -0.237 OA
ATOM    100  O   UNL A   1      46.175  39.468  30.878  1.00  0.00    -0.237 OA
ATOM    101  O   UNL A   1      46.591  38.610  33.151  1.00  0.00    -0.744 OA
ENDBRANCH  97  98
ENDBRANCH  65  90
ENDBRANCH  39  40
ENDBRANCH  32  34
ENDBRANCH  31  32
ENDBRANCH  30  31
ENDBRANCH  29  30
ENDBRANCH  28  29
ENDBRANCH  27  28
ENDBRANCH   1  27
TORSDOF 24
ENDMDL
MODEL 2
REMARK VINA RESULT:      -9.9      4.887      6.156
REMARK SMILES Cc1cc(Br)cc2c1O[C@H](C(F)(F)F)C(C(=O)OCCOCCOCCOCCOC(=O)c1ccc(-c3c4nc(c(-c5c(F)cc(S(=O)(=O)[O-])cc5F)c5ccc([nH]5)c(-c5c(F)cc(S(=O)(=O)[O-])cc5F)c5nc(c(-c6c(F)cc(S(=O)(=O)[O-])cc6F)c6ccc3[nH]6)C=C5)C=C4)cc1)=C2
REMARK SMILES IDX 25 1 24 2 23 3 22 4 21 5 20 6 19 7 18 8 16 9 17 10 15 11
REMARK SMILES IDX 1 12 2 13 3 14 8 15 4 16 7 17 9 18 5 19 6 20 99 21 10 22
REMARK SMILES IDX 11 23 12 24 13 25 14 26 26 27 27 28 28 29 29 30 30 31 31 32
REMARK SMILES IDX 32 33 33 34 34 35 98 36 35 37 97 38 36 39 37 40 38 41 91 42
REMARK SMILES IDX 39 43 96 44 90 45 92 46 40 47 95 48 89 49 88 50 41 52 75 53
REMARK SMILES IDX 54 54 74 55 55 56 58 57 73 58 93 59 56 60 57 61 72 63 94 64
REMARK SMILES IDX 59 65 42 66 43 67 52 68 44 69 45 70 51 71 53 72 46 73 47 74
REMARK SMILES IDX 48 75 49 76 50 77 76 78 77 79 86 80 78 81 79 82 85 83 87 84
REMARK SMILES IDX 80 85 81 86 82 87 83 88 84 89 60 90 61 91 70 92 62 93 63 94
REMARK SMILES IDX 69 95 71 96 64 97 65 98 66 99 67 100 68 101
REMARK H PARENT 92 51 58 62
REMARK Flexibility Score: inf
ROOT
ATOM      1  C   UNL A   1      35.490  22.926  26.448  1.00  0.00     0.188 C 
ENDROOT
BRANCH   1   2
ATOM      2  O   UNL A   1      34.884  21.638  26.368  1.00  0.00    -0.377 OA
BRANCH   2   3
ATOM      3  C   UNL A   1      35.297  20.798  25.308  1.00  0.00     0.188 C 
BRANCH   3   4
ATOM      4  C   UNL A   1      34.159  19.935  24.732  1.00  0.00     0.188 C 
BRANCH   4   5
ATOM      5  O   UNL A   1      32.817  20.273  25.025  1.00  0.00    -0.376 OA
BRANCH   5   6
ATOM      6  C   UNL A   1      32.140  21.385  24.459  1.00  0.00     0.202 C 
BRANCH   6   7
ATOM      7  C   UNL A   1      31.555  22.598  25.211  1.00  0.00     0.261 C 
BRANCH   7   8
ATOM      8  O   UNL A   1      32.350  23.775  25.295  1.00  0.00    -0.460 OA
BRANCH   8   9
ATOM      9  C   UNL A   1      32.535  24.454  24.149  1.00  0.00     0.338 C 
ATOM     10  O   UNL A   1      32.634  23.991  23.026  1.00  0.00    -0.246 OA
BRANCH   9  11
ATOM     11  C   UNL A   1      32.415  25.894  24.457  1.00  0.00     0.087 C 
ATOM     12  C   UNL A   1      30.795  30.692  25.165  1.00  0.00     0.048 C 
ATOM     13  C   UNL A   1      31.979  29.878  25.604  1.00  0.00    -0.007 A 
ATOM     14  C   UNL A   1      32.911  30.433  26.495  1.00  0.00     0.023 A 
ATOM     15  C   UNL A   1      32.179  28.571  25.133  1.00  0.00     0.130 A 
ATOM     16  C   UNL A   1      34.015  29.690  26.911  1.00  0.00     0.019 A 
ATOM     17  C   UNL A   1      33.258  27.814  25.599  1.00  0.00     0.019 A 
ATOM     18  O   UNL A   1      31.274  28.098  24.225  1.00  0.00    -0.475 OA
ATOM     19  Br  UNL A   1      35.253  30.443  28.124  1.00  0.00    -0.051 Br
ATOM     20  C   UNL A   1      34.194  28.384  26.466  1.00  0.00     0.027 A 
ATOM     21  C   UNL A   1      33.361  26.411  25.248  1.00  0.00     0.027 C 
ATOM     22  C   UNL A   1      31.307  26.699  23.831  1.00  0.00     0.316 C 
BRANCH  22  23
ATOM     23  C   UNL A   1      29.925  26.094  24.108  1.00  0.00     0.430 C 
ATOM     24  F   UNL A   1      29.735  24.957  23.399  1.00  0.00    -0.167 F 
ATOM     25  F   UNL A   1      29.760  25.779  25.412  1.00  0.00    -0.167 F 
ATOM     26  F   UNL A   1      28.933  26.952  23.771  1.00  0.00    -0.167 F 
ENDBRANCH  22  23
ENDBRANCH   9  11
ENDBRANCH   8   9
ENDBRANCH   7   8
ENDBRANCH   6   7
ENDBRANCH   5   6
ENDBRANCH   4   5
ENDBRANCH   3   4
ENDBRANCH   2   3
ENDBRANCH   1   2
BRANCH   1  27
ATOM     27  C   UNL A   1      36.069  23.581  25.172  1.00  0.00     0.188 C 
BRANCH  27  28
ATOM     28  O   UNL A   1      37.477  23.781  25.208  1.00  0.00    -0.376 OA
BRANCH  28  29
ATOM     29  C   UNL A   1      38.178  23.518  26.412  1.00  0.00     0.202 C 
BRANCH  29  30
ATOM     30  C   UNL A   1      39.629  23.038  26.277  1.00  0.00     0.261 C 
BRANCH  30  31
ATOM     31  O   UNL A   1      40.615  23.828  26.954  1.00  0.00    -0.460 OA
BRANCH  31  32
ATOM     32  C   UNL A   1      40.759  25.108  26.550  1.00  0.00     0.338 C 
ATOM     33  O   UNL A   1      40.706  25.527  25.405  1.00  0.00    -0.246 OA
BRANCH  32  34
ATOM     34  C   UNL A   1      40.806  25.955  27.756  1.00  0.00     0.060 A 
ATOM     35  C   UNL A   1      39.693  25.996  28.606  1.00  0.00     0.016 A 
ATOM     36  C   UNL A   1      41.947  26.710  28.039  1.00  0.00     0.016 A 
ATOM     37  C   UNL A   1      39.702  26.829  29.724  1.00  0.00     0.010 A 
ATOM     38  C   UNL A   1      41.945  27.561  29.143  1.00  0.00     0.010 A 
ATOM     39  C   UNL A   1      40.809  27.652  29.966  1.00  0.00    -0.014 A 
BRANCH  39  40
ATOM     40  C   UNL A   1      40.716  28.755  30.949  1.00  0.00     0.031 A 
ATOM     41  C   UNL A   1      41.640  28.725  32.135  1.00  0.00     0.074 A 
ATOM     42  C   UNL A   1      39.829  29.753  30.797  1.00  0.00     0.049 A 
ATOM     43  N   UNL A   1      41.664  29.497  33.189  1.00  0.00    -0.248 NA
ATOM     44  C   UNL A   1      42.678  27.680  32.130  1.00  0.00     0.031 C 
ATOM     45  C   UNL A   1      38.931  29.921  29.655  1.00  0.00     0.029 A 
ATOM     46  N   UNL A   1      39.530  30.809  31.620  1.00  0.00    -0.354 N 
ATOM     47  C   UNL A   1      42.713  29.030  33.973  1.00  0.00     0.074 A 
ATOM     48  C   UNL A   1      43.282  27.890  33.289  1.00  0.00     0.031 C 
ATOM     49  C   UNL A   1      38.169  31.009  29.858  1.00  0.00     0.029 A 
ATOM     50  C   UNL A   1      38.493  31.585  31.163  1.00  0.00     0.049 A 
ATOM     51  H   UNL A   1      40.012  30.992  32.459  1.00  0.00     0.167 HD
ATOM     52  C   UNL A   1      43.161  29.513  35.154  1.00  0.00     0.037 A 
ATOM     53  C   UNL A   1      37.860  32.623  31.749  1.00  0.00     0.037 A 
ATOM     54  C   UNL A   1      42.575  30.641  35.832  1.00  0.00     0.049 A 
ATOM     55  C   UNL A   1      38.313  33.083  33.111  1.00  0.00     0.074 A 
ATOM     56  C   UNL A   1      42.938  31.201  37.044  1.00  0.00     0.029 A 
ATOM     57  N   UNL A   1      41.500  31.380  35.358  1.00  0.00    -0.354 N 
ATOM     58  N   UNL A   1      39.285  32.618  33.861  1.00  0.00    -0.248 NA
ATOM     59  C   UNL A   1      37.583  34.209  33.708  1.00  0.00     0.031 C 
ATOM     60  C   UNL A   1      42.050  32.244  37.326  1.00  0.00     0.029 A 
ATOM     61  C   UNL A   1      41.176  32.379  36.259  1.00  0.00     0.049 A 
ATOM     62  H   UNL A   1      41.036  31.217  34.504  1.00  0.00     0.167 HD
ATOM     63  C   UNL A   1      39.308  33.420  34.999  1.00  0.00     0.074 A 
ATOM     64  C   UNL A   1      38.255  34.402  34.834  1.00  0.00     0.031 C 
ATOM     65  C   UNL A   1      40.129  33.354  36.077  1.00  0.00     0.037 A 
BRANCH  52  66
ATOM     66  C   UNL A   1      44.323  28.813  35.804  1.00  0.00     0.058 A 
ATOM     67  C   UNL A   1      44.140  27.710  36.653  1.00  0.00     0.135 A 
ATOM     68  C   UNL A   1      45.640  29.219  35.536  1.00  0.00     0.135 A 
ATOM     69  F   UNL A   1      42.902  27.294  36.966  1.00  0.00    -0.206 F 
ATOM     70  C   UNL A   1      45.220  27.041  37.221  1.00  0.00     0.059 A 
ATOM     71  C   UNL A   1      46.737  28.548  36.068  1.00  0.00     0.059 A 
ATOM     72  F   UNL A   1      45.874  30.275  34.739  1.00  0.00    -0.206 F 
ATOM     73  C   UNL A   1      46.515  27.463  36.916  1.00  0.00     0.060 A 
BRANCH  73  74
ATOM     74  S   UNL A   1      47.904  26.566  37.640  1.00  0.00     0.124 S 
ATOM     75  O   UNL A   1      49.042  27.287  37.079  1.00  0.00    -0.237 OA
ATOM     76  O   UNL A   1      47.679  26.751  39.070  1.00  0.00    -0.237 OA
ATOM     77  O   UNL A   1      47.724  25.203  37.150  1.00  0.00    -0.744 OA
ENDBRANCH  73  74
ENDBRANCH  52  66
BRANCH  53  78
ATOM     78  C   UNL A   1      36.734  33.295  31.048  1.00  0.00     0.058 A 
ATOM     79  C   UNL A   1      36.967  34.146  29.958  1.00  0.00     0.135 A 
ATOM     80  C   UNL A   1      35.400  33.089  31.440  1.00  0.00     0.135 A 
ATOM     81  F   UNL A   1      38.223  34.387  29.554  1.00  0.00    -0.206 F 
ATOM     82  C   UNL A   1      35.924  34.772  29.284  1.00  0.00     0.059 A 
ATOM     83  C   UNL A   1      34.338  33.681  30.764  1.00  0.00     0.059 A 
ATOM     84  F   UNL A   1      35.120  32.279  32.473  1.00  0.00    -0.206 F 
ATOM     85  C   UNL A   1      34.611  34.525  29.689  1.00  0.00     0.060 A 
BRANCH  85  86
ATOM     86  S   UNL A   1      33.265  35.294  28.762  1.00  0.00     0.124 S 
ATOM     87  O   UNL A   1      33.987  36.256  27.937  1.00  0.00    -0.237 OA
ATOM     88  O   UNL A   1      32.692  34.150  28.059  1.00  0.00    -0.237 OA
ATOM     89  O   UNL A   1      32.422  35.867  29.807  1.00  0.00    -0.744 OA
ENDBRANCH  85  86
ENDBRANCH  53  78
BRANCH  65  90
ATOM     90  C   UNL A   1      39.962  34.404  37.144  1.00  0.00     0.058 A 
ATOM     91  C   UNL A   1      40.674  35.613  37.119  1.00  0.00     0.135 A 
ATOM     92  C   UNL A   1      39.040  34.211  38.187  1.00  0.00     0.135 A 
ATOM     93  F   UNL A   1      41.569  35.851  36.146  1.00  0.00    -0.206 F 
ATOM     94  C   UNL A   1      40.509  36.575  38.111  1.00  0.00     0.059 A 
ATOM     95  C   UNL A   1      38.833  35.174  39.170  1.00  0.00     0.059 A 
ATOM     96  F   UNL A   1      38.318  33.082  38.251  1.00  0.00    -0.206 F 
ATOM     97  C   UNL A   1      39.586  36.345  39.133  1.00  0.00     0.060 A 
BRANCH  97  98
ATOM     98  S   UNL A   1      39.382  37.604  40.411  1.00  0.00     0.124 S 
ATOM     99  O   UNL A   1      40.613  38.374  40.265  1.00  0.00    -0.237 OA
ATOM    100  O   UNL A   1      38.158  38.278  39.991  1.00  0.00    -0.237 OA
ATOM    101  O   UNL A   1      39.273  36.826  41.642  1.00  0.00    -0.744 OA
ENDBRANCH  97  98
ENDBRANCH  65  90
ENDBRANCH  39  40
ENDBRANCH  32  34
ENDBRANCH  31  32
ENDBRANCH  30  31
ENDBRANCH  29  30
ENDBRANCH  28  29
ENDBRANCH  27  28
ENDBRANCH   1  27
TORSDOF 24
ENDMDL
MODEL 3
REMARK VINA RESULT:      -9.5      3.064      8.861
REMARK SMILES Cc1cc(Br)cc2c1O[C@H](C(F)(F)F)C(C(=O)OCCOCCOCCOCCOC(=O)c1ccc(-c3c4nc(c(-c5c(F)cc(S(=O)(=O)[O-])cc5F)c5ccc([nH]5)c(-c5c(F)cc(S(=O)(=O)[O-])cc5F)c5nc(c(-c6c(F)cc(S(=O)(=O)[O-])cc6F)c6ccc3[nH]6)C=C5)C=C4)cc1)=C2
REMARK SMILES IDX 25 1 24 2 23 3 22 4 21 5 20 6 19 7 18 8 16 9 17 10 15 11
REMARK SMILES IDX 1 12 2 13 3 14 8 15 4 16 7 17 9 18 5 19 6 20 99 21 10 22
REMARK SMILES IDX 11 23 12 24 13 25 14 26 26 27 27 28 28 29 29 30 30 31 31 32
REMARK SMILES IDX 32 33 33 34 34 35 98 36 35 37 97 38 36 39 37 40 38 41 91 42
REMARK SMILES IDX 39 43 96 44 90 45 92 46 40 47 95 48 89 49 88 50 41 52 75 53
REMARK SMILES IDX 54 54 74 55 55 56 58 57 73 58 93 59 56 60 57 61 72 63 94 64
REMARK SMILES IDX 59 65 42 66 43 67 52 68 44 69 45 70 51 71 53 72 46 73 47 74
REMARK SMILES IDX 48 75 49 76 50 77 76 78 77 79 86 80 78 81 79 82 85 83 87 84
REMARK SMILES IDX 80 85 81 86 82 87 83 88 84 89 60 90 61 91 70 92 62 93 63 94
REMARK SMILES IDX 69 95 71 96 64 97 65 98 66 99 67 100 68 101
REMARK H PARENT 92 51 58 62
REMARK Flexibility Score: inf
ROOT
ATOM      1  C   UNL A   1      33.824  30.837  27.204  1.00  0.00     0.188 C 
ENDROOT
BRANCH   1   2
ATOM      2  O   UNL A   1      32.632  30.137  27.550  1.00  0.00    -0.377 OA
BRANCH   2   3
ATOM      3  C   UNL A   1      32.038  29.342  26.542  1.00  0.00     0.188 C 
BRANCH   3   4
ATOM      4  C   UNL A   1      32.691  29.521  25.158  1.00  0.00     0.188 C 
BRANCH   4   5
ATOM      5  O   UNL A   1      32.033  29.017  24.011  1.00  0.00    -0.376 OA
BRANCH   5   6
ATOM      6  C   UNL A   1      32.677  28.786  22.767  1.00  0.00     0.202 C 
BRANCH   6   7
ATOM      7  C   UNL A   1      33.963  27.972  22.523  1.00  0.00     0.261 C 
BRANCH   7   8
ATOM      8  O   UNL A   1      33.871  26.813  21.702  1.00  0.00    -0.460 OA
BRANCH   8   9
ATOM      9  C   UNL A   1      32.814  26.010  21.919  1.00  0.00     0.338 C 
ATOM     10  O   UNL A   1      31.847  25.852  21.194  1.00  0.00    -0.246 OA
BRANCH   9  11
ATOM     11  C   UNL A   1      33.107  25.196  23.116  1.00  0.00     0.087 C 
ATOM     12  C   UNL A   1      32.928  22.684  27.567  1.00  0.00     0.048 C 
ATOM     13  C   UNL A   1      33.808  22.659  26.349  1.00  0.00    -0.007 A 
ATOM     14  C   UNL A   1      34.828  21.699  26.250  1.00  0.00     0.023 A 
ATOM     15  C   UNL A   1      33.636  23.583  25.307  1.00  0.00     0.130 A 
ATOM     16  C   UNL A   1      35.652  21.664  25.126  1.00  0.00     0.019 A 
ATOM     17  C   UNL A   1      34.430  23.504  24.160  1.00  0.00     0.019 A 
ATOM     18  O   UNL A   1      32.665  24.530  25.477  1.00  0.00    -0.475 OA
ATOM     19  Br  UNL A   1      37.011  20.357  24.998  1.00  0.00    -0.051 Br
ATOM     20  C   UNL A   1      35.461  22.562  24.081  1.00  0.00     0.027 A 
ATOM     21  C   UNL A   1      34.134  24.344  23.016  1.00  0.00     0.027 C 
ATOM     22  C   UNL A   1      32.304  25.404  24.373  1.00  0.00     0.316 C 
BRANCH  22  23
ATOM     23  C   UNL A   1      30.797  25.261  24.126  1.00  0.00     0.430 C 
ATOM     24  F   UNL A   1      30.533  24.243  23.274  1.00  0.00    -0.167 F 
ATOM     25  F   UNL A   1      30.117  25.010  25.266  1.00  0.00    -0.167 F 
ATOM     26  F   UNL A   1      30.277  26.389  23.585  1.00  0.00    -0.167 F 
ENDBRANCH  22  23
ENDBRANCH   9  11
ENDBRANCH   8   9
ENDBRANCH   7   8
ENDBRANCH   6   7
ENDBRANCH   5   6
ENDBRANCH   4   5
ENDBRANCH   3   4
ENDBRANCH   2   3
ENDBRANCH   1   2
BRANCH   1  27
ATOM     27  C   UNL A   1      33.987  32.320  27.609  1.00  0.00     0.188 C 
BRANCH  27  28
ATOM     28  O   UNL A   1      35.329  32.703  27.889  1.00  0.00    -0.376 OA
BRANCH  28  29
ATOM     29  C   UNL A   1      35.569  33.705  28.862  1.00  0.00     0.202 C 
BRANCH  29  30
ATOM     30  C   UNL A   1      36.140  33.239  30.209  1.00  0.00     0.261 C 
BRANCH  30  31
ATOM     31  O   UNL A   1      36.254  31.821  30.382  1.00  0.00    -0.460 OA
BRANCH  31  32
ATOM     32  C   UNL A   1      37.048  31.386  31.383  1.00  0.00     0.338 C 
ATOM     33  O   UNL A   1      36.786  31.371  32.575  1.00  0.00    -0.246 OA
BRANCH  32  34
ATOM     34  C   UNL A   1      38.231  30.751  30.772  1.00  0.00     0.060 A 
ATOM     35  C   UNL A   1      39.311  30.393  31.589  1.00  0.00     0.016 A 
ATOM     36  C   UNL A   1      38.269  30.517  29.396  1.00  0.00     0.016 A 
ATOM     37  C   UNL A   1      40.457  29.837  31.020  1.00  0.00     0.010 A 
ATOM     38  C   UNL A   1      39.425  29.984  28.826  1.00  0.00     0.010 A 
ATOM     39  C   UNL A   1      40.535  29.678  29.631  1.00  0.00    -0.014 A 
BRANCH  39  40
ATOM     40  C   UNL A   1      41.837  29.389  28.987  1.00  0.00     0.031 A 
ATOM     41  C   UNL A   1      42.109  27.978  28.545  1.00  0.00     0.074 A 
ATOM     42  C   UNL A   1      42.756  30.353  28.805  1.00  0.00     0.049 A 
ATOM     43  N   UNL A   1      43.210  27.451  28.080  1.00  0.00    -0.248 NA
ATOM     44  C   UNL A   1      40.984  27.033  28.645  1.00  0.00     0.031 C 
ATOM     45  C   UNL A   1      42.575  31.767  29.131  1.00  0.00     0.029 A 
ATOM     46  N   UNL A   1      44.033  30.280  28.311  1.00  0.00    -0.354 N 
ATOM     47  C   UNL A   1      42.913  26.115  27.835  1.00  0.00     0.074 A 
ATOM     48  C   UNL A   1      41.538  25.904  28.231  1.00  0.00     0.031 C 
ATOM     49  C   UNL A   1      43.710  32.427  28.843  1.00  0.00     0.029 A 
ATOM     50  C   UNL A   1      44.709  31.476  28.357  1.00  0.00     0.049 A 
ATOM     51  H   UNL A   1      44.429  29.450  27.959  1.00  0.00     0.167 HD
ATOM     52  C   UNL A   1      43.716  25.155  27.322  1.00  0.00     0.037 A 
ATOM     53  C   UNL A   1      45.995  31.759  28.068  1.00  0.00     0.037 A 
ATOM     54  C   UNL A   1      45.089  25.376  26.945  1.00  0.00     0.049 A 
ATOM     55  C   UNL A   1      46.900  30.651  27.591  1.00  0.00     0.074 A 
ATOM     56  C   UNL A   1      45.998  24.466  26.434  1.00  0.00     0.029 A 
ATOM     57  N   UNL A   1      45.751  26.591  27.042  1.00  0.00    -0.354 N 
ATOM     58  N   UNL A   1      46.622  29.384  27.390  1.00  0.00    -0.248 NA
ATOM     59  C   UNL A   1      48.294  31.012  27.300  1.00  0.00     0.031 C 
ATOM     60  C   UNL A   1      47.224  25.120  26.272  1.00  0.00     0.029 A 
ATOM     61  C   UNL A   1      47.061  26.452  26.616  1.00  0.00     0.049 A 
ATOM     62  H   UNL A   1      45.348  27.430  27.365  1.00  0.00     0.167 HD
ATOM     63  C   UNL A   1      47.795  28.805  26.913  1.00  0.00     0.074 A 
ATOM     64  C   UNL A   1      48.782  29.863  26.850  1.00  0.00     0.031 C 
ATOM     65  C   UNL A   1      48.031  27.518  26.553  1.00  0.00     0.037 A 
BRANCH  52  66
ATOM     66  C   UNL A   1      43.144  23.773  27.161  1.00  0.00     0.058 A 
ATOM     67  C   UNL A   1      42.729  23.286  25.911  1.00  0.00     0.135 A 
ATOM     68  C   UNL A   1      43.056  22.905  28.261  1.00  0.00     0.135 A 
ATOM     69  F   UNL A   1      42.766  24.080  24.829  1.00  0.00    -0.206 F 
ATOM     70  C   UNL A   1      42.236  21.993  25.760  1.00  0.00     0.059 A 
ATOM     71  C   UNL A   1      42.595  21.599  28.130  1.00  0.00     0.059 A 
ATOM     72  F   UNL A   1      43.430  23.321  29.482  1.00  0.00    -0.206 F 
ATOM     73  C   UNL A   1      42.181  21.155  26.874  1.00  0.00     0.060 A 
BRANCH  73  74
ATOM     74  S   UNL A   1      41.566  19.472  26.654  1.00  0.00     0.124 S 
ATOM     75  O   UNL A   1      40.755  19.613  25.448  1.00  0.00    -0.237 OA
ATOM     76  O   UNL A   1      42.800  18.710  26.503  1.00  0.00    -0.237 OA
ATOM     77  O   UNL A   1      40.819  19.217  27.882  1.00  0.00    -0.744 OA
ENDBRANCH  73  74
ENDBRANCH  52  66
BRANCH  53  78
ATOM     78  C   UNL A   1      46.501  33.149  28.221  1.00  0.00     0.058 A 
ATOM     79  C   UNL A   1      46.994  33.605  29.452  1.00  0.00     0.135 A 
ATOM     80  C   UNL A   1      46.521  34.045  27.139  1.00  0.00     0.135 A 
ATOM     81  F   UNL A   1      46.984  32.794  30.520  1.00  0.00    -0.206 F 
ATOM     82  C   UNL A   1      47.482  34.898  29.609  1.00  0.00     0.059 A 
ATOM     83  C   UNL A   1      47.031  35.333  27.263  1.00  0.00     0.059 A 
ATOM     84  F   UNL A   1      46.066  33.657  25.936  1.00  0.00    -0.206 F 
ATOM     85  C   UNL A   1      47.506  35.752  28.505  1.00  0.00     0.060 A 
BRANCH  85  86
ATOM     86  S   UNL A   1      48.204  37.405  28.709  1.00  0.00     0.124 S 
ATOM     87  O   UNL A   1      47.602  37.826  29.969  1.00  0.00    -0.237 OA
ATOM     88  O   UNL A   1      49.636  37.124  28.747  1.00  0.00    -0.237 OA
ATOM     89  O   UNL A   1      47.741  38.115  27.521  1.00  0.00    -0.744 OA
ENDBRANCH  85  86
ENDBRANCH  53  78
BRANCH  65  90
ATOM     90  C   UNL A   1      49.395  27.187  26.007  1.00  0.00     0.058 A 
ATOM     91  C   UNL A   1      50.456  26.793  26.836  1.00  0.00     0.135 A 
ATOM     92  C   UNL A   1      49.629  27.226  24.622  1.00  0.00     0.135 A 
ATOM     93  F   UNL A   1      50.288  26.738  28.168  1.00  0.00    -0.206 F 
ATOM     94  C   UNL A   1      51.710  26.488  26.317  1.00  0.00     0.059 A 
ATOM     95  C   UNL A   1      50.865  26.891  24.077  1.00  0.00     0.059 A 
ATOM     96  F   UNL A   1      48.646  27.579  23.778  1.00  0.00    -0.206 F 
ATOM     97  C   UNL A   1      51.905  26.541  24.936  1.00  0.00     0.060 A 
BRANCH  97  98
ATOM     98  S   UNL A   1      53.538  26.142  24.278  1.00  0.00     0.124 S 
ATOM     99  O   UNL A   1      54.177  27.454  24.259  1.00  0.00    -0.237 OA
ATOM    100  O   UNL A   1      54.050  25.201  25.269  1.00  0.00    -0.237 OA
ATOM    101  O   UNL A   1      53.248  25.568  22.967  1.00  0.00    -0.744 OA
ENDBRANCH  97  98
ENDBRANCH  65  90
ENDBRANCH  39  40
ENDBRANCH  32  34
ENDBRANCH  31  32
ENDBRANCH  30  31
ENDBRANCH  29  30
ENDBRANCH  28  29
ENDBRANCH  27  28
ENDBRANCH   1  27
TORSDOF 24
ENDMDL
