MODEL 1
REMARK VINA RESULT:     -10.7      0.000      0.000
REMARK SMILES Cc1ccc(N2C(=O)C[C@H](Sc3ccccc3C(=O)OCCOCCOCCOCCOC(=O)c3ccc(-c4c5nc(c(-c6c(F)cc(S(=O)(=O)[O-])cc6F)c6ccc([nH]6)c(-c6c(F)cc(S(=O)(=O)[O-])cc6F)c6nc(c(-c7c(F)cc(S(=O)(=O)[O-])cc7F)c7ccc4[nH]7)C=C6)C=C5)cc3)C2=O)cc1
REMARK SMILES IDX 26 1 25 2 24 3 23 4 22 5 21 6 20 7 18 8 19 9 17 10 12 11
REMARK SMILES IDX 13 12 14 13 16 14 15 15 11 16 10 17 6 18 7 19 101 20 8 21
REMARK SMILES IDX 9 22 102 23 5 24 1 25 2 26 3 27 104 28 4 29 103 30 27 31
REMARK SMILES IDX 28 32 29 33 30 34 31 35 32 36 33 37 34 38 35 39 36 40 100 41
REMARK SMILES IDX 37 42 99 43 38 44 39 45 40 46 93 47 41 48 98 49 92 50 94 51
REMARK SMILES IDX 42 52 97 53 91 54 90 55 43 57 77 58 56 59 76 60 57 61 60 62
REMARK SMILES IDX 75 63 95 64 58 65 59 66 74 68 96 69 61 70 44 71 45 72 54 73
REMARK SMILES IDX 46 74 47 75 53 76 55 77 48 78 49 79 50 80 51 81 52 82 78 83
REMARK SMILES IDX 79 84 88 85 80 86 81 87 87 88 89 89 82 90 83 91 84 92 85 93
REMARK SMILES IDX 86 94 62 95 63 96 72 97 64 98 65 99 71 100 73 101 66 102
REMARK SMILES IDX 67 103 68 104 69 105 70 106
REMARK H PARENT 94 56 60 67
REMARK Flexibility Score: inf
ROOT
ATOM      1  O   UNL A   1      41.389  21.177  27.269  1.00  0.00    -0.377 OA
ENDROOT
BRANCH   1   2
ATOM      2  C   UNL A   1      40.291  21.978  26.851  1.00  0.00     0.188 C 
BRANCH   2   3
ATOM      3  C   UNL A   1      39.199  21.282  26.024  1.00  0.00     0.188 C 
BRANCH   3   4
ATOM      4  O   UNL A   1      38.168  22.152  25.597  1.00  0.00    -0.376 OA
BRANCH   4   5
ATOM      5  C   UNL A   1      37.440  21.889  24.409  1.00  0.00     0.202 C 
BRANCH   5   6
ATOM      6  C   UNL A   1      36.733  22.981  23.629  1.00  0.00     0.261 C 
BRANCH   6   7
ATOM      7  O   UNL A   1      35.343  22.778  23.538  1.00  0.00    -0.460 OA
BRANCH   7   8
ATOM      8  C   UNL A   1      34.736  22.525  24.703  1.00  0.00     0.339 C 
ATOM      9  O   UNL A   1      34.647  23.268  25.669  1.00  0.00    -0.246 OA
BRANCH   8  10
ATOM     10  C   UNL A   1      33.928  21.328  24.433  1.00  0.00     0.073 A 
ATOM     11  C   UNL A   1      32.867  21.369  23.508  1.00  0.00     0.023 A 
ATOM     12  C   UNL A   1      32.139  20.187  23.332  1.00  0.00     0.016 A 
ATOM     13  C   UNL A   1      32.508  18.992  23.965  1.00  0.00     0.001 A 
ATOM     14  C   UNL A   1      34.323  20.111  25.044  1.00  0.00     0.017 A 
ATOM     15  C   UNL A   1      33.623  18.940  24.793  1.00  0.00     0.001 A 
BRANCH  11  16
ATOM     16  S   UNL A   1      32.209  22.827  22.678  1.00  0.00    -0.111 SA
BRANCH  16  17
ATOM     17  C   UNL A   1      31.129  23.734  23.870  1.00  0.00     0.151 C 
ATOM     18  N   UNL A   1      32.021  25.270  25.391  1.00  0.00    -0.250 N 
ATOM     19  C   UNL A   1      31.579  24.218  26.139  1.00  0.00     0.235 C 
ATOM     20  C   UNL A   1      31.563  25.164  24.107  1.00  0.00     0.247 C 
ATOM     21  O   UNL A   1      31.504  24.175  27.341  1.00  0.00    -0.274 OA
ATOM     22  C   UNL A   1      31.003  23.168  25.250  1.00  0.00     0.126 C 
ATOM     23  O   UNL A   1      31.443  26.066  23.286  1.00  0.00    -0.273 OA
BRANCH  18  24
ATOM     24  C   UNL A   1      32.386  26.458  26.056  1.00  0.00     0.052 A 
ATOM     25  C   UNL A   1      33.355  30.379  27.578  1.00  0.00     0.044 C 
ATOM     26  C   UNL A   1      33.004  29.026  27.030  1.00  0.00    -0.051 A 
ATOM     27  C   UNL A   1      33.993  28.230  26.435  1.00  0.00     0.005 A 
ATOM     28  C   UNL A   1      31.699  28.534  27.119  1.00  0.00     0.005 A 
ATOM     29  C   UNL A   1      33.690  26.951  25.957  1.00  0.00     0.027 A 
ATOM     30  C   UNL A   1      31.392  27.261  26.629  1.00  0.00     0.027 A 
ENDBRANCH  18  24
ENDBRANCH  16  17
ENDBRANCH  11  16
ENDBRANCH   8  10
ENDBRANCH   7   8
ENDBRANCH   6   7
ENDBRANCH   5   6
ENDBRANCH   4   5
ENDBRANCH   3   4
ENDBRANCH   2   3
ENDBRANCH   1   2
BRANCH   1  31
ATOM     31  C   UNL A   1      42.646  21.587  26.728  1.00  0.00     0.188 C 
BRANCH  31  32
ATOM     32  C   UNL A   1      42.685  22.834  25.879  1.00  0.00     0.188 C 
BRANCH  32  33
ATOM     33  O   UNL A   1      43.716  22.599  24.921  1.00  0.00    -0.376 OA
BRANCH  33  34
ATOM     34  C   UNL A   1      44.513  23.692  24.536  1.00  0.00     0.202 C 
BRANCH  34  35
ATOM     35  C   UNL A   1      44.072  25.011  25.147  1.00  0.00     0.261 C 
BRANCH  35  36
ATOM     36  O   UNL A   1      45.081  25.707  25.948  1.00  0.00    -0.460 OA
BRANCH  36  37
ATOM     37  C   UNL A   1      46.061  25.188  26.751  1.00  0.00     0.338 C 
ATOM     38  O   UNL A   1      47.219  25.110  26.351  1.00  0.00    -0.246 OA
BRANCH  37  39
ATOM     39  C   UNL A   1      45.802  25.042  28.210  1.00  0.00     0.060 A 
ATOM     40  C   UNL A   1      44.664  24.387  28.712  1.00  0.00     0.016 A 
ATOM     41  C   UNL A   1      46.739  25.490  29.115  1.00  0.00     0.016 A 
ATOM     42  C   UNL A   1      44.358  24.379  30.096  1.00  0.00     0.010 A 
ATOM     43  C   UNL A   1      46.395  25.562  30.460  1.00  0.00     0.010 A 
ATOM     44  C   UNL A   1      45.192  25.040  30.988  1.00  0.00    -0.014 A 
BRANCH  44  45
ATOM     45  C   UNL A   1      44.921  25.312  32.437  1.00  0.00     0.031 A 
ATOM     46  C   UNL A   1      44.365  26.693  32.770  1.00  0.00     0.074 A 
ATOM     47  C   UNL A   1      44.782  24.260  33.304  1.00  0.00     0.049 A 
ATOM     48  N   UNL A   1      43.839  27.058  33.891  1.00  0.00    -0.248 NA
ATOM     49  C   UNL A   1      44.254  27.777  31.783  1.00  0.00     0.031 C 
ATOM     50  C   UNL A   1      43.939  24.187  34.498  1.00  0.00     0.029 A 
ATOM     51  N   UNL A   1      45.293  22.955  33.276  1.00  0.00    -0.354 N 
ATOM     52  C   UNL A   1      43.040  28.183  33.693  1.00  0.00     0.074 A 
ATOM     53  C   UNL A   1      43.406  28.632  32.375  1.00  0.00     0.031 C 
ATOM     54  C   UNL A   1      43.958  22.970  35.071  1.00  0.00     0.029 A 
ATOM     55  C   UNL A   1      45.153  22.374  34.561  1.00  0.00     0.049 A 
ATOM     56  H   UNL A   1      45.687  22.512  32.490  1.00  0.00     0.167 HD
ATOM     57  C   UNL A   1      42.078  28.508  34.628  1.00  0.00     0.037 A 
ATOM     58  C   UNL A   1      46.266  22.222  35.338  1.00  0.00     0.037 A 
ATOM     59  C   UNL A   1      42.213  27.652  35.847  1.00  0.00     0.049 A 
ATOM     60  C   UNL A   1      46.307  23.312  36.459  1.00  0.00     0.074 A 
ATOM     61  C   UNL A   1      41.361  26.934  36.675  1.00  0.00     0.029 A 
ATOM     62  N   UNL A   1      43.491  27.292  36.282  1.00  0.00    -0.354 N 
ATOM     63  N   UNL A   1      45.383  24.242  36.614  1.00  0.00    -0.248 NA
ATOM     64  C   UNL A   1      47.298  23.448  37.518  1.00  0.00     0.031 C 
ATOM     65  C   UNL A   1      42.153  26.108  37.545  1.00  0.00     0.029 A 
ATOM     66  C   UNL A   1      43.495  26.360  37.300  1.00  0.00     0.049 A 
ATOM     67  H   UNL A   1      44.315  27.670  35.897  1.00  0.00     0.167 HD
ATOM     68  C   UNL A   1      45.603  25.077  37.664  1.00  0.00     0.074 A 
ATOM     69  C   UNL A   1      46.856  24.540  38.187  1.00  0.00     0.031 C 
ATOM     70  C   UNL A   1      44.758  26.117  38.009  1.00  0.00     0.037 A 
BRANCH  57  71
ATOM     71  C   UNL A   1      40.876  29.492  34.439  1.00  0.00     0.058 A 
ATOM     72  C   UNL A   1      40.728  30.624  35.286  1.00  0.00     0.135 A 
ATOM     73  C   UNL A   1      39.797  29.354  33.528  1.00  0.00     0.135 A 
ATOM     74  F   UNL A   1      41.676  30.950  36.173  1.00  0.00    -0.206 F 
ATOM     75  C   UNL A   1      39.621  31.493  35.266  1.00  0.00     0.059 A 
ATOM     76  C   UNL A   1      38.703  30.248  33.450  1.00  0.00     0.059 A 
ATOM     77  F   UNL A   1      39.719  28.323  32.680  1.00  0.00    -0.206 F 
ATOM     78  C   UNL A   1      38.610  31.309  34.339  1.00  0.00     0.060 A 
BRANCH  78  79
ATOM     79  S   UNL A   1      37.233  32.488  34.283  1.00  0.00     0.124 S 
ATOM     80  O   UNL A   1      36.846  32.582  35.686  1.00  0.00    -0.237 OA
ATOM     81  O   UNL A   1      37.861  33.679  33.720  1.00  0.00    -0.237 OA
ATOM     82  O   UNL A   1      36.259  31.836  33.412  1.00  0.00    -0.744 OA
ENDBRANCH  78  79
ENDBRANCH  57  71
BRANCH  58  83
ATOM     83  C   UNL A   1      47.280  21.480  34.476  1.00  0.00     0.058 A 
ATOM     84  C   UNL A   1      48.483  22.206  34.224  1.00  0.00     0.135 A 
ATOM     85  C   UNL A   1      47.441  20.088  34.619  1.00  0.00     0.135 A 
ATOM     86  F   UNL A   1      48.427  23.538  34.050  1.00  0.00    -0.206 F 
ATOM     87  C   UNL A   1      49.762  21.638  34.361  1.00  0.00     0.059 A 
ATOM     88  C   UNL A   1      48.719  19.498  34.746  1.00  0.00     0.059 A 
ATOM     89  F   UNL A   1      46.368  19.319  34.862  1.00  0.00    -0.206 F 
ATOM     90  C   UNL A   1      49.872  20.290  34.680  1.00  0.00     0.060 A 
BRANCH  90  91
ATOM     91  S   UNL A   1      51.495  19.636  35.208  1.00  0.00     0.124 S 
ATOM     92  O   UNL A   1      51.114  18.500  36.037  1.00  0.00    -0.237 OA
ATOM     93  O   UNL A   1      52.157  19.298  33.950  1.00  0.00    -0.237 OA
ATOM     94  O   UNL A   1      52.092  20.760  35.921  1.00  0.00    -0.744 OA
ENDBRANCH  90  91
ENDBRANCH  58  83
BRANCH  70  95
ATOM     95  C   UNL A   1      45.077  27.147  39.070  1.00  0.00     0.058 A 
ATOM     96  C   UNL A   1      45.615  28.399  38.778  1.00  0.00     0.135 A 
ATOM     97  C   UNL A   1      44.884  26.873  40.456  1.00  0.00     0.135 A 
ATOM     98  F   UNL A   1      46.052  28.689  37.544  1.00  0.00    -0.206 F 
ATOM     99  C   UNL A   1      45.750  29.383  39.754  1.00  0.00     0.059 A 
ATOM    100  C   UNL A   1      45.071  27.813  41.451  1.00  0.00     0.059 A 
ATOM    101  F   UNL A   1      44.483  25.685  40.921  1.00  0.00    -0.206 F 
ATOM    102  C   UNL A   1      45.438  29.089  41.082  1.00  0.00     0.060 A 
BRANCH 102 103
ATOM    103  S   UNL A   1      45.515  30.380  42.323  1.00  0.00     0.124 S 
ATOM    104  O   UNL A   1      45.373  29.624  43.563  1.00  0.00    -0.237 OA
ATOM    105  O   UNL A   1      46.838  30.942  42.068  1.00  0.00    -0.237 OA
ATOM    106  O   UNL A   1      44.389  31.248  41.990  1.00  0.00    -0.744 OA
ENDBRANCH 102 103
ENDBRANCH  70  95
ENDBRANCH  44  45
ENDBRANCH  37  39
ENDBRANCH  36  37
ENDBRANCH  35  36
ENDBRANCH  34  35
ENDBRANCH  33  34
ENDBRANCH  32  33
ENDBRANCH  31  32
ENDBRANCH   1  31
TORSDOF 26
ENDMDL
MODEL 2
REMARK VINA RESULT:      -9.9      1.246      3.581
REMARK SMILES Cc1ccc(N2C(=O)C[C@H](Sc3ccccc3C(=O)OCCOCCOCCOCCOC(=O)c3ccc(-c4c5nc(c(-c6c(F)cc(S(=O)(=O)[O-])cc6F)c6ccc([nH]6)c(-c6c(F)cc(S(=O)(=O)[O-])cc6F)c6nc(c(-c7c(F)cc(S(=O)(=O)[O-])cc7F)c7ccc4[nH]7)C=C6)C=C5)cc3)C2=O)cc1
REMARK SMILES IDX 26 1 25 2 24 3 23 4 22 5 21 6 20 7 18 8 19 9 17 10 12 11
REMARK SMILES IDX 13 12 14 13 16 14 15 15 11 16 10 17 6 18 7 19 101 20 8 21
REMARK SMILES IDX 9 22 102 23 5 24 1 25 2 26 3 27 104 28 4 29 103 30 27 31
REMARK SMILES IDX 28 32 29 33 30 34 31 35 32 36 33 37 34 38 35 39 36 40 100 41
REMARK SMILES IDX 37 42 99 43 38 44 39 45 40 46 93 47 41 48 98 49 92 50 94 51
REMARK SMILES IDX 42 52 97 53 91 54 90 55 43 57 77 58 56 59 76 60 57 61 60 62
REMARK SMILES IDX 75 63 95 64 58 65 59 66 74 68 96 69 61 70 44 71 45 72 54 73
REMARK SMILES IDX 46 74 47 75 53 76 55 77 48 78 49 79 50 80 51 81 52 82 78 83
REMARK SMILES IDX 79 84 88 85 80 86 81 87 87 88 89 89 82 90 83 91 84 92 85 93
REMARK SMILES IDX 86 94 62 95 63 96 72 97 64 98 65 99 71 100 73 101 66 102
REMARK SMILES IDX 67 103 68 104 69 105 70 106
REMARK H PARENT 94 56 60 67
REMARK Flexibility Score: inf
ROOT
ATOM      1  O   UNL A   1      39.704  21.485  26.459  1.00  0.00    -0.377 OA
ENDROOT
BRANCH   1   2
ATOM      2  C   UNL A   1      39.476  22.822  26.885  1.00  0.00     0.188 C 
BRANCH   2   3
ATOM      3  C   UNL A   1      38.415  23.625  26.117  1.00  0.00     0.188 C 
BRANCH   3   4
ATOM      4  O   UNL A   1      37.227  22.900  25.862  1.00  0.00    -0.376 OA
BRANCH   4   5
ATOM      5  C   UNL A   1      36.115  23.520  25.239  1.00  0.00     0.202 C 
BRANCH   5   6
ATOM      6  C   UNL A   1      34.893  23.971  26.017  1.00  0.00     0.261 C 
BRANCH   6   7
ATOM      7  O   UNL A   1      34.406  25.223  25.597  1.00  0.00    -0.460 OA
BRANCH   7   8
ATOM      8  C   UNL A   1      33.174  25.517  26.027  1.00  0.00     0.339 C 
ATOM      9  O   UNL A   1      32.440  24.817  26.710  1.00  0.00    -0.246 OA
BRANCH   8  10
ATOM     10  C   UNL A   1      33.050  26.962  25.795  1.00  0.00     0.073 A 
ATOM     11  C   UNL A   1      31.875  27.505  25.240  1.00  0.00     0.023 A 
ATOM     12  C   UNL A   1      31.856  28.888  25.034  1.00  0.00     0.016 A 
ATOM     13  C   UNL A   1      32.912  29.711  25.452  1.00  0.00     0.001 A 
ATOM     14  C   UNL A   1      34.100  27.799  26.250  1.00  0.00     0.017 A 
ATOM     15  C   UNL A   1      34.020  29.174  26.096  1.00  0.00     0.001 A 
BRANCH  11  16
ATOM     16  S   UNL A   1      30.470  26.593  24.573  1.00  0.00    -0.111 SA
BRANCH  16  17
ATOM     17  C   UNL A   1      31.032  25.685  23.066  1.00  0.00     0.151 C 
ATOM     18  N   UNL A   1      32.094  23.608  23.225  1.00  0.00    -0.250 N 
ATOM     19  C   UNL A   1      33.044  24.480  22.779  1.00  0.00     0.235 C 
ATOM     20  C   UNL A   1      30.856  24.186  23.167  1.00  0.00     0.247 C 
ATOM     21  O   UNL A   1      34.146  24.197  22.381  1.00  0.00    -0.274 OA
ATOM     22  C   UNL A   1      32.463  25.849  22.661  1.00  0.00     0.126 C 
ATOM     23  O   UNL A   1      29.773  23.615  23.129  1.00  0.00    -0.273 OA
BRANCH  18  24
ATOM     24  C   UNL A   1      32.379  22.228  23.183  1.00  0.00     0.052 A 
ATOM     25  C   UNL A   1      32.665  17.922  23.189  1.00  0.00     0.044 C 
ATOM     26  C   UNL A   1      32.540  19.417  23.185  1.00  0.00    -0.051 A 
ATOM     27  C   UNL A   1      32.819  20.151  24.347  1.00  0.00     0.005 A 
ATOM     28  C   UNL A   1      32.162  20.101  22.026  1.00  0.00     0.005 A 
ATOM     29  C   UNL A   1      32.747  21.547  24.347  1.00  0.00     0.027 A 
ATOM     30  C   UNL A   1      32.077  21.497  22.029  1.00  0.00     0.027 A 
ENDBRANCH  18  24
ENDBRANCH  16  17
ENDBRANCH  11  16
ENDBRANCH   8  10
ENDBRANCH   7   8
ENDBRANCH   6   7
ENDBRANCH   5   6
ENDBRANCH   4   5
ENDBRANCH   3   4
ENDBRANCH   2   3
ENDBRANCH   1   2
BRANCH   1  31
ATOM     31  C   UNL A   1      41.066  21.205  26.127  1.00  0.00     0.188 C 
BRANCH  31  32
ATOM     32  C   UNL A   1      42.036  22.359  26.060  1.00  0.00     0.188 C 
BRANCH  32  33
ATOM     33  O   UNL A   1      43.051  21.939  25.151  1.00  0.00    -0.376 OA
BRANCH  33  34
ATOM     34  C   UNL A   1      43.750  22.934  24.443  1.00  0.00     0.202 C 
BRANCH  34  35
ATOM     35  C   UNL A   1      43.665  24.308  25.085  1.00  0.00     0.261 C 
BRANCH  35  36
ATOM     36  O   UNL A   1      44.875  24.760  25.777  1.00  0.00    -0.460 OA
BRANCH  36  37
ATOM     37  C   UNL A   1      45.722  24.059  26.591  1.00  0.00     0.338 C 
ATOM     38  O   UNL A   1      46.782  23.616  26.158  1.00  0.00    -0.246 OA
BRANCH  37  39
ATOM     39  C   UNL A   1      45.532  24.128  28.067  1.00  0.00     0.060 A 
ATOM     40  C   UNL A   1      44.497  23.443  28.726  1.00  0.00     0.016 A 
ATOM     41  C   UNL A   1      46.441  24.819  28.838  1.00  0.00     0.016 A 
ATOM     42  C   UNL A   1      44.242  23.630  30.109  1.00  0.00     0.010 A 
ATOM     43  C   UNL A   1      46.138  25.073  30.170  1.00  0.00     0.010 A 
ATOM     44  C   UNL A   1      45.023  24.516  30.838  1.00  0.00    -0.014 A 
BRANCH  44  45
ATOM     45  C   UNL A   1      44.772  24.992  32.237  1.00  0.00     0.031 A 
ATOM     46  C   UNL A   1      44.166  26.385  32.376  1.00  0.00     0.074 A 
ATOM     47  C   UNL A   1      44.694  24.077  33.255  1.00  0.00     0.049 A 
ATOM     48  N   UNL A   1      43.650  26.893  33.444  1.00  0.00    -0.248 NA
ATOM     49  C   UNL A   1      43.991  27.305  31.243  1.00  0.00     0.031 C 
ATOM     50  C   UNL A   1      43.881  24.151  34.469  1.00  0.00     0.029 A 
ATOM     51  N   UNL A   1      45.258  22.802  33.407  1.00  0.00    -0.354 N 
ATOM     52  C   UNL A   1      42.801  27.946  33.103  1.00  0.00     0.074 A 
ATOM     53  C   UNL A   1      43.121  28.205  31.723  1.00  0.00     0.031 C 
ATOM     54  C   UNL A   1      43.962  23.036  35.215  1.00  0.00     0.029 A 
ATOM     55  C   UNL A   1      45.169  22.416  34.768  1.00  0.00     0.049 A 
ATOM     56  H   UNL A   1      45.653  22.261  32.685  1.00  0.00     0.167 HD
ATOM     57  C   UNL A   1      41.847  28.371  34.005  1.00  0.00     0.037 A 
ATOM     58  C   UNL A   1      46.305  22.423  35.527  1.00  0.00     0.037 A 
ATOM     59  C   UNL A   1      42.043  27.713  35.334  1.00  0.00     0.049 A 
ATOM     60  C   UNL A   1      46.325  23.669  36.473  1.00  0.00     0.074 A 
ATOM     61  C   UNL A   1      41.239  27.095  36.282  1.00  0.00     0.029 A 
ATOM     62  N   UNL A   1      43.344  27.470  35.783  1.00  0.00    -0.354 N 
ATOM     63  N   UNL A   1      45.366  24.577  36.513  1.00  0.00    -0.248 NA
ATOM     64  C   UNL A   1      47.331  23.999  37.473  1.00  0.00     0.031 C 
ATOM     65  C   UNL A   1      42.083  26.439  37.243  1.00  0.00     0.029 A 
ATOM     66  C   UNL A   1      43.408  26.701  36.927  1.00  0.00     0.049 A 
ATOM     67  H   UNL A   1      44.143  27.816  35.323  1.00  0.00     0.167 HD
ATOM     68  C   UNL A   1      45.574  25.567  37.420  1.00  0.00     0.074 A 
ATOM     69  C   UNL A   1      46.859  25.162  37.984  1.00  0.00     0.031 C 
ATOM     70  C   UNL A   1      44.695  26.615  37.630  1.00  0.00     0.037 A 
BRANCH  57  71
ATOM     71  C   UNL A   1      40.602  29.269  33.704  1.00  0.00     0.058 A 
ATOM     72  C   UNL A   1      40.463  30.542  34.323  1.00  0.00     0.135 A 
ATOM     73  C   UNL A   1      39.478  28.930  32.908  1.00  0.00     0.135 A 
ATOM     74  F   UNL A   1      41.448  31.059  35.068  1.00  0.00    -0.206 F 
ATOM     75  C   UNL A   1      39.326  31.364  34.205  1.00  0.00     0.059 A 
ATOM     76  C   UNL A   1      38.350  29.765  32.727  1.00  0.00     0.059 A 
ATOM     77  F   UNL A   1      39.389  27.751  32.283  1.00  0.00    -0.206 F 
ATOM     78  C   UNL A   1      38.271  30.977  33.397  1.00  0.00     0.060 A 
BRANCH  78  79
ATOM     79  S   UNL A   1      36.852  32.090  33.200  1.00  0.00     0.124 S 
ATOM     80  O   UNL A   1      35.887  31.245  32.504  1.00  0.00    -0.237 OA
ATOM     81  O   UNL A   1      36.519  32.424  34.581  1.00  0.00    -0.237 OA
ATOM     82  O   UNL A   1      37.391  33.195  32.411  1.00  0.00    -0.744 OA
ENDBRANCH  78  79
ENDBRANCH  57  71
BRANCH  58  83
ATOM     83  C   UNL A   1      47.329  21.599  34.759  1.00  0.00     0.058 A 
ATOM     84  C   UNL A   1      48.458  22.342  34.298  1.00  0.00     0.135 A 
ATOM     85  C   UNL A   1      47.605  20.274  35.150  1.00  0.00     0.135 A 
ATOM     86  F   UNL A   1      48.289  23.609  33.881  1.00  0.00    -0.206 F 
ATOM     87  C   UNL A   1      49.782  21.898  34.459  1.00  0.00     0.059 A 
ATOM     88  C   UNL A   1      48.930  19.807  35.305  1.00  0.00     0.059 A 
ATOM     89  F   UNL A   1      46.609  19.496  35.601  1.00  0.00    -0.206 F 
ATOM     90  C   UNL A   1      50.013  20.647  35.018  1.00  0.00     0.060 A 
BRANCH  90  91
ATOM     91  S   UNL A   1      51.706  20.218  35.556  1.00  0.00     0.124 S 
ATOM     92  O   UNL A   1      51.826  18.833  35.122  1.00  0.00    -0.237 OA
ATOM     93  O   UNL A   1      52.549  21.172  34.838  1.00  0.00    -0.237 OA
ATOM     94  O   UNL A   1      51.660  20.422  36.999  1.00  0.00    -0.744 OA
ENDBRANCH  90  91
ENDBRANCH  58  83
BRANCH  70  95
ATOM     95  C   UNL A   1      44.993  27.803  38.517  1.00  0.00     0.058 A 
ATOM     96  C   UNL A   1      44.920  27.753  39.908  1.00  0.00     0.135 A 
ATOM     97  C   UNL A   1      45.326  29.076  37.968  1.00  0.00     0.135 A 
ATOM     98  F   UNL A   1      44.400  26.686  40.531  1.00  0.00    -0.206 F 
ATOM     99  C   UNL A   1      45.352  28.813  40.701  1.00  0.00     0.059 A 
ATOM    100  C   UNL A   1      45.698  30.163  38.737  1.00  0.00     0.059 A 
ATOM    101  F   UNL A   1      45.332  29.332  36.656  1.00  0.00    -0.206 F 
ATOM    102  C   UNL A   1      45.775  30.000  40.102  1.00  0.00     0.060 A 
BRANCH 102 103
ATOM    103  S   UNL A   1      46.425  31.328  41.116  1.00  0.00     0.124 S 
ATOM    104  O   UNL A   1      47.853  31.032  41.133  1.00  0.00    -0.237 OA
ATOM    105  O   UNL A   1      46.027  32.499  40.341  1.00  0.00    -0.237 OA
ATOM    106  O   UNL A   1      45.738  31.157  42.392  1.00  0.00    -0.744 OA
ENDBRANCH 102 103
ENDBRANCH  70  95
ENDBRANCH  44  45
ENDBRANCH  37  39
ENDBRANCH  36  37
ENDBRANCH  35  36
ENDBRANCH  34  35
ENDBRANCH  33  34
ENDBRANCH  32  33
ENDBRANCH  31  32
ENDBRANCH   1  31
TORSDOF 26
ENDMDL
MODEL 3
REMARK VINA RESULT:      -9.9      6.399      8.144
REMARK SMILES Cc1ccc(N2C(=O)C[C@H](Sc3ccccc3C(=O)OCCOCCOCCOCCOC(=O)c3ccc(-c4c5nc(c(-c6c(F)cc(S(=O)(=O)[O-])cc6F)c6ccc([nH]6)c(-c6c(F)cc(S(=O)(=O)[O-])cc6F)c6nc(c(-c7c(F)cc(S(=O)(=O)[O-])cc7F)c7ccc4[nH]7)C=C6)C=C5)cc3)C2=O)cc1
REMARK SMILES IDX 26 1 25 2 24 3 23 4 22 5 21 6 20 7 18 8 19 9 17 10 12 11
REMARK SMILES IDX 13 12 14 13 16 14 15 15 11 16 10 17 6 18 7 19 101 20 8 21
REMARK SMILES IDX 9 22 102 23 5 24 1 25 2 26 3 27 104 28 4 29 103 30 27 31
REMARK SMILES IDX 28 32 29 33 30 34 31 35 32 36 33 37 34 38 35 39 36 40 100 41
REMARK SMILES IDX 37 42 99 43 38 44 39 45 40 46 93 47 41 48 98 49 92 50 94 51
REMARK SMILES IDX 42 52 97 53 91 54 90 55 43 57 77 58 56 59 76 60 57 61 60 62
REMARK SMILES IDX 75 63 95 64 58 65 59 66 74 68 96 69 61 70 44 71 45 72 54 73
REMARK SMILES IDX 46 74 47 75 53 76 55 77 48 78 49 79 50 80 51 81 52 82 78 83
REMARK SMILES IDX 79 84 88 85 80 86 81 87 87 88 89 89 82 90 83 91 84 92 85 93
REMARK SMILES IDX 86 94 62 95 63 96 72 97 64 98 65 99 71 100 73 101 66 102
REMARK SMILES IDX 67 103 68 104 69 105 70 106
REMARK H PARENT 94 56 60 67
REMARK Flexibility Score: inf
ROOT
ATOM      1  O   UNL A   1      40.363  24.760  28.103  1.00  0.00    -0.377 OA
ENDROOT
BRANCH   1   2
ATOM      2  C   UNL A   1      39.031  24.499  27.679  1.00  0.00     0.188 C 
BRANCH   2   3
ATOM      3  C   UNL A   1      38.818  24.245  26.179  1.00  0.00     0.188 C 
BRANCH   3   4
ATOM      4  O   UNL A   1      37.754  23.356  25.898  1.00  0.00    -0.376 OA
BRANCH   4   5
ATOM      5  C   UNL A   1      38.006  22.001  25.561  1.00  0.00     0.202 C 
BRANCH   5   6
ATOM      6  C   UNL A   1      37.182  21.252  24.532  1.00  0.00     0.261 C 
BRANCH   6   7
ATOM      7  O   UNL A   1      35.840  21.675  24.490  1.00  0.00    -0.460 OA
BRANCH   7   8
ATOM      8  C   UNL A   1      34.949  20.750  24.864  1.00  0.00     0.339 C 
ATOM      9  O   UNL A   1      35.046  19.537  24.748  1.00  0.00    -0.246 OA
BRANCH   8  10
ATOM     10  C   UNL A   1      34.019  21.481  25.735  1.00  0.00     0.073 A 
ATOM     11  C   UNL A   1      32.776  21.929  25.248  1.00  0.00     0.023 A 
ATOM     12  C   UNL A   1      31.967  22.637  26.143  1.00  0.00     0.016 A 
ATOM     13  C   UNL A   1      32.325  22.804  27.488  1.00  0.00     0.001 A 
ATOM     14  C   UNL A   1      34.363  21.619  27.104  1.00  0.00     0.017 A 
ATOM     15  C   UNL A   1      33.505  22.264  27.982  1.00  0.00     0.001 A 
BRANCH  11  16
ATOM     16  S   UNL A   1      32.199  21.875  23.542  1.00  0.00    -0.111 SA
BRANCH  16  17
ATOM     17  C   UNL A   1      32.098  23.607  22.909  1.00  0.00     0.151 C 
ATOM     18  N   UNL A   1      32.476  25.437  24.314  1.00  0.00    -0.250 N 
ATOM     19  C   UNL A   1      31.151  25.482  23.992  1.00  0.00     0.235 C 
ATOM     20  C   UNL A   1      33.127  24.532  23.522  1.00  0.00     0.247 C 
ATOM     21  O   UNL A   1      30.384  26.378  24.237  1.00  0.00    -0.274 OA
ATOM     22  C   UNL A   1      30.805  24.334  23.104  1.00  0.00     0.126 C 
ATOM     23  O   UNL A   1      34.325  24.492  23.272  1.00  0.00    -0.273 OA
BRANCH  18  24
ATOM     24  C   UNL A   1      33.048  26.556  24.953  1.00  0.00     0.052 A 
ATOM     25  C   UNL A   1      34.234  30.211  26.919  1.00  0.00     0.044 C 
ATOM     26  C   UNL A   1      33.797  28.945  26.242  1.00  0.00    -0.051 A 
ATOM     27  C   UNL A   1      33.857  28.836  24.845  1.00  0.00     0.005 A 
ATOM     28  C   UNL A   1      33.342  27.854  26.988  1.00  0.00     0.005 A 
ATOM     29  C   UNL A   1      33.492  27.648  24.204  1.00  0.00     0.027 A 
ATOM     30  C   UNL A   1      32.964  26.670  26.346  1.00  0.00     0.027 A 
ENDBRANCH  18  24
ENDBRANCH  16  17
ENDBRANCH  11  16
ENDBRANCH   8  10
ENDBRANCH   7   8
ENDBRANCH   6   7
ENDBRANCH   5   6
ENDBRANCH   4   5
ENDBRANCH   3   4
ENDBRANCH   2   3
ENDBRANCH   1   2
BRANCH   1  31
ATOM     31  C   UNL A   1      41.282  23.705  27.814  1.00  0.00     0.188 C 
BRANCH  31  32
ATOM     32  C   UNL A   1      40.945  22.314  28.291  1.00  0.00     0.188 C 
BRANCH  32  33
ATOM     33  O   UNL A   1      42.013  21.492  27.823  1.00  0.00    -0.376 OA
BRANCH  33  34
ATOM     34  C   UNL A   1      41.752  20.634  26.739  1.00  0.00     0.202 C 
BRANCH  34  35
ATOM     35  C   UNL A   1      42.991  19.940  26.200  1.00  0.00     0.261 C 
BRANCH  35  36
ATOM     36  O   UNL A   1      43.336  20.250  24.811  1.00  0.00    -0.460 OA
BRANCH  36  37
ATOM     37  C   UNL A   1      44.468  20.829  24.305  1.00  0.00     0.338 C 
ATOM     38  O   UNL A   1      45.068  20.313  23.367  1.00  0.00    -0.246 OA
BRANCH  37  39
ATOM     39  C   UNL A   1      44.777  22.243  24.654  1.00  0.00     0.060 A 
ATOM     40  C   UNL A   1      46.031  22.825  24.400  1.00  0.00     0.016 A 
ATOM     41  C   UNL A   1      43.786  23.048  25.173  1.00  0.00     0.016 A 
ATOM     42  C   UNL A   1      46.357  24.125  24.864  1.00  0.00     0.010 A 
ATOM     43  C   UNL A   1      44.133  24.283  25.707  1.00  0.00     0.010 A 
ATOM     44  C   UNL A   1      45.425  24.848  25.597  1.00  0.00    -0.014 A 
BRANCH  44  45
ATOM     45  C   UNL A   1      45.663  26.129  26.336  1.00  0.00     0.031 A 
ATOM     46  C   UNL A   1      44.431  26.984  26.615  1.00  0.00     0.074 A 
ATOM     47  C   UNL A   1      46.816  26.284  27.061  1.00  0.00     0.049 A 
ATOM     48  N   UNL A   1      44.360  27.984  27.428  1.00  0.00    -0.248 NA
ATOM     49  C   UNL A   1      43.103  26.692  26.056  1.00  0.00     0.031 C 
ATOM     50  C   UNL A   1      47.005  27.050  28.293  1.00  0.00     0.029 A 
ATOM     51  N   UNL A   1      48.088  25.711  26.923  1.00  0.00    -0.354 N 
ATOM     52  C   UNL A   1      43.030  28.214  27.778  1.00  0.00     0.074 A 
ATOM     53  C   UNL A   1      42.288  27.428  26.826  1.00  0.00     0.031 C 
ATOM     54  C   UNL A   1      48.242  26.911  28.803  1.00  0.00     0.029 A 
ATOM     55  C   UNL A   1      49.017  26.452  27.694  1.00  0.00     0.049 A 
ATOM     56  H   UNL A   1      48.302  24.919  26.377  1.00  0.00     0.167 HD
ATOM     57  C   UNL A   1      42.740  28.941  28.915  1.00  0.00     0.037 A 
ATOM     58  C   UNL A   1      49.902  27.269  27.049  1.00  0.00     0.037 A 
ATOM     59  C   UNL A   1      43.982  29.550  29.486  1.00  0.00     0.049 A 
ATOM     60  C   UNL A   1      49.463  28.765  27.179  1.00  0.00     0.074 A 
ATOM     61  C   UNL A   1      44.555  29.682  30.743  1.00  0.00     0.029 A 
ATOM     62  N   UNL A   1      44.970  30.013  28.613  1.00  0.00    -0.354 N 
ATOM     63  N   UNL A   1      48.383  29.160  27.828  1.00  0.00    -0.248 NA
ATOM     64  C   UNL A   1      50.173  29.936  26.683  1.00  0.00     0.031 C 
ATOM     65  C   UNL A   1      45.901  30.161  30.587  1.00  0.00     0.029 A 
ATOM     66  C   UNL A   1      46.142  30.386  29.240  1.00  0.00     0.049 A 
ATOM     67  H   UNL A   1      44.841  30.069  27.638  1.00  0.00     0.167 HD
ATOM     68  C   UNL A   1      48.199  30.507  27.835  1.00  0.00     0.074 A 
ATOM     69  C   UNL A   1      49.357  30.949  27.063  1.00  0.00     0.031 C 
ATOM     70  C   UNL A   1      47.136  31.134  28.459  1.00  0.00     0.037 A 
BRANCH  57  71
ATOM     71  C   UNL A   1      41.367  29.016  29.660  1.00  0.00     0.058 A 
ATOM     72  C   UNL A   1      40.830  30.269  30.063  1.00  0.00     0.135 A 
ATOM     73  C   UNL A   1      40.570  27.923  30.089  1.00  0.00     0.135 A 
ATOM     74  F   UNL A   1      41.414  31.418  29.702  1.00  0.00    -0.206 F 
ATOM     75  C   UNL A   1      39.666  30.423  30.838  1.00  0.00     0.059 A 
ATOM     76  C   UNL A   1      39.364  28.057  30.819  1.00  0.00     0.059 A 
ATOM     77  F   UNL A   1      40.929  26.656  29.858  1.00  0.00    -0.206 F 
ATOM     78  C   UNL A   1      38.926  29.313  31.209  1.00  0.00     0.060 A 
BRANCH  78  79
ATOM     79  S   UNL A   1      37.387  29.545  32.141  1.00  0.00     0.124 S 
ATOM     80  O   UNL A   1      37.597  30.843  32.772  1.00  0.00    -0.237 OA
ATOM     81  O   UNL A   1      36.374  29.509  31.091  1.00  0.00    -0.237 OA
ATOM     82  O   UNL A   1      37.367  28.406  33.056  1.00  0.00    -0.744 OA
ENDBRANCH  78  79
ENDBRANCH  57  71
BRANCH  58  83
ATOM     83  C   UNL A   1      50.584  26.401  26.000  1.00  0.00     0.058 A 
ATOM     84  C   UNL A   1      50.371  26.828  24.653  1.00  0.00     0.135 A 
ATOM     85  C   UNL A   1      51.855  25.851  26.258  1.00  0.00     0.135 A 
ATOM     86  F   UNL A   1      49.181  27.345  24.305  1.00  0.00    -0.206 F 
ATOM     87  C   UNL A   1      51.411  26.940  23.714  1.00  0.00     0.059 A 
ATOM     88  C   UNL A   1      52.909  25.944  25.320  1.00  0.00     0.059 A 
ATOM     89  F   UNL A   1      52.152  25.425  27.495  1.00  0.00    -0.206 F 
ATOM     90  C   UNL A   1      52.694  26.547  24.075  1.00  0.00     0.060 A 
BRANCH  90  91
ATOM     91  S   UNL A   1      54.098  27.019  23.003  1.00  0.00     0.124 S 
ATOM     92  O   UNL A   1      55.232  26.437  23.708  1.00  0.00    -0.237 OA
ATOM     93  O   UNL A   1      53.775  26.398  21.719  1.00  0.00    -0.237 OA
ATOM     94  O   UNL A   1      54.041  28.476  22.999  1.00  0.00    -0.744 OA
ENDBRANCH  90  91
ENDBRANCH  58  83
BRANCH  70  95
ATOM     95  C   UNL A   1      46.835  32.612  28.335  1.00  0.00     0.058 A 
ATOM     96  C   UNL A   1      46.209  33.170  27.222  1.00  0.00     0.135 A 
ATOM     97  C   UNL A   1      47.225  33.538  29.345  1.00  0.00     0.135 A 
ATOM     98  F   UNL A   1      46.000  32.445  26.113  1.00  0.00    -0.206 F 
ATOM     99  C   UNL A   1      45.804  34.502  27.203  1.00  0.00     0.059 A 
ATOM    100  C   UNL A   1      46.890  34.879  29.320  1.00  0.00     0.059 A 
ATOM    101  F   UNL A   1      47.933  33.192  30.426  1.00  0.00    -0.206 F 
ATOM    102  C   UNL A   1      46.117  35.338  28.276  1.00  0.00     0.060 A 
BRANCH 102 103
ATOM    103  S   UNL A   1      45.512  37.024  28.299  1.00  0.00     0.124 S 
ATOM    104  O   UNL A   1      46.192  37.579  29.464  1.00  0.00    -0.237 OA
ATOM    105  O   UNL A   1      45.972  37.511  27.002  1.00  0.00    -0.237 OA
ATOM    106  O   UNL A   1      44.067  36.872  28.436  1.00  0.00    -0.744 OA
ENDBRANCH 102 103
ENDBRANCH  70  95
ENDBRANCH  44  45
ENDBRANCH  37  39
ENDBRANCH  36  37
ENDBRANCH  35  36
ENDBRANCH  34  35
ENDBRANCH  33  34
ENDBRANCH  32  33
ENDBRANCH  31  32
ENDBRANCH   1  31
TORSDOF 26
ENDMDL
