MODEL 1
REMARK VINA RESULT:     -10.2      0.000      0.000
REMARK SMILES O=C(OCCOCCOCCOCCOC(=O)c1ccc(-c2c3nc(c(-c4c(F)cc(S(=O)(=O)[O-])cc4F)c4ccc([nH]4)c(-c4c(F)cc(S(=O)(=O)[O-])cc4F)c4nc(c(-c5c(F)cc(S(=O)(=O)[O-])cc5F)c5ccc2[nH]5)C=C4)C=C3)cc1)c1ccc(NS(=O)(=O)C2=Cc3ccccc3CC2)cc1
REMARK SMILES IDX 9 1 8 2 7 3 6 4 5 5 4 6 3 7 2 8 1 9 84 10 85 11 103 12 86 13
REMARK SMILES IDX 102 14 87 15 88 16 89 18 90 19 91 20 92 21 93 22 101 23
REMARK SMILES IDX 94 24 100 25 95 26 99 27 96 28 98 29 97 30 10 31 11 32 12 33
REMARK SMILES IDX 13 34 14 35 15 36 16 37 17 38 18 39 19 40 83 41 20 42 82 43
REMARK SMILES IDX 21 44 22 45 23 46 76 47 24 48 81 49 75 50 77 51 25 52 80 53
REMARK SMILES IDX 74 54 73 55 26 57 60 58 39 59 59 60 40 61 43 62 58 63 78 64
REMARK SMILES IDX 41 65 42 66 57 68 79 69 44 70 27 71 28 72 37 73 29 74 30 75
REMARK SMILES IDX 36 76 38 77 31 78 32 79 33 80 34 81 35 82 61 83 62 84 71 85
REMARK SMILES IDX 63 86 64 87 70 88 72 89 65 90 66 91 67 92 68 93 69 94 45 95
REMARK SMILES IDX 46 96 55 97 47 98 48 99 54 100 56 101 49 102 50 103 51 104
REMARK SMILES IDX 52 105 53 106
REMARK H PARENT 88 17 77 56 43 67
REMARK Flexibility Score: inf
ROOT
ATOM      1  O   UNL A   1      40.330  21.211  25.849  1.00  0.00    -0.377 OA
ENDROOT
BRANCH   1   2
ATOM      2  C   UNL A   1      39.047  21.825  25.908  1.00  0.00     0.188 C 
BRANCH   2   3
ATOM      3  C   UNL A   1      37.885  21.028  25.312  1.00  0.00     0.188 C 
BRANCH   3   4
ATOM      4  O   UNL A   1      36.754  21.850  25.007  1.00  0.00    -0.376 OA
BRANCH   4   5
ATOM      5  C   UNL A   1      35.563  21.144  24.692  1.00  0.00     0.202 C 
BRANCH   5   6
ATOM      6  C   UNL A   1      34.402  21.232  25.683  1.00  0.00     0.261 C 
BRANCH   6   7
ATOM      7  O   UNL A   1      33.072  20.984  25.192  1.00  0.00    -0.460 OA
BRANCH   7   8
ATOM      8  C   UNL A   1      32.518  21.149  23.972  1.00  0.00     0.338 C 
ATOM      9  O   UNL A   1      32.440  20.181  23.217  1.00  0.00    -0.246 OA
BRANCH   8  10
ATOM     10  C   UNL A   1      32.101  22.474  23.443  1.00  0.00     0.060 A 
ATOM     11  C   UNL A   1      30.917  23.126  23.767  1.00  0.00     0.018 A 
ATOM     12  C   UNL A   1      32.967  23.096  22.527  1.00  0.00     0.018 A 
ATOM     13  C   UNL A   1      30.699  24.437  23.332  1.00  0.00     0.027 A 
ATOM     14  C   UNL A   1      32.748  24.411  22.108  1.00  0.00     0.027 A 
ATOM     15  C   UNL A   1      31.650  25.122  22.586  1.00  0.00     0.049 A 
BRANCH  15  16
ATOM     16  N   UNL A   1      31.666  26.534  22.410  1.00  0.00    -0.280 N 
ATOM     17  H   UNL A   1      32.417  26.916  21.901  1.00  0.00     0.180 HD
BRANCH  16  18
ATOM     18  S   UNL A   1      30.513  27.605  22.999  1.00  0.00     0.258 S 
ATOM     19  O   UNL A   1      30.401  28.581  21.929  1.00  0.00    -0.202 OA
ATOM     20  O   UNL A   1      29.356  26.803  23.344  1.00  0.00    -0.202 OA
BRANCH  18  21
ATOM     21  C   UNL A   1      31.184  28.390  24.464  1.00  0.00     0.066 C 
ATOM     22  C   UNL A   1      31.166  27.624  25.583  1.00  0.00     0.026 C 
ATOM     23  C   UNL A   1      32.519  29.098  24.292  1.00  0.00     0.055 C 
ATOM     24  C   UNL A   1      32.295  26.642  25.643  1.00  0.00    -0.021 A 
ATOM     25  C   UNL A   1      33.627  28.075  24.013  1.00  0.00     0.041 C 
ATOM     26  C   UNL A   1      32.216  25.542  26.497  1.00  0.00     0.008 A 
ATOM     27  C   UNL A   1      33.443  26.817  24.834  1.00  0.00    -0.040 A 
ATOM     28  C   UNL A   1      33.222  24.574  26.480  1.00  0.00     0.001 A 
ATOM     29  C   UNL A   1      34.415  25.813  24.783  1.00  0.00     0.004 A 
ATOM     30  C   UNL A   1      34.298  24.691  25.599  1.00  0.00     0.000 A 
ENDBRANCH  18  21
ENDBRANCH  16  18
ENDBRANCH  15  16
ENDBRANCH   8  10
ENDBRANCH   7   8
ENDBRANCH   6   7
ENDBRANCH   5   6
ENDBRANCH   4   5
ENDBRANCH   3   4
ENDBRANCH   2   3
ENDBRANCH   1   2
BRANCH   1  31
ATOM     31  C   UNL A   1      40.523  20.004  26.568  1.00  0.00     0.188 C 
BRANCH  31  32
ATOM     32  C   UNL A   1      41.726  19.106  26.215  1.00  0.00     0.188 C 
BRANCH  32  33
ATOM     33  O   UNL A   1      42.492  19.528  25.094  1.00  0.00    -0.376 OA
BRANCH  33  34
ATOM     34  C   UNL A   1      43.905  19.530  25.272  1.00  0.00     0.202 C 
BRANCH  34  35
ATOM     35  C   UNL A   1      44.547  20.920  25.389  1.00  0.00     0.261 C 
BRANCH  35  36
ATOM     36  O   UNL A   1      43.735  21.912  26.037  1.00  0.00    -0.460 OA
BRANCH  36  37
ATOM     37  C   UNL A   1      43.345  22.981  25.310  1.00  0.00     0.338 C 
ATOM     38  O   UNL A   1      43.183  23.027  24.102  1.00  0.00    -0.246 OA
BRANCH  37  39
ATOM     39  C   UNL A   1      42.908  24.028  26.262  1.00  0.00     0.060 A 
ATOM     40  C   UNL A   1      43.197  25.366  25.960  1.00  0.00     0.016 A 
ATOM     41  C   UNL A   1      42.150  23.706  27.394  1.00  0.00     0.016 A 
ATOM     42  C   UNL A   1      42.764  26.382  26.815  1.00  0.00     0.010 A 
ATOM     43  C   UNL A   1      41.729  24.721  28.255  1.00  0.00     0.010 A 
ATOM     44  C   UNL A   1      42.072  26.059  27.991  1.00  0.00    -0.014 A 
BRANCH  44  45
ATOM     45  C   UNL A   1      41.983  27.065  29.078  1.00  0.00     0.031 A 
ATOM     46  C   UNL A   1      43.051  27.022  30.139  1.00  0.00     0.074 A 
ATOM     47  C   UNL A   1      41.014  27.995  29.127  1.00  0.00     0.049 A 
ATOM     48  N   UNL A   1      43.219  27.786  31.185  1.00  0.00    -0.248 NA
ATOM     49  C   UNL A   1      44.068  25.964  29.994  1.00  0.00     0.031 C 
ATOM     50  C   UNL A   1      39.939  28.159  28.152  1.00  0.00     0.029 A 
ATOM     51  N   UNL A   1      40.785  28.985  30.051  1.00  0.00    -0.354 N 
ATOM     52  C   UNL A   1      44.356  27.303  31.821  1.00  0.00     0.074 A 
ATOM     53  C   UNL A   1      44.814  26.158  31.068  1.00  0.00     0.031 C 
ATOM     54  C   UNL A   1      39.162  29.190  28.531  1.00  0.00     0.029 A 
ATOM     55  C   UNL A   1      39.672  29.745  29.785  1.00  0.00     0.049 A 
ATOM     56  H   UNL A   1      41.364  29.136  30.833  1.00  0.00     0.167 HD
ATOM     57  C   UNL A   1      44.975  27.774  32.929  1.00  0.00     0.037 A 
ATOM     58  C   UNL A   1      39.130  30.767  30.480  1.00  0.00     0.037 A 
ATOM     59  C   UNL A   1      44.509  28.899  33.690  1.00  0.00     0.049 A 
ATOM     60  C   UNL A   1      39.797  31.239  31.749  1.00  0.00     0.074 A 
ATOM     61  C   UNL A   1      45.066  29.462  34.824  1.00  0.00     0.029 A 
ATOM     62  N   UNL A   1      43.361  29.624  33.403  1.00  0.00    -0.354 N 
ATOM     63  N   UNL A   1      40.894  30.799  32.320  1.00  0.00    -0.248 NA
ATOM     64  C   UNL A   1      39.156  32.351  32.465  1.00  0.00     0.031 C 
ATOM     65  C   UNL A   1      44.229  30.498  35.251  1.00  0.00     0.029 A 
ATOM     66  C   UNL A   1      43.181  30.616  34.350  1.00  0.00     0.049 A 
ATOM     67  H   UNL A   1      42.764  29.457  32.639  1.00  0.00     0.167 HD
ATOM     68  C   UNL A   1      41.095  31.605  33.438  1.00  0.00     0.074 A 
ATOM     69  C   UNL A   1      40.004  32.558  33.463  1.00  0.00     0.031 C 
ATOM     70  C   UNL A   1      42.095  31.566  34.354  1.00  0.00     0.037 A 
BRANCH  57  71
ATOM     71  C   UNL A   1      46.198  27.033  33.390  1.00  0.00     0.058 A 
ATOM     72  C   UNL A   1      47.486  27.397  32.965  1.00  0.00     0.135 A 
ATOM     73  C   UNL A   1      46.077  25.924  34.240  1.00  0.00     0.135 A 
ATOM     74  F   UNL A   1      47.656  28.435  32.129  1.00  0.00    -0.206 F 
ATOM     75  C   UNL A   1      48.607  26.659  33.329  1.00  0.00     0.059 A 
ATOM     76  C   UNL A   1      47.187  25.188  34.642  1.00  0.00     0.059 A 
ATOM     77  F   UNL A   1      44.867  25.530  34.670  1.00  0.00    -0.206 F 
ATOM     78  C   UNL A   1      48.445  25.550  34.162  1.00  0.00     0.060 A 
BRANCH  78  79
ATOM     79  S   UNL A   1      49.902  24.579  34.600  1.00  0.00     0.124 S 
ATOM     80  O   UNL A   1      49.992  23.664  33.466  1.00  0.00    -0.237 OA
ATOM     81  O   UNL A   1      50.946  25.597  34.675  1.00  0.00    -0.237 OA
ATOM     82  O   UNL A   1      49.532  23.968  35.873  1.00  0.00    -0.744 OA
ENDBRANCH  78  79
ENDBRANCH  57  71
BRANCH  58  83
ATOM     83  C   UNL A   1      37.897  31.436  29.981  1.00  0.00     0.058 A 
ATOM     84  C   UNL A   1      37.963  32.673  29.322  1.00  0.00     0.135 A 
ATOM     85  C   UNL A   1      36.632  30.853  30.147  1.00  0.00     0.135 A 
ATOM     86  F   UNL A   1      39.148  33.280  29.153  1.00  0.00    -0.206 F 
ATOM     87  C   UNL A   1      36.820  33.308  28.845  1.00  0.00     0.059 A 
ATOM     88  C   UNL A   1      35.477  31.458  29.660  1.00  0.00     0.059 A 
ATOM     89  F   UNL A   1      36.514  29.669  30.769  1.00  0.00    -0.206 F 
ATOM     90  C   UNL A   1      35.581  32.687  29.013  1.00  0.00     0.060 A 
BRANCH  90  91
ATOM     91  S   UNL A   1      34.116  33.484  28.318  1.00  0.00     0.124 S 
ATOM     92  O   UNL A   1      33.430  32.354  27.702  1.00  0.00    -0.237 OA
ATOM     93  O   UNL A   1      33.482  34.045  29.508  1.00  0.00    -0.237 OA
ATOM     94  O   UNL A   1      34.674  34.465  27.394  1.00  0.00    -0.744 OA
ENDBRANCH  90  91
ENDBRANCH  58  83
BRANCH  70  95
ATOM     95  C   UNL A   1      42.097  32.614  35.434  1.00  0.00     0.058 A 
ATOM     96  C   UNL A   1      41.353  32.467  36.616  1.00  0.00     0.135 A 
ATOM     97  C   UNL A   1      42.905  33.756  35.308  1.00  0.00     0.135 A 
ATOM     98  F   UNL A   1      40.563  31.395  36.788  1.00  0.00    -0.206 F 
ATOM     99  C   UNL A   1      41.393  33.427  37.622  1.00  0.00     0.059 A 
ATOM    100  C   UNL A   1      42.981  34.715  36.313  1.00  0.00     0.059 A 
ATOM    101  F   UNL A   1      43.648  33.940  34.204  1.00  0.00    -0.206 F 
ATOM    102  C   UNL A   1      42.209  34.548  37.461  1.00  0.00     0.060 A 
BRANCH 102 103
ATOM    103  S   UNL A   1      42.273  35.775  38.785  1.00  0.00     0.124 S 
ATOM    104  O   UNL A   1      43.010  35.054  39.817  1.00  0.00    -0.237 OA
ATOM    105  O   UNL A   1      42.984  36.882  38.154  1.00  0.00    -0.237 OA
ATOM    106  O   UNL A   1      40.866  36.030  39.079  1.00  0.00    -0.744 OA
ENDBRANCH 102 103
ENDBRANCH  70  95
ENDBRANCH  44  45
ENDBRANCH  37  39
ENDBRANCH  36  37
ENDBRANCH  35  36
ENDBRANCH  34  35
ENDBRANCH  33  34
ENDBRANCH  32  33
ENDBRANCH  31  32
ENDBRANCH   1  31
TORSDOF 26
ENDMDL
MODEL 2
REMARK VINA RESULT:      -9.8      2.066      8.101
REMARK SMILES O=C(OCCOCCOCCOCCOC(=O)c1ccc(-c2c3nc(c(-c4c(F)cc(S(=O)(=O)[O-])cc4F)c4ccc([nH]4)c(-c4c(F)cc(S(=O)(=O)[O-])cc4F)c4nc(c(-c5c(F)cc(S(=O)(=O)[O-])cc5F)c5ccc2[nH]5)C=C4)C=C3)cc1)c1ccc(NS(=O)(=O)C2=Cc3ccccc3CC2)cc1
REMARK SMILES IDX 9 1 8 2 7 3 6 4 5 5 4 6 3 7 2 8 1 9 84 10 85 11 103 12 86 13
REMARK SMILES IDX 102 14 87 15 88 16 89 18 90 19 91 20 92 21 93 22 101 23
REMARK SMILES IDX 94 24 100 25 95 26 99 27 96 28 98 29 97 30 10 31 11 32 12 33
REMARK SMILES IDX 13 34 14 35 15 36 16 37 17 38 18 39 19 40 83 41 20 42 82 43
REMARK SMILES IDX 21 44 22 45 23 46 76 47 24 48 81 49 75 50 77 51 25 52 80 53
REMARK SMILES IDX 74 54 73 55 26 57 60 58 39 59 59 60 40 61 43 62 58 63 78 64
REMARK SMILES IDX 41 65 42 66 57 68 79 69 44 70 27 71 28 72 37 73 29 74 30 75
REMARK SMILES IDX 36 76 38 77 31 78 32 79 33 80 34 81 35 82 61 83 62 84 71 85
REMARK SMILES IDX 63 86 64 87 70 88 72 89 65 90 66 91 67 92 68 93 69 94 45 95
REMARK SMILES IDX 46 96 55 97 47 98 48 99 54 100 56 101 49 102 50 103 51 104
REMARK SMILES IDX 52 105 53 106
REMARK H PARENT 88 17 77 56 43 67
REMARK Flexibility Score: inf
ROOT
ATOM      1  O   UNL A   1      40.163  22.626  27.075  1.00  0.00    -0.377 OA
ENDROOT
BRANCH   1   2
ATOM      2  C   UNL A   1      38.965  22.984  26.394  1.00  0.00     0.188 C 
BRANCH   2   3
ATOM      3  C   UNL A   1      38.242  21.856  25.654  1.00  0.00     0.188 C 
BRANCH   3   4
ATOM      4  O   UNL A   1      37.291  22.345  24.704  1.00  0.00    -0.376 OA
BRANCH   4   5
ATOM      5  C   UNL A   1      36.185  21.488  24.461  1.00  0.00     0.202 C 
BRANCH   5   6
ATOM      6  C   UNL A   1      35.053  21.481  25.489  1.00  0.00     0.261 C 
BRANCH   6   7
ATOM      7  O   UNL A   1      33.849  20.762  25.167  1.00  0.00    -0.460 OA
BRANCH   7   8
ATOM      8  C   UNL A   1      33.005  20.847  24.117  1.00  0.00     0.338 C 
ATOM      9  O   UNL A   1      32.722  19.823  23.496  1.00  0.00    -0.246 OA
BRANCH   8  10
ATOM     10  C   UNL A   1      32.486  22.138  23.595  1.00  0.00     0.060 A 
ATOM     11  C   UNL A   1      31.303  22.745  24.000  1.00  0.00     0.018 A 
ATOM     12  C   UNL A   1      33.246  22.775  22.600  1.00  0.00     0.018 A 
ATOM     13  C   UNL A   1      30.990  24.034  23.556  1.00  0.00     0.027 A 
ATOM     14  C   UNL A   1      32.934  24.068  22.171  1.00  0.00     0.027 A 
ATOM     15  C   UNL A   1      31.846  24.741  22.721  1.00  0.00     0.049 A 
BRANCH  15  16
ATOM     16  N   UNL A   1      31.783  26.148  22.515  1.00  0.00    -0.280 N 
ATOM     17  H   UNL A   1      32.522  26.563  22.015  1.00  0.00     0.180 HD
BRANCH  16  18
ATOM     18  S   UNL A   1      30.555  27.160  23.053  1.00  0.00     0.258 S 
ATOM     19  O   UNL A   1      30.407  28.101  21.958  1.00  0.00    -0.202 OA
ATOM     20  O   UNL A   1      29.440  26.298  23.395  1.00  0.00    -0.202 OA
BRANCH  18  21
ATOM     21  C   UNL A   1      31.144  28.019  24.512  1.00  0.00     0.066 C 
ATOM     22  C   UNL A   1      31.109  27.294  25.657  1.00  0.00     0.026 C 
ATOM     23  C   UNL A   1      32.462  28.764  24.362  1.00  0.00     0.055 C 
ATOM     24  C   UNL A   1      32.264  26.352  25.795  1.00  0.00    -0.021 A 
ATOM     25  C   UNL A   1      33.612  27.769  24.163  1.00  0.00     0.041 C 
ATOM     26  C   UNL A   1      32.188  25.282  26.686  1.00  0.00     0.008 A 
ATOM     27  C   UNL A   1      33.436  26.535  25.023  1.00  0.00    -0.040 A 
ATOM     28  C   UNL A   1      33.224  24.348  26.742  1.00  0.00     0.001 A 
ATOM     29  C   UNL A   1      34.440  25.563  25.045  1.00  0.00     0.004 A 
ATOM     30  C   UNL A   1      34.328  24.468  25.898  1.00  0.00     0.000 A 
ENDBRANCH  18  21
ENDBRANCH  16  18
ENDBRANCH  15  16
ENDBRANCH   8  10
ENDBRANCH   7   8
ENDBRANCH   6   7
ENDBRANCH   5   6
ENDBRANCH   4   5
ENDBRANCH   3   4
ENDBRANCH   2   3
ENDBRANCH   1   2
BRANCH   1  31
ATOM     31  C   UNL A   1      40.471  21.247  27.200  1.00  0.00     0.188 C 
BRANCH  31  32
ATOM     32  C   UNL A   1      41.547  20.633  26.282  1.00  0.00     0.188 C 
BRANCH  32  33
ATOM     33  O   UNL A   1      42.040  21.494  25.263  1.00  0.00    -0.376 OA
BRANCH  33  34
ATOM     34  C   UNL A   1      43.161  22.298  25.618  1.00  0.00     0.202 C 
BRANCH  34  35
ATOM     35  C   UNL A   1      43.057  23.776  25.217  1.00  0.00     0.261 C 
BRANCH  35  36
ATOM     36  O   UNL A   1      42.892  24.693  26.311  1.00  0.00    -0.460 OA
BRANCH  36  37
ATOM     37  C   UNL A   1      42.155  25.805  26.097  1.00  0.00     0.338 C 
ATOM     38  O   UNL A   1      41.370  26.000  25.184  1.00  0.00    -0.246 OA
BRANCH  37  39
ATOM     39  C   UNL A   1      42.279  26.656  27.302  1.00  0.00     0.060 A 
ATOM     40  C   UNL A   1      41.842  26.140  28.531  1.00  0.00     0.016 A 
ATOM     41  C   UNL A   1      42.895  27.911  27.241  1.00  0.00     0.016 A 
ATOM     42  C   UNL A   1      41.981  26.899  29.694  1.00  0.00     0.010 A 
ATOM     43  C   UNL A   1      43.022  28.676  28.403  1.00  0.00     0.010 A 
ATOM     44  C   UNL A   1      42.525  28.190  29.625  1.00  0.00    -0.014 A 
BRANCH  44  45
ATOM     45  C   UNL A   1      42.295  29.134  30.747  1.00  0.00     0.031 A 
ATOM     46  C   UNL A   1      41.064  29.997  30.672  1.00  0.00     0.074 A 
ATOM     47  C   UNL A   1      43.121  29.219  31.804  1.00  0.00     0.049 A 
ATOM     48  N   UNL A   1      40.618  30.890  31.515  1.00  0.00    -0.248 NA
ATOM     49  C   UNL A   1      40.223  29.828  29.473  1.00  0.00     0.031 C 
ATOM     50  C   UNL A   1      44.329  28.423  32.009  1.00  0.00     0.029 A 
ATOM     51  N   UNL A   1      43.059  30.029  32.912  1.00  0.00    -0.354 N 
ATOM     52  C   UNL A   1      39.450  31.387  30.951  1.00  0.00     0.074 A 
ATOM     53  C   UNL A   1      39.276  30.727  29.677  1.00  0.00     0.031 C 
ATOM     54  C   UNL A   1      44.896  28.786  33.174  1.00  0.00     0.029 A 
ATOM     55  C   UNL A   1      44.104  29.853  33.787  1.00  0.00     0.049 A 
ATOM     56  H   UNL A   1      42.333  30.676  33.065  1.00  0.00     0.167 HD
ATOM     57  C   UNL A   1      38.588  32.304  31.450  1.00  0.00     0.037 A 
ATOM     58  C   UNL A   1      44.385  30.486  34.944  1.00  0.00     0.037 A 
ATOM     59  C   UNL A   1      38.771  32.975  32.706  1.00  0.00     0.049 A 
ATOM     60  C   UNL A   1      43.446  31.552  35.455  1.00  0.00     0.074 A 
ATOM     61  C   UNL A   1      37.954  33.916  33.306  1.00  0.00     0.029 A 
ATOM     62  N   UNL A   1      39.857  32.790  33.548  1.00  0.00    -0.354 N 
ATOM     63  N   UNL A   1      42.323  31.986  34.931  1.00  0.00    -0.248 NA
ATOM     64  C   UNL A   1      43.809  32.211  36.718  1.00  0.00     0.031 C 
ATOM     65  C   UNL A   1      38.569  34.334  34.490  1.00  0.00     0.029 A 
ATOM     66  C   UNL A   1      39.743  33.613  34.654  1.00  0.00     0.049 A 
ATOM     67  H   UNL A   1      40.599  32.165  33.383  1.00  0.00     0.167 HD
ATOM     68  C   UNL A   1      41.828  32.938  35.819  1.00  0.00     0.074 A 
ATOM     69  C   UNL A   1      42.775  33.017  36.912  1.00  0.00     0.031 C 
ATOM     70  C   UNL A   1      40.689  33.671  35.741  1.00  0.00     0.037 A 
BRANCH  57  71
ATOM     71  C   UNL A   1      37.398  32.649  30.600  1.00  0.00     0.058 A 
ATOM     72  C   UNL A   1      37.462  33.641  29.607  1.00  0.00     0.135 A 
ATOM     73  C   UNL A   1      36.168  32.006  30.806  1.00  0.00     0.135 A 
ATOM     74  F   UNL A   1      38.608  34.307  29.388  1.00  0.00    -0.206 F 
ATOM     75  C   UNL A   1      36.337  34.014  28.880  1.00  0.00     0.059 A 
ATOM     76  C   UNL A   1      35.037  32.342  30.070  1.00  0.00     0.059 A 
ATOM     77  F   UNL A   1      36.052  31.055  31.748  1.00  0.00    -0.206 F 
ATOM     78  C   UNL A   1      35.126  33.364  29.125  1.00  0.00     0.060 A 
BRANCH  78  79
ATOM     79  S   UNL A   1      33.665  33.880  28.200  1.00  0.00     0.124 S 
ATOM     80  O   UNL A   1      32.851  34.477  29.255  1.00  0.00    -0.237 OA
ATOM     81  O   UNL A   1      34.224  34.813  27.227  1.00  0.00    -0.237 OA
ATOM     82  O   UNL A   1      33.156  32.630  27.645  1.00  0.00    -0.744 OA
ENDBRANCH  78  79
ENDBRANCH  57  71
BRANCH  58  83
ATOM     83  C   UNL A   1      45.600  30.115  35.721  1.00  0.00     0.058 A 
ATOM     84  C   UNL A   1      46.832  30.738  35.476  1.00  0.00     0.135 A 
ATOM     85  C   UNL A   1      45.553  29.135  36.724  1.00  0.00     0.135 A 
ATOM     86  F   UNL A   1      46.933  31.670  34.515  1.00  0.00    -0.206 F 
ATOM     87  C   UNL A   1      47.975  30.405  36.197  1.00  0.00     0.059 A 
ATOM     88  C   UNL A   1      46.677  28.800  37.474  1.00  0.00     0.059 A 
ATOM     89  F   UNL A   1      44.397  28.510  36.999  1.00  0.00    -0.206 F 
ATOM     90  C   UNL A   1      47.885  29.439  37.200  1.00  0.00     0.060 A 
BRANCH  90  91
ATOM     91  S   UNL A   1      49.357  29.074  38.182  1.00  0.00     0.124 S 
ATOM     92  O   UNL A   1      49.570  30.338  38.876  1.00  0.00    -0.237 OA
ATOM     93  O   UNL A   1      48.902  27.959  39.008  1.00  0.00    -0.237 OA
ATOM     94  O   UNL A   1      50.355  28.729  37.174  1.00  0.00    -0.744 OA
ENDBRANCH  90  91
ENDBRANCH  58  83
BRANCH  70  95
ATOM     95  C   UNL A   1      40.366  34.587  36.891  1.00  0.00     0.058 A 
ATOM     96  C   UNL A   1      40.784  35.928  36.916  1.00  0.00     0.135 A 
ATOM     97  C   UNL A   1      39.573  34.129  37.957  1.00  0.00     0.135 A 
ATOM     98  F   UNL A   1      41.544  36.416  35.924  1.00  0.00    -0.206 F 
ATOM     99  C   UNL A   1      40.447  36.773  37.969  1.00  0.00     0.059 A 
ATOM    100  C   UNL A   1      39.202  34.964  39.005  1.00  0.00     0.059 A 
ATOM    101  F   UNL A   1      39.135  32.860  37.975  1.00  0.00    -0.206 F 
ATOM    102  C   UNL A   1      39.656  36.282  39.009  1.00  0.00     0.060 A 
BRANCH 102 103
ATOM    103  S   UNL A   1      39.203  37.395  40.357  1.00  0.00     0.124 S 
ATOM    104  O   UNL A   1      38.415  38.402  39.653  1.00  0.00    -0.237 OA
ATOM    105  O   UNL A   1      38.456  36.518  41.252  1.00  0.00    -0.237 OA
ATOM    106  O   UNL A   1      40.492  37.851  40.868  1.00  0.00    -0.744 OA
ENDBRANCH 102 103
ENDBRANCH  70  95
ENDBRANCH  44  45
ENDBRANCH  37  39
ENDBRANCH  36  37
ENDBRANCH  35  36
ENDBRANCH  34  35
ENDBRANCH  33  34
ENDBRANCH  32  33
ENDBRANCH  31  32
ENDBRANCH   1  31
TORSDOF 26
ENDMDL
MODEL 3
REMARK VINA RESULT:      -9.3      4.525     12.818
REMARK SMILES O=C(OCCOCCOCCOCCOC(=O)c1ccc(-c2c3nc(c(-c4c(F)cc(S(=O)(=O)[O-])cc4F)c4ccc([nH]4)c(-c4c(F)cc(S(=O)(=O)[O-])cc4F)c4nc(c(-c5c(F)cc(S(=O)(=O)[O-])cc5F)c5ccc2[nH]5)C=C4)C=C3)cc1)c1ccc(NS(=O)(=O)C2=Cc3ccccc3CC2)cc1
REMARK SMILES IDX 9 1 8 2 7 3 6 4 5 5 4 6 3 7 2 8 1 9 84 10 85 11 103 12 86 13
REMARK SMILES IDX 102 14 87 15 88 16 89 18 90 19 91 20 92 21 93 22 101 23
REMARK SMILES IDX 94 24 100 25 95 26 99 27 96 28 98 29 97 30 10 31 11 32 12 33
REMARK SMILES IDX 13 34 14 35 15 36 16 37 17 38 18 39 19 40 83 41 20 42 82 43
REMARK SMILES IDX 21 44 22 45 23 46 76 47 24 48 81 49 75 50 77 51 25 52 80 53
REMARK SMILES IDX 74 54 73 55 26 57 60 58 39 59 59 60 40 61 43 62 58 63 78 64
REMARK SMILES IDX 41 65 42 66 57 68 79 69 44 70 27 71 28 72 37 73 29 74 30 75
REMARK SMILES IDX 36 76 38 77 31 78 32 79 33 80 34 81 35 82 61 83 62 84 71 85
REMARK SMILES IDX 63 86 64 87 70 88 72 89 65 90 66 91 67 92 68 93 69 94 45 95
REMARK SMILES IDX 46 96 55 97 47 98 48 99 54 100 56 101 49 102 50 103 51 104
REMARK SMILES IDX 52 105 53 106
REMARK H PARENT 88 17 77 56 43 67
REMARK Flexibility Score: inf
ROOT
ATOM      1  O   UNL A   1      38.332  34.142  31.155  1.00  0.00    -0.377 OA
ENDROOT
BRANCH   1   2
ATOM      2  C   UNL A   1      38.774  34.202  32.507  1.00  0.00     0.188 C 
BRANCH   2   3
ATOM      3  C   UNL A   1      38.485  32.971  33.371  1.00  0.00     0.188 C 
BRANCH   3   4
ATOM      4  O   UNL A   1      39.357  32.877  34.500  1.00  0.00    -0.376 OA
BRANCH   4   5
ATOM      5  C   UNL A   1      39.748  31.557  34.851  1.00  0.00     0.202 C 
BRANCH   5   6
ATOM      6  C   UNL A   1      39.388  30.428  33.885  1.00  0.00     0.261 C 
BRANCH   6   7
ATOM      7  O   UNL A   1      40.445  29.566  33.427  1.00  0.00    -0.460 OA
BRANCH   7   8
ATOM      8  C   UNL A   1      40.583  28.223  33.452  1.00  0.00     0.338 C 
ATOM      9  O   UNL A   1      39.698  27.523  32.961  1.00  0.00    -0.246 OA
BRANCH   8  10
ATOM     10  C   UNL A   1      41.701  27.535  34.149  1.00  0.00     0.060 A 
ATOM     11  C   UNL A   1      41.553  26.609  35.175  1.00  0.00     0.018 A 
ATOM     12  C   UNL A   1      43.005  27.872  33.748  1.00  0.00     0.018 A 
ATOM     13  C   UNL A   1      42.666  25.910  35.652  1.00  0.00     0.027 A 
ATOM     14  C   UNL A   1      44.111  27.159  34.220  1.00  0.00     0.027 A 
ATOM     15  C   UNL A   1      43.932  26.106  35.114  1.00  0.00     0.049 A 
BRANCH  15  16
ATOM     16  N   UNL A   1      45.023  25.210  35.286  1.00  0.00    -0.280 N 
ATOM     17  H   UNL A   1      45.930  25.579  35.187  1.00  0.00     0.180 HD
BRANCH  16  18
ATOM     18  S   UNL A   1      44.896  23.572  35.643  1.00  0.00     0.258 S 
ATOM     19  O   UNL A   1      44.971  23.550  37.092  1.00  0.00    -0.202 OA
ATOM     20  O   UNL A   1      43.685  23.110  34.993  1.00  0.00    -0.202 OA
BRANCH  18  21
ATOM     21  C   UNL A   1      46.327  22.743  34.950  1.00  0.00     0.066 C 
ATOM     22  C   UNL A   1      47.374  22.603  35.800  1.00  0.00     0.026 C 
ATOM     23  C   UNL A   1      46.049  21.456  34.188  1.00  0.00     0.055 C 
ATOM     24  C   UNL A   1      47.217  21.453  36.746  1.00  0.00    -0.021 A 
ATOM     25  C   UNL A   1      45.556  20.367  35.150  1.00  0.00     0.041 C 
ATOM     26  C   UNL A   1      47.983  21.400  37.911  1.00  0.00     0.008 A 
ATOM     27  C   UNL A   1      46.290  20.419  36.472  1.00  0.00    -0.040 A 
ATOM     28  C   UNL A   1      47.766  20.382  38.841  1.00  0.00     0.001 A 
ATOM     29  C   UNL A   1      46.040  19.438  37.437  1.00  0.00     0.004 A 
ATOM     30  C   UNL A   1      46.772  19.427  38.622  1.00  0.00     0.000 A 
ENDBRANCH  18  21
ENDBRANCH  16  18
ENDBRANCH  15  16
ENDBRANCH   8  10
ENDBRANCH   7   8
ENDBRANCH   6   7
ENDBRANCH   5   6
ENDBRANCH   4   5
ENDBRANCH   3   4
ENDBRANCH   2   3
ENDBRANCH   1   2
BRANCH   1  31
ATOM     31  C   UNL A   1      36.937  34.072  30.913  1.00  0.00     0.188 C 
BRANCH  31  32
ATOM     32  C   UNL A   1      36.439  33.629  29.523  1.00  0.00     0.188 C 
BRANCH  32  33
ATOM     33  O   UNL A   1      35.026  33.571  29.374  1.00  0.00    -0.376 OA
BRANCH  33  34
ATOM     34  C   UNL A   1      34.468  32.266  29.247  1.00  0.00     0.202 C 
BRANCH  34  35
ATOM     35  C   UNL A   1      33.828  31.959  27.885  1.00  0.00     0.261 C 
BRANCH  35  36
ATOM     36  O   UNL A   1      34.469  30.916  27.134  1.00  0.00    -0.460 OA
BRANCH  36  37
ATOM     37  C   UNL A   1      34.612  29.710  27.725  1.00  0.00     0.338 C 
ATOM     38  O   UNL A   1      33.806  28.794  27.727  1.00  0.00    -0.246 OA
BRANCH  37  39
ATOM     39  C   UNL A   1      36.021  29.596  28.164  1.00  0.00     0.060 A 
ATOM     40  C   UNL A   1      37.034  29.913  27.247  1.00  0.00     0.016 A 
ATOM     41  C   UNL A   1      36.343  29.264  29.485  1.00  0.00     0.016 A 
ATOM     42  C   UNL A   1      38.372  29.856  27.639  1.00  0.00     0.010 A 
ATOM     43  C   UNL A   1      37.683  29.195  29.873  1.00  0.00     0.010 A 
ATOM     44  C   UNL A   1      38.703  29.448  28.939  1.00  0.00    -0.014 A 
BRANCH  44  45
ATOM     45  C   UNL A   1      40.086  28.993  29.226  1.00  0.00     0.031 A 
ATOM     46  C   UNL A   1      40.980  29.949  29.971  1.00  0.00     0.074 A 
ATOM     47  C   UNL A   1      40.539  27.779  28.865  1.00  0.00     0.049 A 
ATOM     48  N   UNL A   1      42.218  29.802  30.359  1.00  0.00    -0.248 NA
ATOM     49  C   UNL A   1      40.388  31.252  30.321  1.00  0.00     0.031 C 
ATOM     50  C   UNL A   1      39.769  26.755  28.165  1.00  0.00     0.029 A 
ATOM     51  N   UNL A   1      41.775  27.207  29.046  1.00  0.00    -0.354 N 
ATOM     52  C   UNL A   1      42.553  30.990  30.998  1.00  0.00     0.074 A 
ATOM     53  C   UNL A   1      41.403  31.861  30.909  1.00  0.00     0.031 C 
ATOM     54  C   UNL A   1      40.552  25.677  27.973  1.00  0.00     0.029 A 
ATOM     55  C   UNL A   1      41.883  25.944  28.519  1.00  0.00     0.049 A 
ATOM     56  H   UNL A   1      42.514  27.662  29.510  1.00  0.00     0.167 HD
ATOM     57  C   UNL A   1      43.710  31.327  31.613  1.00  0.00     0.037 A 
ATOM     58  C   UNL A   1      42.940  25.105  28.481  1.00  0.00     0.037 A 
ATOM     59  C   UNL A   1      44.860  30.470  31.683  1.00  0.00     0.049 A 
ATOM     60  C   UNL A   1      44.243  25.523  29.117  1.00  0.00     0.074 A 
ATOM     61  C   UNL A   1      46.079  30.713  32.289  1.00  0.00     0.029 A 
ATOM     62  N   UNL A   1      44.939  29.209  31.112  1.00  0.00    -0.354 N 
ATOM     63  N   UNL A   1      44.535  26.634  29.752  1.00  0.00    -0.248 NA
ATOM     64  C   UNL A   1      45.359  24.569  29.037  1.00  0.00     0.031 C 
ATOM     65  C   UNL A   1      46.913  29.617  32.044  1.00  0.00     0.029 A 
ATOM     66  C   UNL A   1      46.193  28.668  31.332  1.00  0.00     0.049 A 
ATOM     67  H   UNL A   1      44.210  28.764  30.622  1.00  0.00     0.167 HD
ATOM     68  C   UNL A   1      45.854  26.496  30.179  1.00  0.00     0.074 A 
ATOM     69  C   UNL A   1      46.301  25.195  29.730  1.00  0.00     0.031 C 
ATOM     70  C   UNL A   1      46.620  27.364  30.888  1.00  0.00     0.037 A 
BRANCH  57  71
ATOM     71  C   UNL A   1      43.782  32.701  32.218  1.00  0.00     0.058 A 
ATOM     72  C   UNL A   1      43.405  32.943  33.549  1.00  0.00     0.135 A 
ATOM     73  C   UNL A   1      44.199  33.795  31.445  1.00  0.00     0.135 A 
ATOM     74  F   UNL A   1      42.972  31.935  34.324  1.00  0.00    -0.206 F 
ATOM     75  C   UNL A   1      43.395  34.229  34.079  1.00  0.00     0.059 A 
ATOM     76  C   UNL A   1      44.226  35.085  31.963  1.00  0.00     0.059 A 
ATOM     77  F   UNL A   1      44.563  33.619  30.164  1.00  0.00    -0.206 F 
ATOM     78  C   UNL A   1      43.800  35.295  33.274  1.00  0.00     0.060 A 
BRANCH  78  79
ATOM     79  S   UNL A   1      43.751  36.963  33.962  1.00  0.00     0.124 S 
ATOM     80  O   UNL A   1      43.863  37.777  32.754  1.00  0.00    -0.237 OA
ATOM     81  O   UNL A   1      42.451  36.990  34.625  1.00  0.00    -0.237 OA
ATOM     82  O   UNL A   1      44.907  36.997  34.851  1.00  0.00    -0.744 OA
ENDBRANCH  78  79
ENDBRANCH  57  71
BRANCH  58  83
ATOM     83  C   UNL A   1      42.807  23.769  27.837  1.00  0.00     0.058 A 
ATOM     84  C   UNL A   1      42.556  22.621  28.602  1.00  0.00     0.135 A 
ATOM     85  C   UNL A   1      42.923  23.614  26.448  1.00  0.00     0.135 A 
ATOM     86  F   UNL A   1      42.453  22.714  29.937  1.00  0.00    -0.206 F 
ATOM     87  C   UNL A   1      42.424  21.366  28.015  1.00  0.00     0.059 A 
ATOM     88  C   UNL A   1      42.773  22.373  25.834  1.00  0.00     0.059 A 
ATOM     89  F   UNL A   1      43.160  24.682  25.670  1.00  0.00    -0.206 F 
ATOM     90  C   UNL A   1      42.527  21.254  26.627  1.00  0.00     0.060 A 
BRANCH  90  91
ATOM     91  S   UNL A   1      42.275  19.634  25.870  1.00  0.00     0.124 S 
ATOM     92  O   UNL A   1      40.875  19.711  25.466  1.00  0.00    -0.237 OA
ATOM     93  O   UNL A   1      43.254  19.648  24.787  1.00  0.00    -0.237 OA
ATOM     94  O   UNL A   1      42.569  18.706  26.958  1.00  0.00    -0.744 OA
ENDBRANCH  90  91
ENDBRANCH  58  83
BRANCH  70  95
ATOM     95  C   UNL A   1      48.005  26.920  31.274  1.00  0.00     0.058 A 
ATOM     96  C   UNL A   1      48.243  26.112  32.398  1.00  0.00     0.135 A 
ATOM     97  C   UNL A   1      49.104  27.260  30.468  1.00  0.00     0.135 A 
ATOM     98  F   UNL A   1      47.229  25.760  33.203  1.00  0.00    -0.206 F 
ATOM     99  C   UNL A   1      49.526  25.680  32.721  1.00  0.00     0.059 A 
ATOM    100  C   UNL A   1      50.390  26.815  30.757  1.00  0.00     0.059 A 
ATOM    101  F   UNL A   1      48.931  28.018  29.373  1.00  0.00    -0.206 F 
ATOM    102  C   UNL A   1      50.593  26.037  31.895  1.00  0.00     0.060 A 
BRANCH 102 103
ATOM    103  S   UNL A   1      52.248  25.448  32.310  1.00  0.00     0.124 S 
ATOM    104  O   UNL A   1      53.036  25.984  31.205  1.00  0.00    -0.237 OA
ATOM    105  O   UNL A   1      52.484  26.062  33.613  1.00  0.00    -0.237 OA
ATOM    106  O   UNL A   1      52.097  23.996  32.328  1.00  0.00    -0.744 OA
ENDBRANCH 102 103
ENDBRANCH  70  95
ENDBRANCH  44  45
ENDBRANCH  37  39
ENDBRANCH  36  37
ENDBRANCH  35  36
ENDBRANCH  34  35
ENDBRANCH  33  34
ENDBRANCH  32  33
ENDBRANCH  31  32
ENDBRANCH   1  31
TORSDOF 26
ENDMDL
