MODEL 1
REMARK VINA RESULT:      -9.7      0.000      0.000
REMARK SMILES CSCc1ccc(C(=O)N[C@H]2C=C[C@@H](C(=O)OCCOCCOCCOCCOC(=O)c3ccc(-c4c5nc(c(-c6c(F)cc(S(=O)(=O)[O-])cc6F)c6ccc([nH]6)c(-c6c(F)cc(S(=O)(=O)[O-])cc6F)c6nc(c(-c7c(F)cc(S(=O)(=O)[O-])cc7F)c7ccc4[nH]7)C=C6)C=C5)cc3)C2)o1
REMARK SMILES IDX 22 1 21 2 20 3 19 4 18 5 17 6 15 7 16 8 14 9 11 10 12 11
REMARK SMILES IDX 98 12 13 13 10 14 8 15 9 16 7 18 4 19 5 20 99 21 6 22 3 23
REMARK SMILES IDX 2 24 1 25 23 26 24 27 25 28 26 29 27 30 28 31 29 32 30 33
REMARK SMILES IDX 31 34 32 35 33 36 97 37 34 38 96 39 35 40 36 41 37 42 90 43
REMARK SMILES IDX 38 44 95 45 89 46 91 47 39 48 94 49 88 50 87 51 40 53 74 54
REMARK SMILES IDX 53 55 73 56 54 57 57 58 72 59 92 60 55 61 56 62 71 64 93 65
REMARK SMILES IDX 58 66 41 67 42 68 51 69 43 70 44 71 50 72 52 73 45 74 46 75
REMARK SMILES IDX 47 76 48 77 49 78 75 79 76 80 85 81 77 82 78 83 84 84 86 85
REMARK SMILES IDX 79 86 80 87 81 88 82 89 83 90 59 91 60 92 69 93 61 94 62 95
REMARK SMILES IDX 68 96 70 97 63 98 64 99 65 100 66 101 67 102
REMARK H PARENT 10 17 91 52 57 63
REMARK Flexibility Score: inf
ROOT
ATOM      1  C   UNL A   1      37.340  23.163  25.913  1.00  0.00     0.188 C 
ENDROOT
BRANCH   1   2
ATOM      2  C   UNL A   1      37.036  22.739  24.469  1.00  0.00     0.188 C 
BRANCH   2   3
ATOM      3  O   UNL A   1      36.395  21.509  24.173  1.00  0.00    -0.376 OA
BRANCH   3   4
ATOM      4  C   UNL A   1      35.607  20.824  25.140  1.00  0.00     0.202 C 
BRANCH   4   5
ATOM      5  C   UNL A   1      34.264  20.170  24.790  1.00  0.00     0.261 C 
BRANCH   5   6
ATOM      6  O   UNL A   1      33.141  20.706  25.497  1.00  0.00    -0.463 OA
BRANCH   6   7
ATOM      7  C   UNL A   1      33.348  21.870  26.148  1.00  0.00     0.312 C 
ATOM      8  O   UNL A   1      34.004  21.991  27.180  1.00  0.00    -0.252 OA
BRANCH   7   9
ATOM      9  C   UNL A   1      32.759  23.066  25.424  1.00  0.00     0.124 C 
ATOM     10  C   UNL A   1      32.318  24.219  23.371  1.00  0.00     0.106 C 
ATOM     11  C   UNL A   1      31.229  23.243  23.663  1.00  0.00    -0.006 C 
ATOM     12  C   UNL A   1      33.465  23.646  24.184  1.00  0.00     0.048 C 
ATOM     13  C   UNL A   1      31.438  22.651  24.842  1.00  0.00    -0.014 C 
BRANCH  10  14
ATOM     14  N   UNL A   1      32.535  24.363  21.968  1.00  0.00    -0.343 N 
ATOM     15  C   UNL A   1      32.760  25.533  21.268  1.00  0.00     0.287 C 
ATOM     16  O   UNL A   1      33.023  25.409  20.070  1.00  0.00    -0.266 OA
ATOM     17  H   UNL A   1      32.525  23.532  21.439  1.00  0.00     0.164 HD
BRANCH  15  18
ATOM     18  C   UNL A   1      32.651  26.835  21.927  1.00  0.00     0.191 A 
ATOM     19  C   UNL A   1      31.497  28.457  22.913  1.00  0.00     0.114 A 
ATOM     20  C   UNL A   1      32.823  28.773  23.080  1.00  0.00     0.047 A 
ATOM     21  O   UNL A   1      31.382  27.280  22.235  1.00  0.00    -0.455 OA
ATOM     22  C   UNL A   1      33.547  27.792  22.381  1.00  0.00     0.056 A 
BRANCH  19  23
ATOM     23  C   UNL A   1      30.252  29.120  23.357  1.00  0.00     0.144 C 
BRANCH  23  24
ATOM     24  S   UNL A   1      29.522  30.211  22.084  1.00  0.00    -0.157 SA
ATOM     25  C   UNL A   1      27.824  30.371  22.698  1.00  0.00     0.085 C 
ENDBRANCH  23  24
ENDBRANCH  19  23
ENDBRANCH  15  18
ENDBRANCH  10  14
ENDBRANCH   7   9
ENDBRANCH   6   7
ENDBRANCH   5   6
ENDBRANCH   4   5
ENDBRANCH   3   4
ENDBRANCH   2   3
ENDBRANCH   1   2
BRANCH   1  26
ATOM     26  O   UNL A   1      38.541  23.881  26.092  1.00  0.00    -0.377 OA
BRANCH  26  27
ATOM     27  C   UNL A   1      39.548  23.286  26.908  1.00  0.00     0.188 C 
BRANCH  27  28
ATOM     28  C   UNL A   1      39.989  21.838  26.605  1.00  0.00     0.188 C 
BRANCH  28  29
ATOM     29  O   UNL A   1      41.201  21.732  25.870  1.00  0.00    -0.376 OA
BRANCH  29  30
ATOM     30  C   UNL A   1      42.433  21.744  26.578  1.00  0.00     0.202 C 
BRANCH  30  31
ATOM     31  C   UNL A   1      43.446  22.856  26.249  1.00  0.00     0.261 C 
BRANCH  31  32
ATOM     32  O   UNL A   1      42.944  24.202  26.256  1.00  0.00    -0.460 OA
BRANCH  32  33
ATOM     33  C   UNL A   1      43.784  25.176  26.658  1.00  0.00     0.338 C 
ATOM     34  O   UNL A   1      44.913  25.385  26.237  1.00  0.00    -0.246 OA
BRANCH  33  35
ATOM     35  C   UNL A   1      43.047  26.094  27.547  1.00  0.00     0.060 A 
ATOM     36  C   UNL A   1      43.491  27.419  27.649  1.00  0.00     0.016 A 
ATOM     37  C   UNL A   1      41.953  25.656  28.297  1.00  0.00     0.016 A 
ATOM     38  C   UNL A   1      42.887  28.289  28.552  1.00  0.00     0.010 A 
ATOM     39  C   UNL A   1      41.356  26.527  29.216  1.00  0.00     0.010 A 
ATOM     40  C   UNL A   1      41.855  27.832  29.382  1.00  0.00    -0.014 A 
BRANCH  40  41
ATOM     41  C   UNL A   1      41.464  28.662  30.550  1.00  0.00     0.031 A 
ATOM     42  C   UNL A   1      42.285  28.560  31.810  1.00  0.00     0.074 A 
ATOM     43  C   UNL A   1      40.458  29.551  30.467  1.00  0.00     0.049 A 
ATOM     44  N   UNL A   1      42.176  29.228  32.929  1.00  0.00    -0.248 NA
ATOM     45  C   UNL A   1      43.379  27.575  31.804  1.00  0.00     0.031 C 
ATOM     46  C   UNL A   1      39.615  29.765  29.291  1.00  0.00     0.029 A 
ATOM     47  N   UNL A   1      39.982  30.446  31.391  1.00  0.00    -0.354 N 
ATOM     48  C   UNL A   1      43.183  28.746  33.757  1.00  0.00     0.074 A 
ATOM     49  C   UNL A   1      43.868  27.701  33.028  1.00  0.00     0.031 C 
ATOM     50  C   UNL A   1      38.725  30.734  29.565  1.00  0.00     0.029 A 
ATOM     51  C   UNL A   1      38.916  31.190  30.941  1.00  0.00     0.049 A 
ATOM     52  H   UNL A   1      40.367  30.547  32.291  1.00  0.00     0.167 HD
ATOM     53  C   UNL A   1      43.519  29.146  35.007  1.00  0.00     0.037 A 
ATOM     54  C   UNL A   1      38.178  32.124  31.572  1.00  0.00     0.037 A 
ATOM     55  C   UNL A   1      42.831  30.186  35.730  1.00  0.00     0.049 A 
ATOM     56  C   UNL A   1      38.533  32.513  32.985  1.00  0.00     0.074 A 
ATOM     57  C   UNL A   1      43.099  30.675  36.997  1.00  0.00     0.029 A 
ATOM     58  N   UNL A   1      41.732  30.888  35.256  1.00  0.00    -0.354 N 
ATOM     59  N   UNL A   1      39.506  32.070  33.747  1.00  0.00    -0.248 NA
ATOM     60  C   UNL A   1      37.697  33.541  33.620  1.00  0.00     0.031 C 
ATOM     61  C   UNL A   1      42.128  31.631  37.311  1.00  0.00     0.029 A 
ATOM     62  C   UNL A   1      41.296  31.788  36.215  1.00  0.00     0.049 A 
ATOM     63  H   UNL A   1      41.323  30.765  34.369  1.00  0.00     0.167 HD
ATOM     64  C   UNL A   1      39.418  32.786  34.936  1.00  0.00     0.074 A 
ATOM     65  C   UNL A   1      38.308  33.705  34.785  1.00  0.00     0.031 C 
ATOM     66  C   UNL A   1      40.186  32.698  36.052  1.00  0.00     0.037 A 
BRANCH  53  67
ATOM     67  C   UNL A   1      44.662  28.439  35.685  1.00  0.00     0.058 A 
ATOM     68  C   UNL A   1      45.986  28.897  35.583  1.00  0.00     0.135 A 
ATOM     69  C   UNL A   1      44.426  27.302  36.475  1.00  0.00     0.135 A 
ATOM     70  F   UNL A   1      46.276  29.966  34.824  1.00  0.00    -0.206 F 
ATOM     71  C   UNL A   1      47.036  28.239  36.217  1.00  0.00     0.059 A 
ATOM     72  C   UNL A   1      45.455  26.646  37.144  1.00  0.00     0.059 A 
ATOM     73  F   UNL A   1      43.180  26.816  36.604  1.00  0.00    -0.206 F 
ATOM     74  C   UNL A   1      46.759  27.115  36.999  1.00  0.00     0.060 A 
BRANCH  74  75
ATOM     75  S   UNL A   1      48.130  26.281  37.824  1.00  0.00     0.124 S 
ATOM     76  O   UNL A   1      48.087  24.962  37.200  1.00  0.00    -0.237 OA
ATOM     77  O   UNL A   1      49.269  27.118  37.458  1.00  0.00    -0.237 OA
ATOM     78  O   UNL A   1      47.754  26.320  39.234  1.00  0.00    -0.744 OA
ENDBRANCH  74  75
ENDBRANCH  53  67
BRANCH  54  79
ATOM     79  C   UNL A   1      37.026  32.760  30.875  1.00  0.00     0.058 A 
ATOM     80  C   UNL A   1      35.722  32.264  31.013  1.00  0.00     0.135 A 
ATOM     81  C   UNL A   1      37.212  33.879  30.047  1.00  0.00     0.135 A 
ATOM     82  F   UNL A   1      35.491  31.189  31.784  1.00  0.00    -0.206 F 
ATOM     83  C   UNL A   1      34.646  32.841  30.346  1.00  0.00     0.059 A 
ATOM     84  C   UNL A   1      36.148  34.493  29.393  1.00  0.00     0.059 A 
ATOM     85  F   UNL A   1      38.438  34.401  29.886  1.00  0.00    -0.206 F 
ATOM     86  C   UNL A   1      34.869  33.959  29.540  1.00  0.00     0.060 A 
BRANCH  86  87
ATOM     87  S   UNL A   1      33.458  34.732  28.721  1.00  0.00     0.124 S 
ATOM     88  O   UNL A   1      33.087  33.712  27.747  1.00  0.00    -0.237 OA
ATOM     89  O   UNL A   1      32.530  34.924  29.831  1.00  0.00    -0.237 OA
ATOM     90  O   UNL A   1      34.022  35.959  28.166  1.00  0.00    -0.744 OA
ENDBRANCH  86  87
ENDBRANCH  54  79
BRANCH  66  91
ATOM     91  C   UNL A   1      39.881  33.648  37.181  1.00  0.00     0.058 A 
ATOM     92  C   UNL A   1      40.517  34.893  37.301  1.00  0.00     0.135 A 
ATOM     93  C   UNL A   1      38.921  33.310  38.151  1.00  0.00     0.135 A 
ATOM     94  F   UNL A   1      41.443  35.270  36.403  1.00  0.00    -0.206 F 
ATOM     95  C   UNL A   1      40.252  35.747  38.368  1.00  0.00     0.059 A 
ATOM     96  C   UNL A   1      38.614  34.165  39.205  1.00  0.00     0.059 A 
ATOM     97  F   UNL A   1      38.267  32.141  38.079  1.00  0.00    -0.206 F 
ATOM     98  C   UNL A   1      39.301  35.371  39.318  1.00  0.00     0.060 A 
BRANCH  98  99
ATOM     99  S   UNL A   1      38.974  36.481  40.704  1.00  0.00     0.124 S 
ATOM    100  O   UNL A   1      37.900  35.776  41.397  1.00  0.00    -0.237 OA
ATOM    101  O   UNL A   1      40.260  36.510  41.392  1.00  0.00    -0.237 OA
ATOM    102  O   UNL A   1      38.588  37.731  40.055  1.00  0.00    -0.744 OA
ENDBRANCH  98  99
ENDBRANCH  66  91
ENDBRANCH  40  41
ENDBRANCH  33  35
ENDBRANCH  32  33
ENDBRANCH  31  32
ENDBRANCH  30  31
ENDBRANCH  29  30
ENDBRANCH  28  29
ENDBRANCH  27  28
ENDBRANCH  26  27
ENDBRANCH   1  26
TORSDOF 27
ENDMDL
MODEL 2
REMARK VINA RESULT:      -9.0      1.172      2.157
REMARK SMILES CSCc1ccc(C(=O)N[C@H]2C=C[C@@H](C(=O)OCCOCCOCCOCCOC(=O)c3ccc(-c4c5nc(c(-c6c(F)cc(S(=O)(=O)[O-])cc6F)c6ccc([nH]6)c(-c6c(F)cc(S(=O)(=O)[O-])cc6F)c6nc(c(-c7c(F)cc(S(=O)(=O)[O-])cc7F)c7ccc4[nH]7)C=C6)C=C5)cc3)C2)o1
REMARK SMILES IDX 22 1 21 2 20 3 19 4 18 5 17 6 15 7 16 8 14 9 11 10 12 11
REMARK SMILES IDX 98 12 13 13 10 14 8 15 9 16 7 18 4 19 5 20 99 21 6 22 3 23
REMARK SMILES IDX 2 24 1 25 23 26 24 27 25 28 26 29 27 30 28 31 29 32 30 33
REMARK SMILES IDX 31 34 32 35 33 36 97 37 34 38 96 39 35 40 36 41 37 42 90 43
REMARK SMILES IDX 38 44 95 45 89 46 91 47 39 48 94 49 88 50 87 51 40 53 74 54
REMARK SMILES IDX 53 55 73 56 54 57 57 58 72 59 92 60 55 61 56 62 71 64 93 65
REMARK SMILES IDX 58 66 41 67 42 68 51 69 43 70 44 71 50 72 52 73 45 74 46 75
REMARK SMILES IDX 47 76 48 77 49 78 75 79 76 80 85 81 77 82 78 83 84 84 86 85
REMARK SMILES IDX 79 86 80 87 81 88 82 89 83 90 59 91 60 92 69 93 61 94 62 95
REMARK SMILES IDX 68 96 70 97 63 98 64 99 65 100 66 101 67 102
REMARK H PARENT 10 17 91 52 57 63
REMARK Flexibility Score: inf
ROOT
ATOM      1  C   UNL A   1      37.358  23.066  26.102  1.00  0.00     0.188 C 
ENDROOT
BRANCH   1   2
ATOM      2  C   UNL A   1      36.723  22.847  24.722  1.00  0.00     0.188 C 
BRANCH   2   3
ATOM      3  O   UNL A   1      36.392  21.552  24.251  1.00  0.00    -0.376 OA
BRANCH   3   4
ATOM      4  C   UNL A   1      35.682  20.621  25.060  1.00  0.00     0.202 C 
BRANCH   4   5
ATOM      5  C   UNL A   1      34.210  20.269  24.808  1.00  0.00     0.261 C 
BRANCH   5   6
ATOM      6  O   UNL A   1      33.342  20.520  25.918  1.00  0.00    -0.463 OA
BRANCH   6   7
ATOM      7  C   UNL A   1      33.423  21.748  26.471  1.00  0.00     0.312 C 
ATOM      8  O   UNL A   1      34.118  22.038  27.440  1.00  0.00    -0.252 OA
BRANCH   7   9
ATOM      9  C   UNL A   1      32.627  22.793  25.712  1.00  0.00     0.124 C 
ATOM     10  C   UNL A   1      32.287  24.078  23.718  1.00  0.00     0.106 C 
ATOM     11  C   UNL A   1      31.590  22.764  23.614  1.00  0.00    -0.006 C 
ATOM     12  C   UNL A   1      33.342  23.779  24.769  1.00  0.00     0.048 C 
ATOM     13  C   UNL A   1      31.719  22.077  24.752  1.00  0.00    -0.014 C 
BRANCH  10  14
ATOM     14  N   UNL A   1      32.757  24.527  22.448  1.00  0.00    -0.343 N 
ATOM     15  C   UNL A   1      32.717  25.814  21.944  1.00  0.00     0.287 C 
ATOM     16  O   UNL A   1      33.274  25.991  20.858  1.00  0.00    -0.266 OA
ATOM     17  H   UNL A   1      33.158  23.842  21.864  1.00  0.00     0.164 HD
BRANCH  15  18
ATOM     18  C   UNL A   1      32.015  26.879  22.661  1.00  0.00     0.191 A 
ATOM     19  C   UNL A   1      31.942  28.588  24.078  1.00  0.00     0.114 A 
ATOM     20  C   UNL A   1      30.715  28.546  23.464  1.00  0.00     0.047 A 
ATOM     21  O   UNL A   1      32.741  27.598  23.588  1.00  0.00    -0.455 OA
ATOM     22  C   UNL A   1      30.734  27.412  22.634  1.00  0.00     0.056 A 
BRANCH  19  23
ATOM     23  C   UNL A   1      32.520  29.500  25.090  1.00  0.00     0.144 C 
BRANCH  23  24
ATOM     24  S   UNL A   1      32.702  28.728  26.737  1.00  0.00    -0.157 SA
ATOM     25  C   UNL A   1      34.461  29.020  27.063  1.00  0.00     0.085 C 
ENDBRANCH  23  24
ENDBRANCH  19  23
ENDBRANCH  15  18
ENDBRANCH  10  14
ENDBRANCH   7   9
ENDBRANCH   6   7
ENDBRANCH   5   6
ENDBRANCH   4   5
ENDBRANCH   3   4
ENDBRANCH   2   3
ENDBRANCH   1   2
BRANCH   1  26
ATOM     26  O   UNL A   1      38.576  23.778  26.102  1.00  0.00    -0.377 OA
BRANCH  26  27
ATOM     27  C   UNL A   1      39.716  23.132  26.664  1.00  0.00     0.188 C 
BRANCH  27  28
ATOM     28  C   UNL A   1      39.883  21.610  26.458  1.00  0.00     0.188 C 
BRANCH  28  29
ATOM     29  O   UNL A   1      40.959  21.246  25.603  1.00  0.00    -0.376 OA
BRANCH  29  30
ATOM     30  C   UNL A   1      42.263  21.134  26.156  1.00  0.00     0.202 C 
BRANCH  30  31
ATOM     31  C   UNL A   1      43.340  22.123  25.675  1.00  0.00     0.261 C 
BRANCH  31  32
ATOM     32  O   UNL A   1      42.945  23.500  25.571  1.00  0.00    -0.460 OA
BRANCH  32  33
ATOM     33  C   UNL A   1      43.813  24.430  26.012  1.00  0.00     0.338 C 
ATOM     34  O   UNL A   1      44.950  24.620  25.601  1.00  0.00    -0.246 OA
BRANCH  33  35
ATOM     35  C   UNL A   1      43.103  25.337  26.934  1.00  0.00     0.060 A 
ATOM     36  C   UNL A   1      43.383  26.707  26.864  1.00  0.00     0.016 A 
ATOM     37  C   UNL A   1      42.197  24.847  27.878  1.00  0.00     0.016 A 
ATOM     38  C   UNL A   1      42.810  27.583  27.782  1.00  0.00     0.010 A 
ATOM     39  C   UNL A   1      41.635  25.726  28.812  1.00  0.00     0.010 A 
ATOM     40  C   UNL A   1      41.980  27.089  28.798  1.00  0.00    -0.014 A 
BRANCH  40  41
ATOM     41  C   UNL A   1      41.662  27.975  29.947  1.00  0.00     0.031 A 
ATOM     42  C   UNL A   1      42.535  27.902  31.172  1.00  0.00     0.074 A 
ATOM     43  C   UNL A   1      40.674  28.886  29.871  1.00  0.00     0.049 A 
ATOM     44  N   UNL A   1      42.492  28.617  32.267  1.00  0.00    -0.248 NA
ATOM     45  C   UNL A   1      43.604  26.890  31.159  1.00  0.00     0.031 C 
ATOM     46  C   UNL A   1      39.786  29.075  28.726  1.00  0.00     0.029 A 
ATOM     47  N   UNL A   1      40.262  29.830  30.778  1.00  0.00    -0.354 N 
ATOM     48  C   UNL A   1      43.524  28.142  33.070  1.00  0.00     0.074 A 
ATOM     49  C   UNL A   1      44.150  27.052  32.355  1.00  0.00     0.031 C 
ATOM     50  C   UNL A   1      38.932  30.077  28.998  1.00  0.00     0.029 A 
ATOM     51  C   UNL A   1      39.196  30.582  30.344  1.00  0.00     0.049 A 
ATOM     52  H   UNL A   1      40.689  29.956  31.655  1.00  0.00     0.167 HD
ATOM     53  C   UNL A   1      43.924  28.583  34.287  1.00  0.00     0.037 A 
ATOM     54  C   UNL A   1      38.509  31.559  30.968  1.00  0.00     0.037 A 
ATOM     55  C   UNL A   1      43.294  29.668  34.995  1.00  0.00     0.049 A 
ATOM     56  C   UNL A   1      38.936  31.995  32.348  1.00  0.00     0.074 A 
ATOM     57  C   UNL A   1      43.631  30.200  36.228  1.00  0.00     0.029 A 
ATOM     58  N   UNL A   1      42.193  30.379  34.542  1.00  0.00    -0.354 N 
ATOM     59  N   UNL A   1      39.931  31.557  33.083  1.00  0.00    -0.248 NA
ATOM     60  C   UNL A   1      38.154  33.068  32.976  1.00  0.00     0.031 C 
ATOM     61  C   UNL A   1      42.697  31.193  36.545  1.00  0.00     0.029 A 
ATOM     62  C   UNL A   1      41.821  31.328  35.481  1.00  0.00     0.049 A 
ATOM     63  H   UNL A   1      41.742  30.232  33.679  1.00  0.00     0.167 HD
ATOM     64  C   UNL A   1      39.913  32.323  34.245  1.00  0.00     0.074 A 
ATOM     65  C   UNL A   1      38.820  33.263  34.105  1.00  0.00     0.031 C 
ATOM     66  C   UNL A   1      40.728  32.258  35.329  1.00  0.00     0.037 A 
BRANCH  53  67
ATOM     67  C   UNL A   1      45.079  27.874  34.942  1.00  0.00     0.058 A 
ATOM     68  C   UNL A   1      44.892  26.748  35.762  1.00  0.00     0.135 A 
ATOM     69  C   UNL A   1      46.396  28.308  34.723  1.00  0.00     0.135 A 
ATOM     70  F   UNL A   1      43.653  26.300  36.025  1.00  0.00    -0.206 F 
ATOM     71  C   UNL A   1      45.966  26.095  36.359  1.00  0.00     0.059 A 
ATOM     72  C   UNL A   1      47.488  27.653  35.285  1.00  0.00     0.059 A 
ATOM     73  F   UNL A   1      46.634  29.382  33.954  1.00  0.00    -0.206 F 
ATOM     74  C   UNL A   1      47.262  26.554  36.112  1.00  0.00     0.060 A 
BRANCH  74  75
ATOM     75  S   UNL A   1      48.644  25.689  36.886  1.00  0.00     0.124 S 
ATOM     76  O   UNL A   1      47.949  24.774  37.786  1.00  0.00    -0.237 OA
ATOM     77  O   UNL A   1      49.305  25.072  35.741  1.00  0.00    -0.237 OA
ATOM     78  O   UNL A   1      49.393  26.759  37.538  1.00  0.00    -0.744 OA
ENDBRANCH  74  75
ENDBRANCH  53  67
BRANCH  54  79
ATOM     79  C   UNL A   1      37.343  32.197  30.297  1.00  0.00     0.058 A 
ATOM     80  C   UNL A   1      37.494  33.335  29.492  1.00  0.00     0.135 A 
ATOM     81  C   UNL A   1      36.047  31.679  30.455  1.00  0.00     0.135 A 
ATOM     82  F   UNL A   1      38.709  33.876  29.317  1.00  0.00    -0.206 F 
ATOM     83  C   UNL A   1      36.404  33.947  28.881  1.00  0.00     0.059 A 
ATOM     84  C   UNL A   1      34.945  32.255  29.831  1.00  0.00     0.059 A 
ATOM     85  F   UNL A   1      35.847  30.586  31.208  1.00  0.00    -0.206 F 
ATOM     86  C   UNL A   1      35.133  33.396  29.053  1.00  0.00     0.060 A 
BRANCH  86  87
ATOM     87  S   UNL A   1      33.734  34.168  28.212  1.00  0.00     0.124 S 
ATOM     88  O   UNL A   1      33.109  34.911  29.300  1.00  0.00    -0.237 OA
ATOM     89  O   UNL A   1      34.398  34.969  27.189  1.00  0.00    -0.237 OA
ATOM     90  O   UNL A   1      32.973  33.027  27.709  1.00  0.00    -0.744 OA
ENDBRANCH  86  87
ENDBRANCH  54  79
BRANCH  66  91
ATOM     91  C   UNL A   1      40.496  33.260  36.431  1.00  0.00     0.058 A 
ATOM     92  C   UNL A   1      39.476  33.101  37.381  1.00  0.00     0.135 A 
ATOM     93  C   UNL A   1      41.323  34.392  36.545  1.00  0.00     0.135 A 
ATOM     94  F   UNL A   1      38.656  32.040  37.323  1.00  0.00    -0.206 F 
ATOM     95  C   UNL A   1      39.249  34.052  38.373  1.00  0.00     0.059 A 
ATOM     96  C   UNL A   1      41.137  35.336  37.551  1.00  0.00     0.059 A 
ATOM     97  F   UNL A   1      42.326  34.588  35.676  1.00  0.00    -0.206 F 
ATOM     98  C   UNL A   1      40.083  35.169  38.446  1.00  0.00     0.060 A 
BRANCH  98  99
ATOM     99  S   UNL A   1      39.773  36.401  39.729  1.00  0.00     0.124 S 
ATOM    100  O   UNL A   1      41.132  36.791  40.095  1.00  0.00    -0.237 OA
ATOM    101  O   UNL A   1      38.996  37.408  39.014  1.00  0.00    -0.237 OA
ATOM    102  O   UNL A   1      39.038  35.655  40.747  1.00  0.00    -0.744 OA
ENDBRANCH  98  99
ENDBRANCH  66  91
ENDBRANCH  40  41
ENDBRANCH  33  35
ENDBRANCH  32  33
ENDBRANCH  31  32
ENDBRANCH  30  31
ENDBRANCH  29  30
ENDBRANCH  28  29
ENDBRANCH  27  28
ENDBRANCH  26  27
ENDBRANCH   1  26
TORSDOF 27
ENDMDL
MODEL 3
REMARK VINA RESULT:      -8.1      2.642      5.399
REMARK SMILES CSCc1ccc(C(=O)N[C@H]2C=C[C@@H](C(=O)OCCOCCOCCOCCOC(=O)c3ccc(-c4c5nc(c(-c6c(F)cc(S(=O)(=O)[O-])cc6F)c6ccc([nH]6)c(-c6c(F)cc(S(=O)(=O)[O-])cc6F)c6nc(c(-c7c(F)cc(S(=O)(=O)[O-])cc7F)c7ccc4[nH]7)C=C6)C=C5)cc3)C2)o1
REMARK SMILES IDX 22 1 21 2 20 3 19 4 18 5 17 6 15 7 16 8 14 9 11 10 12 11
REMARK SMILES IDX 98 12 13 13 10 14 8 15 9 16 7 18 4 19 5 20 99 21 6 22 3 23
REMARK SMILES IDX 2 24 1 25 23 26 24 27 25 28 26 29 27 30 28 31 29 32 30 33
REMARK SMILES IDX 31 34 32 35 33 36 97 37 34 38 96 39 35 40 36 41 37 42 90 43
REMARK SMILES IDX 38 44 95 45 89 46 91 47 39 48 94 49 88 50 87 51 40 53 74 54
REMARK SMILES IDX 53 55 73 56 54 57 57 58 72 59 92 60 55 61 56 62 71 64 93 65
REMARK SMILES IDX 58 66 41 67 42 68 51 69 43 70 44 71 50 72 52 73 45 74 46 75
REMARK SMILES IDX 47 76 48 77 49 78 75 79 76 80 85 81 77 82 78 83 84 84 86 85
REMARK SMILES IDX 79 86 80 87 81 88 82 89 83 90 59 91 60 92 69 93 61 94 62 95
REMARK SMILES IDX 68 96 70 97 63 98 64 99 65 100 66 101 67 102
REMARK H PARENT 10 17 91 52 57 63
REMARK Flexibility Score: inf
ROOT
ATOM      1  C   UNL A   1      34.004  25.038  23.083  1.00  0.00     0.188 C 
ENDROOT
BRANCH   1   2
ATOM      2  C   UNL A   1      32.585  25.547  22.795  1.00  0.00     0.188 C 
BRANCH   2   3
ATOM      3  O   UNL A   1      31.542  25.427  23.748  1.00  0.00    -0.376 OA
BRANCH   3   4
ATOM      4  C   UNL A   1      30.613  26.480  23.975  1.00  0.00     0.202 C 
BRANCH   4   5
ATOM      5  C   UNL A   1      31.021  27.812  24.619  1.00  0.00     0.261 C 
BRANCH   5   6
ATOM      6  O   UNL A   1      32.429  28.065  24.616  1.00  0.00    -0.463 OA
BRANCH   6   7
ATOM      7  C   UNL A   1      33.054  27.968  25.807  1.00  0.00     0.312 C 
ATOM      8  O   UNL A   1      33.030  26.979  26.536  1.00  0.00    -0.252 OA
BRANCH   7   9
ATOM      9  C   UNL A   1      33.890  29.190  26.139  1.00  0.00     0.124 C 
ATOM     10  C   UNL A   1      34.203  31.182  27.432  1.00  0.00     0.106 C 
ATOM     11  C   UNL A   1      34.761  30.002  28.153  1.00  0.00    -0.006 C 
ATOM     12  C   UNL A   1      33.205  30.523  26.496  1.00  0.00     0.048 C 
ATOM     13  C   UNL A   1      34.651  28.903  27.402  1.00  0.00    -0.014 C 
BRANCH  10  14
ATOM     14  N   UNL A   1      33.686  32.157  28.337  1.00  0.00    -0.343 N 
ATOM     15  C   UNL A   1      34.373  33.197  28.934  1.00  0.00     0.287 C 
ATOM     16  O   UNL A   1      33.698  33.981  29.606  1.00  0.00    -0.266 OA
ATOM     17  H   UNL A   1      32.730  32.081  28.559  1.00  0.00     0.164 HD
BRANCH  15  18
ATOM     18  C   UNL A   1      35.824  33.319  28.791  1.00  0.00     0.191 A 
ATOM     19  C   UNL A   1      37.817  34.052  29.444  1.00  0.00     0.114 A 
ATOM     20  C   UNL A   1      38.051  33.164  28.423  1.00  0.00     0.047 A 
ATOM     21  O   UNL A   1      36.479  34.139  29.687  1.00  0.00    -0.455 OA
ATOM     22  C   UNL A   1      36.786  32.769  27.955  1.00  0.00     0.056 A 
BRANCH  19  23
ATOM     23  C   UNL A   1      38.725  34.847  30.300  1.00  0.00     0.144 C 
BRANCH  23  24
ATOM     24  S   UNL A   1      40.269  33.966  30.728  1.00  0.00    -0.157 SA
ATOM     25  C   UNL A   1      40.527  34.528  32.432  1.00  0.00     0.085 C 
ENDBRANCH  23  24
ENDBRANCH  19  23
ENDBRANCH  15  18
ENDBRANCH  10  14
ENDBRANCH   7   9
ENDBRANCH   6   7
ENDBRANCH   5   6
ENDBRANCH   4   5
ENDBRANCH   3   4
ENDBRANCH   2   3
ENDBRANCH   1   2
BRANCH   1  26
ATOM     26  O   UNL A   1      34.112  24.118  24.148  1.00  0.00    -0.377 OA
BRANCH  26  27
ATOM     27  C   UNL A   1      34.973  24.465  25.231  1.00  0.00     0.188 C 
BRANCH  27  28
ATOM     28  C   UNL A   1      35.757  23.342  25.944  1.00  0.00     0.188 C 
BRANCH  28  29
ATOM     29  O   UNL A   1      37.063  23.711  26.367  1.00  0.00    -0.376 OA
BRANCH  29  30
ATOM     30  C   UNL A   1      38.175  22.987  25.861  1.00  0.00     0.202 C 
BRANCH  30  31
ATOM     31  C   UNL A   1      39.556  23.249  26.490  1.00  0.00     0.261 C 
BRANCH  31  32
ATOM     32  O   UNL A   1      39.616  24.266  27.502  1.00  0.00    -0.460 OA
BRANCH  32  33
ATOM     33  C   UNL A   1      40.152  25.454  27.159  1.00  0.00     0.338 C 
ATOM     34  O   UNL A   1      40.648  25.745  26.079  1.00  0.00    -0.246 OA
BRANCH  33  35
ATOM     35  C   UNL A   1      39.857  26.429  28.226  1.00  0.00     0.060 A 
ATOM     36  C   UNL A   1      40.496  27.675  28.182  1.00  0.00     0.016 A 
ATOM     37  C   UNL A   1      38.989  26.117  29.275  1.00  0.00     0.016 A 
ATOM     38  C   UNL A   1      40.322  28.584  29.221  1.00  0.00     0.010 A 
ATOM     39  C   UNL A   1      38.828  27.025  30.328  1.00  0.00     0.010 A 
ATOM     40  C   UNL A   1      39.535  28.241  30.328  1.00  0.00    -0.014 A 
BRANCH  40  41
ATOM     41  C   UNL A   1      39.637  29.070  31.556  1.00  0.00     0.031 A 
ATOM     42  C   UNL A   1      40.791  28.823  32.494  1.00  0.00     0.074 A 
ATOM     43  C   UNL A   1      38.777  30.078  31.789  1.00  0.00     0.049 A 
ATOM     44  N   UNL A   1      41.122  29.459  33.588  1.00  0.00    -0.248 NA
ATOM     45  C   UNL A   1      41.694  27.713  32.149  1.00  0.00     0.031 C 
ATOM     46  C   UNL A   1      37.644  30.435  30.937  1.00  0.00     0.029 A 
ATOM     47  N   UNL A   1      38.732  30.991  32.812  1.00  0.00    -0.354 N 
ATOM     48  C   UNL A   1      42.268  28.828  34.060  1.00  0.00     0.074 A 
ATOM     49  C   UNL A   1      42.552  27.734  33.157  1.00  0.00     0.031 C 
ATOM     50  C   UNL A   1      37.015  31.496  31.472  1.00  0.00     0.029 A 
ATOM     51  C   UNL A   1      37.683  31.876  32.716  1.00  0.00     0.049 A 
ATOM     52  H   UNL A   1      39.388  31.012  33.545  1.00  0.00     0.167 HD
ATOM     53  C   UNL A   1      43.025  29.140  35.140  1.00  0.00     0.037 A 
ATOM     54  C   UNL A   1      37.304  32.869  33.543  1.00  0.00     0.037 A 
ATOM     55  C   UNL A   1      42.736  30.229  36.037  1.00  0.00     0.049 A 
ATOM     56  C   UNL A   1      38.129  33.162  34.771  1.00  0.00     0.074 A 
ATOM     57  C   UNL A   1      43.446  30.636  37.153  1.00  0.00     0.029 A 
ATOM     58  N   UNL A   1      41.643  31.077  35.929  1.00  0.00    -0.354 N 
ATOM     59  N   UNL A   1      39.226  32.575  35.190  1.00  0.00    -0.248 NA
ATOM     60  C   UNL A   1      37.671  34.260  35.632  1.00  0.00     0.031 C 
ATOM     61  C   UNL A   1      42.751  31.692  37.752  1.00  0.00     0.029 A 
ATOM     62  C   UNL A   1      41.646  31.989  36.972  1.00  0.00     0.049 A 
ATOM     63  H   UNL A   1      40.965  31.037  35.217  1.00  0.00     0.167 HD
ATOM     64  C   UNL A   1      39.606  33.255  36.344  1.00  0.00     0.074 A 
ATOM     65  C   UNL A   1      38.631  34.307  36.546  1.00  0.00     0.031 C 
ATOM     66  C   UNL A   1      40.667  33.033  37.162  1.00  0.00     0.037 A 
BRANCH  53  67
ATOM     67  C   UNL A   1      44.223  28.274  35.427  1.00  0.00     0.058 A 
ATOM     68  C   UNL A   1      44.137  27.131  36.240  1.00  0.00     0.135 A 
ATOM     69  C   UNL A   1      45.470  28.574  34.855  1.00  0.00     0.135 A 
ATOM     70  F   UNL A   1      42.976  26.807  36.831  1.00  0.00    -0.206 F 
ATOM     71  C   UNL A   1      45.248  26.334  36.496  1.00  0.00     0.059 A 
ATOM     72  C   UNL A   1      46.588  27.774  35.072  1.00  0.00     0.059 A 
ATOM     73  F   UNL A   1      45.612  29.657  34.074  1.00  0.00    -0.206 F 
ATOM     74  C   UNL A   1      46.470  26.663  35.904  1.00  0.00     0.060 A 
BRANCH  74  75
ATOM     75  S   UNL A   1      47.899  25.611  36.237  1.00  0.00     0.124 S 
ATOM     76  O   UNL A   1      48.148  25.895  37.647  1.00  0.00    -0.237 OA
ATOM     77  O   UNL A   1      47.381  24.279  35.941  1.00  0.00    -0.237 OA
ATOM     78  O   UNL A   1      48.911  26.108  35.310  1.00  0.00    -0.744 OA
ENDBRANCH  74  75
ENDBRANCH  53  67
BRANCH  54  79
ATOM     79  C   UNL A   1      36.083  33.666  33.241  1.00  0.00     0.058 A 
ATOM     80  C   UNL A   1      36.161  35.023  32.897  1.00  0.00     0.135 A 
ATOM     81  C   UNL A   1      34.807  33.081  33.297  1.00  0.00     0.135 A 
ATOM     82  F   UNL A   1      37.355  35.633  32.840  1.00  0.00    -0.206 F 
ATOM     83  C   UNL A   1      35.020  35.777  32.636  1.00  0.00     0.059 A 
ATOM     84  C   UNL A   1      33.654  33.806  33.011  1.00  0.00     0.059 A 
ATOM     85  F   UNL A   1      34.675  31.783  33.612  1.00  0.00    -0.206 F 
ATOM     86  C   UNL A   1      33.771  35.157  32.691  1.00  0.00     0.060 A 
BRANCH  86  87
ATOM     87  S   UNL A   1      32.303  36.132  32.299  1.00  0.00     0.124 S 
ATOM     88  O   UNL A   1      31.237  35.159  32.506  1.00  0.00    -0.237 OA
ATOM     89  O   UNL A   1      32.384  37.212  33.278  1.00  0.00    -0.237 OA
ATOM     90  O   UNL A   1      32.528  36.535  30.913  1.00  0.00    -0.744 OA
ENDBRANCH  86  87
ENDBRANCH  54  79
BRANCH  66  91
ATOM     91  C   UNL A   1      40.853  33.972  38.326  1.00  0.00     0.058 A 
ATOM     92  C   UNL A   1      40.338  33.691  39.601  1.00  0.00     0.135 A 
ATOM     93  C   UNL A   1      41.574  35.168  38.163  1.00  0.00     0.135 A 
ATOM     94  F   UNL A   1      39.641  32.564  39.816  1.00  0.00    -0.206 F 
ATOM     95  C   UNL A   1      40.486  34.584  40.659  1.00  0.00     0.059 A 
ATOM     96  C   UNL A   1      41.766  36.057  39.216  1.00  0.00     0.059 A 
ATOM     97  F   UNL A   1      42.105  35.481  36.971  1.00  0.00    -0.206 F 
ATOM     98  C   UNL A   1      41.198  35.767  40.455  1.00  0.00     0.060 A 
BRANCH  98  99
ATOM     99  S   UNL A   1      41.374  36.922  41.831  1.00  0.00     0.124 S 
ATOM    100  O   UNL A   1      42.642  36.491  42.415  1.00  0.00    -0.237 OA
ATOM    101  O   UNL A   1      41.396  38.214  41.154  1.00  0.00    -0.237 OA
ATOM    102  O   UNL A   1      40.189  36.666  42.645  1.00  0.00    -0.744 OA
ENDBRANCH  98  99
ENDBRANCH  66  91
ENDBRANCH  40  41
ENDBRANCH  33  35
ENDBRANCH  32  33
ENDBRANCH  31  32
ENDBRANCH  30  31
ENDBRANCH  29  30
ENDBRANCH  28  29
ENDBRANCH  27  28
ENDBRANCH  26  27
ENDBRANCH   1  26
TORSDOF 27
ENDMDL
