MODEL 1
REMARK VINA RESULT:     -10.6      0.000      0.000
REMARK SMILES Cc1ccc(C(=O)OCCOCCOCCOCCOC(=O)c2ccc(-c3c4nc(c(-c5c(F)cc(S(=O)(=O)[O-])cc5F)c5ccc([nH]5)c(-c5c(F)cc(S(=O)(=O)[O-])cc5F)c5nc(c(-c6c(F)cc(S(=O)(=O)[O-])cc6F)c6ccc3[nH]6)C=C5)C=C4)cc2)cc1O[C@@H](C)C(=O)N[C@@H]1CCS(=O)(=O)C1
REMARK SMILES IDX 13 1 12 2 11 3 10 4 9 5 8 6 6 7 7 8 5 9 1 10 2 11 3 12 90 13
REMARK SMILES IDX 4 14 89 15 91 16 92 17 93 18 94 19 95 20 96 21 97 23 98 24
REMARK SMILES IDX 103 25 99 26 100 27 101 28 102 29 14 30 15 31 16 32 17 33
REMARK SMILES IDX 18 34 19 35 20 36 21 37 22 38 23 39 24 40 88 41 25 42 87 43
REMARK SMILES IDX 26 44 27 45 28 46 81 47 29 48 86 49 80 50 82 51 30 52 85 53
REMARK SMILES IDX 79 54 78 55 31 57 65 58 44 59 64 60 45 61 48 62 63 63 83 64
REMARK SMILES IDX 46 65 47 66 62 68 84 69 49 70 32 71 33 72 42 73 34 74 35 75
REMARK SMILES IDX 41 76 43 77 36 78 37 79 38 80 39 81 40 82 66 83 67 84 76 85
REMARK SMILES IDX 68 86 69 87 75 88 77 89 70 90 71 91 72 92 73 93 74 94 50 95
REMARK SMILES IDX 51 96 60 97 52 98 53 99 59 100 61 101 54 102 55 103 56 104
REMARK SMILES IDX 57 105 58 106
REMARK H PARENT 96 22 82 56 48 67
REMARK Flexibility Score: inf
ROOT
ATOM      1  C   UNL A   1      32.820  28.695  24.340  1.00  0.00     0.188 C 
ENDROOT
BRANCH   1   2
ATOM      2  C   UNL A   1      32.556  27.167  24.158  1.00  0.00     0.188 C 
BRANCH   2   3
ATOM      3  O   UNL A   1      32.009  26.128  25.216  1.00  0.00    -0.376 OA
BRANCH   3   4
ATOM      4  C   UNL A   1      32.267  24.446  25.419  1.00  0.00     0.202 C 
BRANCH   4   5
ATOM      5  C   UNL A   1      33.248  23.072  24.640  1.00  0.00     0.261 C 
BRANCH   5   6
ATOM      6  O   UNL A   1      34.706  23.027  23.665  1.00  0.00    -0.460 OA
BRANCH   6   7
ATOM      7  C   UNL A   1      36.152  22.867  23.699  1.00  0.00     0.338 C 
ATOM      8  O   UNL A   1      36.901  23.344  22.828  1.00  0.00    -0.246 OA
BRANCH   7   9
ATOM      9  C   UNL A   1      37.142  22.539  24.986  1.00  0.00     0.063 A 
ATOM     10  C   UNL A   1      40.670  21.229  27.352  1.00  0.00     0.048 C 
ATOM     11  C   UNL A   1      39.558  21.783  26.509  1.00  0.00    -0.009 A 
ATOM     12  C   UNL A   1      38.889  20.886  25.663  1.00  0.00     0.008 A 
ATOM     13  C   UNL A   1      39.073  23.087  26.557  1.00  0.00     0.124 A 
ATOM     14  C   UNL A   1      37.756  21.262  24.912  1.00  0.00     0.016 A 
ATOM     15  C   UNL A   1      37.786  23.398  25.917  1.00  0.00     0.062 A 
BRANCH  13  16
ATOM     16  O   UNL A   1      39.744  24.167  27.077  1.00  0.00    -0.481 OA
BRANCH  16  17
ATOM     17  C   UNL A   1      40.381  25.301  26.468  1.00  0.00     0.258 C 
ATOM     18  C   UNL A   1      39.972  26.542  27.286  1.00  0.00     0.064 C 
BRANCH  17  19
ATOM     19  C   UNL A   1      41.755  25.718  25.679  1.00  0.00     0.261 C 
ATOM     20  O   UNL A   1      41.778  26.706  24.928  1.00  0.00    -0.271 OA
ATOM     21  N   UNL A   1      42.909  24.992  25.683  1.00  0.00    -0.349 N 
ATOM     22  H   UNL A   1      43.685  25.405  25.240  1.00  0.00     0.163 HD
BRANCH  21  23
ATOM     23  C   UNL A   1      43.121  23.689  26.261  1.00  0.00     0.098 C 
ATOM     24  C   UNL A   1      44.519  23.501  26.931  1.00  0.00     0.042 C 
ATOM     25  C   UNL A   1      42.985  22.657  25.165  1.00  0.00     0.161 C 
ATOM     26  C   UNL A   1      45.217  22.328  26.216  1.00  0.00     0.139 C 
ATOM     27  S   UNL A   1      44.617  22.508  24.547  1.00  0.00     0.152 S 
ATOM     28  O   UNL A   1      45.067  23.758  24.019  1.00  0.00    -0.229 OA
ATOM     29  O   UNL A   1      44.660  21.289  23.745  1.00  0.00    -0.229 OA
ENDBRANCH  21  23
ENDBRANCH  17  19
ENDBRANCH  16  17
ENDBRANCH  13  16
ENDBRANCH   7   9
ENDBRANCH   6   7
ENDBRANCH   5   6
ENDBRANCH   4   5
ENDBRANCH   3   4
ENDBRANCH   2   3
ENDBRANCH   1   2
BRANCH   1  30
ATOM     30  O   UNL A   1      33.710  29.166  25.326  1.00  0.00    -0.377 OA
BRANCH  30  31
ATOM     31  C   UNL A   1      33.081  29.170  26.588  1.00  0.00     0.188 C 
BRANCH  31  32
ATOM     32  C   UNL A   1      32.239  30.435  26.749  1.00  0.00     0.188 C 
BRANCH  32  33
ATOM     33  O   UNL A   1      32.869  31.497  27.433  1.00  0.00    -0.376 OA
BRANCH  33  34
ATOM     34  C   UNL A   1      32.507  32.846  27.296  1.00  0.00     0.202 C 
BRANCH  34  35
ATOM     35  C   UNL A   1      33.618  33.568  28.027  1.00  0.00     0.261 C 
BRANCH  35  36
ATOM     36  O   UNL A   1      33.759  33.031  29.382  1.00  0.00    -0.460 OA
BRANCH  36  37
ATOM     37  C   UNL A   1      34.762  33.543  30.172  1.00  0.00     0.338 C 
ATOM     38  O   UNL A   1      34.594  34.425  30.997  1.00  0.00    -0.246 OA
BRANCH  37  39
ATOM     39  C   UNL A   1      36.081  32.869  29.860  1.00  0.00     0.060 A 
ATOM     40  C   UNL A   1      36.434  31.651  30.442  1.00  0.00     0.016 A 
ATOM     41  C   UNL A   1      37.083  33.564  29.179  1.00  0.00     0.016 A 
ATOM     42  C   UNL A   1      37.803  31.263  30.502  1.00  0.00     0.010 A 
ATOM     43  C   UNL A   1      38.438  33.267  29.412  1.00  0.00     0.010 A 
ATOM     44  C   UNL A   1      38.844  32.196  30.244  1.00  0.00    -0.014 A 
BRANCH  44  45
ATOM     45  C   UNL A   1      40.437  32.376  30.897  1.00  0.00     0.031 A 
ATOM     46  C   UNL A   1      41.085  31.048  30.248  1.00  0.00     0.074 A 
ATOM     47  C   UNL A   1      41.007  33.412  31.971  1.00  0.00     0.049 A 
ATOM     48  N   UNL A   1      41.846  30.159  30.833  1.00  0.00    -0.248 NA
ATOM     49  C   UNL A   1      40.580  30.460  28.977  1.00  0.00     0.031 C 
ATOM     50  C   UNL A   1      42.243  34.192  32.273  1.00  0.00     0.029 A 
ATOM     51  N   UNL A   1      40.513  33.895  33.331  1.00  0.00    -0.354 N 
ATOM     52  C   UNL A   1      42.323  29.316  29.863  1.00  0.00     0.074 A 
ATOM     53  C   UNL A   1      41.273  29.325  28.901  1.00  0.00     0.031 C 
ATOM     54  C   UNL A   1      42.493  34.336  33.626  1.00  0.00     0.029 A 
ATOM     55  C   UNL A   1      41.386  33.881  34.395  1.00  0.00     0.049 A 
ATOM     56  H   UNL A   1      39.587  34.210  33.445  1.00  0.00     0.167 HD
ATOM     57  C   UNL A   1      43.652  28.988  29.827  1.00  0.00     0.037 A 
ATOM     58  C   UNL A   1      41.216  33.335  35.652  1.00  0.00     0.037 A 
ATOM     59  C   UNL A   1      44.348  29.311  31.114  1.00  0.00     0.049 A 
ATOM     60  C   UNL A   1      42.211  32.163  35.990  1.00  0.00     0.074 A 
ATOM     61  C   UNL A   1      45.465  30.072  31.439  1.00  0.00     0.029 A 
ATOM     62  N   UNL A   1      43.757  29.018  32.361  1.00  0.00    -0.354 N 
ATOM     63  N   UNL A   1      43.084  31.640  35.152  1.00  0.00    -0.248 NA
ATOM     64  C   UNL A   1      42.233  31.421  37.263  1.00  0.00     0.031 C 
ATOM     65  C   UNL A   1      45.487  30.312  32.847  1.00  0.00     0.029 A 
ATOM     66  C   UNL A   1      44.403  29.670  33.419  1.00  0.00     0.049 A 
ATOM     67  H   UNL A   1      42.979  28.424  32.473  1.00  0.00     0.167 HD
ATOM     68  C   UNL A   1      43.504  30.387  35.602  1.00  0.00     0.074 A 
ATOM     69  C   UNL A   1      43.089  30.411  36.996  1.00  0.00     0.031 C 
ATOM     70  C   UNL A   1      44.073  29.387  34.823  1.00  0.00     0.037 A 
BRANCH  57  71
ATOM     71  C   UNL A   1      44.370  28.740  28.460  1.00  0.00     0.058 A 
ATOM     72  C   UNL A   1      44.877  27.463  28.127  1.00  0.00     0.135 A 
ATOM     73  C   UNL A   1      44.695  29.717  27.478  1.00  0.00     0.135 A 
ATOM     74  F   UNL A   1      44.565  26.378  28.845  1.00  0.00    -0.206 F 
ATOM     75  C   UNL A   1      45.707  27.211  27.019  1.00  0.00     0.059 A 
ATOM     76  C   UNL A   1      45.517  29.493  26.365  1.00  0.00     0.059 A 
ATOM     77  F   UNL A   1      44.206  30.957  27.483  1.00  0.00    -0.206 F 
ATOM     78  C   UNL A   1      46.039  28.238  26.149  1.00  0.00     0.060 A 
BRANCH  78  79
ATOM     79  S   UNL A   1      47.060  27.908  24.703  1.00  0.00     0.124 S 
ATOM     80  O   UNL A   1      46.690  29.002  23.812  1.00  0.00    -0.237 OA
ATOM     81  O   UNL A   1      48.408  27.963  25.258  1.00  0.00    -0.237 OA
ATOM     82  O   UNL A   1      46.624  26.581  24.270  1.00  0.00    -0.744 OA
ENDBRANCH  78  79
ENDBRANCH  57  71
BRANCH  58  83
ATOM     83  C   UNL A   1      39.793  33.518  36.233  1.00  0.00     0.058 A 
ATOM     84  C   UNL A   1      38.924  32.417  36.055  1.00  0.00     0.135 A 
ATOM     85  C   UNL A   1      39.382  34.431  37.229  1.00  0.00     0.135 A 
ATOM     86  F   UNL A   1      39.131  31.584  35.023  1.00  0.00    -0.206 F 
ATOM     87  C   UNL A   1      37.919  32.075  36.969  1.00  0.00     0.059 A 
ATOM     88  C   UNL A   1      38.394  34.091  38.188  1.00  0.00     0.059 A 
ATOM     89  F   UNL A   1      40.077  35.561  37.440  1.00  0.00    -0.206 F 
ATOM     90  C   UNL A   1      37.717  32.873  38.088  1.00  0.00     0.060 A 
BRANCH  90  91
ATOM     91  S   UNL A   1      36.765  32.223  39.503  1.00  0.00     0.124 S 
ATOM     92  O   UNL A   1      37.261  33.028  40.612  1.00  0.00    -0.237 OA
ATOM     93  O   UNL A   1      35.379  32.487  39.122  1.00  0.00    -0.237 OA
ATOM     94  O   UNL A   1      37.141  30.814  39.521  1.00  0.00    -0.744 OA
ENDBRANCH  90  91
ENDBRANCH  58  83
BRANCH  70  95
ATOM     95  C   UNL A   1      44.522  27.986  35.283  1.00  0.00     0.058 A 
ATOM     96  C   UNL A   1      45.843  27.565  35.492  1.00  0.00     0.135 A 
ATOM     97  C   UNL A   1      43.538  27.000  35.608  1.00  0.00     0.135 A 
ATOM     98  F   UNL A   1      46.872  28.414  35.387  1.00  0.00    -0.206 F 
ATOM     99  C   UNL A   1      46.163  26.248  35.863  1.00  0.00     0.059 A 
ATOM    100  C   UNL A   1      43.830  25.718  36.049  1.00  0.00     0.059 A 
ATOM    101  F   UNL A   1      42.223  27.229  35.505  1.00  0.00    -0.206 F 
ATOM    102  C   UNL A   1      45.149  25.328  36.121  1.00  0.00     0.060 A 
BRANCH 102 103
ATOM    103  S   UNL A   1      45.540  23.625  36.543  1.00  0.00     0.124 S 
ATOM    104  O   UNL A   1      46.913  23.517  36.061  1.00  0.00    -0.237 OA
ATOM    105  O   UNL A   1      45.373  23.611  37.992  1.00  0.00    -0.237 OA
ATOM    106  O   UNL A   1      44.551  22.850  35.799  1.00  0.00    -0.744 OA
ENDBRANCH 102 103
ENDBRANCH  70  95
ENDBRANCH  44  45
ENDBRANCH  37  39
ENDBRANCH  36  37
ENDBRANCH  35  36
ENDBRANCH  34  35
ENDBRANCH  33  34
ENDBRANCH  32  33
ENDBRANCH  31  32
ENDBRANCH  30  31
ENDBRANCH   1  30
TORSDOF 27
ENDMDL
MODEL 2
REMARK VINA RESULT:     -10.1      2.038      3.056
REMARK SMILES Cc1ccc(C(=O)OCCOCCOCCOCCOC(=O)c2ccc(-c3c4nc(c(-c5c(F)cc(S(=O)(=O)[O-])cc5F)c5ccc([nH]5)c(-c5c(F)cc(S(=O)(=O)[O-])cc5F)c5nc(c(-c6c(F)cc(S(=O)(=O)[O-])cc6F)c6ccc3[nH]6)C=C5)C=C4)cc2)cc1O[C@@H](C)C(=O)N[C@@H]1CCS(=O)(=O)C1
REMARK SMILES IDX 13 1 12 2 11 3 10 4 9 5 8 6 6 7 7 8 5 9 1 10 2 11 3 12 90 13
REMARK SMILES IDX 4 14 89 15 91 16 92 17 93 18 94 19 95 20 96 21 97 23 98 24
REMARK SMILES IDX 103 25 99 26 100 27 101 28 102 29 14 30 15 31 16 32 17 33
REMARK SMILES IDX 18 34 19 35 20 36 21 37 22 38 23 39 24 40 88 41 25 42 87 43
REMARK SMILES IDX 26 44 27 45 28 46 81 47 29 48 86 49 80 50 82 51 30 52 85 53
REMARK SMILES IDX 79 54 78 55 31 57 65 58 44 59 64 60 45 61 48 62 63 63 83 64
REMARK SMILES IDX 46 65 47 66 62 68 84 69 49 70 32 71 33 72 42 73 34 74 35 75
REMARK SMILES IDX 41 76 43 77 36 78 37 79 38 80 39 81 40 82 66 83 67 84 76 85
REMARK SMILES IDX 68 86 69 87 75 88 77 89 70 90 71 91 72 92 73 93 74 94 50 95
REMARK SMILES IDX 51 96 60 97 52 98 53 99 59 100 61 101 54 102 55 103 56 104
REMARK SMILES IDX 57 105 58 106
REMARK H PARENT 96 22 82 56 48 67
REMARK Flexibility Score: inf
ROOT
ATOM      1  C   UNL A   1      32.210  29.153  24.494  1.00  0.00     0.188 C 
ENDROOT
BRANCH   1   2
ATOM      2  C   UNL A   1      32.048  27.608  24.339  1.00  0.00     0.188 C 
BRANCH   2   3
ATOM      3  O   UNL A   1      31.453  26.570  25.371  1.00  0.00    -0.376 OA
BRANCH   3   4
ATOM      4  C   UNL A   1      32.080  25.124  26.044  1.00  0.00     0.202 C 
BRANCH   4   5
ATOM      5  C   UNL A   1      33.409  23.873  25.690  1.00  0.00     0.261 C 
BRANCH   5   6
ATOM      6  O   UNL A   1      34.694  23.774  24.499  1.00  0.00    -0.460 OA
BRANCH   6   7
ATOM      7  C   UNL A   1      35.994  23.193  24.202  1.00  0.00     0.338 C 
ATOM      8  O   UNL A   1      36.620  23.447  23.157  1.00  0.00    -0.246 OA
BRANCH   7   9
ATOM      9  C   UNL A   1      37.121  22.558  25.236  1.00  0.00     0.063 A 
ATOM     10  C   UNL A   1      40.746  20.467  26.738  1.00  0.00     0.048 C 
ATOM     11  C   UNL A   1      39.609  21.278  26.186  1.00  0.00    -0.009 A 
ATOM     12  C   UNL A   1      38.676  20.607  25.382  1.00  0.00     0.008 A 
ATOM     13  C   UNL A   1      39.349  22.615  26.472  1.00  0.00     0.124 A 
ATOM     14  C   UNL A   1      37.506  21.233  24.903  1.00  0.00     0.016 A 
ATOM     15  C   UNL A   1      38.039  23.183  26.123  1.00  0.00     0.062 A 
BRANCH  13  16
ATOM     16  O   UNL A   1      40.259  23.511  26.978  1.00  0.00    -0.481 OA
BRANCH  16  17
ATOM     17  C   UNL A   1      40.846  24.708  26.444  1.00  0.00     0.258 C 
ATOM     18  C   UNL A   1      40.351  25.881  27.314  1.00  0.00     0.064 C 
BRANCH  17  19
ATOM     19  C   UNL A   1      42.211  25.239  25.711  1.00  0.00     0.261 C 
ATOM     20  O   UNL A   1      42.194  26.259  25.005  1.00  0.00    -0.271 OA
ATOM     21  N   UNL A   1      43.406  24.583  25.715  1.00  0.00    -0.349 N 
ATOM     22  H   UNL A   1      44.167  25.060  25.312  1.00  0.00     0.163 HD
BRANCH  21  23
ATOM     23  C   UNL A   1      43.681  23.270  26.242  1.00  0.00     0.098 C 
ATOM     24  C   UNL A   1      45.178  23.024  26.612  1.00  0.00     0.042 C 
ATOM     25  C   UNL A   1      43.284  22.249  25.200  1.00  0.00     0.161 C 
ATOM     26  C   UNL A   1      45.669  21.829  25.774  1.00  0.00     0.139 C 
ATOM     27  S   UNL A   1      44.748  22.039  24.262  1.00  0.00     0.152 S 
ATOM     28  O   UNL A   1      45.129  23.274  23.649  1.00  0.00    -0.229 OA
ATOM     29  O   UNL A   1      44.578  20.824  23.472  1.00  0.00    -0.229 OA
ENDBRANCH  21  23
ENDBRANCH  17  19
ENDBRANCH  16  17
ENDBRANCH  13  16
ENDBRANCH   7   9
ENDBRANCH   6   7
ENDBRANCH   5   6
ENDBRANCH   4   5
ENDBRANCH   3   4
ENDBRANCH   2   3
ENDBRANCH   1   2
BRANCH   1  30
ATOM     30  O   UNL A   1      33.344  29.705  25.125  1.00  0.00    -0.377 OA
BRANCH  30  31
ATOM     31  C   UNL A   1      33.267  29.510  26.520  1.00  0.00     0.188 C 
BRANCH  31  32
ATOM     32  C   UNL A   1      33.117  30.856  27.228  1.00  0.00     0.188 C 
BRANCH  32  33
ATOM     33  O   UNL A   1      34.291  31.355  27.832  1.00  0.00    -0.376 OA
BRANCH  33  34
ATOM     34  C   UNL A   1      34.552  32.719  28.037  1.00  0.00     0.202 C 
BRANCH  34  35
ATOM     35  C   UNL A   1      35.998  32.722  28.480  1.00  0.00     0.261 C 
BRANCH  35  36
ATOM     36  O   UNL A   1      36.171  31.843  29.638  1.00  0.00    -0.460 OA
BRANCH  36  37
ATOM     37  C   UNL A   1      37.156  32.164  30.543  1.00  0.00     0.338 C 
ATOM     38  O   UNL A   1      36.943  32.692  31.621  1.00  0.00    -0.246 OA
BRANCH  37  39
ATOM     39  C   UNL A   1      38.518  31.781  30.005  1.00  0.00     0.060 A 
ATOM     40  C   UNL A   1      38.885  30.447  29.826  1.00  0.00     0.016 A 
ATOM     41  C   UNL A   1      39.531  32.738  29.908  1.00  0.00     0.016 A 
ATOM     42  C   UNL A   1      40.262  30.092  29.759  1.00  0.00     0.010 A 
ATOM     43  C   UNL A   1      40.880  32.361  30.033  1.00  0.00     0.010 A 
ATOM     44  C   UNL A   1      41.278  31.007  30.147  1.00  0.00    -0.014 A 
BRANCH  44  45
ATOM     45  C   UNL A   1      42.819  30.787  30.904  1.00  0.00     0.031 A 
ATOM     46  C   UNL A   1      43.338  29.569  29.981  1.00  0.00     0.074 A 
ATOM     47  C   UNL A   1      43.428  31.442  32.227  1.00  0.00     0.049 A 
ATOM     48  N   UNL A   1      43.921  28.463  30.367  1.00  0.00    -0.248 NA
ATOM     49  C   UNL A   1      42.869  29.381  28.581  1.00  0.00     0.031 C 
ATOM     50  C   UNL A   1      44.726  31.934  32.775  1.00  0.00     0.029 A 
ATOM     51  N   UNL A   1      42.888  31.657  33.638  1.00  0.00    -0.354 N 
ATOM     52  C   UNL A   1      44.363  27.812  29.244  1.00  0.00     0.074 A 
ATOM     53  C   UNL A   1      43.410  28.205  28.262  1.00  0.00     0.031 C 
ATOM     54  C   UNL A   1      44.877  31.714  34.132  1.00  0.00     0.029 A 
ATOM     55  C   UNL A   1      43.657  31.262  34.708  1.00  0.00     0.049 A 
ATOM     56  H   UNL A   1      42.006  32.071  33.779  1.00  0.00     0.167 HD
ATOM     57  C   UNL A   1      45.635  27.307  29.195  1.00  0.00     0.037 A 
ATOM     58  C   UNL A   1      43.310  30.465  35.781  1.00  0.00     0.037 A 
ATOM     59  C   UNL A   1      46.256  27.209  30.556  1.00  0.00     0.049 A 
ATOM     60  C   UNL A   1      44.107  29.112  35.870  1.00  0.00     0.074 A 
ATOM     61  C   UNL A   1      47.432  27.694  31.115  1.00  0.00     0.029 A 
ATOM     62  N   UNL A   1      45.526  26.721  31.660  1.00  0.00    -0.354 N 
ATOM     63  N   UNL A   1      44.972  28.677  34.975  1.00  0.00    -0.248 NA
ATOM     64  C   UNL A   1      43.922  28.094  36.920  1.00  0.00     0.031 C 
ATOM     65  C   UNL A   1      47.365  27.588  32.537  1.00  0.00     0.029 A 
ATOM     66  C   UNL A   1      46.160  26.999  32.878  1.00  0.00     0.049 A 
ATOM     67  H   UNL A   1      44.670  26.240  31.583  1.00  0.00     0.167 HD
ATOM     68  C   UNL A   1      45.182  27.305  35.122  1.00  0.00     0.074 A 
ATOM     69  C   UNL A   1      44.655  27.060  36.456  1.00  0.00     0.031 C 
ATOM     70  C   UNL A   1      45.677  26.444  34.151  1.00  0.00     0.037 A 
BRANCH  57  71
ATOM     71  C   UNL A   1      46.428  27.285  27.848  1.00  0.00     0.058 A 
ATOM     72  C   UNL A   1      46.593  28.461  27.082  1.00  0.00     0.135 A 
ATOM     73  C   UNL A   1      46.960  26.140  27.190  1.00  0.00     0.135 A 
ATOM     74  F   UNL A   1      46.288  29.666  27.578  1.00  0.00    -0.206 F 
ATOM     75  C   UNL A   1      47.109  28.481  25.773  1.00  0.00     0.059 A 
ATOM     76  C   UNL A   1      47.481  26.133  25.889  1.00  0.00     0.059 A 
ATOM     77  F   UNL A   1      47.065  24.942  27.766  1.00  0.00    -0.206 F 
ATOM     78  C   UNL A   1      47.537  27.307  25.174  1.00  0.00     0.060 A 
BRANCH  78  79
ATOM     79  S   UNL A   1      48.245  27.338  23.519  1.00  0.00     0.124 S 
ATOM     80  O   UNL A   1      48.316  25.919  23.190  1.00  0.00    -0.237 OA
ATOM     81  O   UNL A   1      47.259  28.117  22.777  1.00  0.00    -0.237 OA
ATOM     82  O   UNL A   1      49.536  27.996  23.709  1.00  0.00    -0.744 OA
ENDBRANCH  78  79
ENDBRANCH  57  71
BRANCH  58  83
ATOM     83  C   UNL A   1      41.879  30.717  36.317  1.00  0.00     0.058 A 
ATOM     84  C   UNL A   1      41.758  31.794  37.226  1.00  0.00     0.135 A 
ATOM     85  C   UNL A   1      40.660  30.299  35.743  1.00  0.00     0.135 A 
ATOM     86  F   UNL A   1      42.826  32.157  37.953  1.00  0.00    -0.206 F 
ATOM     87  C   UNL A   1      40.608  32.589  37.327  1.00  0.00     0.059 A 
ATOM     88  C   UNL A   1      39.494  31.104  35.800  1.00  0.00     0.059 A 
ATOM     89  F   UNL A   1      40.627  29.233  34.925  1.00  0.00    -0.206 F 
ATOM     90  C   UNL A   1      39.503  32.289  36.541  1.00  0.00     0.060 A 
BRANCH  90  91
ATOM     91  S   UNL A   1      38.196  33.540  36.305  1.00  0.00     0.124 S 
ATOM     92  O   UNL A   1      38.759  34.391  35.265  1.00  0.00    -0.237 OA
ATOM     93  O   UNL A   1      37.042  32.744  35.893  1.00  0.00    -0.237 OA
ATOM     94  O   UNL A   1      38.086  34.142  37.629  1.00  0.00    -0.744 OA
ENDBRANCH  90  91
ENDBRANCH  58  83
BRANCH  70  95
ATOM     95  C   UNL A   1      45.895  24.923  34.273  1.00  0.00     0.058 A 
ATOM     96  C   UNL A   1      45.035  23.921  33.803  1.00  0.00     0.135 A 
ATOM     97  C   UNL A   1      47.106  24.428  34.850  1.00  0.00     0.135 A 
ATOM     98  F   UNL A   1      43.938  24.216  33.096  1.00  0.00    -0.206 F 
ATOM     99  C   UNL A   1      45.291  22.554  34.005  1.00  0.00     0.059 A 
ATOM    100  C   UNL A   1      47.413  23.082  34.992  1.00  0.00     0.059 A 
ATOM    101  F   UNL A   1      48.064  25.234  35.324  1.00  0.00    -0.206 F 
ATOM    102  C   UNL A   1      46.474  22.147  34.617  1.00  0.00     0.060 A 
BRANCH 102 103
ATOM    103  S   UNL A   1      46.794  20.406  34.933  1.00  0.00     0.124 S 
ATOM    104  O   UNL A   1      45.438  19.868  34.972  1.00  0.00    -0.237 OA
ATOM    105  O   UNL A   1      47.598  20.017  33.780  1.00  0.00    -0.237 OA
ATOM    106  O   UNL A   1      47.503  20.413  36.209  1.00  0.00    -0.744 OA
ENDBRANCH 102 103
ENDBRANCH  70  95
ENDBRANCH  44  45
ENDBRANCH  37  39
ENDBRANCH  36  37
ENDBRANCH  35  36
ENDBRANCH  34  35
ENDBRANCH  33  34
ENDBRANCH  32  33
ENDBRANCH  31  32
ENDBRANCH  30  31
ENDBRANCH   1  30
TORSDOF 27
ENDMDL
MODEL 3
REMARK VINA RESULT:      -9.8      3.823      8.977
REMARK SMILES Cc1ccc(C(=O)OCCOCCOCCOCCOC(=O)c2ccc(-c3c4nc(c(-c5c(F)cc(S(=O)(=O)[O-])cc5F)c5ccc([nH]5)c(-c5c(F)cc(S(=O)(=O)[O-])cc5F)c5nc(c(-c6c(F)cc(S(=O)(=O)[O-])cc6F)c6ccc3[nH]6)C=C5)C=C4)cc2)cc1O[C@@H](C)C(=O)N[C@@H]1CCS(=O)(=O)C1
REMARK SMILES IDX 13 1 12 2 11 3 10 4 9 5 8 6 6 7 7 8 5 9 1 10 2 11 3 12 90 13
REMARK SMILES IDX 4 14 89 15 91 16 92 17 93 18 94 19 95 20 96 21 97 23 98 24
REMARK SMILES IDX 103 25 99 26 100 27 101 28 102 29 14 30 15 31 16 32 17 33
REMARK SMILES IDX 18 34 19 35 20 36 21 37 22 38 23 39 24 40 88 41 25 42 87 43
REMARK SMILES IDX 26 44 27 45 28 46 81 47 29 48 86 49 80 50 82 51 30 52 85 53
REMARK SMILES IDX 79 54 78 55 31 57 65 58 44 59 64 60 45 61 48 62 63 63 83 64
REMARK SMILES IDX 46 65 47 66 62 68 84 69 49 70 32 71 33 72 42 73 34 74 35 75
REMARK SMILES IDX 41 76 43 77 36 78 37 79 38 80 39 81 40 82 66 83 67 84 76 85
REMARK SMILES IDX 68 86 69 87 75 88 77 89 70 90 71 91 72 92 73 93 74 94 50 95
REMARK SMILES IDX 51 96 60 97 52 98 53 99 59 100 61 101 54 102 55 103 56 104
REMARK SMILES IDX 57 105 58 106
REMARK H PARENT 96 22 82 56 48 67
REMARK Flexibility Score: inf
ROOT
ATOM      1  C   UNL A   1      44.289  27.987  26.148  1.00  0.00     0.188 C 
ENDROOT
BRANCH   1   2
ATOM      2  C   UNL A   1      43.938  29.170  27.104  1.00  0.00     0.188 C 
BRANCH   2   3
ATOM      3  O   UNL A   1      44.711  30.533  27.312  1.00  0.00    -0.376 OA
BRANCH   3   4
ATOM      4  C   UNL A   1      45.531  31.200  28.662  1.00  0.00     0.202 C 
BRANCH   4   5
ATOM      5  C   UNL A   1      45.621  32.805  29.595  1.00  0.00     0.261 C 
BRANCH   5   6
ATOM      6  O   UNL A   1      44.435  33.781  30.444  1.00  0.00    -0.460 OA
BRANCH   6   7
ATOM      7  C   UNL A   1      43.361  33.757  31.424  1.00  0.00     0.338 C 
ATOM      8  O   UNL A   1      43.569  33.797  32.650  1.00  0.00    -0.246 OA
BRANCH   7   9
ATOM      9  C   UNL A   1      41.767  34.169  31.244  1.00  0.00     0.063 A 
ATOM     10  C   UNL A   1      37.558  34.168  29.811  1.00  0.00     0.048 C 
ATOM     11  C   UNL A   1      38.949  34.046  30.364  1.00  0.00    -0.009 A 
ATOM     12  C   UNL A   1      40.012  34.229  29.467  1.00  0.00     0.008 A 
ATOM     13  C   UNL A   1      39.279  33.855  31.703  1.00  0.00     0.124 A 
ATOM     14  C   UNL A   1      41.357  34.253  29.888  1.00  0.00     0.016 A 
ATOM     15  C   UNL A   1      40.666  34.075  32.138  1.00  0.00     0.062 A 
BRANCH  13  16
ATOM     16  O   UNL A   1      38.430  33.374  32.670  1.00  0.00    -0.481 OA
BRANCH  16  17
ATOM     17  C   UNL A   1      37.323  32.460  32.625  1.00  0.00     0.258 C 
ATOM     18  C   UNL A   1      37.534  31.440  33.762  1.00  0.00     0.064 C 
BRANCH  17  19
ATOM     19  C   UNL A   1      35.725  32.413  32.271  1.00  0.00     0.261 C 
ATOM     20  O   UNL A   1      35.201  31.371  31.846  1.00  0.00    -0.271 OA
ATOM     21  N   UNL A   1      34.886  33.487  32.301  1.00  0.00    -0.349 N 
ATOM     22  H   UNL A   1      33.931  33.299  32.154  1.00  0.00     0.163 HD
BRANCH  21  23
ATOM     23  C   UNL A   1      35.239  34.867  32.522  1.00  0.00     0.098 C 
ATOM     24  C   UNL A   1      34.786  35.435  33.905  1.00  0.00     0.042 C 
ATOM     25  C   UNL A   1      34.594  35.701  31.439  1.00  0.00     0.161 C 
ATOM     26  C   UNL A   1      33.858  36.632  33.627  1.00  0.00     0.139 C 
ATOM     27  S   UNL A   1      33.039  36.121  32.128  1.00  0.00     0.152 S 
ATOM     28  O   UNL A   1      32.274  34.942  32.390  1.00  0.00    -0.229 OA
ATOM     29  O   UNL A   1      32.497  37.211  31.323  1.00  0.00    -0.229 OA
ENDBRANCH  21  23
ENDBRANCH  17  19
ENDBRANCH  16  17
ENDBRANCH  13  16
ENDBRANCH   7   9
ENDBRANCH   6   7
ENDBRANCH   5   6
ENDBRANCH   4   5
ENDBRANCH   3   4
ENDBRANCH   2   3
ENDBRANCH   1   2
BRANCH   1  30
ATOM     30  O   UNL A   1      43.488  27.700  25.024  1.00  0.00    -0.377 OA
BRANCH  30  31
ATOM     31  C   UNL A   1      42.513  26.736  25.355  1.00  0.00     0.188 C 
BRANCH  31  32
ATOM     32  C   UNL A   1      41.381  27.389  26.148  1.00  0.00     0.188 C 
BRANCH  32  33
ATOM     33  O   UNL A   1      40.893  26.634  27.237  1.00  0.00    -0.376 OA
BRANCH  33  34
ATOM     34  C   UNL A   1      39.531  26.426  27.502  1.00  0.00     0.202 C 
BRANCH  34  35
ATOM     35  C   UNL A   1      39.348  27.076  28.856  1.00  0.00     0.261 C 
BRANCH  35  36
ATOM     36  O   UNL A   1      38.540  28.289  28.726  1.00  0.00    -0.460 OA
BRANCH  36  37
ATOM     37  C   UNL A   1      38.210  28.964  29.878  1.00  0.00     0.338 C 
ATOM     38  O   UNL A   1      37.107  28.925  30.397  1.00  0.00    -0.246 OA
BRANCH  37  39
ATOM     39  C   UNL A   1      39.395  29.756  30.388  1.00  0.00     0.060 A 
ATOM     40  C   UNL A   1      40.259  30.420  29.518  1.00  0.00     0.016 A 
ATOM     41  C   UNL A   1      39.798  29.639  31.720  1.00  0.00     0.016 A 
ATOM     42  C   UNL A   1      41.572  30.765  29.947  1.00  0.00     0.010 A 
ATOM     43  C   UNL A   1      41.150  29.809  32.072  1.00  0.00     0.010 A 
ATOM     44  C   UNL A   1      42.129  30.211  31.131  1.00  0.00    -0.014 A 
BRANCH  44  45
ATOM     45  C   UNL A   1      43.744  29.760  31.561  1.00  0.00     0.031 A 
ATOM     46  C   UNL A   1      43.704  28.252  30.989  1.00  0.00     0.074 A 
ATOM     47  C   UNL A   1      44.837  30.528  32.436  1.00  0.00     0.049 A 
ATOM     48  N   UNL A   1      44.132  27.161  31.572  1.00  0.00    -0.248 NA
ATOM     49  C   UNL A   1      42.816  27.855  29.862  1.00  0.00     0.031 C 
ATOM     50  C   UNL A   1      46.312  30.752  32.498  1.00  0.00     0.029 A 
ATOM     51  N   UNL A   1      44.793  31.240  33.785  1.00  0.00    -0.354 N 
ATOM     52  C   UNL A   1      44.080  26.148  30.650  1.00  0.00     0.074 A 
ATOM     53  C   UNL A   1      42.982  26.533  29.828  1.00  0.00     0.031 C 
ATOM     54  C   UNL A   1      46.806  30.851  33.786  1.00  0.00     0.029 A 
ATOM     55  C   UNL A   1      45.744  30.927  34.729  1.00  0.00     0.049 A 
ATOM     56  H   UNL A   1      44.098  31.910  33.975  1.00  0.00     0.167 HD
ATOM     57  C   UNL A   1      45.147  25.305  30.489  1.00  0.00     0.037 A 
ATOM     58  C   UNL A   1      45.571  30.564  36.050  1.00  0.00     0.037 A 
ATOM     59  C   UNL A   1      46.106  25.384  31.637  1.00  0.00     0.049 A 
ATOM     60  C   UNL A   1      46.061  29.108  36.392  1.00  0.00     0.074 A 
ATOM     61  C   UNL A   1      47.469  25.639  31.738  1.00  0.00     0.029 A 
ATOM     62  N   UNL A   1      45.650  25.422  32.972  1.00  0.00    -0.354 N 
ATOM     63  N   UNL A   1      46.513  28.231  35.517  1.00  0.00    -0.248 NA
ATOM     64  C   UNL A   1      45.986  28.488  37.727  1.00  0.00     0.031 C 
ATOM     65  C   UNL A   1      47.803  25.922  33.097  1.00  0.00     0.029 A 
ATOM     66  C   UNL A   1      46.658  25.808  33.865  1.00  0.00     0.049 A 
ATOM     67  H   UNL A   1      44.729  25.203  33.243  1.00  0.00     0.167 HD
ATOM     68  C   UNL A   1      46.468  26.942  36.048  1.00  0.00     0.074 A 
ATOM     69  C   UNL A   1      46.320  27.205  37.471  1.00  0.00     0.031 C 
ATOM     70  C   UNL A   1      46.466  25.758  35.321  1.00  0.00     0.037 A 
BRANCH  57  71
ATOM     71  C   UNL A   1      45.485  24.716  29.081  1.00  0.00     0.058 A 
ATOM     72  C   UNL A   1      46.292  25.432  28.167  1.00  0.00     0.135 A 
ATOM     73  C   UNL A   1      44.974  23.515  28.514  1.00  0.00     0.135 A 
ATOM     74  F   UNL A   1      46.981  26.515  28.544  1.00  0.00    -0.206 F 
ATOM     75  C   UNL A   1      46.470  25.066  26.820  1.00  0.00     0.059 A 
ATOM     76  C   UNL A   1      45.137  23.126  27.178  1.00  0.00     0.059 A 
ATOM     77  F   UNL A   1      44.315  22.592  29.215  1.00  0.00    -0.206 F 
ATOM     78  C   UNL A   1      45.873  23.917  26.326  1.00  0.00     0.060 A 
BRANCH  78  79
ATOM     79  S   UNL A   1      46.140  23.420  24.616  1.00  0.00     0.124 S 
ATOM     80  O   UNL A   1      46.580  22.037  24.765  1.00  0.00    -0.237 OA
ATOM     81  O   UNL A   1      44.818  23.610  24.029  1.00  0.00    -0.237 OA
ATOM     82  O   UNL A   1      47.165  24.349  24.144  1.00  0.00    -0.744 OA
ENDBRANCH  78  79
ENDBRANCH  57  71
BRANCH  58  83
ATOM     83  C   UNL A   1      44.446  31.341  36.777  1.00  0.00     0.058 A 
ATOM     84  C   UNL A   1      44.653  32.736  36.888  1.00  0.00     0.135 A 
ATOM     85  C   UNL A   1      43.110  30.932  36.979  1.00  0.00     0.135 A 
ATOM     86  F   UNL A   1      45.909  33.211  36.881  1.00  0.00    -0.206 F 
ATOM     87  C   UNL A   1      43.610  33.671  36.885  1.00  0.00     0.059 A 
ATOM     88  C   UNL A   1      42.035  31.856  36.942  1.00  0.00     0.059 A 
ATOM     89  F   UNL A   1      42.795  29.626  36.980  1.00  0.00    -0.206 F 
ATOM     90  C   UNL A   1      42.296  33.223  36.823  1.00  0.00     0.060 A 
BRANCH  90  91
ATOM     91  S   UNL A   1      40.967  34.384  36.357  1.00  0.00     0.124 S 
ATOM     92  O   UNL A   1      40.529  34.895  37.649  1.00  0.00    -0.237 OA
ATOM     93  O   UNL A   1      41.654  35.356  35.510  1.00  0.00    -0.237 OA
ATOM     94  O   UNL A   1      40.019  33.521  35.659  1.00  0.00    -0.744 OA
ENDBRANCH  90  91
ENDBRANCH  58  83
BRANCH  70  95
ATOM     95  C   UNL A   1      46.391  24.321  35.875  1.00  0.00     0.058 A 
ATOM     96  C   UNL A   1      45.248  23.511  35.930  1.00  0.00     0.135 A 
ATOM     97  C   UNL A   1      47.584  23.674  36.326  1.00  0.00     0.135 A 
ATOM     98  F   UNL A   1      44.084  23.908  35.400  1.00  0.00    -0.206 F 
ATOM     99  C   UNL A   1      45.261  22.228  36.501  1.00  0.00     0.059 A 
ATOM    100  C   UNL A   1      47.633  22.380  36.824  1.00  0.00     0.059 A 
ATOM    101  F   UNL A   1      48.780  24.276  36.318  1.00  0.00    -0.206 F 
ATOM    102  C   UNL A   1      46.456  21.680  36.962  1.00  0.00     0.060 A 
BRANCH 102 103
ATOM    103  S   UNL A   1      46.483  20.062  37.745  1.00  0.00     0.124 S 
ATOM    104  O   UNL A   1      47.890  19.699  37.605  1.00  0.00    -0.237 OA
ATOM    105  O   UNL A   1      46.037  20.358  39.101  1.00  0.00    -0.237 OA
ATOM    106  O   UNL A   1      45.550  19.276  36.943  1.00  0.00    -0.744 OA
ENDBRANCH 102 103
ENDBRANCH  70  95
ENDBRANCH  44  45
ENDBRANCH  37  39
ENDBRANCH  36  37
ENDBRANCH  35  36
ENDBRANCH  34  35
ENDBRANCH  33  34
ENDBRANCH  32  33
ENDBRANCH  31  32
ENDBRANCH  30  31
ENDBRANCH   1  30
TORSDOF 27
ENDMDL
