MODEL 1
REMARK VINA RESULT:      -9.5      0.000      0.000
REMARK SMILES CC(C)Oc1ccccc1NCc1cc(C(=O)OCCOCCOCCOCCOC(=O)c2ccc(-c3c4nc(c(-c5c(F)cc(S(=O)(=O)[O-])cc5F)c5ccc([nH]5)c(-c5c(F)cc(S(=O)(=O)[O-])cc5F)c5nc(c(-c6c(F)cc(S(=O)(=O)[O-])cc6F)c6ccc3[nH]6)C=C5)C=C4)cc2)cs1
REMARK SMILES IDX 23 1 22 2 21 3 20 4 19 5 18 6 16 7 17 8 15 9 13 10 14 11
REMARK SMILES IDX 100 12 99 13 12 14 11 15 10 17 5 18 6 19 7 20 9 21 8 22 4 23
REMARK SMILES IDX 2 24 1 25 3 26 24 27 25 28 26 29 27 30 28 31 29 32 30 33
REMARK SMILES IDX 31 34 32 35 33 36 34 37 98 38 35 39 97 40 36 41 37 42 38 43
REMARK SMILES IDX 91 44 39 45 96 46 90 47 92 48 40 49 95 50 89 51 88 52 41 54
REMARK SMILES IDX 75 55 54 56 74 57 55 58 58 59 73 60 93 61 56 62 57 63 72 65
REMARK SMILES IDX 94 66 59 67 42 68 43 69 52 70 44 71 45 72 51 73 53 74 46 75
REMARK SMILES IDX 47 76 48 77 49 78 50 79 76 80 77 81 86 82 78 83 79 84 85 85
REMARK SMILES IDX 87 86 80 87 81 88 82 89 83 90 84 91 60 92 61 93 70 94 62 95
REMARK SMILES IDX 63 96 69 97 71 98 64 99 65 100 66 101 67 102 68 103
REMARK H PARENT 11 16 92 53 58 64
REMARK Flexibility Score: inf
ROOT
ATOM      1  C   UNL A   1      32.676  28.468  25.740  1.00  0.00     0.188 C 
ENDROOT
BRANCH   1   2
ATOM      2  C   UNL A   1      31.257  28.613  25.167  1.00  0.00     0.188 C 
BRANCH   2   3
ATOM      3  O   UNL A   1      31.233  29.012  23.799  1.00  0.00    -0.376 OA
BRANCH   3   4
ATOM      4  C   UNL A   1      32.333  28.602  22.997  1.00  0.00     0.202 C 
BRANCH   4   5
ATOM      5  C   UNL A   1      32.304  27.141  22.524  1.00  0.00     0.261 C 
BRANCH   5   6
ATOM      6  O   UNL A   1      33.105  26.219  23.280  1.00  0.00    -0.460 OA
BRANCH   6   7
ATOM      7  C   UNL A   1      33.473  25.059  22.685  1.00  0.00     0.339 C 
ATOM      8  O   UNL A   1      33.536  24.883  21.474  1.00  0.00    -0.246 OA
BRANCH   7   9
ATOM      9  C   UNL A   1      33.893  24.057  23.658  1.00  0.00     0.071 A 
ATOM     10  C   UNL A   1      33.754  22.440  25.359  1.00  0.00     0.025 A 
ATOM     11  C   UNL A   1      33.067  23.392  24.628  1.00  0.00     0.033 A 
ATOM     12  S   UNL A   1      35.420  22.439  24.962  1.00  0.00    -0.146 S 
ATOM     13  C   UNL A   1      35.207  23.644  23.773  1.00  0.00     0.080 A 
BRANCH  10  14
ATOM     14  C   UNL A   1      33.201  21.443  26.342  1.00  0.00     0.160 C 
BRANCH  14  15
ATOM     15  N   UNL A   1      33.217  20.063  25.903  1.00  0.00    -0.377 N 
ATOM     16  H   UNL A   1      33.524  19.402  26.565  1.00  0.00     0.161 HD
BRANCH  15  17
ATOM     17  C   UNL A   1      32.853  19.562  24.669  1.00  0.00     0.077 A 
ATOM     18  C   UNL A   1      32.886  18.168  24.449  1.00  0.00     0.142 A 
ATOM     19  C   UNL A   1      32.607  17.613  23.195  1.00  0.00     0.048 A 
ATOM     20  C   UNL A   1      32.222  18.439  22.144  1.00  0.00     0.004 A 
ATOM     21  C   UNL A   1      32.428  20.362  23.603  1.00  0.00     0.029 A 
ATOM     22  C   UNL A   1      32.123  19.811  22.351  1.00  0.00     0.002 A 
BRANCH  18  23
ATOM     23  O   UNL A   1      33.327  17.322  25.435  1.00  0.00    -0.489 OA
BRANCH  23  24
ATOM     24  C   UNL A   1      33.724  15.996  25.031  1.00  0.00     0.167 C 
ATOM     25  C   UNL A   1      35.205  15.809  25.351  1.00  0.00     0.052 C 
ATOM     26  C   UNL A   1      32.907  14.805  25.536  1.00  0.00     0.052 C 
ENDBRANCH  23  24
ENDBRANCH  18  23
ENDBRANCH  15  17
ENDBRANCH  14  15
ENDBRANCH  10  14
ENDBRANCH   7   9
ENDBRANCH   6   7
ENDBRANCH   5   6
ENDBRANCH   4   5
ENDBRANCH   3   4
ENDBRANCH   2   3
ENDBRANCH   1   2
BRANCH   1  27
ATOM     27  O   UNL A   1      33.256  29.685  26.170  1.00  0.00    -0.377 OA
BRANCH  27  28
ATOM     28  C   UNL A   1      33.972  29.712  27.404  1.00  0.00     0.188 C 
BRANCH  28  29
ATOM     29  C   UNL A   1      35.504  29.902  27.475  1.00  0.00     0.188 C 
BRANCH  29  30
ATOM     30  O   UNL A   1      35.924  31.187  27.932  1.00  0.00    -0.376 OA
BRANCH  30  31
ATOM     31  C   UNL A   1      34.992  31.901  28.732  1.00  0.00     0.202 C 
BRANCH  31  32
ATOM     32  C   UNL A   1      35.330  31.861  30.226  1.00  0.00     0.261 C 
BRANCH  32  33
ATOM     33  O   UNL A   1      36.375  30.941  30.574  1.00  0.00    -0.460 OA
BRANCH  33  34
ATOM     34  C   UNL A   1      37.456  31.455  31.200  1.00  0.00     0.338 C 
ATOM     35  O   UNL A   1      37.466  32.203  32.160  1.00  0.00    -0.246 OA
BRANCH  34  36
ATOM     36  C   UNL A   1      38.654  30.815  30.626  1.00  0.00     0.060 A 
ATOM     37  C   UNL A   1      39.640  30.329  31.494  1.00  0.00     0.016 A 
ATOM     38  C   UNL A   1      38.798  30.699  29.242  1.00  0.00     0.016 A 
ATOM     39  C   UNL A   1      40.800  29.760  30.970  1.00  0.00     0.010 A 
ATOM     40  C   UNL A   1      39.965  30.143  28.720  1.00  0.00     0.010 A 
ATOM     41  C   UNL A   1      40.984  29.703  29.581  1.00  0.00    -0.014 A 
BRANCH  41  42
ATOM     42  C   UNL A   1      42.313  29.364  29.022  1.00  0.00     0.031 A 
ATOM     43  C   UNL A   1      42.543  27.960  28.536  1.00  0.00     0.074 A 
ATOM     44  C   UNL A   1      43.297  30.277  28.961  1.00  0.00     0.049 A 
ATOM     45  N   UNL A   1      43.627  27.417  28.051  1.00  0.00    -0.248 NA
ATOM     46  C   UNL A   1      41.392  27.045  28.614  1.00  0.00     0.031 C 
ATOM     47  C   UNL A   1      43.185  31.672  29.383  1.00  0.00     0.029 A 
ATOM     48  N   UNL A   1      44.593  30.157  28.528  1.00  0.00    -0.354 N 
ATOM     49  C   UNL A   1      43.293  26.099  27.765  1.00  0.00     0.074 A 
ATOM     50  C   UNL A   1      41.913  25.915  28.160  1.00  0.00     0.031 C 
ATOM     51  C   UNL A   1      44.372  32.277  29.199  1.00  0.00     0.029 A 
ATOM     52  C   UNL A   1      45.330  31.306  28.671  1.00  0.00     0.049 A 
ATOM     53  H   UNL A   1      44.960  29.325  28.151  1.00  0.00     0.167 HD
ATOM     54  C   UNL A   1      44.063  25.131  27.218  1.00  0.00     0.037 A 
ATOM     55  C   UNL A   1      46.634  31.541  28.419  1.00  0.00     0.037 A 
ATOM     56  C   UNL A   1      45.439  25.314  26.840  1.00  0.00     0.049 A 
ATOM     57  C   UNL A   1      47.492  30.429  27.869  1.00  0.00     0.074 A 
ATOM     58  C   UNL A   1      46.301  24.402  26.258  1.00  0.00     0.029 A 
ATOM     59  N   UNL A   1      46.158  26.486  27.021  1.00  0.00    -0.354 N 
ATOM     60  N   UNL A   1      47.154  29.197  27.569  1.00  0.00    -0.248 NA
ATOM     61  C   UNL A   1      48.907  30.741  27.625  1.00  0.00     0.031 C 
ATOM     62  C   UNL A   1      47.555  25.009  26.127  1.00  0.00     0.029 A 
ATOM     63  C   UNL A   1      47.461  26.314  26.585  1.00  0.00     0.049 A 
ATOM     64  H   UNL A   1      45.795  27.318  27.403  1.00  0.00     0.167 HD
ATOM     65  C   UNL A   1      48.308  28.595  27.076  1.00  0.00     0.074 A 
ATOM     66  C   UNL A   1      49.351  29.600  27.114  1.00  0.00     0.031 C 
ATOM     67  C   UNL A   1      48.486  27.326  26.629  1.00  0.00     0.037 A 
BRANCH  54  68
ATOM     68  C   UNL A   1      43.433  23.782  27.025  1.00  0.00     0.058 A 
ATOM     69  C   UNL A   1      43.255  22.892  28.096  1.00  0.00     0.135 A 
ATOM     70  C   UNL A   1      43.006  23.372  25.752  1.00  0.00     0.135 A 
ATOM     71  F   UNL A   1      43.665  23.227  29.329  1.00  0.00    -0.206 F 
ATOM     72  C   UNL A   1      42.707  21.627  27.906  1.00  0.00     0.059 A 
ATOM     73  C   UNL A   1      42.434  22.122  25.542  1.00  0.00     0.059 A 
ATOM     74  F   UNL A   1      43.159  24.183  24.694  1.00  0.00    -0.206 F 
ATOM     75  C   UNL A   1      42.305  21.249  26.623  1.00  0.00     0.060 A 
BRANCH  75  76
ATOM     76  S   UNL A   1      41.613  19.599  26.385  1.00  0.00     0.124 S 
ATOM     77  O   UNL A   1      42.353  19.141  25.212  1.00  0.00    -0.237 OA
ATOM     78  O   UNL A   1      41.947  18.935  27.642  1.00  0.00    -0.237 OA
ATOM     79  O   UNL A   1      40.192  19.854  26.171  1.00  0.00    -0.744 OA
ENDBRANCH  75  76
ENDBRANCH  54  68
BRANCH  55  80
ATOM     80  C   UNL A   1      47.209  32.885  28.684  1.00  0.00     0.058 A 
ATOM     81  C   UNL A   1      47.874  33.162  29.887  1.00  0.00     0.135 A 
ATOM     82  C   UNL A   1      47.115  33.915  27.736  1.00  0.00     0.135 A 
ATOM     83  F   UNL A   1      47.977  32.212  30.829  1.00  0.00    -0.206 F 
ATOM     84  C   UNL A   1      48.426  34.412  30.143  1.00  0.00     0.059 A 
ATOM     85  C   UNL A   1      47.676  35.168  27.960  1.00  0.00     0.059 A 
ATOM     86  F   UNL A   1      46.492  33.698  26.566  1.00  0.00    -0.206 F 
ATOM     87  C   UNL A   1      48.325  35.409  29.170  1.00  0.00     0.060 A 
BRANCH  87  88
ATOM     88  S   UNL A   1      49.105  37.008  29.483  1.00  0.00     0.124 S 
ATOM     89  O   UNL A   1      49.476  36.885  30.888  1.00  0.00    -0.237 OA
ATOM     90  O   UNL A   1      50.208  37.004  28.527  1.00  0.00    -0.237 OA
ATOM     91  O   UNL A   1      48.039  37.962  29.192  1.00  0.00    -0.744 OA
ENDBRANCH  87  88
ENDBRANCH  55  80
BRANCH  67  92
ATOM     92  C   UNL A   1      49.852  26.956  26.118  1.00  0.00     0.058 A 
ATOM     93  C   UNL A   1      50.202  27.118  24.769  1.00  0.00     0.135 A 
ATOM     94  C   UNL A   1      50.839  26.493  27.003  1.00  0.00     0.135 A 
ATOM     95  F   UNL A   1      49.293  27.552  23.882  1.00  0.00    -0.206 F 
ATOM     96  C   UNL A   1      51.481  26.815  24.311  1.00  0.00     0.059 A 
ATOM     97  C   UNL A   1      52.131  26.207  26.571  1.00  0.00     0.059 A 
ATOM     98  F   UNL A   1      50.558  26.332  28.306  1.00  0.00    -0.206 F 
ATOM     99  C   UNL A   1      52.439  26.361  25.220  1.00  0.00     0.060 A 
BRANCH  99 100
ATOM    100  S   UNL A   1      54.105  26.007  24.621  1.00  0.00     0.124 S 
ATOM    101  O   UNL A   1      54.916  26.844  25.498  1.00  0.00    -0.237 OA
ATOM    102  O   UNL A   1      54.218  24.567  24.838  1.00  0.00    -0.237 OA
ATOM    103  O   UNL A   1      54.058  26.421  23.223  1.00  0.00    -0.744 OA
ENDBRANCH  99 100
ENDBRANCH  67  92
ENDBRANCH  41  42
ENDBRANCH  34  36
ENDBRANCH  33  34
ENDBRANCH  32  33
ENDBRANCH  31  32
ENDBRANCH  30  31
ENDBRANCH  29  30
ENDBRANCH  28  29
ENDBRANCH  27  28
ENDBRANCH   1  27
TORSDOF 28
ENDMDL
MODEL 2
REMARK VINA RESULT:      -8.8      1.264      2.334
REMARK SMILES CC(C)Oc1ccccc1NCc1cc(C(=O)OCCOCCOCCOCCOC(=O)c2ccc(-c3c4nc(c(-c5c(F)cc(S(=O)(=O)[O-])cc5F)c5ccc([nH]5)c(-c5c(F)cc(S(=O)(=O)[O-])cc5F)c5nc(c(-c6c(F)cc(S(=O)(=O)[O-])cc6F)c6ccc3[nH]6)C=C5)C=C4)cc2)cs1
REMARK SMILES IDX 23 1 22 2 21 3 20 4 19 5 18 6 16 7 17 8 15 9 13 10 14 11
REMARK SMILES IDX 100 12 99 13 12 14 11 15 10 17 5 18 6 19 7 20 9 21 8 22 4 23
REMARK SMILES IDX 2 24 1 25 3 26 24 27 25 28 26 29 27 30 28 31 29 32 30 33
REMARK SMILES IDX 31 34 32 35 33 36 34 37 98 38 35 39 97 40 36 41 37 42 38 43
REMARK SMILES IDX 91 44 39 45 96 46 90 47 92 48 40 49 95 50 89 51 88 52 41 54
REMARK SMILES IDX 75 55 54 56 74 57 55 58 58 59 73 60 93 61 56 62 57 63 72 65
REMARK SMILES IDX 94 66 59 67 42 68 43 69 52 70 44 71 45 72 51 73 53 74 46 75
REMARK SMILES IDX 47 76 48 77 49 78 50 79 76 80 77 81 86 82 78 83 79 84 85 85
REMARK SMILES IDX 87 86 80 87 81 88 82 89 83 90 84 91 60 92 61 93 70 94 62 95
REMARK SMILES IDX 63 96 69 97 71 98 64 99 65 100 66 101 67 102 68 103
REMARK H PARENT 11 16 92 53 58 64
REMARK Flexibility Score: inf
ROOT
ATOM      1  C   UNL A   1      33.442  28.060  25.582  1.00  0.00     0.188 C 
ENDROOT
BRANCH   1   2
ATOM      2  C   UNL A   1      32.021  27.695  25.125  1.00  0.00     0.188 C 
BRANCH   2   3
ATOM      3  O   UNL A   1      31.421  28.680  24.287  1.00  0.00    -0.376 OA
BRANCH   3   4
ATOM      4  C   UNL A   1      31.861  28.718  22.936  1.00  0.00     0.202 C 
BRANCH   4   5
ATOM      5  C   UNL A   1      31.649  27.427  22.130  1.00  0.00     0.261 C 
BRANCH   5   6
ATOM      6  O   UNL A   1      32.838  26.802  21.621  1.00  0.00    -0.460 OA
BRANCH   6   7
ATOM      7  C   UNL A   1      32.818  25.462  21.424  1.00  0.00     0.339 C 
ATOM      8  O   UNL A   1      33.179  24.899  20.397  1.00  0.00    -0.246 OA
BRANCH   7   9
ATOM      9  C   UNL A   1      32.410  24.742  22.625  1.00  0.00     0.071 A 
ATOM     10  C   UNL A   1      32.575  23.548  24.644  1.00  0.00     0.025 A 
ATOM     11  C   UNL A   1      33.266  24.077  23.570  1.00  0.00     0.033 A 
ATOM     12  S   UNL A   1      30.884  23.742  24.448  1.00  0.00    -0.146 S 
ATOM     13  C   UNL A   1      31.083  24.592  22.983  1.00  0.00     0.080 A 
BRANCH  10  14
ATOM     14  C   UNL A   1      33.134  22.926  25.896  1.00  0.00     0.160 C 
BRANCH  14  15
ATOM     15  N   UNL A   1      32.805  21.531  26.097  1.00  0.00    -0.377 N 
ATOM     16  H   UNL A   1      32.017  21.349  26.659  1.00  0.00     0.161 HD
BRANCH  15  17
ATOM     17  C   UNL A   1      33.460  20.424  25.596  1.00  0.00     0.077 A 
ATOM     18  C   UNL A   1      34.848  20.493  25.343  1.00  0.00     0.142 A 
ATOM     19  C   UNL A   1      35.545  19.431  24.758  1.00  0.00     0.048 A 
ATOM     20  C   UNL A   1      34.880  18.242  24.473  1.00  0.00     0.004 A 
ATOM     21  C   UNL A   1      32.829  19.204  25.331  1.00  0.00     0.029 A 
ATOM     22  C   UNL A   1      33.526  18.126  24.768  1.00  0.00     0.002 A 
BRANCH  18  23
ATOM     23  O   UNL A   1      35.529  21.667  25.544  1.00  0.00    -0.489 OA
BRANCH  23  24
ATOM     24  C   UNL A   1      36.826  21.786  24.925  1.00  0.00     0.167 C 
ATOM     25  C   UNL A   1      36.673  22.540  23.606  1.00  0.00     0.052 C 
ATOM     26  C   UNL A   1      37.977  22.366  25.749  1.00  0.00     0.052 C 
ENDBRANCH  23  24
ENDBRANCH  18  23
ENDBRANCH  15  17
ENDBRANCH  14  15
ENDBRANCH  10  14
ENDBRANCH   7   9
ENDBRANCH   6   7
ENDBRANCH   5   6
ENDBRANCH   4   5
ENDBRANCH   3   4
ENDBRANCH   2   3
ENDBRANCH   1   2
BRANCH   1  27
ATOM     27  O   UNL A   1      33.642  29.441  25.815  1.00  0.00    -0.377 OA
BRANCH  27  28
ATOM     28  C   UNL A   1      32.728  30.140  26.659  1.00  0.00     0.188 C 
BRANCH  28  29
ATOM     29  C   UNL A   1      33.087  31.474  27.352  1.00  0.00     0.188 C 
BRANCH  29  30
ATOM     30  O   UNL A   1      34.097  31.372  28.354  1.00  0.00    -0.376 OA
BRANCH  30  31
ATOM     31  C   UNL A   1      34.237  32.494  29.216  1.00  0.00     0.202 C 
BRANCH  31  32
ATOM     32  C   UNL A   1      35.628  33.131  29.148  1.00  0.00     0.261 C 
BRANCH  32  33
ATOM     33  O   UNL A   1      36.702  32.196  28.967  1.00  0.00    -0.460 OA
BRANCH  33  34
ATOM     34  C   UNL A   1      37.099  31.506  30.059  1.00  0.00     0.338 C 
ATOM     35  O   UNL A   1      36.481  31.347  31.095  1.00  0.00    -0.246 OA
BRANCH  34  36
ATOM     36  C   UNL A   1      38.357  30.815  29.722  1.00  0.00     0.060 A 
ATOM     37  C   UNL A   1      39.359  30.725  30.696  1.00  0.00     0.016 A 
ATOM     38  C   UNL A   1      38.541  30.263  28.452  1.00  0.00     0.016 A 
ATOM     39  C   UNL A   1      40.573  30.115  30.382  1.00  0.00     0.010 A 
ATOM     40  C   UNL A   1      39.760  29.666  28.136  1.00  0.00     0.010 A 
ATOM     41  C   UNL A   1      40.792  29.620  29.089  1.00  0.00    -0.014 A 
BRANCH  41  42
ATOM     42  C   UNL A   1      42.156  29.229  28.665  1.00  0.00     0.031 A 
ATOM     43  C   UNL A   1      42.396  27.797  28.275  1.00  0.00     0.074 A 
ATOM     44  C   UNL A   1      43.161  30.120  28.642  1.00  0.00     0.049 A 
ATOM     45  N   UNL A   1      43.505  27.210  27.914  1.00  0.00    -0.248 NA
ATOM     46  C   UNL A   1      41.223  26.907  28.300  1.00  0.00     0.031 C 
ATOM     47  C   UNL A   1      43.044  31.537  28.979  1.00  0.00     0.029 A 
ATOM     48  N   UNL A   1      44.487  29.954  28.329  1.00  0.00    -0.354 N 
ATOM     49  C   UNL A   1      43.168  25.884  27.670  1.00  0.00     0.074 A 
ATOM     50  C   UNL A   1      41.756  25.746  27.953  1.00  0.00     0.031 C 
ATOM     51  C   UNL A   1      44.256  32.110  28.866  1.00  0.00     0.029 A 
ATOM     52  C   UNL A   1      45.234  31.096  28.475  1.00  0.00     0.049 A 
ATOM     53  H   UNL A   1      44.866  29.096  28.029  1.00  0.00     0.167 HD
ATOM     54  C   UNL A   1      43.961  24.874  27.242  1.00  0.00     0.037 A 
ATOM     55  C   UNL A   1      46.559  31.294  28.325  1.00  0.00     0.037 A 
ATOM     56  C   UNL A   1      45.367  25.012  26.976  1.00  0.00     0.049 A 
ATOM     57  C   UNL A   1      47.436  30.140  27.910  1.00  0.00     0.074 A 
ATOM     58  C   UNL A   1      46.255  24.056  26.519  1.00  0.00     0.029 A 
ATOM     59  N   UNL A   1      46.093  26.180  27.157  1.00  0.00    -0.354 N 
ATOM     60  N   UNL A   1      47.099  28.899  27.646  1.00  0.00    -0.248 NA
ATOM     61  C   UNL A   1      48.874  30.413  27.773  1.00  0.00     0.031 C 
ATOM     62  C   UNL A   1      47.529  24.633  26.465  1.00  0.00     0.029 A 
ATOM     63  C   UNL A   1      47.425  25.962  26.845  1.00  0.00     0.049 A 
ATOM     64  H   UNL A   1      45.718  27.037  27.462  1.00  0.00     0.167 HD
ATOM     65  C   UNL A   1      48.277  28.252  27.287  1.00  0.00     0.074 A 
ATOM     66  C   UNL A   1      49.335  29.239  27.363  1.00  0.00     0.031 C 
ATOM     67  C   UNL A   1      48.465  26.958  26.924  1.00  0.00     0.037 A 
BRANCH  54  68
ATOM     68  C   UNL A   1      43.319  23.528  27.067  1.00  0.00     0.058 A 
ATOM     69  C   UNL A   1      42.891  23.074  25.809  1.00  0.00     0.135 A 
ATOM     70  C   UNL A   1      43.127  22.682  28.171  1.00  0.00     0.135 A 
ATOM     71  F   UNL A   1      43.032  23.853  24.725  1.00  0.00    -0.206 F 
ATOM     72  C   UNL A   1      42.261  21.844  25.657  1.00  0.00     0.059 A 
ATOM     73  C   UNL A   1      42.521  21.437  28.039  1.00  0.00     0.059 A 
ATOM     74  F   UNL A   1      43.514  23.071  29.396  1.00  0.00    -0.206 F 
ATOM     75  C   UNL A   1      42.075  21.035  26.780  1.00  0.00     0.060 A 
BRANCH  75  76
ATOM     76  S   UNL A   1      41.239  19.448  26.574  1.00  0.00     0.124 S 
ATOM     77  O   UNL A   1      40.883  19.127  27.953  1.00  0.00    -0.237 OA
ATOM     78  O   UNL A   1      40.124  19.792  25.697  1.00  0.00    -0.237 OA
ATOM     79  O   UNL A   1      42.265  18.599  25.976  1.00  0.00    -0.744 OA
ENDBRANCH  75  76
ENDBRANCH  54  68
BRANCH  55  80
ATOM     80  C   UNL A   1      47.139  32.640  28.568  1.00  0.00     0.058 A 
ATOM     81  C   UNL A   1      47.236  33.582  27.534  1.00  0.00     0.135 A 
ATOM     82  C   UNL A   1      47.595  33.016  29.840  1.00  0.00     0.135 A 
ATOM     83  F   UNL A   1      46.824  33.264  26.297  1.00  0.00    -0.206 F 
ATOM     84  C   UNL A   1      47.766  34.849  27.750  1.00  0.00     0.059 A 
ATOM     85  C   UNL A   1      48.111  34.285  30.087  1.00  0.00     0.059 A 
ATOM     86  F   UNL A   1      47.518  32.152  30.865  1.00  0.00    -0.206 F 
ATOM     87  C   UNL A   1      48.197  35.193  29.033  1.00  0.00     0.060 A 
BRANCH  87  88
ATOM     88  S   UNL A   1      48.820  36.865  29.319  1.00  0.00     0.124 S 
ATOM     89  O   UNL A   1      50.225  36.722  28.955  1.00  0.00    -0.237 OA
ATOM     90  O   UNL A   1      48.000  37.658  28.409  1.00  0.00    -0.237 OA
ATOM     91  O   UNL A   1      48.554  37.081  30.739  1.00  0.00    -0.744 OA
ENDBRANCH  87  88
ENDBRANCH  55  80
BRANCH  67  92
ATOM     92  C   UNL A   1      49.860  26.537  26.553  1.00  0.00     0.058 A 
ATOM     93  C   UNL A   1      50.318  26.587  25.227  1.00  0.00     0.135 A 
ATOM     94  C   UNL A   1      50.769  26.137  27.547  1.00  0.00     0.135 A 
ATOM     95  F   UNL A   1      49.487  26.957  24.240  1.00  0.00    -0.206 F 
ATOM     96  C   UNL A   1      51.623  26.239  24.897  1.00  0.00     0.059 A 
ATOM     97  C   UNL A   1      52.086  25.807  27.242  1.00  0.00     0.059 A 
ATOM     98  F   UNL A   1      50.385  26.083  28.832  1.00  0.00    -0.206 F 
ATOM     99  C   UNL A   1      52.501  25.850  25.912  1.00  0.00     0.060 A 
BRANCH  99 100
ATOM    100  S   UNL A   1      54.204  25.436  25.476  1.00  0.00     0.124 S 
ATOM    101  O   UNL A   1      54.644  26.661  24.818  1.00  0.00    -0.237 OA
ATOM    102  O   UNL A   1      54.804  25.165  26.779  1.00  0.00    -0.237 OA
ATOM    103  O   UNL A   1      54.057  24.272  24.607  1.00  0.00    -0.744 OA
ENDBRANCH  99 100
ENDBRANCH  67  92
ENDBRANCH  41  42
ENDBRANCH  34  36
ENDBRANCH  33  34
ENDBRANCH  32  33
ENDBRANCH  31  32
ENDBRANCH  30  31
ENDBRANCH  29  30
ENDBRANCH  28  29
ENDBRANCH  27  28
ENDBRANCH   1  27
TORSDOF 28
ENDMDL
MODEL 3
REMARK VINA RESULT:      -8.7      1.949      2.740
REMARK SMILES CC(C)Oc1ccccc1NCc1cc(C(=O)OCCOCCOCCOCCOC(=O)c2ccc(-c3c4nc(c(-c5c(F)cc(S(=O)(=O)[O-])cc5F)c5ccc([nH]5)c(-c5c(F)cc(S(=O)(=O)[O-])cc5F)c5nc(c(-c6c(F)cc(S(=O)(=O)[O-])cc6F)c6ccc3[nH]6)C=C5)C=C4)cc2)cs1
REMARK SMILES IDX 23 1 22 2 21 3 20 4 19 5 18 6 16 7 17 8 15 9 13 10 14 11
REMARK SMILES IDX 100 12 99 13 12 14 11 15 10 17 5 18 6 19 7 20 9 21 8 22 4 23
REMARK SMILES IDX 2 24 1 25 3 26 24 27 25 28 26 29 27 30 28 31 29 32 30 33
REMARK SMILES IDX 31 34 32 35 33 36 34 37 98 38 35 39 97 40 36 41 37 42 38 43
REMARK SMILES IDX 91 44 39 45 96 46 90 47 92 48 40 49 95 50 89 51 88 52 41 54
REMARK SMILES IDX 75 55 54 56 74 57 55 58 58 59 73 60 93 61 56 62 57 63 72 65
REMARK SMILES IDX 94 66 59 67 42 68 43 69 52 70 44 71 45 72 51 73 53 74 46 75
REMARK SMILES IDX 47 76 48 77 49 78 50 79 76 80 77 81 86 82 78 83 79 84 85 85
REMARK SMILES IDX 87 86 80 87 81 88 82 89 83 90 84 91 60 92 61 93 70 94 62 95
REMARK SMILES IDX 63 96 69 97 71 98 64 99 65 100 66 101 67 102 68 103
REMARK H PARENT 11 16 92 53 58 64
REMARK Flexibility Score: inf
ROOT
ATOM      1  C   UNL A   1      32.876  28.293  25.446  1.00  0.00     0.188 C 
ENDROOT
BRANCH   1   2
ATOM      2  C   UNL A   1      31.409  27.964  25.126  1.00  0.00     0.188 C 
BRANCH   2   3
ATOM      3  O   UNL A   1      30.800  28.888  24.228  1.00  0.00    -0.376 OA
BRANCH   3   4
ATOM      4  C   UNL A   1      31.328  28.935  22.909  1.00  0.00     0.202 C 
BRANCH   4   5
ATOM      5  C   UNL A   1      31.421  27.585  22.180  1.00  0.00     0.261 C 
BRANCH   5   6
ATOM      6  O   UNL A   1      32.735  27.015  22.078  1.00  0.00    -0.460 OA
BRANCH   6   7
ATOM      7  C   UNL A   1      32.835  25.680  21.871  1.00  0.00     0.339 C 
ATOM      8  O   UNL A   1      33.265  25.159  20.849  1.00  0.00    -0.246 OA
BRANCH   7   9
ATOM      9  C   UNL A   1      32.466  24.916  23.059  1.00  0.00     0.071 A 
ATOM     10  C   UNL A   1      32.586  24.017  25.227  1.00  0.00     0.025 A 
ATOM     11  C   UNL A   1      33.248  24.738  24.251  1.00  0.00     0.033 A 
ATOM     12  S   UNL A   1      31.074  23.448  24.657  1.00  0.00    -0.146 S 
ATOM     13  C   UNL A   1      31.273  24.225  23.151  1.00  0.00     0.080 A 
BRANCH  10  14
ATOM     14  C   UNL A   1      33.011  23.764  26.650  1.00  0.00     0.160 C 
BRANCH  14  15
ATOM     15  N   UNL A   1      33.157  22.371  27.016  1.00  0.00    -0.377 N 
ATOM     16  H   UNL A   1      33.021  22.157  27.967  1.00  0.00     0.161 HD
BRANCH  15  17
ATOM     17  C   UNL A   1      33.463  21.305  26.193  1.00  0.00     0.077 A 
ATOM     18  C   UNL A   1      34.813  21.033  25.880  1.00  0.00     0.142 A 
ATOM     19  C   UNL A   1      35.173  20.019  24.987  1.00  0.00     0.048 A 
ATOM     20  C   UNL A   1      34.190  19.205  24.433  1.00  0.00     0.004 A 
ATOM     21  C   UNL A   1      32.501  20.447  25.648  1.00  0.00     0.029 A 
ATOM     22  C   UNL A   1      32.857  19.413  24.771  1.00  0.00     0.002 A 
BRANCH  18  23
ATOM     23  O   UNL A   1      35.809  21.853  26.347  1.00  0.00    -0.489 OA
BRANCH  23  24
ATOM     24  C   UNL A   1      36.827  22.247  25.406  1.00  0.00     0.167 C 
ATOM     25  C   UNL A   1      36.611  23.712  25.035  1.00  0.00     0.052 C 
ATOM     26  C   UNL A   1      38.292  21.991  25.766  1.00  0.00     0.052 C 
ENDBRANCH  23  24
ENDBRANCH  18  23
ENDBRANCH  15  17
ENDBRANCH  14  15
ENDBRANCH  10  14
ENDBRANCH   7   9
ENDBRANCH   6   7
ENDBRANCH   5   6
ENDBRANCH   4   5
ENDBRANCH   3   4
ENDBRANCH   2   3
ENDBRANCH   1   2
BRANCH   1  27
ATOM     27  O   UNL A   1      33.136  29.672  25.632  1.00  0.00    -0.377 OA
BRANCH  27  28
ATOM     28  C   UNL A   1      32.533  30.347  26.735  1.00  0.00     0.188 C 
BRANCH  28  29
ATOM     29  C   UNL A   1      33.281  31.409  27.572  1.00  0.00     0.188 C 
BRANCH  29  30
ATOM     30  O   UNL A   1      34.426  30.921  28.269  1.00  0.00    -0.376 OA
BRANCH  30  31
ATOM     31  C   UNL A   1      35.182  31.890  28.984  1.00  0.00     0.202 C 
BRANCH  31  32
ATOM     32  C   UNL A   1      36.681  31.826  28.676  1.00  0.00     0.261 C 
BRANCH  32  33
ATOM     33  O   UNL A   1      37.114  30.594  28.079  1.00  0.00    -0.460 OA
BRANCH  33  34
ATOM     34  C   UNL A   1      37.530  29.623  28.921  1.00  0.00     0.338 C 
ATOM     35  O   UNL A   1      36.865  29.034  29.753  1.00  0.00    -0.246 OA
BRANCH  34  36
ATOM     36  C   UNL A   1      38.909  29.262  28.545  1.00  0.00     0.060 A 
ATOM     37  C   UNL A   1      39.817  28.922  29.555  1.00  0.00     0.016 A 
ATOM     38  C   UNL A   1      39.298  29.264  27.203  1.00  0.00     0.016 A 
ATOM     39  C   UNL A   1      41.138  28.621  29.223  1.00  0.00     0.010 A 
ATOM     40  C   UNL A   1      40.622  28.977  26.875  1.00  0.00     0.010 A 
ATOM     41  C   UNL A   1      41.554  28.687  27.886  1.00  0.00    -0.014 A 
BRANCH  41  42
ATOM     42  C   UNL A   1      42.997  28.646  27.555  1.00  0.00     0.031 A 
ATOM     43  C   UNL A   1      43.578  27.347  27.071  1.00  0.00     0.074 A 
ATOM     44  C   UNL A   1      43.775  29.732  27.695  1.00  0.00     0.049 A 
ATOM     45  N   UNL A   1      44.814  27.054  26.763  1.00  0.00    -0.248 NA
ATOM     46  C   UNL A   1      42.636  26.226  26.919  1.00  0.00     0.031 C 
ATOM     47  C   UNL A   1      43.319  31.050  28.135  1.00  0.00     0.029 A 
ATOM     48  N   UNL A   1      45.122  29.891  27.489  1.00  0.00    -0.354 N 
ATOM     49  C   UNL A   1      44.800  25.718  26.383  1.00  0.00     0.074 A 
ATOM     50  C   UNL A   1      43.439  25.249  26.526  1.00  0.00     0.031 C 
ATOM     51  C   UNL A   1      44.376  31.881  28.179  1.00  0.00     0.029 A 
ATOM     52  C   UNL A   1      45.582  31.148  27.794  1.00  0.00     0.049 A 
ATOM     53  H   UNL A   1      45.704  29.171  27.155  1.00  0.00     0.167 HD
ATOM     54  C   UNL A   1      45.827  24.953  25.946  1.00  0.00     0.037 A 
ATOM     55  C   UNL A   1      46.835  31.643  27.780  1.00  0.00     0.037 A 
ATOM     56  C   UNL A   1      47.182  25.420  25.818  1.00  0.00     0.049 A 
ATOM     57  C   UNL A   1      47.976  30.755  27.351  1.00  0.00     0.074 A 
ATOM     58  C   UNL A   1      48.291  24.730  25.365  1.00  0.00     0.029 A 
ATOM     59  N   UNL A   1      47.613  26.693  26.158  1.00  0.00    -0.354 N 
ATOM     60  N   UNL A   1      47.945  29.503  26.957  1.00  0.00    -0.248 NA
ATOM     61  C   UNL A   1      49.321  31.347  27.366  1.00  0.00     0.031 C 
ATOM     62  C   UNL A   1      49.403  25.572  25.473  1.00  0.00     0.029 A 
ATOM     63  C   UNL A   1      48.977  26.803  25.950  1.00  0.00     0.049 A 
ATOM     64  H   UNL A   1      47.034  27.414  26.498  1.00  0.00     0.167 HD
ATOM     65  C   UNL A   1      49.260  29.167  26.653  1.00  0.00     0.074 A 
ATOM     66  C   UNL A   1      50.061  30.348  26.904  1.00  0.00     0.031 C 
ATOM     67  C   UNL A   1      49.759  27.987  26.203  1.00  0.00     0.037 A 
BRANCH  54  68
ATOM     68  C   UNL A   1      45.519  23.524  25.604  1.00  0.00     0.058 A 
ATOM     69  C   UNL A   1      45.277  22.564  26.598  1.00  0.00     0.135 A 
ATOM     70  C   UNL A   1      45.470  23.109  24.264  1.00  0.00     0.135 A 
ATOM     71  F   UNL A   1      45.333  22.904  27.895  1.00  0.00    -0.206 F 
ATOM     72  C   UNL A   1      45.031  21.232  26.278  1.00  0.00     0.059 A 
ATOM     73  C   UNL A   1      45.202  21.788  23.919  1.00  0.00     0.059 A 
ATOM     74  F   UNL A   1      45.700  23.986  23.275  1.00  0.00    -0.206 F 
ATOM     75  C   UNL A   1      45.002  20.853  24.935  1.00  0.00     0.060 A 
BRANCH  75  76
ATOM     76  S   UNL A   1      44.701  19.120  24.532  1.00  0.00     0.124 S 
ATOM     77  O   UNL A   1      44.530  19.184  23.083  1.00  0.00    -0.237 OA
ATOM     78  O   UNL A   1      45.925  18.473  24.995  1.00  0.00    -0.237 OA
ATOM     79  O   UNL A   1      43.498  18.797  25.293  1.00  0.00    -0.744 OA
ENDBRANCH  75  76
ENDBRANCH  54  68
BRANCH  55  80
ATOM     80  C   UNL A   1      47.079  33.052  28.183  1.00  0.00     0.058 A 
ATOM     81  C   UNL A   1      47.205  34.066  27.224  1.00  0.00     0.135 A 
ATOM     82  C   UNL A   1      47.179  33.414  29.535  1.00  0.00     0.135 A 
ATOM     83  F   UNL A   1      47.130  33.767  25.918  1.00  0.00    -0.206 F 
ATOM     84  C   UNL A   1      47.423  35.391  27.588  1.00  0.00     0.059 A 
ATOM     85  C   UNL A   1      47.376  34.735  29.926  1.00  0.00     0.059 A 
ATOM     86  F   UNL A   1      47.059  32.480  30.492  1.00  0.00    -0.206 F 
ATOM     87  C   UNL A   1      47.502  35.716  28.943  1.00  0.00     0.060 A 
BRANCH  87  88
ATOM     88  S   UNL A   1      47.716  37.449  29.409  1.00  0.00     0.124 S 
ATOM     89  O   UNL A   1      47.513  37.393  30.851  1.00  0.00    -0.237 OA
ATOM     90  O   UNL A   1      49.079  37.720  28.964  1.00  0.00    -0.237 OA
ATOM     91  O   UNL A   1      46.671  38.130  28.648  1.00  0.00    -0.744 OA
ENDBRANCH  87  88
ENDBRANCH  55  80
BRANCH  67  92
ATOM     92  C   UNL A   1      51.235  27.919  25.925  1.00  0.00     0.058 A 
ATOM     93  C   UNL A   1      51.762  28.230  24.662  1.00  0.00     0.135 A 
ATOM     94  C   UNL A   1      52.137  27.599  26.953  1.00  0.00     0.135 A 
ATOM     95  F   UNL A   1      50.942  28.537  23.644  1.00  0.00    -0.206 F 
ATOM     96  C   UNL A   1      53.133  28.208  24.423  1.00  0.00     0.059 A 
ATOM     97  C   UNL A   1      53.513  27.595  26.742  1.00  0.00     0.059 A 
ATOM     98  F   UNL A   1      51.685  27.305  28.182  1.00  0.00    -0.206 F 
ATOM     99  C   UNL A   1      54.001  27.890  25.470  1.00  0.00     0.060 A 
BRANCH  99 100
ATOM    100  S   UNL A   1      55.779  27.901  25.158  1.00  0.00     0.124 S 
ATOM    101  O   UNL A   1      56.058  29.331  25.103  1.00  0.00    -0.237 OA
ATOM    102  O   UNL A   1      56.307  27.196  26.322  1.00  0.00    -0.237 OA
ATOM    103  O   UNL A   1      55.905  27.186  23.891  1.00  0.00    -0.744 OA
ENDBRANCH  99 100
ENDBRANCH  67  92
ENDBRANCH  41  42
ENDBRANCH  34  36
ENDBRANCH  33  34
ENDBRANCH  32  33
ENDBRANCH  31  32
ENDBRANCH  30  31
ENDBRANCH  29  30
ENDBRANCH  28  29
ENDBRANCH  27  28
ENDBRANCH   1  27
TORSDOF 28
ENDMDL
