MODEL 1
REMARK VINA RESULT:      -9.4      0.000      0.000
REMARK SMILES Cc1cccc(C(=O)OCCOCCOCCOCCOC(=O)c2ccc(-c3c4nc(c(-c5c(F)cc(S(=O)(=O)[O-])cc5F)c5ccc([nH]5)c(-c5c(F)cc(S(=O)(=O)[O-])cc5F)c5nc(c(-c6c(F)cc(S(=O)(=O)[O-])cc6F)c6ccc3[nH]6)C=C5)C=C4)cc2)c1OC[C@@H]1C[C@H]2CC[C@@H]1C2
REMARK SMILES IDX 15 1 14 2 13 3 12 4 11 5 10 6 9 7 7 8 8 9 6 10 1 11 2 12
REMARK SMILES IDX 3 13 90 14 4 15 5 16 91 17 92 18 93 19 94 20 98 21 95 22
REMARK SMILES IDX 97 23 99 24 96 25 16 26 17 27 18 28 19 29 20 30 21 31 22 32
REMARK SMILES IDX 23 33 24 34 25 35 89 36 26 37 88 38 27 39 28 40 29 41 82 42
REMARK SMILES IDX 30 43 87 44 81 45 83 46 31 47 86 48 80 49 79 50 32 52 66 53
REMARK SMILES IDX 45 54 65 55 46 56 49 57 64 58 84 59 47 60 48 61 63 63 85 64
REMARK SMILES IDX 50 65 33 66 34 67 43 68 35 69 36 70 42 71 44 72 37 73 38 74
REMARK SMILES IDX 39 75 40 76 41 77 67 78 68 79 77 80 69 81 70 82 76 83 78 84
REMARK SMILES IDX 71 85 72 86 73 87 74 88 75 89 51 90 52 91 61 92 53 93 54 94
REMARK SMILES IDX 60 95 62 96 55 97 56 98 57 99 58 100 59 101
REMARK H PARENT 83 51 49 62
REMARK Flexibility Score: inf
ROOT
ATOM      1  O   UNL A   1      40.235  25.705  28.253  1.00  0.00    -0.377 OA
ENDROOT
BRANCH   1   2
ATOM      2  C   UNL A   1      39.971  24.468  27.619  1.00  0.00     0.188 C 
BRANCH   2   3
ATOM      3  C   UNL A   1      38.914  24.441  26.493  1.00  0.00     0.188 C 
BRANCH   3   4
ATOM      4  O   UNL A   1      37.977  23.378  26.403  1.00  0.00    -0.376 OA
BRANCH   4   5
ATOM      5  C   UNL A   1      38.441  22.213  25.719  1.00  0.00     0.202 C 
BRANCH   5   6
ATOM      6  C   UNL A   1      37.387  21.190  25.324  1.00  0.00     0.261 C 
BRANCH   6   7
ATOM      7  O   UNL A   1      36.209  21.906  24.937  1.00  0.00    -0.460 OA
BRANCH   7   8
ATOM      8  C   UNL A   1      35.090  21.583  25.610  1.00  0.00     0.342 C 
ATOM      9  O   UNL A   1      34.902  21.577  26.808  1.00  0.00    -0.246 OA
BRANCH   8  10
ATOM     10  C   UNL A   1      33.988  21.805  24.665  1.00  0.00     0.102 A 
ATOM     11  C   UNL A   1      31.350  24.150  23.170  1.00  0.00     0.048 C 
ATOM     12  C   UNL A   1      32.272  23.025  23.532  1.00  0.00    -0.008 A 
ATOM     13  C   UNL A   1      31.838  21.780  22.988  1.00  0.00     0.007 A 
ATOM     14  C   UNL A   1      33.400  23.059  24.369  1.00  0.00     0.136 A 
ATOM     15  C   UNL A   1      32.412  20.566  23.331  1.00  0.00     0.001 A 
ATOM     16  C   UNL A   1      33.486  20.580  24.183  1.00  0.00     0.019 A 
BRANCH  14  17
ATOM     17  O   UNL A   1      33.959  24.103  25.039  1.00  0.00    -0.492 OA
BRANCH  17  18
ATOM     18  C   UNL A   1      33.429  24.867  26.129  1.00  0.00     0.233 C 
BRANCH  18  19
ATOM     19  C   UNL A   1      32.977  26.246  25.656  1.00  0.00     0.030 C 
ATOM     20  C   UNL A   1      33.775  27.470  26.162  1.00  0.00     0.011 C 
ATOM     21  C   UNL A   1      31.536  26.634  26.076  1.00  0.00    -0.004 C 
ATOM     22  C   UNL A   1      32.661  28.516  26.385  1.00  0.00    -0.010 C 
ATOM     23  C   UNL A   1      30.987  27.501  24.945  1.00  0.00     0.004 C 
ATOM     24  C   UNL A   1      31.693  27.669  27.195  1.00  0.00     0.007 C 
ATOM     25  C   UNL A   1      31.854  28.764  25.084  1.00  0.00     0.004 C 
ENDBRANCH  18  19
ENDBRANCH  17  18
ENDBRANCH  14  17
ENDBRANCH   8  10
ENDBRANCH   7   8
ENDBRANCH   6   7
ENDBRANCH   5   6
ENDBRANCH   4   5
ENDBRANCH   3   4
ENDBRANCH   2   3
ENDBRANCH   1   2
BRANCH   1  26
ATOM     26  C   UNL A   1      41.245  26.554  27.697  1.00  0.00     0.188 C 
BRANCH  26  27
ATOM     27  C   UNL A   1      40.923  27.451  26.528  1.00  0.00     0.188 C 
BRANCH  27  28
ATOM     28  O   UNL A   1      41.460  26.795  25.384  1.00  0.00    -0.376 OA
BRANCH  28  29
ATOM     29  C   UNL A   1      42.797  26.362  25.489  1.00  0.00     0.202 C 
BRANCH  29  30
ATOM     30  C   UNL A   1      42.974  24.915  25.036  1.00  0.00     0.261 C 
BRANCH  30  31
ATOM     31  O   UNL A   1      43.368  24.071  26.145  1.00  0.00    -0.460 OA
BRANCH  31  32
ATOM     32  C   UNL A   1      44.671  24.145  26.561  1.00  0.00     0.338 C 
ATOM     33  O   UNL A   1      45.592  24.415  25.810  1.00  0.00    -0.246 OA
BRANCH  32  34
ATOM     34  C   UNL A   1      44.796  23.984  28.043  1.00  0.00     0.060 A 
ATOM     35  C   UNL A   1      43.839  23.311  28.815  1.00  0.00     0.016 A 
ATOM     36  C   UNL A   1      45.821  24.636  28.701  1.00  0.00     0.016 A 
ATOM     37  C   UNL A   1      43.775  23.488  30.222  1.00  0.00     0.010 A 
ATOM     38  C   UNL A   1      45.711  24.854  30.064  1.00  0.00     0.010 A 
ATOM     39  C   UNL A   1      44.658  24.351  30.854  1.00  0.00    -0.014 A 
BRANCH  39  40
ATOM     40  C   UNL A   1      44.605  24.873  32.258  1.00  0.00     0.031 A 
ATOM     41  C   UNL A   1      44.123  26.303  32.421  1.00  0.00     0.074 A 
ATOM     42  C   UNL A   1      44.571  24.034  33.341  1.00  0.00     0.049 A 
ATOM     43  N   UNL A   1      43.671  26.815  33.510  1.00  0.00    -0.248 NA
ATOM     44  C   UNL A   1      44.013  27.265  31.318  1.00  0.00     0.031 C 
ATOM     45  C   UNL A   1      43.896  24.288  34.619  1.00  0.00     0.029 A 
ATOM     46  N   UNL A   1      45.065  22.736  33.556  1.00  0.00    -0.354 N 
ATOM     47  C   UNL A   1      42.933  27.945  33.224  1.00  0.00     0.074 A 
ATOM     48  C   UNL A   1      43.217  28.210  31.839  1.00  0.00     0.031 C 
ATOM     49  C   UNL A   1      44.058  23.284  35.492  1.00  0.00     0.029 A 
ATOM     50  C   UNL A   1      45.138  22.512  34.952  1.00  0.00     0.049 A 
ATOM     51  H   UNL A   1      45.317  22.092  32.855  1.00  0.00     0.167 HD
ATOM     52  C   UNL A   1      42.094  28.432  34.189  1.00  0.00     0.037 A 
ATOM     53  C   UNL A   1      46.347  22.400  35.574  1.00  0.00     0.037 A 
ATOM     54  C   UNL A   1      42.393  27.809  35.491  1.00  0.00     0.049 A 
ATOM     55  C   UNL A   1      46.520  23.598  36.498  1.00  0.00     0.074 A 
ATOM     56  C   UNL A   1      41.655  27.118  36.432  1.00  0.00     0.029 A 
ATOM     57  N   UNL A   1      43.725  27.707  35.910  1.00  0.00    -0.354 N 
ATOM     58  N   UNL A   1      46.066  24.804  36.225  1.00  0.00    -0.248 NA
ATOM     59  C   UNL A   1      46.898  23.455  37.904  1.00  0.00     0.031 C 
ATOM     60  C   UNL A   1      42.573  26.434  37.288  1.00  0.00     0.029 A 
ATOM     61  C   UNL A   1      43.868  26.793  36.935  1.00  0.00     0.049 A 
ATOM     62  H   UNL A   1      44.468  28.222  35.522  1.00  0.00     0.167 HD
ATOM     63  C   UNL A   1      45.907  25.499  37.399  1.00  0.00     0.074 A 
ATOM     64  C   UNL A   1      46.507  24.638  38.411  1.00  0.00     0.031 C 
ATOM     65  C   UNL A   1      45.150  26.623  37.604  1.00  0.00     0.037 A 
BRANCH  52  66
ATOM     66  C   UNL A   1      40.892  29.366  33.983  1.00  0.00     0.058 A 
ATOM     67  C   UNL A   1      40.785  30.569  34.726  1.00  0.00     0.135 A 
ATOM     68  C   UNL A   1      39.763  29.095  33.176  1.00  0.00     0.135 A 
ATOM     69  F   UNL A   1      41.773  30.974  35.536  1.00  0.00    -0.206 F 
ATOM     70  C   UNL A   1      39.667  31.415  34.684  1.00  0.00     0.059 A 
ATOM     71  C   UNL A   1      38.651  29.954  33.079  1.00  0.00     0.059 A 
ATOM     72  F   UNL A   1      39.662  27.961  32.471  1.00  0.00    -0.206 F 
ATOM     73  C   UNL A   1      38.604  31.109  33.848  1.00  0.00     0.060 A 
BRANCH  73  74
ATOM     74  S   UNL A   1      37.202  32.249  33.763  1.00  0.00     0.124 S 
ATOM     75  O   UNL A   1      37.773  33.390  33.055  1.00  0.00    -0.237 OA
ATOM     76  O   UNL A   1      36.212  31.474  33.021  1.00  0.00    -0.237 OA
ATOM     77  O   UNL A   1      36.872  32.490  35.165  1.00  0.00    -0.744 OA
ENDBRANCH  73  74
ENDBRANCH  52  66
BRANCH  53  78
ATOM     78  C   UNL A   1      47.273  21.582  34.719  1.00  0.00     0.058 A 
ATOM     79  C   UNL A   1      48.409  22.301  34.264  1.00  0.00     0.135 A 
ATOM     80  C   UNL A   1      47.466  20.216  34.988  1.00  0.00     0.135 A 
ATOM     81  F   UNL A   1      48.292  23.606  33.954  1.00  0.00    -0.206 F 
ATOM     82  C   UNL A   1      49.700  21.776  34.340  1.00  0.00     0.059 A 
ATOM     83  C   UNL A   1      48.757  19.663  35.047  1.00  0.00     0.059 A 
ATOM     84  F   UNL A   1      46.440  19.465  35.415  1.00  0.00    -0.206 F 
ATOM     85  C   UNL A   1      49.868  20.477  34.808  1.00  0.00     0.060 A 
BRANCH  85  86
ATOM     86  S   UNL A   1      51.541  19.960  35.284  1.00  0.00     0.124 S 
ATOM     87  O   UNL A   1      51.294  18.672  35.921  1.00  0.00    -0.237 OA
ATOM     88  O   UNL A   1      52.224  19.905  33.993  1.00  0.00    -0.237 OA
ATOM     89  O   UNL A   1      51.982  21.023  36.178  1.00  0.00    -0.744 OA
ENDBRANCH  85  86
ENDBRANCH  53  78
BRANCH  65  90
ATOM     90  C   UNL A   1      45.589  27.716  38.552  1.00  0.00     0.058 A 
ATOM     91  C   UNL A   1      46.122  28.933  38.098  1.00  0.00     0.135 A 
ATOM     92  C   UNL A   1      45.272  27.663  39.936  1.00  0.00     0.135 A 
ATOM     93  F   UNL A   1      46.363  29.160  36.800  1.00  0.00    -0.206 F 
ATOM     94  C   UNL A   1      46.385  29.991  38.957  1.00  0.00     0.059 A 
ATOM     95  C   UNL A   1      45.472  28.733  40.798  1.00  0.00     0.059 A 
ATOM     96  F   UNL A   1      44.719  26.583  40.507  1.00  0.00    -0.206 F 
ATOM     97  C   UNL A   1      46.055  29.884  40.302  1.00  0.00     0.060 A 
BRANCH  97  98
ATOM     98  S   UNL A   1      46.373  31.283  41.378  1.00  0.00     0.124 S 
ATOM     99  O   UNL A   1      45.637  30.892  42.576  1.00  0.00    -0.237 OA
ATOM    100  O   UNL A   1      47.828  31.264  41.494  1.00  0.00    -0.237 OA
ATOM    101  O   UNL A   1      45.824  32.416  40.639  1.00  0.00    -0.744 OA
ENDBRANCH  97  98
ENDBRANCH  65  90
ENDBRANCH  39  40
ENDBRANCH  32  34
ENDBRANCH  31  32
ENDBRANCH  30  31
ENDBRANCH  29  30
ENDBRANCH  28  29
ENDBRANCH  27  28
ENDBRANCH  26  27
ENDBRANCH   1  26
TORSDOF 26
ENDMDL
MODEL 2
REMARK VINA RESULT:      -9.3      1.550      3.464
REMARK SMILES Cc1cccc(C(=O)OCCOCCOCCOCCOC(=O)c2ccc(-c3c4nc(c(-c5c(F)cc(S(=O)(=O)[O-])cc5F)c5ccc([nH]5)c(-c5c(F)cc(S(=O)(=O)[O-])cc5F)c5nc(c(-c6c(F)cc(S(=O)(=O)[O-])cc6F)c6ccc3[nH]6)C=C5)C=C4)cc2)c1OC[C@@H]1C[C@H]2CC[C@@H]1C2
REMARK SMILES IDX 15 1 14 2 13 3 12 4 11 5 10 6 9 7 7 8 8 9 6 10 1 11 2 12
REMARK SMILES IDX 3 13 90 14 4 15 5 16 91 17 92 18 93 19 94 20 98 21 95 22
REMARK SMILES IDX 97 23 99 24 96 25 16 26 17 27 18 28 19 29 20 30 21 31 22 32
REMARK SMILES IDX 23 33 24 34 25 35 89 36 26 37 88 38 27 39 28 40 29 41 82 42
REMARK SMILES IDX 30 43 87 44 81 45 83 46 31 47 86 48 80 49 79 50 32 52 66 53
REMARK SMILES IDX 45 54 65 55 46 56 49 57 64 58 84 59 47 60 48 61 63 63 85 64
REMARK SMILES IDX 50 65 33 66 34 67 43 68 35 69 36 70 42 71 44 72 37 73 38 74
REMARK SMILES IDX 39 75 40 76 41 77 67 78 68 79 77 80 69 81 70 82 76 83 78 84
REMARK SMILES IDX 71 85 72 86 73 87 74 88 75 89 51 90 52 91 61 92 53 93 54 94
REMARK SMILES IDX 60 95 62 96 55 97 56 98 57 99 58 100 59 101
REMARK H PARENT 83 51 49 62
REMARK Flexibility Score: inf
ROOT
ATOM      1  O   UNL A   1      41.213  26.858  28.482  1.00  0.00    -0.377 OA
ENDROOT
BRANCH   1   2
ATOM      2  C   UNL A   1      41.298  25.609  27.823  1.00  0.00     0.188 C 
BRANCH   2   3
ATOM      3  C   UNL A   1      39.985  24.844  27.546  1.00  0.00     0.188 C 
BRANCH   3   4
ATOM      4  O   UNL A   1      39.978  23.427  27.447  1.00  0.00    -0.376 OA
BRANCH   4   5
ATOM      5  C   UNL A   1      39.179  22.894  26.389  1.00  0.00     0.202 C 
BRANCH   5   6
ATOM      6  C   UNL A   1      38.095  23.802  25.831  1.00  0.00     0.261 C 
BRANCH   6   7
ATOM      7  O   UNL A   1      36.991  22.976  25.444  1.00  0.00    -0.460 OA
BRANCH   7   8
ATOM      8  C   UNL A   1      36.261  23.434  24.412  1.00  0.00     0.342 C 
ATOM      9  O   UNL A   1      36.483  23.336  23.224  1.00  0.00    -0.246 OA
BRANCH   8  10
ATOM     10  C   UNL A   1      34.890  23.553  24.924  1.00  0.00     0.102 A 
ATOM     11  C   UNL A   1      31.392  22.047  25.356  1.00  0.00     0.048 C 
ATOM     12  C   UNL A   1      32.640  22.876  25.369  1.00  0.00    -0.008 A 
ATOM     13  C   UNL A   1      32.389  24.217  25.786  1.00  0.00     0.007 A 
ATOM     14  C   UNL A   1      33.932  22.510  24.956  1.00  0.00     0.136 A 
ATOM     15  C   UNL A   1      33.339  25.222  25.704  1.00  0.00     0.001 A 
ATOM     16  C   UNL A   1      34.593  24.888  25.259  1.00  0.00     0.019 A 
BRANCH  14  17
ATOM     17  O   UNL A   1      34.390  21.324  24.469  1.00  0.00    -0.492 OA
BRANCH  17  18
ATOM     18  C   UNL A   1      34.749  20.133  25.178  1.00  0.00     0.233 C 
BRANCH  18  19
ATOM     19  C   UNL A   1      33.994  18.925  24.629  1.00  0.00     0.030 C 
ATOM     20  C   UNL A   1      32.882  18.317  25.513  1.00  0.00     0.011 C 
ATOM     21  C   UNL A   1      34.876  17.679  24.358  1.00  0.00    -0.004 C 
ATOM     22  C   UNL A   1      33.052  16.804  25.256  1.00  0.00    -0.010 C 
ATOM     23  C   UNL A   1      34.255  16.978  23.152  1.00  0.00     0.004 C 
ATOM     24  C   UNL A   1      34.551  16.688  25.479  1.00  0.00     0.007 C 
ATOM     25  C   UNL A   1      32.929  16.473  23.746  1.00  0.00     0.004 C 
ENDBRANCH  18  19
ENDBRANCH  17  18
ENDBRANCH  14  17
ENDBRANCH   8  10
ENDBRANCH   7   8
ENDBRANCH   6   7
ENDBRANCH   5   6
ENDBRANCH   4   5
ENDBRANCH   3   4
ENDBRANCH   2   3
ENDBRANCH   1   2
BRANCH   1  26
ATOM     26  C   UNL A   1      42.174  27.867  28.157  1.00  0.00     0.188 C 
BRANCH  26  27
ATOM     27  C   UNL A   1      42.002  28.709  26.917  1.00  0.00     0.188 C 
BRANCH  27  28
ATOM     28  O   UNL A   1      43.252  28.644  26.237  1.00  0.00    -0.376 OA
BRANCH  28  29
ATOM     29  C   UNL A   1      44.358  29.190  26.919  1.00  0.00     0.202 C 
BRANCH  29  30
ATOM     30  C   UNL A   1      45.564  28.255  26.905  1.00  0.00     0.261 C 
BRANCH  30  31
ATOM     31  O   UNL A   1      45.156  26.890  26.641  1.00  0.00    -0.460 OA
BRANCH  31  32
ATOM     32  C   UNL A   1      46.035  25.894  26.972  1.00  0.00     0.338 C 
ATOM     33  O   UNL A   1      46.934  25.533  26.232  1.00  0.00    -0.246 OA
BRANCH  32  34
ATOM     34  C   UNL A   1      45.836  25.412  28.374  1.00  0.00     0.060 A 
ATOM     35  C   UNL A   1      44.622  24.874  28.824  1.00  0.00     0.016 A 
ATOM     36  C   UNL A   1      46.838  25.624  29.302  1.00  0.00     0.016 A 
ATOM     37  C   UNL A   1      44.333  24.776  30.209  1.00  0.00     0.010 A 
ATOM     38  C   UNL A   1      46.522  25.585  30.649  1.00  0.00     0.010 A 
ATOM     39  C   UNL A   1      45.251  25.230  31.145  1.00  0.00    -0.014 A 
BRANCH  39  40
ATOM     40  C   UNL A   1      45.051  25.455  32.613  1.00  0.00     0.031 A 
ATOM     41  C   UNL A   1      44.505  26.813  33.012  1.00  0.00     0.074 A 
ATOM     42  C   UNL A   1      44.949  24.413  33.497  1.00  0.00     0.049 A 
ATOM     43  N   UNL A   1      43.937  27.086  34.133  1.00  0.00    -0.248 NA
ATOM     44  C   UNL A   1      44.462  27.978  32.119  1.00  0.00     0.031 C 
ATOM     45  C   UNL A   1      44.150  24.390  34.729  1.00  0.00     0.029 A 
ATOM     46  N   UNL A   1      45.467  23.107  33.494  1.00  0.00    -0.354 N 
ATOM     47  C   UNL A   1      43.187  28.238  34.009  1.00  0.00     0.074 A 
ATOM     48  C   UNL A   1      43.587  28.783  32.740  1.00  0.00     0.031 C 
ATOM     49  C   UNL A   1      44.269  23.233  35.394  1.00  0.00     0.029 A 
ATOM     50  C   UNL A   1      45.421  22.605  34.817  1.00  0.00     0.049 A 
ATOM     51  H   UNL A   1      45.806  22.624  32.706  1.00  0.00     0.167 HD
ATOM     52  C   UNL A   1      42.246  28.504  34.966  1.00  0.00     0.037 A 
ATOM     53  C   UNL A   1      46.571  22.389  35.518  1.00  0.00     0.037 A 
ATOM     54  C   UNL A   1      42.447  27.634  36.140  1.00  0.00     0.049 A 
ATOM     55  C   UNL A   1      46.615  23.377  36.676  1.00  0.00     0.074 A 
ATOM     56  C   UNL A   1      41.652  26.754  36.846  1.00  0.00     0.029 A 
ATOM     57  N   UNL A   1      43.738  27.471  36.657  1.00  0.00    -0.354 N 
ATOM     58  N   UNL A   1      46.145  24.606  36.608  1.00  0.00    -0.248 NA
ATOM     59  C   UNL A   1      46.868  22.958  38.055  1.00  0.00     0.031 C 
ATOM     60  C   UNL A   1      42.512  25.926  37.633  1.00  0.00     0.029 A 
ATOM     61  C   UNL A   1      43.820  26.371  37.486  1.00  0.00     0.049 A 
ATOM     62  H   UNL A   1      44.494  28.068  36.454  1.00  0.00     0.167 HD
ATOM     63  C   UNL A   1      45.854  25.045  37.877  1.00  0.00     0.074 A 
ATOM     64  C   UNL A   1      46.389  24.006  38.749  1.00  0.00     0.031 C 
ATOM     65  C   UNL A   1      45.040  26.090  38.229  1.00  0.00     0.037 A 
BRANCH  52  66
ATOM     66  C   UNL A   1      41.035  29.439  34.837  1.00  0.00     0.058 A 
ATOM     67  C   UNL A   1      40.146  29.311  33.740  1.00  0.00     0.135 A 
ATOM     68  C   UNL A   1      40.752  30.545  35.671  1.00  0.00     0.135 A 
ATOM     69  F   UNL A   1      40.273  28.311  32.857  1.00  0.00    -0.206 F 
ATOM     70  C   UNL A   1      39.087  30.196  33.487  1.00  0.00     0.059 A 
ATOM     71  C   UNL A   1      39.665  31.418  35.465  1.00  0.00     0.059 A 
ATOM     72  F   UNL A   1      41.540  30.861  36.707  1.00  0.00    -0.206 F 
ATOM     73  C   UNL A   1      38.842  31.245  34.360  1.00  0.00     0.060 A 
BRANCH  73  74
ATOM     74  S   UNL A   1      37.433  32.334  34.047  1.00  0.00     0.124 S 
ATOM     75  O   UNL A   1      38.049  33.434  33.311  1.00  0.00    -0.237 OA
ATOM     76  O   UNL A   1      36.540  31.477  33.273  1.00  0.00    -0.237 OA
ATOM     77  O   UNL A   1      36.957  32.671  35.386  1.00  0.00    -0.744 OA
ENDBRANCH  73  74
ENDBRANCH  52  66
BRANCH  53  78
ATOM     78  C   UNL A   1      47.600  21.779  34.611  1.00  0.00     0.058 A 
ATOM     79  C   UNL A   1      48.818  22.506  34.562  1.00  0.00     0.135 A 
ATOM     80  C   UNL A   1      47.703  20.381  34.493  1.00  0.00     0.135 A 
ATOM     81  F   UNL A   1      48.795  23.849  34.635  1.00  0.00    -0.206 F 
ATOM     82  C   UNL A   1      50.061  21.881  34.674  1.00  0.00     0.059 A 
ATOM     83  C   UNL A   1      48.948  19.735  34.581  1.00  0.00     0.059 A 
ATOM     84  F   UNL A   1      46.597  19.622  34.522  1.00  0.00    -0.206 F 
ATOM     85  C   UNL A   1      50.108  20.494  34.761  1.00  0.00     0.060 A 
BRANCH  85  86
ATOM     86  S   UNL A   1      51.662  19.734  35.310  1.00  0.00     0.124 S 
ATOM     87  O   UNL A   1      52.243  19.281  34.052  1.00  0.00    -0.237 OA
ATOM     88  O   UNL A   1      52.344  20.858  35.951  1.00  0.00    -0.237 OA
ATOM     89  O   UNL A   1      51.222  18.677  36.211  1.00  0.00    -0.744 OA
ENDBRANCH  85  86
ENDBRANCH  53  78
BRANCH  65  90
ATOM     90  C   UNL A   1      45.350  26.975  39.415  1.00  0.00     0.058 A 
ATOM     91  C   UNL A   1      46.060  28.180  39.287  1.00  0.00     0.135 A 
ATOM     92  C   UNL A   1      44.744  26.753  40.680  1.00  0.00     0.135 A 
ATOM     93  F   UNL A   1      46.589  28.569  38.119  1.00  0.00    -0.206 F 
ATOM     94  C   UNL A   1      46.216  29.063  40.346  1.00  0.00     0.059 A 
ATOM     95  C   UNL A   1      44.838  27.653  41.732  1.00  0.00     0.059 A 
ATOM     96  F   UNL A   1      44.000  25.668  40.940  1.00  0.00    -0.206 F 
ATOM     97  C   UNL A   1      45.600  28.794  41.562  1.00  0.00     0.060 A 
BRANCH  97  98
ATOM     98  S   UNL A   1      45.789  29.974  42.899  1.00  0.00     0.124 S 
ATOM     99  O   UNL A   1      47.009  30.667  42.496  1.00  0.00    -0.237 OA
ATOM    100  O   UNL A   1      44.558  30.753  42.804  1.00  0.00    -0.237 OA
ATOM    101  O   UNL A   1      45.901  29.133  44.087  1.00  0.00    -0.744 OA
ENDBRANCH  97  98
ENDBRANCH  65  90
ENDBRANCH  39  40
ENDBRANCH  32  34
ENDBRANCH  31  32
ENDBRANCH  30  31
ENDBRANCH  29  30
ENDBRANCH  28  29
ENDBRANCH  27  28
ENDBRANCH  26  27
ENDBRANCH   1  26
TORSDOF 26
ENDMDL
MODEL 3
REMARK VINA RESULT:      -9.2      3.864      6.467
REMARK SMILES Cc1cccc(C(=O)OCCOCCOCCOCCOC(=O)c2ccc(-c3c4nc(c(-c5c(F)cc(S(=O)(=O)[O-])cc5F)c5ccc([nH]5)c(-c5c(F)cc(S(=O)(=O)[O-])cc5F)c5nc(c(-c6c(F)cc(S(=O)(=O)[O-])cc6F)c6ccc3[nH]6)C=C5)C=C4)cc2)c1OC[C@@H]1C[C@H]2CC[C@@H]1C2
REMARK SMILES IDX 15 1 14 2 13 3 12 4 11 5 10 6 9 7 7 8 8 9 6 10 1 11 2 12
REMARK SMILES IDX 3 13 90 14 4 15 5 16 91 17 92 18 93 19 94 20 98 21 95 22
REMARK SMILES IDX 97 23 99 24 96 25 16 26 17 27 18 28 19 29 20 30 21 31 22 32
REMARK SMILES IDX 23 33 24 34 25 35 89 36 26 37 88 38 27 39 28 40 29 41 82 42
REMARK SMILES IDX 30 43 87 44 81 45 83 46 31 47 86 48 80 49 79 50 32 52 66 53
REMARK SMILES IDX 45 54 65 55 46 56 49 57 64 58 84 59 47 60 48 61 63 63 85 64
REMARK SMILES IDX 50 65 33 66 34 67 43 68 35 69 36 70 42 71 44 72 37 73 38 74
REMARK SMILES IDX 39 75 40 76 41 77 67 78 68 79 77 80 69 81 70 82 76 83 78 84
REMARK SMILES IDX 71 85 72 86 73 87 74 88 75 89 51 90 52 91 61 92 53 93 54 94
REMARK SMILES IDX 60 95 62 96 55 97 56 98 57 99 58 100 59 101
REMARK H PARENT 83 51 49 62
REMARK Flexibility Score: inf
ROOT
ATOM      1  O   UNL A   1      41.033  20.533  26.501  1.00  0.00    -0.377 OA
ENDROOT
BRANCH   1   2
ATOM      2  C   UNL A   1      39.744  20.972  26.115  1.00  0.00     0.188 C 
BRANCH   2   3
ATOM      3  C   UNL A   1      39.278  22.364  26.597  1.00  0.00     0.188 C 
BRANCH   3   4
ATOM      4  O   UNL A   1      38.627  23.259  25.707  1.00  0.00    -0.376 OA
BRANCH   4   5
ATOM      5  C   UNL A   1      37.416  23.834  26.199  1.00  0.00     0.202 C 
BRANCH   5   6
ATOM      6  C   UNL A   1      36.153  23.003  26.039  1.00  0.00     0.261 C 
BRANCH   6   7
ATOM      7  O   UNL A   1      35.947  22.790  24.638  1.00  0.00    -0.460 OA
BRANCH   7   8
ATOM      8  C   UNL A   1      35.176  23.703  24.022  1.00  0.00     0.342 C 
ATOM      9  O   UNL A   1      35.174  24.028  22.854  1.00  0.00    -0.246 OA
BRANCH   8  10
ATOM     10  C   UNL A   1      33.966  23.816  24.848  1.00  0.00     0.102 A 
ATOM     11  C   UNL A   1      30.579  22.395  25.943  1.00  0.00     0.048 C 
ATOM     12  C   UNL A   1      31.842  23.175  25.740  1.00  0.00    -0.008 A 
ATOM     13  C   UNL A   1      31.770  24.475  26.324  1.00  0.00     0.007 A 
ATOM     14  C   UNL A   1      32.984  22.808  25.006  1.00  0.00     0.136 A 
ATOM     15  C   UNL A   1      32.732  25.450  26.115  1.00  0.00     0.001 A 
ATOM     16  C   UNL A   1      33.831  25.120  25.362  1.00  0.00     0.019 A 
BRANCH  14  17
ATOM     17  O   UNL A   1      33.250  21.663  24.321  1.00  0.00    -0.492 OA
BRANCH  17  18
ATOM     18  C   UNL A   1      32.343  20.671  23.829  1.00  0.00     0.233 C 
BRANCH  18  19
ATOM     19  C   UNL A   1      33.032  19.314  23.714  1.00  0.00     0.030 C 
ATOM     20  C   UNL A   1      32.135  18.077  23.479  1.00  0.00     0.011 C 
ATOM     21  C   UNL A   1      33.818  18.878  24.977  1.00  0.00    -0.004 C 
ATOM     22  C   UNL A   1      32.831  17.001  24.341  1.00  0.00    -0.010 C 
ATOM     23  C   UNL A   1      35.010  18.068  24.472  1.00  0.00     0.004 C 
ATOM     24  C   UNL A   1      32.973  17.783  25.636  1.00  0.00     0.007 C 
ATOM     25  C   UNL A   1      34.312  16.815  23.919  1.00  0.00     0.004 C 
ENDBRANCH  18  19
ENDBRANCH  17  18
ENDBRANCH  14  17
ENDBRANCH   8  10
ENDBRANCH   7   8
ENDBRANCH   6   7
ENDBRANCH   5   6
ENDBRANCH   4   5
ENDBRANCH   3   4
ENDBRANCH   2   3
ENDBRANCH   1   2
BRANCH   1  26
ATOM     26  C   UNL A   1      41.927  21.481  27.094  1.00  0.00     0.188 C 
BRANCH  26  27
ATOM     27  C   UNL A   1      43.019  22.114  26.269  1.00  0.00     0.188 C 
BRANCH  27  28
ATOM     28  O   UNL A   1      42.359  23.027  25.398  1.00  0.00    -0.376 OA
BRANCH  28  29
ATOM     29  C   UNL A   1      42.811  24.361  25.440  1.00  0.00     0.202 C 
BRANCH  29  30
ATOM     30  C   UNL A   1      41.963  25.231  26.362  1.00  0.00     0.261 C 
BRANCH  30  31
ATOM     31  O   UNL A   1      41.302  26.283  25.617  1.00  0.00    -0.460 OA
BRANCH  31  32
ATOM     32  C   UNL A   1      41.995  27.447  25.419  1.00  0.00     0.338 C 
ATOM     33  O   UNL A   1      42.677  27.651  24.429  1.00  0.00    -0.246 OA
BRANCH  32  34
ATOM     34  C   UNL A   1      41.708  28.459  26.482  1.00  0.00     0.060 A 
ATOM     35  C   UNL A   1      42.670  29.371  26.938  1.00  0.00     0.016 A 
ATOM     36  C   UNL A   1      40.494  28.412  27.139  1.00  0.00     0.016 A 
ATOM     37  C   UNL A   1      42.509  30.051  28.173  1.00  0.00     0.010 A 
ATOM     38  C   UNL A   1      40.374  29.029  28.372  1.00  0.00     0.010 A 
ATOM     39  C   UNL A   1      41.393  29.807  28.960  1.00  0.00    -0.014 A 
BRANCH  39  40
ATOM     40  C   UNL A   1      41.151  30.208  30.383  1.00  0.00     0.031 A 
ATOM     41  C   UNL A   1      40.392  31.506  30.591  1.00  0.00     0.074 A 
ATOM     42  C   UNL A   1      41.214  29.304  31.411  1.00  0.00     0.049 A 
ATOM     43  N   UNL A   1      39.782  31.845  31.671  1.00  0.00    -0.248 NA
ATOM     44  C   UNL A   1      40.166  32.505  29.540  1.00  0.00     0.031 C 
ATOM     45  C   UNL A   1      40.424  29.334  32.647  1.00  0.00     0.029 A 
ATOM     46  N   UNL A   1      41.936  28.112  31.588  1.00  0.00    -0.354 N 
ATOM     47  C   UNL A   1      38.857  32.831  31.395  1.00  0.00     0.074 A 
ATOM     48  C   UNL A   1      39.170  33.242  30.053  1.00  0.00     0.031 C 
ATOM     49  C   UNL A   1      40.724  28.321  33.472  1.00  0.00     0.029 A 
ATOM     50  C   UNL A   1      41.965  27.808  32.970  1.00  0.00     0.049 A 
ATOM     51  H   UNL A   1      42.352  27.579  30.872  1.00  0.00     0.167 HD
ATOM     52  C   UNL A   1      37.881  33.081  32.321  1.00  0.00     0.037 A 
ATOM     53  C   UNL A   1      43.131  27.884  33.673  1.00  0.00     0.037 A 
ATOM     54  C   UNL A   1      38.214  32.435  33.604  1.00  0.00     0.049 A 
ATOM     55  C   UNL A   1      43.010  29.025  34.675  1.00  0.00     0.074 A 
ATOM     56  C   UNL A   1      37.568  31.552  34.447  1.00  0.00     0.029 A 
ATOM     57  N   UNL A   1      39.512  32.559  34.116  1.00  0.00    -0.354 N 
ATOM     58  N   UNL A   1      42.348  30.139  34.438  1.00  0.00    -0.248 NA
ATOM     59  C   UNL A   1      43.321  28.857  36.095  1.00  0.00     0.031 C 
ATOM     60  C   UNL A   1      38.546  30.996  35.328  1.00  0.00     0.029 A 
ATOM     61  C   UNL A   1      39.766  31.619  35.094  1.00  0.00     0.049 A 
ATOM     62  H   UNL A   1      40.163  33.232  33.814  1.00  0.00     0.167 HD
ATOM     63  C   UNL A   1      41.984  30.707  35.635  1.00  0.00     0.074 A 
ATOM     64  C   UNL A   1      42.676  29.906  36.638  1.00  0.00     0.031 C 
ATOM     65  C   UNL A   1      41.012  31.649  35.846  1.00  0.00     0.037 A 
BRANCH  52  66
ATOM     66  C   UNL A   1      36.536  33.781  32.080  1.00  0.00     0.058 A 
ATOM     67  C   UNL A   1      35.788  33.510  30.907  1.00  0.00     0.135 A 
ATOM     68  C   UNL A   1      35.981  34.804  32.884  1.00  0.00     0.135 A 
ATOM     69  F   UNL A   1      36.175  32.562  30.041  1.00  0.00    -0.206 F 
ATOM     70  C   UNL A   1      34.612  34.190  30.557  1.00  0.00     0.059 A 
ATOM     71  C   UNL A   1      34.776  35.467  32.578  1.00  0.00     0.059 A 
ATOM     72  F   UNL A   1      36.601  35.243  33.987  1.00  0.00    -0.206 F 
ATOM     73  C   UNL A   1      34.102  35.163  31.403  1.00  0.00     0.060 A 
BRANCH  73  74
ATOM     74  S   UNL A   1      32.550  35.981  30.960  1.00  0.00     0.124 S 
ATOM     75  O   UNL A   1      32.905  37.393  31.063  1.00  0.00    -0.237 OA
ATOM     76  O   UNL A   1      32.309  35.486  29.608  1.00  0.00    -0.237 OA
ATOM     77  O   UNL A   1      31.610  35.501  31.970  1.00  0.00    -0.744 OA
ENDBRANCH  73  74
ENDBRANCH  52  66
BRANCH  53  78
ATOM     78  C   UNL A   1      44.249  27.320  32.845  1.00  0.00     0.058 A 
ATOM     79  C   UNL A   1      45.257  28.268  32.528  1.00  0.00     0.135 A 
ATOM     80  C   UNL A   1      44.679  25.995  33.040  1.00  0.00     0.135 A 
ATOM     81  F   UNL A   1      44.917  29.549  32.295  1.00  0.00    -0.206 F 
ATOM     82  C   UNL A   1      46.616  27.985  32.674  1.00  0.00     0.059 A 
ATOM     83  C   UNL A   1      46.045  25.686  33.167  1.00  0.00     0.059 A 
ATOM     84  F   UNL A   1      43.788  25.037  33.335  1.00  0.00    -0.206 F 
ATOM     85  C   UNL A   1      46.995  26.707  33.071  1.00  0.00     0.060 A 
BRANCH  85  86
ATOM     86  S   UNL A   1      48.700  26.470  33.645  1.00  0.00     0.124 S 
ATOM     87  O   UNL A   1      48.812  27.476  34.694  1.00  0.00    -0.237 OA
ATOM     88  O   UNL A   1      48.681  25.082  34.102  1.00  0.00    -0.237 OA
ATOM     89  O   UNL A   1      49.497  26.723  32.452  1.00  0.00    -0.744 OA
ENDBRANCH  85  86
ENDBRANCH  53  78
BRANCH  65  90
ATOM     90  C   UNL A   1      41.169  32.736  36.885  1.00  0.00     0.058 A 
ATOM     91  C   UNL A   1      40.280  32.879  37.962  1.00  0.00     0.135 A 
ATOM     92  C   UNL A   1      42.350  33.523  36.957  1.00  0.00     0.135 A 
ATOM     93  F   UNL A   1      39.183  32.118  38.080  1.00  0.00    -0.206 F 
ATOM     94  C   UNL A   1      40.507  33.779  38.995  1.00  0.00     0.059 A 
ATOM     95  C   UNL A   1      42.622  34.383  38.011  1.00  0.00     0.059 A 
ATOM     96  F   UNL A   1      43.311  33.464  36.023  1.00  0.00    -0.206 F 
ATOM     97  C   UNL A   1      41.679  34.523  39.013  1.00  0.00     0.060 A 
BRANCH  97  98
ATOM     98  S   UNL A   1      41.960  35.649  40.380  1.00  0.00     0.124 S 
ATOM     99  O   UNL A   1      40.736  36.445  40.348  1.00  0.00    -0.237 OA
ATOM    100  O   UNL A   1      42.092  34.737  41.513  1.00  0.00    -0.237 OA
ATOM    101  O   UNL A   1      43.182  36.352  40.002  1.00  0.00    -0.744 OA
ENDBRANCH  97  98
ENDBRANCH  65  90
ENDBRANCH  39  40
ENDBRANCH  32  34
ENDBRANCH  31  32
ENDBRANCH  30  31
ENDBRANCH  29  30
ENDBRANCH  28  29
ENDBRANCH  27  28
ENDBRANCH  26  27
ENDBRANCH   1  26
TORSDOF 26
ENDMDL
