MODEL 1
REMARK VINA RESULT:      -9.7      0.000      0.000
REMARK SMILES O=C(OCCOCCOCCOCCOC(=O)[C@H](Cc1ccccn1)c1ccc(F)cc1)c1ccc(-c2c3nc(c(-c4c(F)cc(S(=O)(=O)[O-])cc4F)c4ccc([nH]4)c(-c4c(F)cc(S(=O)(=O)[O-])cc4F)c4nc(c(-c5c(F)cc(S(=O)(=O)[O-])cc5F)c5ccc2[nH]5)C=C4)C=C3)cc1
REMARK SMILES IDX 8 1 7 2 6 3 5 4 4 5 3 6 2 7 1 8 33 9 34 10 98 11 35 12 97 13
REMARK SMILES IDX 36 14 37 15 38 16 91 17 39 18 96 19 90 20 92 21 40 22 95 23
REMARK SMILES IDX 89 24 88 25 41 27 75 28 54 29 74 30 55 31 58 32 73 33 93 34
REMARK SMILES IDX 56 35 57 36 72 38 94 39 59 40 42 41 43 42 52 43 44 44 45 45
REMARK SMILES IDX 51 46 53 47 46 48 47 49 48 50 49 51 50 52 76 53 77 54 86 55
REMARK SMILES IDX 78 56 79 57 85 58 87 59 80 60 81 61 82 62 83 63 84 64 60 65
REMARK SMILES IDX 61 66 70 67 62 68 63 69 69 70 71 71 64 72 65 73 66 74 67 75
REMARK SMILES IDX 68 76 9 77 10 78 11 79 12 80 13 81 14 82 15 83 16 84 17 85
REMARK SMILES IDX 18 86 26 87 27 88 32 89 28 90 31 91 29 92 30 93 19 94 20 95
REMARK SMILES IDX 21 96 25 97 22 98 24 99 23 100
REMARK H PARENT 92 26 58 37
REMARK Flexibility Score: inf
ROOT
ATOM      1  C   UNL A   1      39.131  21.255  25.715  1.00  0.00     0.188 C 
ENDROOT
BRANCH   1   2
ATOM      2  C   UNL A   1      40.314  20.649  26.444  1.00  0.00     0.188 C 
BRANCH   2   3
ATOM      3  O   UNL A   1      41.297  21.637  26.650  1.00  0.00    -0.376 OA
BRANCH   3   4
ATOM      4  C   UNL A   1      42.252  21.377  27.664  1.00  0.00     0.202 C 
BRANCH   4   5
ATOM      5  C   UNL A   1      42.760  22.731  28.164  1.00  0.00     0.261 C 
BRANCH   5   6
ATOM      6  O   UNL A   1      43.105  23.611  27.072  1.00  0.00    -0.460 OA
BRANCH   6   7
ATOM      7  C   UNL A   1      42.406  24.710  26.671  1.00  0.00     0.338 C 
ATOM      8  O   UNL A   1      41.953  24.731  25.526  1.00  0.00    -0.246 OA
BRANCH   7   9
ATOM      9  C   UNL A   1      42.033  25.839  27.596  1.00  0.00     0.060 A 
ATOM     10  C   UNL A   1      42.711  27.057  27.741  1.00  0.00     0.016 A 
ATOM     11  C   UNL A   1      40.843  25.671  28.327  1.00  0.00     0.016 A 
ATOM     12  C   UNL A   1      42.238  28.069  28.571  1.00  0.00     0.010 A 
ATOM     13  C   UNL A   1      40.376  26.665  29.193  1.00  0.00     0.010 A 
ATOM     14  C   UNL A   1      41.093  27.859  29.331  1.00  0.00    -0.014 A 
BRANCH  14  15
ATOM     15  C   UNL A   1      40.827  28.786  30.446  1.00  0.00     0.031 A 
ATOM     16  C   UNL A   1      41.749  28.702  31.627  1.00  0.00     0.074 A 
ATOM     17  C   UNL A   1      39.883  29.739  30.348  1.00  0.00     0.049 A 
ATOM     18  N   UNL A   1      41.705  29.342  32.761  1.00  0.00    -0.248 NA
ATOM     19  C   UNL A   1      42.890  27.774  31.502  1.00  0.00     0.031 C 
ATOM     20  C   UNL A   1      39.042  29.977  29.174  1.00  0.00     0.029 A 
ATOM     21  N   UNL A   1      39.488  30.695  31.244  1.00  0.00    -0.354 N 
ATOM     22  C   UNL A   1      42.793  28.878  33.491  1.00  0.00     0.074 A 
ATOM     23  C   UNL A   1      43.475  27.898  32.682  1.00  0.00     0.031 C 
ATOM     24  C   UNL A   1      38.227  31.015  29.426  1.00  0.00     0.029 A 
ATOM     25  C   UNL A   1      38.448  31.475  30.795  1.00  0.00     0.049 A 
ATOM     26  H   UNL A   1      39.907  30.813  32.127  1.00  0.00     0.167 HD
ATOM     27  C   UNL A   1      43.179  29.244  34.733  1.00  0.00     0.037 A 
ATOM     28  C   UNL A   1      37.742  32.426  31.440  1.00  0.00     0.037 A 
ATOM     29  C   UNL A   1      42.474  30.225  35.509  1.00  0.00     0.049 A 
ATOM     30  C   UNL A   1      38.119  32.737  32.868  1.00  0.00     0.074 A 
ATOM     31  C   UNL A   1      42.723  30.646  36.800  1.00  0.00     0.029 A 
ATOM     32  N   UNL A   1      41.373  30.940  35.054  1.00  0.00    -0.354 N 
ATOM     33  N   UNL A   1      39.105  32.245  33.584  1.00  0.00    -0.248 NA
ATOM     34  C   UNL A   1      37.287  33.713  33.582  1.00  0.00     0.031 C 
ATOM     35  C   UNL A   1      41.741  31.580  37.143  1.00  0.00     0.029 A 
ATOM     36  C   UNL A   1      40.917  31.786  36.045  1.00  0.00     0.049 A 
ATOM     37  H   UNL A   1      40.977  30.856  34.156  1.00  0.00     0.167 HD
ATOM     38  C   UNL A   1      39.022  32.862  34.827  1.00  0.00     0.074 A 
ATOM     39  C   UNL A   1      37.897  33.775  34.759  1.00  0.00     0.031 C 
ATOM     40  C   UNL A   1      39.796  32.689  35.927  1.00  0.00     0.037 A 
BRANCH  27  41
ATOM     41  C   UNL A   1      44.365  28.542  35.332  1.00  0.00     0.058 A 
ATOM     42  C   UNL A   1      44.182  27.403  36.131  1.00  0.00     0.135 A 
ATOM     43  C   UNL A   1      45.680  28.991  35.123  1.00  0.00     0.135 A 
ATOM     44  F   UNL A   1      42.949  26.916  36.343  1.00  0.00    -0.206 F 
ATOM     45  C   UNL A   1      45.257  26.745  36.718  1.00  0.00     0.059 A 
ATOM     46  C   UNL A   1      46.773  28.331  35.679  1.00  0.00     0.059 A 
ATOM     47  F   UNL A   1      45.915  30.050  34.333  1.00  0.00    -0.206 F 
ATOM     48  C   UNL A   1      46.549  27.216  36.488  1.00  0.00     0.060 A 
BRANCH  48  49
ATOM     49  S   UNL A   1      47.932  26.329  37.235  1.00  0.00     0.124 S 
ATOM     50  O   UNL A   1      47.805  25.009  36.629  1.00  0.00    -0.237 OA
ATOM     51  O   UNL A   1      49.077  27.124  36.798  1.00  0.00    -0.237 OA
ATOM     52  O   UNL A   1      47.645  26.396  38.666  1.00  0.00    -0.744 OA
ENDBRANCH  48  49
ENDBRANCH  27  41
BRANCH  28  53
ATOM     53  C   UNL A   1      36.604  33.107  30.762  1.00  0.00     0.058 A 
ATOM     54  C   UNL A   1      36.825  34.054  29.746  1.00  0.00     0.135 A 
ATOM     55  C   UNL A   1      35.273  32.850  31.124  1.00  0.00     0.135 A 
ATOM     56  F   UNL A   1      38.077  34.340  29.353  1.00  0.00    -0.206 F 
ATOM     57  C   UNL A   1      35.778  34.744  29.145  1.00  0.00     0.059 A 
ATOM     58  C   UNL A   1      34.204  33.508  30.517  1.00  0.00     0.059 A 
ATOM     59  F   UNL A   1      35.002  31.943  32.074  1.00  0.00    -0.206 F 
ATOM     60  C   UNL A   1      34.470  34.467  29.540  1.00  0.00     0.060 A 
BRANCH  60  61
ATOM     61  S   UNL A   1      33.129  35.388  28.754  1.00  0.00     0.124 S 
ATOM     62  O   UNL A   1      33.866  36.409  28.019  1.00  0.00    -0.237 OA
ATOM     63  O   UNL A   1      32.485  34.362  27.945  1.00  0.00    -0.237 OA
ATOM     64  O   UNL A   1      32.345  35.876  29.889  1.00  0.00    -0.744 OA
ENDBRANCH  60  61
ENDBRANCH  28  53
BRANCH  40  65
ATOM     65  C   UNL A   1      39.476  33.516  37.139  1.00  0.00     0.058 A 
ATOM     66  C   UNL A   1      40.139  34.733  37.358  1.00  0.00     0.135 A 
ATOM     67  C   UNL A   1      38.612  33.044  38.139  1.00  0.00     0.135 A 
ATOM     68  F   UNL A   1      40.984  35.220  36.435  1.00  0.00    -0.206 F 
ATOM     69  C   UNL A   1      39.981  35.441  38.542  1.00  0.00     0.059 A 
ATOM     70  C   UNL A   1      38.415  33.752  39.319  1.00  0.00     0.059 A 
ATOM     71  F   UNL A   1      37.950  31.888  37.970  1.00  0.00    -0.206 F 
ATOM     72  C   UNL A   1      39.122  34.938  39.520  1.00  0.00     0.060 A 
BRANCH  72  73
ATOM     73  S   UNL A   1      38.942  35.865  41.057  1.00  0.00     0.124 S 
ATOM     74  O   UNL A   1      40.302  35.842  41.581  1.00  0.00    -0.237 OA
ATOM     75  O   UNL A   1      38.466  37.159  40.581  1.00  0.00    -0.237 OA
ATOM     76  O   UNL A   1      37.964  35.085  41.811  1.00  0.00    -0.744 OA
ENDBRANCH  72  73
ENDBRANCH  40  65
ENDBRANCH  14  15
ENDBRANCH   7   9
ENDBRANCH   6   7
ENDBRANCH   5   6
ENDBRANCH   4   5
ENDBRANCH   3   4
ENDBRANCH   2   3
ENDBRANCH   1   2
BRANCH   1  77
ATOM     77  O   UNL A   1      38.578  22.391  26.385  1.00  0.00    -0.377 OA
BRANCH  77  78
ATOM     78  C   UNL A   1      37.719  23.227  25.609  1.00  0.00     0.188 C 
BRANCH  78  79
ATOM     79  C   UNL A   1      36.497  22.541  24.992  1.00  0.00     0.188 C 
BRANCH  79  80
ATOM     80  O   UNL A   1      35.299  23.154  25.407  1.00  0.00    -0.376 OA
BRANCH  80  81
ATOM     81  C   UNL A   1      34.066  22.561  25.013  1.00  0.00     0.202 C 
BRANCH  81  82
ATOM     82  C   UNL A   1      32.669  23.208  25.239  1.00  0.00     0.261 C 
BRANCH  82  83
ATOM     83  O   UNL A   1      32.519  24.627  24.987  1.00  0.00    -0.463 OA
BRANCH  83  84
ATOM     84  C   UNL A   1      31.891  25.367  25.948  1.00  0.00     0.313 C 
ATOM     85  O   UNL A   1      31.350  24.854  26.928  1.00  0.00    -0.252 OA
BRANCH  84  86
ATOM     86  C   UNL A   1      31.949  26.910  25.787  1.00  0.00     0.135 C 
BRANCH  86  87
ATOM     87  C   UNL A   1      30.967  27.457  24.736  1.00  0.00    -0.033 A 
ATOM     88  C   UNL A   1      31.172  28.744  24.202  1.00  0.00     0.007 A 
ATOM     89  C   UNL A   1      29.830  26.756  24.300  1.00  0.00     0.007 A 
ATOM     90  C   UNL A   1      30.195  29.367  23.420  1.00  0.00     0.039 A 
ATOM     91  C   UNL A   1      28.851  27.371  23.514  1.00  0.00     0.039 A 
ATOM     92  C   UNL A   1      29.027  28.684  23.110  1.00  0.00     0.123 A 
ATOM     93  F   UNL A   1      28.064  29.299  22.413  1.00  0.00    -0.207 F 
ENDBRANCH  86  87
BRANCH  86  94
ATOM     94  C   UNL A   1      32.118  27.726  27.117  1.00  0.00     0.076 C 
BRANCH  94  95
ATOM     95  C   UNL A   1      33.085  28.896  27.251  1.00  0.00     0.042 A 
ATOM     96  C   UNL A   1      34.470  28.752  27.317  1.00  0.00     0.024 A 
ATOM     97  N   UNL A   1      32.519  30.131  27.279  1.00  0.00    -0.261 NA
ATOM     98  C   UNL A   1      35.278  29.868  27.554  1.00  0.00     0.003 A 
ATOM     99  C   UNL A   1      33.330  31.206  27.435  1.00  0.00     0.111 A 
ATOM    100  C   UNL A   1      34.699  31.125  27.612  1.00  0.00     0.020 A 
ENDBRANCH  94  95
ENDBRANCH  86  94
ENDBRANCH  84  86
ENDBRANCH  83  84
ENDBRANCH  82  83
ENDBRANCH  81  82
ENDBRANCH  80  81
ENDBRANCH  79  80
ENDBRANCH  78  79
ENDBRANCH  77  78
ENDBRANCH   1  77
TORSDOF 26
ENDMDL
MODEL 2
REMARK VINA RESULT:      -9.4      1.353      2.832
REMARK SMILES O=C(OCCOCCOCCOCCOC(=O)[C@H](Cc1ccccn1)c1ccc(F)cc1)c1ccc(-c2c3nc(c(-c4c(F)cc(S(=O)(=O)[O-])cc4F)c4ccc([nH]4)c(-c4c(F)cc(S(=O)(=O)[O-])cc4F)c4nc(c(-c5c(F)cc(S(=O)(=O)[O-])cc5F)c5ccc2[nH]5)C=C4)C=C3)cc1
REMARK SMILES IDX 8 1 7 2 6 3 5 4 4 5 3 6 2 7 1 8 33 9 34 10 98 11 35 12 97 13
REMARK SMILES IDX 36 14 37 15 38 16 91 17 39 18 96 19 90 20 92 21 40 22 95 23
REMARK SMILES IDX 89 24 88 25 41 27 75 28 54 29 74 30 55 31 58 32 73 33 93 34
REMARK SMILES IDX 56 35 57 36 72 38 94 39 59 40 42 41 43 42 52 43 44 44 45 45
REMARK SMILES IDX 51 46 53 47 46 48 47 49 48 50 49 51 50 52 76 53 77 54 86 55
REMARK SMILES IDX 78 56 79 57 85 58 87 59 80 60 81 61 82 62 83 63 84 64 60 65
REMARK SMILES IDX 61 66 70 67 62 68 63 69 69 70 71 71 64 72 65 73 66 74 67 75
REMARK SMILES IDX 68 76 9 77 10 78 11 79 12 80 13 81 14 82 15 83 16 84 17 85
REMARK SMILES IDX 18 86 26 87 27 88 32 89 28 90 31 91 29 92 30 93 19 94 20 95
REMARK SMILES IDX 21 96 25 97 22 98 24 99 23 100
REMARK H PARENT 92 26 58 37
REMARK Flexibility Score: inf
ROOT
ATOM      1  C   UNL A   1      37.293  22.123  25.650  1.00  0.00     0.188 C 
ENDROOT
BRANCH   1   2
ATOM      2  C   UNL A   1      38.478  22.867  26.235  1.00  0.00     0.188 C 
BRANCH   2   3
ATOM      3  O   UNL A   1      39.646  22.097  26.067  1.00  0.00    -0.376 OA
BRANCH   3   4
ATOM      4  C   UNL A   1      40.607  22.172  27.107  1.00  0.00     0.202 C 
BRANCH   4   5
ATOM      5  C   UNL A   1      41.802  22.955  26.561  1.00  0.00     0.261 C 
BRANCH   5   6
ATOM      6  O   UNL A   1      41.386  24.121  25.818  1.00  0.00    -0.460 OA
BRANCH   6   7
ATOM      7  C   UNL A   1      41.826  25.397  26.006  1.00  0.00     0.338 C 
ATOM      8  O   UNL A   1      42.297  26.003  25.042  1.00  0.00    -0.246 OA
BRANCH   7   9
ATOM      9  C   UNL A   1      41.637  26.159  27.292  1.00  0.00     0.060 A 
ATOM     10  C   UNL A   1      40.655  25.923  28.263  1.00  0.00     0.016 A 
ATOM     11  C   UNL A   1      42.591  27.155  27.565  1.00  0.00     0.016 A 
ATOM     12  C   UNL A   1      40.613  26.639  29.456  1.00  0.00     0.010 A 
ATOM     13  C   UNL A   1      42.539  27.906  28.744  1.00  0.00     0.010 A 
ATOM     14  C   UNL A   1      41.530  27.660  29.681  1.00  0.00    -0.014 A 
BRANCH  14  15
ATOM     15  C   UNL A   1      41.242  28.618  30.764  1.00  0.00     0.031 A 
ATOM     16  C   UNL A   1      42.155  28.584  31.954  1.00  0.00     0.074 A 
ATOM     17  C   UNL A   1      40.286  29.553  30.628  1.00  0.00     0.049 A 
ATOM     18  N   UNL A   1      42.093  29.260  33.067  1.00  0.00    -0.248 NA
ATOM     19  C   UNL A   1      43.310  27.669  31.868  1.00  0.00     0.031 C 
ATOM     20  C   UNL A   1      39.452  29.743  29.440  1.00  0.00     0.029 A 
ATOM     21  N   UNL A   1      39.870  30.532  31.491  1.00  0.00    -0.354 N 
ATOM     22  C   UNL A   1      43.181  28.833  33.820  1.00  0.00     0.074 A 
ATOM     23  C   UNL A   1      43.883  27.839  33.048  1.00  0.00     0.031 C 
ATOM     24  C   UNL A   1      38.620  30.776  29.653  1.00  0.00     0.029 A 
ATOM     25  C   UNL A   1      38.823  31.283  31.008  1.00  0.00     0.049 A 
ATOM     26  H   UNL A   1      40.280  30.684  32.373  1.00  0.00     0.167 HD
ATOM     27  C   UNL A   1      43.551  29.244  35.053  1.00  0.00     0.037 A 
ATOM     28  C   UNL A   1      38.098  32.243  31.617  1.00  0.00     0.037 A 
ATOM     29  C   UNL A   1      42.826  30.239  35.792  1.00  0.00     0.049 A 
ATOM     30  C   UNL A   1      38.459  32.605  33.038  1.00  0.00     0.074 A 
ATOM     31  C   UNL A   1      43.058  30.704  37.071  1.00  0.00     0.029 A 
ATOM     32  N   UNL A   1      41.719  30.924  35.305  1.00  0.00    -0.354 N 
ATOM     33  N   UNL A   1      39.445  32.149  33.777  1.00  0.00    -0.248 NA
ATOM     34  C   UNL A   1      37.607  33.591  33.714  1.00  0.00     0.031 C 
ATOM     35  C   UNL A   1      42.060  31.634  37.376  1.00  0.00     0.029 A 
ATOM     36  C   UNL A   1      41.243  31.794  36.265  1.00  0.00     0.049 A 
ATOM     37  H   UNL A   1      41.332  30.806  34.408  1.00  0.00     0.167 HD
ATOM     38  C   UNL A   1      39.343  32.804  34.999  1.00  0.00     0.074 A 
ATOM     39  C   UNL A   1      38.207  33.698  34.893  1.00  0.00     0.031 C 
ATOM     40  C   UNL A   1      40.111  32.677  36.110  1.00  0.00     0.037 A 
BRANCH  27  41
ATOM     41  C   UNL A   1      44.742  28.579  35.683  1.00  0.00     0.058 A 
ATOM     42  C   UNL A   1      46.018  29.152  35.560  1.00  0.00     0.135 A 
ATOM     43  C   UNL A   1      44.631  27.378  36.404  1.00  0.00     0.135 A 
ATOM     44  F   UNL A   1      46.178  30.312  34.903  1.00  0.00    -0.206 F 
ATOM     45  C   UNL A   1      47.143  28.550  36.111  1.00  0.00     0.059 A 
ATOM     46  C   UNL A   1      45.740  26.772  36.987  1.00  0.00     0.059 A 
ATOM     47  F   UNL A   1      43.429  26.810  36.588  1.00  0.00    -0.206 F 
ATOM     48  C   UNL A   1      46.995  27.359  36.823  1.00  0.00     0.060 A 
BRANCH  48  49
ATOM     49  S   UNL A   1      48.465  26.609  37.556  1.00  0.00     0.124 S 
ATOM     50  O   UNL A   1      48.851  25.644  36.534  1.00  0.00    -0.237 OA
ATOM     51  O   UNL A   1      49.349  27.760  37.714  1.00  0.00    -0.237 OA
ATOM     52  O   UNL A   1      47.966  26.039  38.805  1.00  0.00    -0.744 OA
ENDBRANCH  48  49
ENDBRANCH  27  41
BRANCH  28  53
ATOM     53  C   UNL A   1      36.957  32.886  30.909  1.00  0.00     0.058 A 
ATOM     54  C   UNL A   1      35.636  32.448  31.112  1.00  0.00     0.135 A 
ATOM     55  C   UNL A   1      37.155  33.933  29.996  1.00  0.00     0.135 A 
ATOM     56  F   UNL A   1      35.382  31.452  31.976  1.00  0.00    -0.206 F 
ATOM     57  C   UNL A   1      34.565  32.996  30.413  1.00  0.00     0.059 A 
ATOM     58  C   UNL A   1      36.095  34.518  29.304  1.00  0.00     0.059 A 
ATOM     59  F   UNL A   1      38.392  34.403  29.777  1.00  0.00    -0.206 F 
ATOM     60  C   UNL A   1      34.806  34.028  29.507  1.00  0.00     0.060 A 
BRANCH  60  61
ATOM     61  S   UNL A   1      33.399  34.712  28.602  1.00  0.00     0.124 S 
ATOM     62  O   UNL A   1      33.031  33.592  27.743  1.00  0.00    -0.237 OA
ATOM     63  O   UNL A   1      32.466  35.024  29.676  1.00  0.00    -0.237 OA
ATOM     64  O   UNL A   1      33.972  35.868  27.913  1.00  0.00    -0.744 OA
ENDBRANCH  60  61
ENDBRANCH  28  53
BRANCH  40  65
ATOM     65  C   UNL A   1      39.769  33.536  37.293  1.00  0.00     0.058 A 
ATOM     66  C   UNL A   1      40.477  34.725  37.529  1.00  0.00     0.135 A 
ATOM     67  C   UNL A   1      38.835  33.121  38.253  1.00  0.00     0.135 A 
ATOM     68  F   UNL A   1      41.389  35.158  36.643  1.00  0.00    -0.206 F 
ATOM     69  C   UNL A   1      40.292  35.459  38.693  1.00  0.00     0.059 A 
ATOM     70  C   UNL A   1      38.612  33.857  39.412  1.00  0.00     0.059 A 
ATOM     71  F   UNL A   1      38.129  31.994  38.067  1.00  0.00    -0.206 F 
ATOM     72  C   UNL A   1      39.362  35.012  39.633  1.00  0.00     0.060 A 
BRANCH  72  73
ATOM     73  S   UNL A   1      39.149  35.970  41.146  1.00  0.00     0.124 S 
ATOM     74  O   UNL A   1      40.507  35.997  41.677  1.00  0.00    -0.237 OA
ATOM     75  O   UNL A   1      38.640  37.239  40.636  1.00  0.00    -0.237 OA
ATOM     76  O   UNL A   1      38.189  35.181  41.915  1.00  0.00    -0.744 OA
ENDBRANCH  72  73
ENDBRANCH  40  65
ENDBRANCH  14  15
ENDBRANCH   7   9
ENDBRANCH   6   7
ENDBRANCH   5   6
ENDBRANCH   4   5
ENDBRANCH   3   4
ENDBRANCH   2   3
ENDBRANCH   1   2
BRANCH   1  77
ATOM     77  O   UNL A   1      36.033  22.634  26.094  1.00  0.00    -0.377 OA
BRANCH  77  78
ATOM     78  C   UNL A   1      34.926  21.735  26.023  1.00  0.00     0.188 C 
BRANCH  78  79
ATOM     79  C   UNL A   1      34.187  21.479  27.339  1.00  0.00     0.188 C 
BRANCH  79  80
ATOM     80  O   UNL A   1      32.950  22.151  27.374  1.00  0.00    -0.376 OA
BRANCH  80  81
ATOM     81  C   UNL A   1      32.466  22.738  26.171  1.00  0.00     0.202 C 
BRANCH  81  82
ATOM     82  C   UNL A   1      31.233  23.683  26.089  1.00  0.00     0.261 C 
BRANCH  82  83
ATOM     83  O   UNL A   1      30.723  24.037  24.779  1.00  0.00    -0.463 OA
BRANCH  83  84
ATOM     84  C   UNL A   1      31.395  25.007  24.092  1.00  0.00     0.313 C 
ATOM     85  O   UNL A   1      32.264  24.747  23.260  1.00  0.00    -0.252 OA
BRANCH  84  86
ATOM     86  C   UNL A   1      30.961  26.474  24.358  1.00  0.00     0.135 C 
BRANCH  86  87
ATOM     87  C   UNL A   1      31.855  27.205  25.377  1.00  0.00    -0.033 A 
ATOM     88  C   UNL A   1      31.284  27.703  26.565  1.00  0.00     0.007 A 
ATOM     89  C   UNL A   1      33.222  27.451  25.171  1.00  0.00     0.007 A 
ATOM     90  C   UNL A   1      32.000  28.559  27.407  1.00  0.00     0.039 A 
ATOM     91  C   UNL A   1      33.945  28.302  26.012  1.00  0.00     0.039 A 
ATOM     92  C   UNL A   1      33.316  28.876  27.104  1.00  0.00     0.123 A 
ATOM     93  F   UNL A   1      33.984  29.744  27.875  1.00  0.00    -0.207 F 
ENDBRANCH  86  87
BRANCH  86  94
ATOM     94  C   UNL A   1      30.485  27.281  23.100  1.00  0.00     0.076 C 
BRANCH  94  95
ATOM     95  C   UNL A   1      29.468  28.413  23.179  1.00  0.00     0.042 A 
ATOM     96  C   UNL A   1      28.089  28.222  23.095  1.00  0.00     0.024 A 
ATOM     97  N   UNL A   1      29.981  29.657  23.369  1.00  0.00    -0.261 NA
ATOM     98  C   UNL A   1      27.233  29.326  23.064  1.00  0.00     0.003 A 
ATOM     99  C   UNL A   1      29.123  30.706  23.410  1.00  0.00     0.111 A 
ATOM    100  C   UNL A   1      27.757  30.598  23.228  1.00  0.00     0.020 A 
ENDBRANCH  94  95
ENDBRANCH  86  94
ENDBRANCH  84  86
ENDBRANCH  83  84
ENDBRANCH  82  83
ENDBRANCH  81  82
ENDBRANCH  80  81
ENDBRANCH  79  80
ENDBRANCH  78  79
ENDBRANCH  77  78
ENDBRANCH   1  77
TORSDOF 26
ENDMDL
MODEL 3
REMARK VINA RESULT:      -9.2      5.459     11.682
REMARK SMILES O=C(OCCOCCOCCOCCOC(=O)[C@H](Cc1ccccn1)c1ccc(F)cc1)c1ccc(-c2c3nc(c(-c4c(F)cc(S(=O)(=O)[O-])cc4F)c4ccc([nH]4)c(-c4c(F)cc(S(=O)(=O)[O-])cc4F)c4nc(c(-c5c(F)cc(S(=O)(=O)[O-])cc5F)c5ccc2[nH]5)C=C4)C=C3)cc1
REMARK SMILES IDX 8 1 7 2 6 3 5 4 4 5 3 6 2 7 1 8 33 9 34 10 98 11 35 12 97 13
REMARK SMILES IDX 36 14 37 15 38 16 91 17 39 18 96 19 90 20 92 21 40 22 95 23
REMARK SMILES IDX 89 24 88 25 41 27 75 28 54 29 74 30 55 31 58 32 73 33 93 34
REMARK SMILES IDX 56 35 57 36 72 38 94 39 59 40 42 41 43 42 52 43 44 44 45 45
REMARK SMILES IDX 51 46 53 47 46 48 47 49 48 50 49 51 50 52 76 53 77 54 86 55
REMARK SMILES IDX 78 56 79 57 85 58 87 59 80 60 81 61 82 62 83 63 84 64 60 65
REMARK SMILES IDX 61 66 70 67 62 68 63 69 69 70 71 71 64 72 65 73 66 74 67 75
REMARK SMILES IDX 68 76 9 77 10 78 11 79 12 80 13 81 14 82 15 83 16 84 17 85
REMARK SMILES IDX 18 86 26 87 27 88 32 89 28 90 31 91 29 92 30 93 19 94 20 95
REMARK SMILES IDX 21 96 25 97 22 98 24 99 23 100
REMARK H PARENT 92 26 58 37
REMARK Flexibility Score: inf
ROOT
ATOM      1  C   UNL A   1      44.838  19.273  24.551  1.00  0.00     0.188 C 
ENDROOT
BRANCH   1   2
ATOM      2  C   UNL A   1      43.693  19.019  25.513  1.00  0.00     0.188 C 
BRANCH   2   3
ATOM      3  O   UNL A   1      42.610  19.860  25.187  1.00  0.00    -0.376 OA
BRANCH   3   4
ATOM      4  C   UNL A   1      42.216  20.795  26.177  1.00  0.00     0.202 C 
BRANCH   4   5
ATOM      5  C   UNL A   1      40.775  20.459  26.567  1.00  0.00     0.261 C 
BRANCH   5   6
ATOM      6  O   UNL A   1      40.171  21.515  27.345  1.00  0.00    -0.460 OA
BRANCH   6   7
ATOM      7  C   UNL A   1      39.602  22.652  26.857  1.00  0.00     0.338 C 
ATOM      8  O   UNL A   1      38.582  22.552  26.174  1.00  0.00    -0.246 OA
BRANCH   7   9
ATOM      9  C   UNL A   1      40.070  24.037  27.223  1.00  0.00     0.060 A 
ATOM     10  C   UNL A   1      39.793  25.221  26.526  1.00  0.00     0.016 A 
ATOM     11  C   UNL A   1      40.792  24.148  28.424  1.00  0.00     0.016 A 
ATOM     12  C   UNL A   1      40.212  26.464  26.992  1.00  0.00     0.010 A 
ATOM     13  C   UNL A   1      41.250  25.386  28.885  1.00  0.00     0.010 A 
ATOM     14  C   UNL A   1      40.976  26.545  28.151  1.00  0.00    -0.014 A 
BRANCH  14  15
ATOM     15  C   UNL A   1      41.694  27.805  28.415  1.00  0.00     0.031 A 
ATOM     16  C   UNL A   1      40.885  28.940  28.970  1.00  0.00     0.074 A 
ATOM     17  C   UNL A   1      43.030  27.885  28.281  1.00  0.00     0.049 A 
ATOM     18  N   UNL A   1      41.242  30.166  29.228  1.00  0.00    -0.248 NA
ATOM     19  C   UNL A   1      39.476  28.641  29.294  1.00  0.00     0.031 C 
ATOM     20  C   UNL A   1      43.906  26.782  27.883  1.00  0.00     0.029 A 
ATOM     21  N   UNL A   1      43.883  28.937  28.483  1.00  0.00    -0.354 N 
ATOM     22  C   UNL A   1      40.099  30.789  29.718  1.00  0.00     0.074 A 
ATOM     23  C   UNL A   1      39.036  29.815  29.717  1.00  0.00     0.031 C 
ATOM     24  C   UNL A   1      45.177  27.219  27.869  1.00  0.00     0.029 A 
ATOM     25  C   UNL A   1      45.196  28.642  28.199  1.00  0.00     0.049 A 
ATOM     26  H   UNL A   1      43.585  29.820  28.800  1.00  0.00     0.167 HD
ATOM     27  C   UNL A   1      39.962  32.069  30.130  1.00  0.00     0.037 A 
ATOM     28  C   UNL A   1      46.276  29.450  28.179  1.00  0.00     0.037 A 
ATOM     29  C   UNL A   1      41.046  33.011  30.117  1.00  0.00     0.049 A 
ATOM     30  C   UNL A   1      46.076  30.904  28.532  1.00  0.00     0.074 A 
ATOM     31  C   UNL A   1      41.028  34.351  30.451  1.00  0.00     0.029 A 
ATOM     32  N   UNL A   1      42.349  32.701  29.746  1.00  0.00    -0.354 N 
ATOM     33  N   UNL A   1      44.979  31.511  28.927  1.00  0.00    -0.248 NA
ATOM     34  C   UNL A   1      47.244  31.786  28.423  1.00  0.00     0.031 C 
ATOM     35  C   UNL A   1      42.311  34.862  30.234  1.00  0.00     0.029 A 
ATOM     36  C   UNL A   1      43.142  33.828  29.823  1.00  0.00     0.049 A 
ATOM     37  H   UNL A   1      42.660  31.809  29.470  1.00  0.00     0.167 HD
ATOM     38  C   UNL A   1      45.327  32.841  29.129  1.00  0.00     0.074 A 
ATOM     39  C   UNL A   1      46.741  32.947  28.827  1.00  0.00     0.031 C 
ATOM     40  C   UNL A   1      44.553  33.883  29.522  1.00  0.00     0.037 A 
BRANCH  27  41
ATOM     41  C   UNL A   1      38.596  32.521  30.562  1.00  0.00     0.058 A 
ATOM     42  C   UNL A   1      38.209  32.409  31.907  1.00  0.00     0.135 A 
ATOM     43  C   UNL A   1      37.667  33.060  29.656  1.00  0.00     0.135 A 
ATOM     44  F   UNL A   1      39.065  31.924  32.820  1.00  0.00    -0.206 F 
ATOM     45  C   UNL A   1      36.944  32.797  32.335  1.00  0.00     0.059 A 
ATOM     46  C   UNL A   1      36.405  33.480  30.068  1.00  0.00     0.059 A 
ATOM     47  F   UNL A   1      38.001  33.228  28.367  1.00  0.00    -0.206 F 
ATOM     48  C   UNL A   1      36.048  33.330  31.409  1.00  0.00     0.060 A 
BRANCH  48  49
ATOM     49  S   UNL A   1      34.422  33.855  31.991  1.00  0.00     0.124 S 
ATOM     50  O   UNL A   1      34.763  34.963  32.875  1.00  0.00    -0.237 OA
ATOM     51  O   UNL A   1      33.752  34.216  30.744  1.00  0.00    -0.237 OA
ATOM     52  O   UNL A   1      33.896  32.662  32.650  1.00  0.00    -0.744 OA
ENDBRANCH  48  49
ENDBRANCH  27  41
BRANCH  28  53
ATOM     53  C   UNL A   1      47.607  28.916  27.779  1.00  0.00     0.058 A 
ATOM     54  C   UNL A   1      47.932  28.712  26.426  1.00  0.00     0.135 A 
ATOM     55  C   UNL A   1      48.577  28.572  28.733  1.00  0.00     0.135 A 
ATOM     56  F   UNL A   1      47.047  29.026  25.466  1.00  0.00    -0.206 F 
ATOM     57  C   UNL A   1      49.147  28.157  26.038  1.00  0.00     0.059 A 
ATOM     58  C   UNL A   1      49.813  28.040  28.368  1.00  0.00     0.059 A 
ATOM     59  F   UNL A   1      48.329  28.762  30.037  1.00  0.00    -0.206 F 
ATOM     60  C   UNL A   1      50.081  27.820  27.017  1.00  0.00     0.060 A 
BRANCH  60  61
ATOM     61  S   UNL A   1      51.644  27.086  26.487  1.00  0.00     0.124 S 
ATOM     62  O   UNL A   1      51.869  26.090  27.529  1.00  0.00    -0.237 OA
ATOM     63  O   UNL A   1      51.306  26.563  25.169  1.00  0.00    -0.237 OA
ATOM     64  O   UNL A   1      52.568  28.220  26.494  1.00  0.00    -0.744 OA
ENDBRANCH  60  61
ENDBRANCH  28  53
BRANCH  40  65
ATOM     65  C   UNL A   1      45.215  35.223  29.672  1.00  0.00     0.058 A 
ATOM     66  C   UNL A   1      45.662  35.651  30.932  1.00  0.00     0.135 A 
ATOM     67  C   UNL A   1      45.290  36.126  28.602  1.00  0.00     0.135 A 
ATOM     68  F   UNL A   1      45.600  34.826  31.990  1.00  0.00    -0.206 F 
ATOM     69  C   UNL A   1      46.134  36.941  31.132  1.00  0.00     0.059 A 
ATOM     70  C   UNL A   1      45.788  37.413  28.773  1.00  0.00     0.059 A 
ATOM     71  F   UNL A   1      44.881  35.758  27.377  1.00  0.00    -0.206 F 
ATOM     72  C   UNL A   1      46.186  37.818  30.048  1.00  0.00     0.060 A 
BRANCH  72  73
ATOM     73  S   UNL A   1      46.787  39.494  30.332  1.00  0.00     0.124 S 
ATOM     74  O   UNL A   1      47.198  39.432  31.729  1.00  0.00    -0.237 OA
ATOM     75  O   UNL A   1      47.867  39.602  29.356  1.00  0.00    -0.237 OA
ATOM     76  O   UNL A   1      45.618  40.325  30.057  1.00  0.00    -0.744 OA
ENDBRANCH  72  73
ENDBRANCH  40  65
ENDBRANCH  14  15
ENDBRANCH   7   9
ENDBRANCH   6   7
ENDBRANCH   5   6
ENDBRANCH   4   5
ENDBRANCH   3   4
ENDBRANCH   2   3
ENDBRANCH   1   2
BRANCH   1  77
ATOM     77  O   UNL A   1      44.762  20.548  23.909  1.00  0.00    -0.377 OA
BRANCH  77  78
ATOM     78  C   UNL A   1      45.697  21.534  24.347  1.00  0.00     0.188 C 
BRANCH  78  79
ATOM     79  C   UNL A   1      45.426  22.146  25.725  1.00  0.00     0.188 C 
BRANCH  79  80
ATOM     80  O   UNL A   1      46.425  23.075  26.080  1.00  0.00    -0.376 OA
BRANCH  80  81
ATOM     81  C   UNL A   1      46.298  23.760  27.321  1.00  0.00     0.202 C 
BRANCH  81  82
ATOM     82  C   UNL A   1      45.152  23.517  28.345  1.00  0.00     0.261 C 
BRANCH  82  83
ATOM     83  O   UNL A   1      45.292  24.069  29.678  1.00  0.00    -0.463 OA
BRANCH  83  84
ATOM     84  C   UNL A   1      44.238  23.905  30.531  1.00  0.00     0.313 C 
ATOM     85  O   UNL A   1      43.431  22.983  30.417  1.00  0.00    -0.252 OA
BRANCH  84  86
ATOM     86  C   UNL A   1      44.139  24.909  31.712  1.00  0.00     0.135 C 
BRANCH  86  87
ATOM     87  C   UNL A   1      44.270  24.246  33.096  1.00  0.00    -0.033 A 
ATOM     88  C   UNL A   1      44.484  25.053  34.231  1.00  0.00     0.007 A 
ATOM     89  C   UNL A   1      44.233  22.857  33.295  1.00  0.00     0.007 A 
ATOM     90  C   UNL A   1      44.828  24.490  35.463  1.00  0.00     0.039 A 
ATOM     91  C   UNL A   1      44.571  22.287  34.526  1.00  0.00     0.039 A 
ATOM     92  C   UNL A   1      44.900  23.110  35.590  1.00  0.00     0.123 A 
ATOM     93  F   UNL A   1      45.289  22.571  36.753  1.00  0.00    -0.207 F 
ENDBRANCH  86  87
BRANCH  86  94
ATOM     94  C   UNL A   1      44.860  26.285  31.496  1.00  0.00     0.076 C 
BRANCH  94  95
ATOM     95  C   UNL A   1      44.190  27.623  31.785  1.00  0.00     0.042 A 
ATOM     96  C   UNL A   1      42.844  27.759  32.122  1.00  0.00     0.024 A 
ATOM     97  N   UNL A   1      44.998  28.715  31.723  1.00  0.00    -0.261 NA
ATOM     98  C   UNL A   1      42.283  29.031  32.261  1.00  0.00     0.003 A 
ATOM     99  C   UNL A   1      44.445  29.935  31.935  1.00  0.00     0.111 A 
ATOM    100  C   UNL A   1      43.099  30.147  32.168  1.00  0.00     0.020 A 
ENDBRANCH  94  95
ENDBRANCH  86  94
ENDBRANCH  84  86
ENDBRANCH  83  84
ENDBRANCH  82  83
ENDBRANCH  81  82
ENDBRANCH  80  81
ENDBRANCH  79  80
ENDBRANCH  78  79
ENDBRANCH  77  78
ENDBRANCH   1  77
TORSDOF 26
ENDMDL
