MODEL 1
REMARK VINA RESULT:      -7.6      0.000      0.000
REMARK SMILES Cc1cc(C(=O)OCCOCCOCCOCCOC(=O)c2ccc(-c3c4nc(c(-c5c(F)cc(S(=O)(=O)[O-])cc5F)c5ccc([nH]5)c(-c5c(F)cc(S(=O)(=O)[O-])cc5F)c5nc(c(-c6c(F)cc(S(=O)(=O)[O-])cc6F)c6ccc3[nH]6)C=C5)C=C4)cc2)ccc1NCCCC(=O)NC1CC1
REMARK SMILES IDX 11 1 10 2 9 3 8 4 7 5 5 6 6 7 4 8 1 9 2 10 3 11 90 12 89 13
REMARK SMILES IDX 88 14 91 15 92 17 93 18 94 19 95 20 96 21 97 22 98 24 99 25
REMARK SMILES IDX 100 26 12 27 13 28 14 29 15 30 16 31 17 32 18 33 19 34 20 35
REMARK SMILES IDX 21 36 22 37 23 38 87 39 24 40 86 41 25 42 26 43 27 44 80 45
REMARK SMILES IDX 28 46 85 47 79 48 81 49 29 50 84 51 78 52 77 53 30 55 64 56
REMARK SMILES IDX 43 57 63 58 44 59 47 60 62 61 82 62 45 63 46 64 61 66 83 67
REMARK SMILES IDX 48 68 31 69 32 70 41 71 33 72 34 73 40 74 42 75 35 76 36 77
REMARK SMILES IDX 37 78 38 79 39 80 65 81 66 82 75 83 67 84 68 85 74 86 76 87
REMARK SMILES IDX 69 88 70 89 71 90 72 91 73 92 49 93 50 94 59 95 51 96 52 97
REMARK SMILES IDX 58 98 60 99 53 100 54 101 55 102 56 103 57 104
REMARK H PARENT 91 16 97 23 81 54 47 65
REMARK Flexibility Score: inf
ROOT
ATOM      1  C   UNL A   1      34.050  32.966  28.108  1.00  0.00     0.188 C 
ENDROOT
BRANCH   1   2
ATOM      2  O   UNL A   1      34.183  32.330  29.374  1.00  0.00    -0.376 OA
BRANCH   2   3
ATOM      3  C   UNL A   1      35.523  32.031  29.764  1.00  0.00     0.202 C 
BRANCH   3   4
ATOM      4  C   UNL A   1      36.598  32.305  28.718  1.00  0.00     0.261 C 
BRANCH   4   5
ATOM      5  O   UNL A   1      36.516  31.302  27.710  1.00  0.00    -0.460 OA
BRANCH   5   6
ATOM      6  C   UNL A   1      36.224  30.080  28.177  1.00  0.00     0.338 C 
ATOM      7  O   UNL A   1      35.170  29.481  28.106  1.00  0.00    -0.246 OA
BRANCH   6   8
ATOM      8  C   UNL A   1      37.509  29.428  28.459  1.00  0.00     0.060 A 
ATOM      9  C   UNL A   1      38.645  27.440  31.420  1.00  0.00     0.046 C 
ATOM     10  C   UNL A   1      38.716  28.142  30.092  1.00  0.00    -0.027 A 
ATOM     11  C   UNL A   1      37.579  28.837  29.712  1.00  0.00     0.021 A 
ATOM     12  C   UNL A   1      39.819  28.087  29.212  1.00  0.00     0.037 A 
ATOM     13  C   UNL A   1      39.666  28.522  27.893  1.00  0.00     0.027 A 
ATOM     14  C   UNL A   1      38.520  29.219  27.519  1.00  0.00     0.018 A 
BRANCH  12  15
ATOM     15  N   UNL A   1      41.017  27.636  29.713  1.00  0.00    -0.385 N 
ATOM     16  H   UNL A   1      40.970  26.882  30.345  1.00  0.00     0.160 HD
BRANCH  15  17
ATOM     17  C   UNL A   1      42.335  28.142  29.421  1.00  0.00     0.113 C 
BRANCH  17  18
ATOM     18  C   UNL A   1      43.287  26.957  29.224  1.00  0.00     0.031 C 
BRANCH  18  19
ATOM     19  C   UNL A   1      43.772  26.685  27.795  1.00  0.00     0.102 C 
BRANCH  19  20
ATOM     20  C   UNL A   1      44.787  25.593  27.559  1.00  0.00     0.220 C 
ATOM     21  O   UNL A   1      45.988  25.830  27.741  1.00  0.00    -0.275 OA
ATOM     22  N   UNL A   1      44.443  24.314  27.247  1.00  0.00    -0.353 N 
ATOM     23  H   UNL A   1      45.170  23.663  27.373  1.00  0.00     0.163 HD
BRANCH  22  24
ATOM     24  C   UNL A   1      43.230  23.742  26.773  1.00  0.00     0.082 C 
ATOM     25  C   UNL A   1      43.007  23.741  25.272  1.00  0.00     0.027 C 
ATOM     26  C   UNL A   1      43.107  22.453  26.017  1.00  0.00     0.027 C 
ENDBRANCH  22  24
ENDBRANCH  19  20
ENDBRANCH  18  19
ENDBRANCH  17  18
ENDBRANCH  15  17
ENDBRANCH  12  15
ENDBRANCH   6   8
ENDBRANCH   5   6
ENDBRANCH   4   5
ENDBRANCH   3   4
ENDBRANCH   2   3
ENDBRANCH   1   2
BRANCH   1  27
ATOM     27  C   UNL A   1      33.458  34.376  28.089  1.00  0.00     0.188 C 
BRANCH  27  28
ATOM     28  O   UNL A   1      34.381  35.459  28.035  1.00  0.00    -0.377 OA
BRANCH  28  29
ATOM     29  C   UNL A   1      33.974  36.734  28.546  1.00  0.00     0.188 C 
BRANCH  29  30
ATOM     30  C   UNL A   1      32.912  36.738  29.641  1.00  0.00     0.188 C 
BRANCH  30  31
ATOM     31  O   UNL A   1      33.079  37.934  30.415  1.00  0.00    -0.376 OA
BRANCH  31  32
ATOM     32  C   UNL A   1      32.947  37.770  31.820  1.00  0.00     0.202 C 
BRANCH  32  33
ATOM     33  C   UNL A   1      34.239  37.345  32.524  1.00  0.00     0.261 C 
BRANCH  33  34
ATOM     34  O   UNL A   1      33.998  36.270  33.454  1.00  0.00    -0.460 OA
BRANCH  34  35
ATOM     35  C   UNL A   1      33.798  35.045  32.889  1.00  0.00     0.338 C 
ATOM     36  O   UNL A   1      32.760  34.713  32.346  1.00  0.00    -0.246 OA
BRANCH  35  37
ATOM     37  C   UNL A   1      35.051  34.245  32.904  1.00  0.00     0.060 A 
ATOM     38  C   UNL A   1      35.155  33.054  33.635  1.00  0.00     0.016 A 
ATOM     39  C   UNL A   1      36.167  34.734  32.242  1.00  0.00     0.016 A 
ATOM     40  C   UNL A   1      36.411  32.440  33.822  1.00  0.00     0.010 A 
ATOM     41  C   UNL A   1      37.398  34.144  32.458  1.00  0.00     0.010 A 
ATOM     42  C   UNL A   1      37.562  33.024  33.288  1.00  0.00    -0.014 A 
BRANCH  42  43
ATOM     43  C   UNL A   1      38.965  32.712  33.665  1.00  0.00     0.031 A 
ATOM     44  C   UNL A   1      39.881  31.965  32.722  1.00  0.00     0.074 A 
ATOM     45  C   UNL A   1      39.526  33.473  34.644  1.00  0.00     0.049 A 
ATOM     46  N   UNL A   1      41.134  31.727  32.942  1.00  0.00    -0.248 NA
ATOM     47  C   UNL A   1      39.472  31.424  31.421  1.00  0.00     0.031 C 
ATOM     48  C   UNL A   1      40.934  33.853  34.743  1.00  0.00     0.029 A 
ATOM     49  N   UNL A   1      38.971  34.102  35.759  1.00  0.00    -0.354 N 
ATOM     50  C   UNL A   1      41.744  31.452  31.730  1.00  0.00     0.074 A 
ATOM     51  C   UNL A   1      40.649  31.122  30.855  1.00  0.00     0.031 C 
ATOM     52  C   UNL A   1      41.161  34.527  35.878  1.00  0.00     0.029 A 
ATOM     53  C   UNL A   1      39.986  34.343  36.692  1.00  0.00     0.049 A 
ATOM     54  H   UNL A   1      38.022  34.337  35.871  1.00  0.00     0.167 HD
ATOM     55  C   UNL A   1      43.080  31.711  31.564  1.00  0.00     0.037 A 
ATOM     56  C   UNL A   1      40.044  33.796  37.941  1.00  0.00     0.037 A 
ATOM     57  C   UNL A   1      43.735  32.067  32.837  1.00  0.00     0.049 A 
ATOM     58  C   UNL A   1      41.254  32.884  38.055  1.00  0.00     0.074 A 
ATOM     59  C   UNL A   1      44.584  33.082  33.240  1.00  0.00     0.029 A 
ATOM     60  N   UNL A   1      43.446  31.343  33.997  1.00  0.00    -0.354 N 
ATOM     61  N   UNL A   1      41.810  32.337  37.001  1.00  0.00    -0.248 NA
ATOM     62  C   UNL A   1      42.016  32.606  39.272  1.00  0.00     0.031 C 
ATOM     63  C   UNL A   1      44.649  33.070  34.662  1.00  0.00     0.029 A 
ATOM     64  C   UNL A   1      43.950  31.962  35.120  1.00  0.00     0.049 A 
ATOM     65  H   UNL A   1      42.943  30.496  34.010  1.00  0.00     0.167 HD
ATOM     66  C   UNL A   1      43.005  31.778  37.338  1.00  0.00     0.074 A 
ATOM     67  C   UNL A   1      43.057  31.900  38.785  1.00  0.00     0.031 C 
ATOM     68  C   UNL A   1      43.898  31.308  36.419  1.00  0.00     0.037 A 
BRANCH  55  69
ATOM     69  C   UNL A   1      43.806  31.848  30.213  1.00  0.00     0.058 A 
ATOM     70  C   UNL A   1      43.482  32.902  29.321  1.00  0.00     0.135 A 
ATOM     71  C   UNL A   1      44.741  30.927  29.686  1.00  0.00     0.135 A 
ATOM     72  F   UNL A   1      42.610  33.858  29.673  1.00  0.00    -0.206 F 
ATOM     73  C   UNL A   1      44.032  33.029  28.034  1.00  0.00     0.059 A 
ATOM     74  C   UNL A   1      45.351  31.068  28.427  1.00  0.00     0.059 A 
ATOM     75  F   UNL A   1      45.076  29.810  30.347  1.00  0.00    -0.206 F 
ATOM     76  C   UNL A   1      44.977  32.114  27.595  1.00  0.00     0.060 A 
BRANCH  76  77
ATOM     77  S   UNL A   1      45.734  32.317  25.964  1.00  0.00     0.124 S 
ATOM     78  O   UNL A   1      44.585  32.648  25.127  1.00  0.00    -0.237 OA
ATOM     79  O   UNL A   1      46.687  33.400  26.187  1.00  0.00    -0.237 OA
ATOM     80  O   UNL A   1      46.338  31.012  25.705  1.00  0.00    -0.744 OA
ENDBRANCH  76  77
ENDBRANCH  55  69
BRANCH  56  81
ATOM     81  C   UNL A   1      38.741  33.816  38.662  1.00  0.00     0.058 A 
ATOM     82  C   UNL A   1      38.038  32.594  38.614  1.00  0.00     0.135 A 
ATOM     83  C   UNL A   1      38.595  34.593  39.824  1.00  0.00     0.135 A 
ATOM     84  F   UNL A   1      38.086  31.841  37.502  1.00  0.00    -0.206 F 
ATOM     85  C   UNL A   1      37.469  32.035  39.755  1.00  0.00     0.059 A 
ATOM     86  C   UNL A   1      38.026  34.050  40.982  1.00  0.00     0.059 A 
ATOM     87  F   UNL A   1      39.240  35.763  39.935  1.00  0.00    -0.206 F 
ATOM     88  C   UNL A   1      37.551  32.736  40.955  1.00  0.00     0.060 A 
BRANCH  88  89
ATOM     89  S   UNL A   1      37.316  31.807  42.497  1.00  0.00     0.124 S 
ATOM     90  O   UNL A   1      35.883  31.947  42.721  1.00  0.00    -0.237 OA
ATOM     91  O   UNL A   1      37.780  30.473  42.122  1.00  0.00    -0.237 OA
ATOM     92  O   UNL A   1      38.179  32.513  43.435  1.00  0.00    -0.744 OA
ENDBRANCH  88  89
ENDBRANCH  56  81
BRANCH  68  93
ATOM     93  C   UNL A   1      44.857  30.175  36.680  1.00  0.00     0.058 A 
ATOM     94  C   UNL A   1      46.198  30.400  37.031  1.00  0.00     0.135 A 
ATOM     95  C   UNL A   1      44.390  28.846  36.843  1.00  0.00     0.135 A 
ATOM     96  F   UNL A   1      46.732  31.629  37.009  1.00  0.00    -0.206 F 
ATOM     97  C   UNL A   1      47.029  29.376  37.476  1.00  0.00     0.059 A 
ATOM     98  C   UNL A   1      45.190  27.821  37.334  1.00  0.00     0.059 A 
ATOM     99  F   UNL A   1      43.127  28.499  36.561  1.00  0.00    -0.206 F 
ATOM    100  C   UNL A   1      46.517  28.091  37.628  1.00  0.00     0.060 A 
BRANCH 100 101
ATOM    101  S   UNL A   1      47.586  26.788  38.251  1.00  0.00     0.124 S 
ATOM    102  O   UNL A   1      48.649  27.567  38.880  1.00  0.00    -0.237 OA
ATOM    103  O   UNL A   1      46.708  26.065  39.168  1.00  0.00    -0.237 OA
ATOM    104  O   UNL A   1      47.965  26.053  37.049  1.00  0.00    -0.744 OA
ENDBRANCH 100 101
ENDBRANCH  68  93
ENDBRANCH  42  43
ENDBRANCH  35  37
ENDBRANCH  34  35
ENDBRANCH  33  34
ENDBRANCH  32  33
ENDBRANCH  31  32
ENDBRANCH  30  31
ENDBRANCH  29  30
ENDBRANCH  28  29
ENDBRANCH  27  28
ENDBRANCH   1  27
TORSDOF 29
ENDMDL
MODEL 2
REMARK VINA RESULT:      -7.6      4.032      4.890
REMARK SMILES Cc1cc(C(=O)OCCOCCOCCOCCOC(=O)c2ccc(-c3c4nc(c(-c5c(F)cc(S(=O)(=O)[O-])cc5F)c5ccc([nH]5)c(-c5c(F)cc(S(=O)(=O)[O-])cc5F)c5nc(c(-c6c(F)cc(S(=O)(=O)[O-])cc6F)c6ccc3[nH]6)C=C5)C=C4)cc2)ccc1NCCCC(=O)NC1CC1
REMARK SMILES IDX 11 1 10 2 9 3 8 4 7 5 5 6 6 7 4 8 1 9 2 10 3 11 90 12 89 13
REMARK SMILES IDX 88 14 91 15 92 17 93 18 94 19 95 20 96 21 97 22 98 24 99 25
REMARK SMILES IDX 100 26 12 27 13 28 14 29 15 30 16 31 17 32 18 33 19 34 20 35
REMARK SMILES IDX 21 36 22 37 23 38 87 39 24 40 86 41 25 42 26 43 27 44 80 45
REMARK SMILES IDX 28 46 85 47 79 48 81 49 29 50 84 51 78 52 77 53 30 55 64 56
REMARK SMILES IDX 43 57 63 58 44 59 47 60 62 61 82 62 45 63 46 64 61 66 83 67
REMARK SMILES IDX 48 68 31 69 32 70 41 71 33 72 34 73 40 74 42 75 35 76 36 77
REMARK SMILES IDX 37 78 38 79 39 80 65 81 66 82 75 83 67 84 68 85 74 86 76 87
REMARK SMILES IDX 69 88 70 89 71 90 72 91 73 92 49 93 50 94 59 95 51 96 52 97
REMARK SMILES IDX 58 98 60 99 53 100 54 101 55 102 56 103 57 104
REMARK H PARENT 91 16 97 23 81 54 47 65
REMARK Flexibility Score: inf
ROOT
ATOM      1  C   UNL A   1      36.095  32.135  27.970  1.00  0.00     0.188 C 
ENDROOT
BRANCH   1   2
ATOM      2  O   UNL A   1      35.450  30.897  28.242  1.00  0.00    -0.376 OA
BRANCH   2   3
ATOM      3  C   UNL A   1      34.042  30.882  28.003  1.00  0.00     0.202 C 
BRANCH   3   4
ATOM      4  C   UNL A   1      33.605  30.393  26.626  1.00  0.00     0.261 C 
BRANCH   4   5
ATOM      5  O   UNL A   1      32.854  29.194  26.788  1.00  0.00    -0.460 OA
BRANCH   5   6
ATOM      6  C   UNL A   1      32.344  28.711  25.646  1.00  0.00     0.338 C 
ATOM      7  O   UNL A   1      32.272  29.260  24.565  1.00  0.00    -0.246 OA
BRANCH   6   8
ATOM      8  C   UNL A   1      32.227  27.259  25.828  1.00  0.00     0.060 A 
ATOM      9  C   UNL A   1      34.840  24.579  25.847  1.00  0.00     0.046 C 
ATOM     10  C   UNL A   1      33.474  25.204  25.895  1.00  0.00    -0.027 A 
ATOM     11  C   UNL A   1      33.427  26.576  25.698  1.00  0.00     0.021 A 
ATOM     12  C   UNL A   1      32.280  24.507  26.178  1.00  0.00     0.037 A 
ATOM     13  C   UNL A   1      31.122  25.225  26.489  1.00  0.00     0.027 A 
ATOM     14  C   UNL A   1      31.084  26.603  26.289  1.00  0.00     0.018 A 
BRANCH  12  15
ATOM     15  N   UNL A   1      32.304  23.135  26.097  1.00  0.00    -0.385 N 
ATOM     16  H   UNL A   1      32.802  22.664  26.805  1.00  0.00     0.160 HD
BRANCH  15  17
ATOM     17  C   UNL A   1      31.687  22.305  25.093  1.00  0.00     0.113 C 
BRANCH  17  18
ATOM     18  C   UNL A   1      32.572  22.298  23.842  1.00  0.00     0.031 C 
BRANCH  18  19
ATOM     19  C   UNL A   1      33.492  21.086  23.648  1.00  0.00     0.102 C 
BRANCH  19  20
ATOM     20  C   UNL A   1      33.836  20.227  24.841  1.00  0.00     0.220 C 
ATOM     21  O   UNL A   1      33.021  19.386  25.239  1.00  0.00    -0.275 OA
ATOM     22  N   UNL A   1      35.051  20.258  25.452  1.00  0.00    -0.353 N 
ATOM     23  H   UNL A   1      35.224  19.484  26.036  1.00  0.00     0.163 HD
BRANCH  22  24
ATOM     24  C   UNL A   1      36.117  21.199  25.408  1.00  0.00     0.082 C 
ATOM     25  C   UNL A   1      37.452  20.707  24.883  1.00  0.00     0.027 C 
ATOM     26  C   UNL A   1      36.715  21.785  24.164  1.00  0.00     0.027 C 
ENDBRANCH  22  24
ENDBRANCH  19  20
ENDBRANCH  18  19
ENDBRANCH  17  18
ENDBRANCH  15  17
ENDBRANCH  12  15
ENDBRANCH   6   8
ENDBRANCH   5   6
ENDBRANCH   4   5
ENDBRANCH   3   4
ENDBRANCH   2   3
ENDBRANCH   1   2
BRANCH   1  27
ATOM     27  C   UNL A   1      35.491  33.394  28.595  1.00  0.00     0.188 C 
BRANCH  27  28
ATOM     28  O   UNL A   1      34.836  34.298  27.711  1.00  0.00    -0.377 OA
BRANCH  28  29
ATOM     29  C   UNL A   1      33.858  35.197  28.249  1.00  0.00     0.188 C 
BRANCH  29  30
ATOM     30  C   UNL A   1      33.302  34.873  29.632  1.00  0.00     0.188 C 
BRANCH  30  31
ATOM     31  O   UNL A   1      32.528  35.997  30.072  1.00  0.00    -0.376 OA
BRANCH  31  32
ATOM     32  C   UNL A   1      32.527  36.221  31.475  1.00  0.00     0.202 C 
BRANCH  32  33
ATOM     33  C   UNL A   1      33.923  36.361  32.087  1.00  0.00     0.261 C 
BRANCH  33  34
ATOM     34  O   UNL A   1      34.037  35.600  33.307  1.00  0.00    -0.460 OA
BRANCH  34  35
ATOM     35  C   UNL A   1      34.239  34.262  33.143  1.00  0.00     0.338 C 
ATOM     36  O   UNL A   1      33.347  33.469  32.902  1.00  0.00    -0.246 OA
BRANCH  35  37
ATOM     37  C   UNL A   1      35.690  33.940  33.155  1.00  0.00     0.060 A 
ATOM     38  C   UNL A   1      36.215  32.936  33.980  1.00  0.00     0.016 A 
ATOM     39  C   UNL A   1      36.554  34.710  32.390  1.00  0.00     0.016 A 
ATOM     40  C   UNL A   1      37.609  32.806  34.146  1.00  0.00     0.010 A 
ATOM     41  C   UNL A   1      37.918  34.598  32.585  1.00  0.00     0.010 A 
ATOM     42  C   UNL A   1      38.476  33.690  33.499  1.00  0.00    -0.014 A 
BRANCH  42  43
ATOM     43  C   UNL A   1      39.910  33.912  33.820  1.00  0.00     0.031 A 
ATOM     44  C   UNL A   1      41.005  33.359  32.936  1.00  0.00     0.074 A 
ATOM     45  C   UNL A   1      40.205  34.961  34.634  1.00  0.00     0.049 A 
ATOM     46  N   UNL A   1      42.270  33.576  33.103  1.00  0.00    -0.248 NA
ATOM     47  C   UNL A   1      40.776  32.511  31.761  1.00  0.00     0.031 C 
ATOM     48  C   UNL A   1      41.411  35.787  34.580  1.00  0.00     0.029 A 
ATOM     49  N   UNL A   1      39.493  35.550  35.681  1.00  0.00    -0.354 N 
ATOM     50  C   UNL A   1      42.916  33.320  31.905  1.00  0.00     0.074 A 
ATOM     51  C   UNL A   1      41.977  32.517  31.166  1.00  0.00     0.031 C 
ATOM     52  C   UNL A   1      41.422  36.672  35.584  1.00  0.00     0.029 A 
ATOM     53  C   UNL A   1      40.387  36.253  36.495  1.00  0.00     0.049 A 
ATOM     54  H   UNL A   1      38.521  35.482  35.822  1.00  0.00     0.167 HD
ATOM     55  C   UNL A   1      44.089  33.966  31.611  1.00  0.00     0.037 A 
ATOM     56  C   UNL A   1      40.643  35.965  37.804  1.00  0.00     0.037 A 
ATOM     57  C   UNL A   1      44.612  34.715  32.769  1.00  0.00     0.049 A 
ATOM     58  C   UNL A   1      42.088  35.523  37.968  1.00  0.00     0.074 A 
ATOM     59  C   UNL A   1      45.085  36.001  32.958  1.00  0.00     0.029 A 
ATOM     60  N   UNL A   1      44.596  34.135  34.041  1.00  0.00    -0.354 N 
ATOM     61  N   UNL A   1      42.775  35.021  36.971  1.00  0.00    -0.248 NA
ATOM     62  C   UNL A   1      42.918  35.706  39.157  1.00  0.00     0.031 C 
ATOM     63  C   UNL A   1      45.175  36.241  34.359  1.00  0.00     0.029 A 
ATOM     64  C   UNL A   1      44.887  35.057  35.022  1.00  0.00     0.049 A 
ATOM     65  H   UNL A   1      44.401  33.185  34.214  1.00  0.00     0.167 HD
ATOM     66  C   UNL A   1      44.093  34.940  37.303  1.00  0.00     0.074 A 
ATOM     67  C   UNL A   1      44.126  35.305  38.709  1.00  0.00     0.031 C 
ATOM     68  C   UNL A   1      45.076  34.640  36.405  1.00  0.00     0.037 A 
BRANCH  55  69
ATOM     69  C   UNL A   1      44.707  34.108  30.208  1.00  0.00     0.058 A 
ATOM     70  C   UNL A   1      44.032  34.829  29.190  1.00  0.00     0.135 A 
ATOM     71  C   UNL A   1      45.893  33.477  29.764  1.00  0.00     0.135 A 
ATOM     72  F   UNL A   1      42.892  35.485  29.452  1.00  0.00    -0.206 F 
ATOM     73  C   UNL A   1      44.488  34.916  27.864  1.00  0.00     0.059 A 
ATOM     74  C   UNL A   1      46.401  33.601  28.459  1.00  0.00     0.059 A 
ATOM     75  F   UNL A   1      46.596  32.663  30.563  1.00  0.00    -0.206 F 
ATOM     76  C   UNL A   1      45.683  34.307  27.505  1.00  0.00     0.060 A 
BRANCH  76  77
ATOM     77  S   UNL A   1      46.303  34.476  25.813  1.00  0.00     0.124 S 
ATOM     78  O   UNL A   1      45.212  33.913  25.025  1.00  0.00    -0.237 OA
ATOM     79  O   UNL A   1      46.498  35.917  25.687  1.00  0.00    -0.237 OA
ATOM     80  O   UNL A   1      47.535  33.689  25.824  1.00  0.00    -0.744 OA
ENDBRANCH  76  77
ENDBRANCH  55  69
BRANCH  56  81
ATOM     81  C   UNL A   1      39.418  35.680  38.602  1.00  0.00     0.058 A 
ATOM     82  C   UNL A   1      39.258  34.321  38.947  1.00  0.00     0.135 A 
ATOM     83  C   UNL A   1      38.942  36.632  39.520  1.00  0.00     0.135 A 
ATOM     84  F   UNL A   1      39.634  33.365  38.080  1.00  0.00    -0.206 F 
ATOM     85  C   UNL A   1      38.924  33.931  40.241  1.00  0.00     0.059 A 
ATOM     86  C   UNL A   1      38.601  36.261  40.826  1.00  0.00     0.059 A 
ATOM     87  F   UNL A   1      39.068  37.940  39.255  1.00  0.00    -0.206 F 
ATOM     88  C   UNL A   1      38.687  34.916  41.196  1.00  0.00     0.060 A 
BRANCH  88  89
ATOM     89  S   UNL A   1      38.794  34.445  42.945  1.00  0.00     0.124 S 
ATOM     90  O   UNL A   1      40.232  34.311  43.136  1.00  0.00    -0.237 OA
ATOM     91  O   UNL A   1      38.162  35.585  43.607  1.00  0.00    -0.237 OA
ATOM     92  O   UNL A   1      38.027  33.207  42.994  1.00  0.00    -0.744 OA
ENDBRANCH  88  89
ENDBRANCH  56  81
BRANCH  68  93
ATOM     93  C   UNL A   1      46.358  33.935  36.763  1.00  0.00     0.058 A 
ATOM     94  C   UNL A   1      47.552  34.636  37.003  1.00  0.00     0.135 A 
ATOM     95  C   UNL A   1      46.361  32.566  37.132  1.00  0.00     0.135 A 
ATOM     96  F   UNL A   1      47.646  35.954  36.783  1.00  0.00    -0.206 F 
ATOM     97  C   UNL A   1      48.679  34.018  37.536  1.00  0.00     0.059 A 
ATOM     98  C   UNL A   1      47.459  31.944  37.713  1.00  0.00     0.059 A 
ATOM     99  F   UNL A   1      45.281  31.788  36.974  1.00  0.00    -0.206 F 
ATOM    100  C   UNL A   1      48.624  32.674  37.892  1.00  0.00     0.060 A 
BRANCH 100 101
ATOM    101  S   UNL A   1      50.070  31.899  38.625  1.00  0.00     0.124 S 
ATOM    102  O   UNL A   1      51.133  32.789  38.168  1.00  0.00    -0.237 OA
ATOM    103  O   UNL A   1      49.773  31.956  40.055  1.00  0.00    -0.237 OA
ATOM    104  O   UNL A   1      50.071  30.561  38.046  1.00  0.00    -0.744 OA
ENDBRANCH 100 101
ENDBRANCH  68  93
ENDBRANCH  42  43
ENDBRANCH  35  37
ENDBRANCH  34  35
ENDBRANCH  33  34
ENDBRANCH  32  33
ENDBRANCH  31  32
ENDBRANCH  30  31
ENDBRANCH  29  30
ENDBRANCH  28  29
ENDBRANCH  27  28
ENDBRANCH   1  27
TORSDOF 29
ENDMDL
MODEL 3
REMARK VINA RESULT:      -7.4      3.929      8.514
REMARK SMILES Cc1cc(C(=O)OCCOCCOCCOCCOC(=O)c2ccc(-c3c4nc(c(-c5c(F)cc(S(=O)(=O)[O-])cc5F)c5ccc([nH]5)c(-c5c(F)cc(S(=O)(=O)[O-])cc5F)c5nc(c(-c6c(F)cc(S(=O)(=O)[O-])cc6F)c6ccc3[nH]6)C=C5)C=C4)cc2)ccc1NCCCC(=O)NC1CC1
REMARK SMILES IDX 11 1 10 2 9 3 8 4 7 5 5 6 6 7 4 8 1 9 2 10 3 11 90 12 89 13
REMARK SMILES IDX 88 14 91 15 92 17 93 18 94 19 95 20 96 21 97 22 98 24 99 25
REMARK SMILES IDX 100 26 12 27 13 28 14 29 15 30 16 31 17 32 18 33 19 34 20 35
REMARK SMILES IDX 21 36 22 37 23 38 87 39 24 40 86 41 25 42 26 43 27 44 80 45
REMARK SMILES IDX 28 46 85 47 79 48 81 49 29 50 84 51 78 52 77 53 30 55 64 56
REMARK SMILES IDX 43 57 63 58 44 59 47 60 62 61 82 62 45 63 46 64 61 66 83 67
REMARK SMILES IDX 48 68 31 69 32 70 41 71 33 72 34 73 40 74 42 75 35 76 36 77
REMARK SMILES IDX 37 78 38 79 39 80 65 81 66 82 75 83 67 84 68 85 74 86 76 87
REMARK SMILES IDX 69 88 70 89 71 90 72 91 73 92 49 93 50 94 59 95 51 96 52 97
REMARK SMILES IDX 58 98 60 99 53 100 54 101 55 102 56 103 57 104
REMARK H PARENT 91 16 97 23 81 54 47 65
REMARK Flexibility Score: inf
ROOT
ATOM      1  C   UNL A   1      33.800  32.152  27.533  1.00  0.00     0.188 C 
ENDROOT
BRANCH   1   2
ATOM      2  O   UNL A   1      34.418  31.281  28.473  1.00  0.00    -0.376 OA
BRANCH   2   3
ATOM      3  C   UNL A   1      35.759  30.903  28.158  1.00  0.00     0.202 C 
BRANCH   3   4
ATOM      4  C   UNL A   1      36.117  29.444  28.414  1.00  0.00     0.261 C 
BRANCH   4   5
ATOM      5  O   UNL A   1      36.657  29.333  29.728  1.00  0.00    -0.460 OA
BRANCH   5   6
ATOM      6  C   UNL A   1      37.926  29.754  29.835  1.00  0.00     0.338 C 
ATOM      7  O   UNL A   1      38.370  30.624  30.557  1.00  0.00    -0.246 OA
BRANCH   6   8
ATOM      8  C   UNL A   1      38.757  28.722  29.202  1.00  0.00     0.060 A 
ATOM      9  C   UNL A   1      40.934  28.863  26.160  1.00  0.00     0.046 C 
ATOM     10  C   UNL A   1      40.228  28.279  27.352  1.00  0.00    -0.027 A 
ATOM     11  C   UNL A   1      39.372  29.135  28.029  1.00  0.00     0.021 A 
ATOM     12  C   UNL A   1      40.424  26.970  27.842  1.00  0.00     0.037 A 
ATOM     13  C   UNL A   1      39.950  26.634  29.113  1.00  0.00     0.027 A 
ATOM     14  C   UNL A   1      39.092  27.500  29.787  1.00  0.00     0.018 A 
BRANCH  12  15
ATOM     15  N   UNL A   1      41.048  26.064  27.017  1.00  0.00    -0.385 N 
ATOM     16  H   UNL A   1      42.032  26.082  27.015  1.00  0.00     0.160 HD
BRANCH  15  17
ATOM     17  C   UNL A   1      40.426  25.091  26.154  1.00  0.00     0.113 C 
BRANCH  17  18
ATOM     18  C   UNL A   1      39.397  24.295  26.965  1.00  0.00     0.031 C 
BRANCH  18  19
ATOM     19  C   UNL A   1      38.071  23.964  26.270  1.00  0.00     0.102 C 
BRANCH  19  20
ATOM     20  C   UNL A   1      37.816  22.549  25.810  1.00  0.00     0.220 C 
ATOM     21  O   UNL A   1      38.748  21.735  25.805  1.00  0.00    -0.275 OA
ATOM     22  N   UNL A   1      36.579  22.084  25.489  1.00  0.00    -0.353 N 
ATOM     23  H   UNL A   1      36.517  21.102  25.457  1.00  0.00     0.163 HD
BRANCH  22  24
ATOM     24  C   UNL A   1      35.358  22.751  25.190  1.00  0.00     0.082 C 
ATOM     25  C   UNL A   1      34.451  22.102  24.162  1.00  0.00     0.027 C 
ATOM     26  C   UNL A   1      33.987  22.276  25.568  1.00  0.00     0.027 C 
ENDBRANCH  22  24
ENDBRANCH  19  20
ENDBRANCH  18  19
ENDBRANCH  17  18
ENDBRANCH  15  17
ENDBRANCH  12  15
ENDBRANCH   6   8
ENDBRANCH   5   6
ENDBRANCH   4   5
ENDBRANCH   3   4
ENDBRANCH   2   3
ENDBRANCH   1   2
BRANCH   1  27
ATOM     27  C   UNL A   1      33.353  33.525  28.037  1.00  0.00     0.188 C 
BRANCH  27  28
ATOM     28  O   UNL A   1      34.317  34.572  27.989  1.00  0.00    -0.377 OA
BRANCH  28  29
ATOM     29  C   UNL A   1      34.064  35.773  28.727  1.00  0.00     0.188 C 
BRANCH  29  30
ATOM     30  C   UNL A   1      32.841  35.785  29.638  1.00  0.00     0.188 C 
BRANCH  30  31
ATOM     31  O   UNL A   1      33.053  36.778  30.651  1.00  0.00    -0.376 OA
BRANCH  31  32
ATOM     32  C   UNL A   1      33.025  36.297  31.987  1.00  0.00     0.202 C 
BRANCH  32  33
ATOM     33  C   UNL A   1      34.382  35.808  32.504  1.00  0.00     0.261 C 
BRANCH  33  34
ATOM     34  O   UNL A   1      34.280  34.484  33.067  1.00  0.00    -0.460 OA
BRANCH  34  35
ATOM     35  C   UNL A   1      34.749  33.478  32.276  1.00  0.00     0.338 C 
ATOM     36  O   UNL A   1      34.132  33.016  31.333  1.00  0.00    -0.246 OA
BRANCH  35  37
ATOM     37  C   UNL A   1      36.151  33.134  32.632  1.00  0.00     0.060 A 
ATOM     38  C   UNL A   1      36.459  32.403  33.788  1.00  0.00     0.016 A 
ATOM     39  C   UNL A   1      37.182  33.620  31.842  1.00  0.00     0.016 A 
ATOM     40  C   UNL A   1      37.795  32.290  34.224  1.00  0.00     0.010 A 
ATOM     41  C   UNL A   1      38.485  33.532  32.296  1.00  0.00     0.010 A 
ATOM     42  C   UNL A   1      38.820  32.920  33.513  1.00  0.00    -0.014 A 
BRANCH  42  43
ATOM     43  C   UNL A   1      40.197  33.187  34.002  1.00  0.00     0.031 A 
ATOM     44  C   UNL A   1      40.530  34.461  34.746  1.00  0.00     0.074 A 
ATOM     45  C   UNL A   1      41.015  32.112  34.162  1.00  0.00     0.049 A 
ATOM     46  N   UNL A   1      41.682  34.730  35.272  1.00  0.00    -0.248 NA
ATOM     47  C   UNL A   1      39.583  35.556  34.984  1.00  0.00     0.031 C 
ATOM     48  C   UNL A   1      42.061  31.963  35.174  1.00  0.00     0.029 A 
ATOM     49  N   UNL A   1      41.091  30.896  33.480  1.00  0.00    -0.354 N 
ATOM     50  C   UNL A   1      41.503  35.716  36.227  1.00  0.00     0.074 A 
ATOM     51  C   UNL A   1      40.229  36.297  35.896  1.00  0.00     0.031 C 
ATOM     52  C   UNL A   1      42.737  30.823  34.989  1.00  0.00     0.029 A 
ATOM     53  C   UNL A   1      42.360  30.344  33.683  1.00  0.00     0.049 A 
ATOM     54  H   UNL A   1      40.369  30.494  32.944  1.00  0.00     0.167 HD
ATOM     55  C   UNL A   1      42.366  35.802  37.289  1.00  0.00     0.037 A 
ATOM     56  C   UNL A   1      43.278  30.116  32.699  1.00  0.00     0.037 A 
ATOM     57  C   UNL A   1      43.532  34.913  37.126  1.00  0.00     0.049 A 
ATOM     58  C   UNL A   1      44.503  30.990  32.915  1.00  0.00     0.074 A 
ATOM     59  C   UNL A   1      44.168  33.989  37.936  1.00  0.00     0.029 A 
ATOM     60  N   UNL A   1      44.175  34.824  35.888  1.00  0.00    -0.354 N 
ATOM     61  N   UNL A   1      44.444  32.105  33.603  1.00  0.00    -0.248 NA
ATOM     62  C   UNL A   1      45.874  30.669  32.526  1.00  0.00     0.031 C 
ATOM     63  C   UNL A   1      45.060  33.229  37.128  1.00  0.00     0.029 A 
ATOM     64  C   UNL A   1      45.070  33.778  35.854  1.00  0.00     0.049 A 
ATOM     65  H   UNL A   1      44.008  35.435  35.133  1.00  0.00     0.167 HD
ATOM     66  C   UNL A   1      45.699  32.564  33.860  1.00  0.00     0.074 A 
ATOM     67  C   UNL A   1      46.563  31.678  33.099  1.00  0.00     0.031 C 
ATOM     68  C   UNL A   1      45.961  33.594  34.717  1.00  0.00     0.037 A 
BRANCH  55  69
ATOM     69  C   UNL A   1      42.093  36.544  38.610  1.00  0.00     0.058 A 
ATOM     70  C   UNL A   1      41.006  36.167  39.440  1.00  0.00     0.135 A 
ATOM     71  C   UNL A   1      42.781  37.693  39.064  1.00  0.00     0.135 A 
ATOM     72  F   UNL A   1      40.254  35.097  39.145  1.00  0.00    -0.206 F 
ATOM     73  C   UNL A   1      40.639  36.861  40.605  1.00  0.00     0.059 A 
ATOM     74  C   UNL A   1      42.470  38.367  40.259  1.00  0.00     0.059 A 
ATOM     75  F   UNL A   1      43.761  38.255  38.344  1.00  0.00    -0.206 F 
ATOM     76  C   UNL A   1      41.384  37.957  41.018  1.00  0.00     0.060 A 
BRANCH  76  77
ATOM     77  S   UNL A   1      40.951  38.809  42.555  1.00  0.00     0.124 S 
ATOM     78  O   UNL A   1      41.774  40.012  42.485  1.00  0.00    -0.237 OA
ATOM     79  O   UNL A   1      39.513  39.015  42.412  1.00  0.00    -0.237 OA
ATOM     80  O   UNL A   1      41.333  37.853  43.592  1.00  0.00    -0.744 OA
ENDBRANCH  76  77
ENDBRANCH  55  69
BRANCH  56  81
ATOM     81  C   UNL A   1      42.699  29.502  31.473  1.00  0.00     0.058 A 
ATOM     82  C   UNL A   1      42.595  30.386  30.378  1.00  0.00     0.135 A 
ATOM     83  C   UNL A   1      42.949  28.150  31.180  1.00  0.00     0.135 A 
ATOM     84  F   UNL A   1      42.290  31.678  30.593  1.00  0.00    -0.206 F 
ATOM     85  C   UNL A   1      43.008  30.018  29.102  1.00  0.00     0.059 A 
ATOM     86  C   UNL A   1      43.366  27.759  29.902  1.00  0.00     0.059 A 
ATOM     87  F   UNL A   1      43.063  27.258  32.175  1.00  0.00    -0.206 F 
ATOM     88  C   UNL A   1      43.478  28.723  28.898  1.00  0.00     0.060 A 
BRANCH  88  89
ATOM     89  S   UNL A   1      44.499  28.413  27.429  1.00  0.00     0.124 S 
ATOM     90  O   UNL A   1      45.821  28.225  28.012  1.00  0.00    -0.237 OA
ATOM     91  O   UNL A   1      43.870  27.219  26.868  1.00  0.00    -0.237 OA
ATOM     92  O   UNL A   1      44.315  29.627  26.645  1.00  0.00    -0.744 OA
ENDBRANCH  88  89
ENDBRANCH  56  81
BRANCH  68  93
ATOM     93  C   UNL A   1      47.132  34.530  34.577  1.00  0.00     0.058 A 
ATOM     94  C   UNL A   1      48.435  34.154  34.946  1.00  0.00     0.135 A 
ATOM     95  C   UNL A   1      47.025  35.728  33.826  1.00  0.00     0.135 A 
ATOM     96  F   UNL A   1      48.678  32.997  35.578  1.00  0.00    -0.206 F 
ATOM     97  C   UNL A   1      49.548  34.927  34.628  1.00  0.00     0.059 A 
ATOM     98  C   UNL A   1      48.129  36.486  33.455  1.00  0.00     0.059 A 
ATOM     99  F   UNL A   1      45.843  36.190  33.396  1.00  0.00    -0.206 F 
ATOM    100  C   UNL A   1      49.387  36.088  33.879  1.00  0.00     0.060 A 
BRANCH 100 101
ATOM    101  S   UNL A   1      50.836  37.052  33.430  1.00  0.00     0.124 S 
ATOM    102  O   UNL A   1      51.514  37.162  34.718  1.00  0.00    -0.237 OA
ATOM    103  O   UNL A   1      51.494  36.199  32.443  1.00  0.00    -0.237 OA
ATOM    104  O   UNL A   1      50.273  38.289  32.902  1.00  0.00    -0.744 OA
ENDBRANCH 100 101
ENDBRANCH  68  93
ENDBRANCH  42  43
ENDBRANCH  35  37
ENDBRANCH  34  35
ENDBRANCH  33  34
ENDBRANCH  32  33
ENDBRANCH  31  32
ENDBRANCH  30  31
ENDBRANCH  29  30
ENDBRANCH  28  29
ENDBRANCH  27  28
ENDBRANCH   1  27
TORSDOF 29
ENDMDL
