MODEL 1
REMARK VINA RESULT:      -9.3      0.000      0.000
REMARK SMILES Cc1ccc(F)cc1NC(=O)c1nn(C)cc1C(=O)OCCOCCOCCOCCOC(=O)c1ccc(-c2c3nc(c(-c4c(F)cc(S(=O)(=O)[O-])cc4F)c4ccc([nH]4)c(-c4c(F)cc(S(=O)(=O)[O-])cc4F)c4nc(c(-c5c(F)cc(S(=O)(=O)[O-])cc5F)c5ccc2[nH]5)C=C4)C=C3)cc1
REMARK SMILES IDX 27 1 26 2 25 3 24 4 23 5 22 6 21 7 20 8 18 9 19 10 17 11
REMARK SMILES IDX 12 12 13 13 14 14 16 15 15 16 10 17 9 18 11 20 8 21 1 22
REMARK SMILES IDX 2 23 3 24 4 25 7 26 5 27 6 28 28 29 29 30 30 31 31 32 32 33
REMARK SMILES IDX 33 34 34 35 35 36 36 37 100 38 37 39 99 40 38 41 39 42 40 43
REMARK SMILES IDX 93 44 41 45 98 46 92 47 94 48 42 49 97 50 91 51 90 52 43 54
REMARK SMILES IDX 77 55 56 56 76 57 57 58 60 59 75 60 95 61 58 62 59 63 74 65
REMARK SMILES IDX 96 66 61 67 44 68 45 69 54 70 46 71 47 72 53 73 55 74 48 75
REMARK SMILES IDX 49 76 50 77 51 78 52 79 78 80 79 81 88 82 80 83 81 84 87 85
REMARK SMILES IDX 89 86 82 87 83 88 84 89 85 90 86 91 62 92 63 93 72 94 64 95
REMARK SMILES IDX 65 96 71 97 73 98 66 99 67 100 68 101 69 102 70 103
REMARK H PARENT 9 19 94 53 60 64
REMARK Flexibility Score: inf
ROOT
ATOM      1  C   UNL A   1      34.445  34.577  30.168  1.00  0.00     0.188 C 
ENDROOT
BRANCH   1   2
ATOM      2  O   UNL A   1      34.117  33.757  29.051  1.00  0.00    -0.377 OA
BRANCH   2   3
ATOM      3  C   UNL A   1      34.459  32.389  29.150  1.00  0.00     0.188 C 
BRANCH   3   4
ATOM      4  C   UNL A   1      34.691  31.710  27.793  1.00  0.00     0.188 C 
BRANCH   4   5
ATOM      5  O   UNL A   1      35.698  30.717  27.682  1.00  0.00    -0.376 OA
BRANCH   5   6
ATOM      6  C   UNL A   1      35.301  29.394  27.329  1.00  0.00     0.202 C 
BRANCH   6   7
ATOM      7  C   UNL A   1      33.800  29.088  27.194  1.00  0.00     0.261 C 
BRANCH   7   8
ATOM      8  O   UNL A   1      33.437  27.707  26.972  1.00  0.00    -0.460 OA
BRANCH   8   9
ATOM      9  C   UNL A   1      32.107  27.466  26.753  1.00  0.00     0.342 C 
ATOM     10  O   UNL A   1      31.204  27.877  27.470  1.00  0.00    -0.246 OA
BRANCH   9  11
ATOM     11  C   UNL A   1      31.837  26.693  25.558  1.00  0.00     0.111 A 
ATOM     12  C   UNL A   1      32.075  27.065  24.196  1.00  0.00     0.165 A 
ATOM     13  N   UNL A   1      31.489  26.189  23.353  1.00  0.00    -0.167 NA
ATOM     14  N   UNL A   1      31.072  25.192  24.150  1.00  0.00    -0.274 N 
ATOM     15  C   UNL A   1      31.258  25.439  25.476  1.00  0.00     0.125 A 
ATOM     16  C   UNL A   1      30.534  23.999  23.542  1.00  0.00     0.173 C 
BRANCH  12  17
ATOM     17  C   UNL A   1      32.875  28.190  23.681  1.00  0.00     0.277 C 
ATOM     18  N   UNL A   1      32.243  29.363  23.265  1.00  0.00    -0.320 N 
ATOM     19  H   UNL A   1      32.847  30.045  22.891  1.00  0.00     0.170 HD
ATOM     20  O   UNL A   1      34.096  28.115  23.537  1.00  0.00    -0.267 OA
BRANCH  18  21
ATOM     21  C   UNL A   1      30.882  29.733  23.292  1.00  0.00     0.047 A 
ATOM     22  C   UNL A   1      31.162  30.927  25.568  1.00  0.00     0.046 C 
ATOM     23  C   UNL A   1      30.385  30.527  24.343  1.00  0.00    -0.027 A 
ATOM     24  C   UNL A   1      29.131  31.138  24.176  1.00  0.00     0.008 A 
ATOM     25  C   UNL A   1      28.400  30.964  23.004  1.00  0.00     0.039 A 
ATOM     26  C   UNL A   1      30.016  29.389  22.251  1.00  0.00     0.065 A 
ATOM     27  C   UNL A   1      28.824  30.055  22.067  1.00  0.00     0.125 A 
ATOM     28  F   UNL A   1      28.107  29.855  20.953  1.00  0.00    -0.207 F 
ENDBRANCH  18  21
ENDBRANCH  12  17
ENDBRANCH   9  11
ENDBRANCH   8   9
ENDBRANCH   7   8
ENDBRANCH   6   7
ENDBRANCH   5   6
ENDBRANCH   4   5
ENDBRANCH   3   4
ENDBRANCH   2   3
ENDBRANCH   1   2
BRANCH   1  29
ATOM     29  C   UNL A   1      33.984  33.978  31.502  1.00  0.00     0.188 C 
BRANCH  29  30
ATOM     30  O   UNL A   1      34.983  34.215  32.501  1.00  0.00    -0.376 OA
BRANCH  30  31
ATOM     31  C   UNL A   1      35.391  33.077  33.260  1.00  0.00     0.202 C 
BRANCH  31  32
ATOM     32  C   UNL A   1      35.621  31.816  32.411  1.00  0.00     0.261 C 
BRANCH  32  33
ATOM     33  O   UNL A   1      36.983  31.640  32.019  1.00  0.00    -0.460 OA
BRANCH  33  34
ATOM     34  C   UNL A   1      37.203  30.489  31.357  1.00  0.00     0.338 C 
ATOM     35  O   UNL A   1      36.374  29.651  31.030  1.00  0.00    -0.246 OA
BRANCH  34  36
ATOM     36  C   UNL A   1      38.593  30.472  30.916  1.00  0.00     0.060 A 
ATOM     37  C   UNL A   1      38.847  30.432  29.541  1.00  0.00     0.016 A 
ATOM     38  C   UNL A   1      39.619  30.409  31.860  1.00  0.00     0.016 A 
ATOM     39  C   UNL A   1      40.143  30.249  29.096  1.00  0.00     0.010 A 
ATOM     40  C   UNL A   1      40.916  30.200  31.416  1.00  0.00     0.010 A 
ATOM     41  C   UNL A   1      41.159  30.064  30.039  1.00  0.00    -0.014 A 
BRANCH  41  42
ATOM     42  C   UNL A   1      42.435  29.486  29.597  1.00  0.00     0.031 A 
ATOM     43  C   UNL A   1      43.635  30.385  29.569  1.00  0.00     0.074 A 
ATOM     44  C   UNL A   1      42.493  28.195  29.246  1.00  0.00     0.049 A 
ATOM     45  N   UNL A   1      44.836  30.145  29.127  1.00  0.00    -0.248 NA
ATOM     46  C   UNL A   1      43.448  31.747  30.104  1.00  0.00     0.031 C 
ATOM     47  C   UNL A   1      41.370  27.259  29.296  1.00  0.00     0.029 A 
ATOM     48  N   UNL A   1      43.534  27.459  28.760  1.00  0.00    -0.354 N 
ATOM     49  C   UNL A   1      45.548  31.321  29.323  1.00  0.00     0.074 A 
ATOM     50  C   UNL A   1      44.635  32.289  29.887  1.00  0.00     0.031 C 
ATOM     51  C   UNL A   1      41.778  26.071  28.820  1.00  0.00     0.029 A 
ATOM     52  C   UNL A   1      43.173  26.186  28.400  1.00  0.00     0.049 A 
ATOM     53  H   UNL A   1      44.452  27.807  28.676  1.00  0.00     0.167 HD
ATOM     54  C   UNL A   1      46.853  31.561  29.059  1.00  0.00     0.037 A 
ATOM     55  C   UNL A   1      43.886  25.243  27.760  1.00  0.00     0.037 A 
ATOM     56  C   UNL A   1      47.723  30.575  28.475  1.00  0.00     0.049 A 
ATOM     57  C   UNL A   1      45.315  25.552  27.403  1.00  0.00     0.074 A 
ATOM     58  C   UNL A   1      49.062  30.686  28.152  1.00  0.00     0.029 A 
ATOM     59  N   UNL A   1      47.327  29.292  28.115  1.00  0.00    -0.354 N 
ATOM     60  N   UNL A   1      45.993  26.660  27.602  1.00  0.00    -0.248 NA
ATOM     61  C   UNL A   1      46.078  24.487  26.744  1.00  0.00     0.031 C 
ATOM     62  C   UNL A   1      49.459  29.490  27.544  1.00  0.00     0.029 A 
ATOM     63  C   UNL A   1      48.387  28.609  27.547  1.00  0.00     0.049 A 
ATOM     64  H   UNL A   1      46.423  28.923  28.244  1.00  0.00     0.167 HD
ATOM     65  C   UNL A   1      47.270  26.421  27.110  1.00  0.00     0.074 A 
ATOM     66  C   UNL A   1      47.271  25.055  26.621  1.00  0.00     0.031 C 
ATOM     67  C   UNL A   1      48.345  27.248  27.066  1.00  0.00     0.037 A 
BRANCH  54  68
ATOM     68  C   UNL A   1      47.383  32.936  29.360  1.00  0.00     0.058 A 
ATOM     69  C   UNL A   1      47.955  33.255  30.604  1.00  0.00     0.135 A 
ATOM     70  C   UNL A   1      47.306  33.957  28.399  1.00  0.00     0.135 A 
ATOM     71  F   UNL A   1      48.033  32.328  31.571  1.00  0.00    -0.206 F 
ATOM     72  C   UNL A   1      48.396  34.542  30.895  1.00  0.00     0.059 A 
ATOM     73  C   UNL A   1      47.772  35.243  28.657  1.00  0.00     0.059 A 
ATOM     74  F   UNL A   1      46.762  33.714  27.197  1.00  0.00    -0.206 F 
ATOM     75  C   UNL A   1      48.299  35.531  29.915  1.00  0.00     0.060 A 
BRANCH  75  76
ATOM     76  S   UNL A   1      48.862  37.199  30.313  1.00  0.00     0.124 S 
ATOM     77  O   UNL A   1      48.182  37.440  31.583  1.00  0.00    -0.237 OA
ATOM     78  O   UNL A   1      50.309  37.027  30.394  1.00  0.00    -0.237 OA
ATOM     79  O   UNL A   1      48.389  37.997  29.188  1.00  0.00    -0.744 OA
ENDBRANCH  75  76
ENDBRANCH  54  68
BRANCH  55  80
ATOM     80  C   UNL A   1      43.242  23.954  27.409  1.00  0.00     0.058 A 
ATOM     81  C   UNL A   1      43.215  22.885  28.315  1.00  0.00     0.135 A 
ATOM     82  C   UNL A   1      42.586  23.787  26.178  1.00  0.00     0.135 A 
ATOM     83  F   UNL A   1      43.828  22.996  29.502  1.00  0.00    -0.206 F 
ATOM     84  C   UNL A   1      42.564  21.693  28.012  1.00  0.00     0.059 A 
ATOM     85  C   UNL A   1      41.906  22.617  25.864  1.00  0.00     0.059 A 
ATOM     86  F   UNL A   1      42.565  24.789  25.285  1.00  0.00    -0.206 F 
ATOM     87  C   UNL A   1      41.905  21.572  26.787  1.00  0.00     0.060 A 
BRANCH  87  88
ATOM     88  S   UNL A   1      41.006  20.046  26.435  1.00  0.00     0.124 S 
ATOM     89  O   UNL A   1      41.914  19.377  25.511  1.00  0.00    -0.237 OA
ATOM     90  O   UNL A   1      40.889  19.451  27.762  1.00  0.00    -0.237 OA
ATOM     91  O   UNL A   1      39.752  20.521  25.857  1.00  0.00    -0.744 OA
ENDBRANCH  87  88
ENDBRANCH  55  80
BRANCH  67  92
ATOM     92  C   UNL A   1      49.615  26.686  26.491  1.00  0.00     0.058 A 
ATOM     93  C   UNL A   1      50.014  26.962  25.174  1.00  0.00     0.135 A 
ATOM     94  C   UNL A   1      50.473  25.912  27.290  1.00  0.00     0.135 A 
ATOM     95  F   UNL A   1      49.225  27.691  24.368  1.00  0.00    -0.206 F 
ATOM     96  C   UNL A   1      51.208  26.471  24.661  1.00  0.00     0.059 A 
ATOM     97  C   UNL A   1      51.687  25.440  26.808  1.00  0.00     0.059 A 
ATOM     98  F   UNL A   1      50.142  25.629  28.561  1.00  0.00    -0.206 F 
ATOM     99  C   UNL A   1      52.041  25.715  25.489  1.00  0.00     0.060 A 
BRANCH  99 100
ATOM    100  S   UNL A   1      53.608  25.119  24.821  1.00  0.00     0.124 S 
ATOM    101  O   UNL A   1      53.633  23.745  25.311  1.00  0.00    -0.237 OA
ATOM    102  O   UNL A   1      53.412  25.278  23.384  1.00  0.00    -0.237 OA
ATOM    103  O   UNL A   1      54.595  26.015  25.417  1.00  0.00    -0.744 OA
ENDBRANCH  99 100
ENDBRANCH  67  92
ENDBRANCH  41  42
ENDBRANCH  34  36
ENDBRANCH  33  34
ENDBRANCH  32  33
ENDBRANCH  31  32
ENDBRANCH  30  31
ENDBRANCH  29  30
ENDBRANCH   1  29
TORSDOF 25
ENDMDL
MODEL 2
REMARK VINA RESULT:      -9.2      1.631      8.333
REMARK SMILES Cc1ccc(F)cc1NC(=O)c1nn(C)cc1C(=O)OCCOCCOCCOCCOC(=O)c1ccc(-c2c3nc(c(-c4c(F)cc(S(=O)(=O)[O-])cc4F)c4ccc([nH]4)c(-c4c(F)cc(S(=O)(=O)[O-])cc4F)c4nc(c(-c5c(F)cc(S(=O)(=O)[O-])cc5F)c5ccc2[nH]5)C=C4)C=C3)cc1
REMARK SMILES IDX 27 1 26 2 25 3 24 4 23 5 22 6 21 7 20 8 18 9 19 10 17 11
REMARK SMILES IDX 12 12 13 13 14 14 16 15 15 16 10 17 9 18 11 20 8 21 1 22
REMARK SMILES IDX 2 23 3 24 4 25 7 26 5 27 6 28 28 29 29 30 30 31 31 32 32 33
REMARK SMILES IDX 33 34 34 35 35 36 36 37 100 38 37 39 99 40 38 41 39 42 40 43
REMARK SMILES IDX 93 44 41 45 98 46 92 47 94 48 42 49 97 50 91 51 90 52 43 54
REMARK SMILES IDX 77 55 56 56 76 57 57 58 60 59 75 60 95 61 58 62 59 63 74 65
REMARK SMILES IDX 96 66 61 67 44 68 45 69 54 70 46 71 47 72 53 73 55 74 48 75
REMARK SMILES IDX 49 76 50 77 51 78 52 79 78 80 79 81 88 82 80 83 81 84 87 85
REMARK SMILES IDX 89 86 82 87 83 88 84 89 85 90 86 91 62 92 63 93 72 94 64 95
REMARK SMILES IDX 65 96 71 97 73 98 66 99 67 100 68 101 69 102 70 103
REMARK H PARENT 9 19 94 53 60 64
REMARK Flexibility Score: inf
ROOT
ATOM      1  C   UNL A   1      34.007  34.825  31.286  1.00  0.00     0.188 C 
ENDROOT
BRANCH   1   2
ATOM      2  O   UNL A   1      33.546  34.326  30.035  1.00  0.00    -0.377 OA
BRANCH   2   3
ATOM      3  C   UNL A   1      34.456  33.536  29.297  1.00  0.00     0.188 C 
BRANCH   3   4
ATOM      4  C   UNL A   1      33.845  32.900  28.040  1.00  0.00     0.188 C 
BRANCH   4   5
ATOM      5  O   UNL A   1      34.468  31.758  27.474  1.00  0.00    -0.376 OA
BRANCH   5   6
ATOM      6  C   UNL A   1      33.849  30.489  27.674  1.00  0.00     0.202 C 
BRANCH   6   7
ATOM      7  C   UNL A   1      34.155  29.356  26.681  1.00  0.00     0.261 C 
BRANCH   7   8
ATOM      8  O   UNL A   1      33.029  28.789  25.975  1.00  0.00    -0.460 OA
BRANCH   8   9
ATOM      9  C   UNL A   1      33.301  27.697  25.194  1.00  0.00     0.342 C 
ATOM     10  O   UNL A   1      34.412  27.202  25.061  1.00  0.00    -0.246 OA
BRANCH   9  11
ATOM     11  C   UNL A   1      32.135  27.135  24.542  1.00  0.00     0.111 A 
ATOM     12  C   UNL A   1      32.094  26.285  23.391  1.00  0.00     0.165 A 
ATOM     13  N   UNL A   1      30.829  26.151  22.941  1.00  0.00    -0.167 NA
ATOM     14  N   UNL A   1      30.077  26.727  23.894  1.00  0.00    -0.274 N 
ATOM     15  C   UNL A   1      30.806  27.327  24.876  1.00  0.00     0.125 A 
ATOM     16  C   UNL A   1      28.641  26.617  23.804  1.00  0.00     0.173 C 
BRANCH  12  17
ATOM     17  C   UNL A   1      33.206  25.569  22.742  1.00  0.00     0.277 C 
ATOM     18  N   UNL A   1      33.730  24.415  23.328  1.00  0.00    -0.320 N 
ATOM     19  H   UNL A   1      34.501  24.027  22.855  1.00  0.00     0.170 HD
ATOM     20  O   UNL A   1      33.749  25.989  21.720  1.00  0.00    -0.267 OA
BRANCH  18  21
ATOM     21  C   UNL A   1      33.337  23.714  24.488  1.00  0.00     0.047 A 
ATOM     22  C   UNL A   1      35.657  24.047  25.579  1.00  0.00     0.046 C 
ATOM     23  C   UNL A   1      34.221  23.598  25.577  1.00  0.00    -0.027 A 
ATOM     24  C   UNL A   1      33.697  23.186  26.814  1.00  0.00     0.008 A 
ATOM     25  C   UNL A   1      32.342  22.904  26.960  1.00  0.00     0.039 A 
ATOM     26  C   UNL A   1      32.050  23.187  24.616  1.00  0.00     0.065 A 
ATOM     27  C   UNL A   1      31.534  22.861  25.852  1.00  0.00     0.125 A 
ATOM     28  F   UNL A   1      30.236  22.554  25.978  1.00  0.00    -0.207 F 
ENDBRANCH  18  21
ENDBRANCH  12  17
ENDBRANCH   9  11
ENDBRANCH   8   9
ENDBRANCH   7   8
ENDBRANCH   6   7
ENDBRANCH   5   6
ENDBRANCH   4   5
ENDBRANCH   3   4
ENDBRANCH   2   3
ENDBRANCH   1   2
BRANCH   1  29
ATOM     29  C   UNL A   1      35.447  34.404  31.602  1.00  0.00     0.188 C 
BRANCH  29  30
ATOM     30  O   UNL A   1      35.458  33.596  32.784  1.00  0.00    -0.376 OA
BRANCH  30  31
ATOM     31  C   UNL A   1      35.152  32.215  32.600  1.00  0.00     0.202 C 
BRANCH  31  32
ATOM     32  C   UNL A   1      36.317  31.393  32.025  1.00  0.00     0.261 C 
BRANCH  32  33
ATOM     33  O   UNL A   1      37.482  31.411  32.850  1.00  0.00    -0.460 OA
BRANCH  33  34
ATOM     34  C   UNL A   1      38.475  32.176  32.355  1.00  0.00     0.338 C 
ATOM     35  O   UNL A   1      38.699  33.353  32.606  1.00  0.00    -0.246 OA
BRANCH  34  36
ATOM     36  C   UNL A   1      39.375  31.321  31.592  1.00  0.00     0.060 A 
ATOM     37  C   UNL A   1      40.283  30.523  32.298  1.00  0.00     0.016 A 
ATOM     38  C   UNL A   1      39.374  31.382  30.197  1.00  0.00     0.016 A 
ATOM     39  C   UNL A   1      41.258  29.830  31.606  1.00  0.00     0.010 A 
ATOM     40  C   UNL A   1      40.366  30.706  29.504  1.00  0.00     0.010 A 
ATOM     41  C   UNL A   1      41.336  29.983  30.218  1.00  0.00    -0.014 A 
BRANCH  41  42
ATOM     42  C   UNL A   1      42.572  29.585  29.533  1.00  0.00     0.031 A 
ATOM     43  C   UNL A   1      42.647  28.193  28.982  1.00  0.00     0.074 A 
ATOM     44  C   UNL A   1      43.577  30.462  29.414  1.00  0.00     0.049 A 
ATOM     45  N   UNL A   1      43.653  27.574  28.432  1.00  0.00    -0.248 NA
ATOM     46  C   UNL A   1      41.417  27.382  29.075  1.00  0.00     0.031 C 
ATOM     47  C   UNL A   1      43.547  31.845  29.890  1.00  0.00     0.029 A 
ATOM     48  N   UNL A   1      44.822  30.309  28.876  1.00  0.00    -0.354 N 
ATOM     49  C   UNL A   1      43.186  26.305  28.119  1.00  0.00     0.074 A 
ATOM     50  C   UNL A   1      41.817  26.225  28.575  1.00  0.00     0.031 C 
ATOM     51  C   UNL A   1      44.742  32.409  29.652  1.00  0.00     0.029 A 
ATOM     52  C   UNL A   1      45.622  31.410  29.048  1.00  0.00     0.049 A 
ATOM     53  H   UNL A   1      45.116  29.492  28.413  1.00  0.00     0.167 HD
ATOM     54  C   UNL A   1      43.847  25.302  27.497  1.00  0.00     0.037 A 
ATOM     55  C   UNL A   1      46.931  31.566  28.783  1.00  0.00     0.037 A 
ATOM     56  C   UNL A   1      45.219  25.416  27.077  1.00  0.00     0.049 A 
ATOM     57  C   UNL A   1      47.673  30.414  28.162  1.00  0.00     0.074 A 
ATOM     58  C   UNL A   1      46.009  24.479  26.441  1.00  0.00     0.029 A 
ATOM     59  N   UNL A   1      46.008  26.545  27.269  1.00  0.00    -0.354 N 
ATOM     60  N   UNL A   1      47.227  29.218  27.851  1.00  0.00    -0.248 NA
ATOM     61  C   UNL A   1      49.088  30.632  27.847  1.00  0.00     0.031 C 
ATOM     62  C   UNL A   1      47.292  25.020  26.301  1.00  0.00     0.029 A 
ATOM     63  C   UNL A   1      47.285  26.319  26.789  1.00  0.00     0.049 A 
ATOM     64  H   UNL A   1      45.702  27.383  27.687  1.00  0.00     0.167 HD
ATOM     65  C   UNL A   1      48.301  28.543  27.286  1.00  0.00     0.074 A 
ATOM     66  C   UNL A   1      49.414  29.475  27.283  1.00  0.00     0.031 C 
ATOM     67  C   UNL A   1      48.368  27.274  26.811  1.00  0.00     0.037 A 
BRANCH  54  68
ATOM     68  C   UNL A   1      43.108  24.010  27.280  1.00  0.00     0.058 A 
ATOM     69  C   UNL A   1      43.000  23.038  28.290  1.00  0.00     0.135 A 
ATOM     70  C   UNL A   1      42.511  23.729  26.041  1.00  0.00     0.135 A 
ATOM     71  F   UNL A   1      43.573  23.239  29.487  1.00  0.00    -0.206 F 
ATOM     72  C   UNL A   1      42.360  21.823  28.067  1.00  0.00     0.059 A 
ATOM     73  C   UNL A   1      41.837  22.534  25.806  1.00  0.00     0.059 A 
ATOM     74  F   UNL A   1      42.589  24.615  25.037  1.00  0.00    -0.206 F 
ATOM     75  C   UNL A   1      41.783  21.578  26.820  1.00  0.00     0.060 A 
BRANCH  75  76
ATOM     76  S   UNL A   1      40.970  19.991  26.542  1.00  0.00     0.124 S 
ATOM     77  O   UNL A   1      39.714  20.411  25.927  1.00  0.00    -0.237 OA
ATOM     78  O   UNL A   1      41.910  19.311  25.658  1.00  0.00    -0.237 OA
ATOM     79  O   UNL A   1      40.853  19.428  27.883  1.00  0.00    -0.744 OA
ENDBRANCH  75  76
ENDBRANCH  54  68
BRANCH  55  80
ATOM     80  C   UNL A   1      47.598  32.844  29.132  1.00  0.00     0.058 A 
ATOM     81  C   UNL A   1      48.190  33.037  30.388  1.00  0.00     0.135 A 
ATOM     82  C   UNL A   1      47.708  33.881  28.191  1.00  0.00     0.135 A 
ATOM     83  F   UNL A   1      48.110  32.077  31.320  1.00  0.00    -0.206 F 
ATOM     84  C   UNL A   1      48.864  34.213  30.700  1.00  0.00     0.059 A 
ATOM     85  C   UNL A   1      48.400  35.053  28.469  1.00  0.00     0.059 A 
ATOM     86  F   UNL A   1      47.176  33.737  26.965  1.00  0.00    -0.206 F 
ATOM     87  C   UNL A   1      48.971  35.212  29.731  1.00  0.00     0.060 A 
BRANCH  87  88
ATOM     88  S   UNL A   1      49.908  36.704  30.126  1.00  0.00     0.124 S 
ATOM     89  O   UNL A   1      49.602  36.875  31.541  1.00  0.00    -0.237 OA
ATOM     90  O   UNL A   1      51.273  36.296  29.810  1.00  0.00    -0.237 OA
ATOM     91  O   UNL A   1      49.338  37.706  29.230  1.00  0.00    -0.744 OA
ENDBRANCH  87  88
ENDBRANCH  55  80
BRANCH  67  92
ATOM     92  C   UNL A   1      49.681  26.832  26.227  1.00  0.00     0.058 A 
ATOM     93  C   UNL A   1      50.009  27.070  24.883  1.00  0.00     0.135 A 
ATOM     94  C   UNL A   1      50.648  26.220  27.042  1.00  0.00     0.135 A 
ATOM     95  F   UNL A   1      49.116  27.646  24.062  1.00  0.00    -0.206 F 
ATOM     96  C   UNL A   1      51.240  26.694  24.361  1.00  0.00     0.059 A 
ATOM     97  C   UNL A   1      51.898  25.867  26.549  1.00  0.00     0.059 A 
ATOM     98  F   UNL A   1      50.388  25.981  28.338  1.00  0.00    -0.206 F 
ATOM     99  C   UNL A   1      52.181  26.097  25.204  1.00  0.00     0.060 A 
BRANCH  99 100
ATOM    100  S   UNL A   1      53.790  25.652  24.520  1.00  0.00     0.124 S 
ATOM    101  O   UNL A   1      54.694  26.405  25.381  1.00  0.00    -0.237 OA
ATOM    102  O   UNL A   1      53.808  24.203  24.692  1.00  0.00    -0.237 OA
ATOM    103  O   UNL A   1      53.711  26.112  23.137  1.00  0.00    -0.744 OA
ENDBRANCH  99 100
ENDBRANCH  67  92
ENDBRANCH  41  42
ENDBRANCH  34  36
ENDBRANCH  33  34
ENDBRANCH  32  33
ENDBRANCH  31  32
ENDBRANCH  30  31
ENDBRANCH  29  30
ENDBRANCH   1  29
TORSDOF 25
ENDMDL
MODEL 3
REMARK VINA RESULT:      -8.7      5.411      7.860
REMARK SMILES Cc1ccc(F)cc1NC(=O)c1nn(C)cc1C(=O)OCCOCCOCCOCCOC(=O)c1ccc(-c2c3nc(c(-c4c(F)cc(S(=O)(=O)[O-])cc4F)c4ccc([nH]4)c(-c4c(F)cc(S(=O)(=O)[O-])cc4F)c4nc(c(-c5c(F)cc(S(=O)(=O)[O-])cc5F)c5ccc2[nH]5)C=C4)C=C3)cc1
REMARK SMILES IDX 27 1 26 2 25 3 24 4 23 5 22 6 21 7 20 8 18 9 19 10 17 11
REMARK SMILES IDX 12 12 13 13 14 14 16 15 15 16 10 17 9 18 11 20 8 21 1 22
REMARK SMILES IDX 2 23 3 24 4 25 7 26 5 27 6 28 28 29 29 30 30 31 31 32 32 33
REMARK SMILES IDX 33 34 34 35 35 36 36 37 100 38 37 39 99 40 38 41 39 42 40 43
REMARK SMILES IDX 93 44 41 45 98 46 92 47 94 48 42 49 97 50 91 51 90 52 43 54
REMARK SMILES IDX 77 55 56 56 76 57 57 58 60 59 75 60 95 61 58 62 59 63 74 65
REMARK SMILES IDX 96 66 61 67 44 68 45 69 54 70 46 71 47 72 53 73 55 74 48 75
REMARK SMILES IDX 49 76 50 77 51 78 52 79 78 80 79 81 88 82 80 83 81 84 87 85
REMARK SMILES IDX 89 86 82 87 83 88 84 89 85 90 86 91 62 92 63 93 72 94 64 95
REMARK SMILES IDX 65 96 71 97 73 98 66 99 67 100 68 101 69 102 70 103
REMARK H PARENT 9 19 94 53 60 64
REMARK Flexibility Score: inf
ROOT
ATOM      1  C   UNL A   1      34.334  34.408  29.333  1.00  0.00     0.188 C 
ENDROOT
BRANCH   1   2
ATOM      2  O   UNL A   1      35.610  34.255  28.720  1.00  0.00    -0.377 OA
BRANCH   2   3
ATOM      3  C   UNL A   1      35.748  33.183  27.810  1.00  0.00     0.188 C 
BRANCH   3   4
ATOM      4  C   UNL A   1      36.350  31.915  28.434  1.00  0.00     0.188 C 
BRANCH   4   5
ATOM      5  O   UNL A   1      36.401  30.726  27.663  1.00  0.00    -0.376 OA
BRANCH   5   6
ATOM      6  C   UNL A   1      35.680  29.590  28.133  1.00  0.00     0.202 C 
BRANCH   6   7
ATOM      7  C   UNL A   1      34.294  29.298  27.535  1.00  0.00     0.261 C 
BRANCH   7   8
ATOM      8  O   UNL A   1      34.239  28.331  26.463  1.00  0.00    -0.460 OA
BRANCH   8   9
ATOM      9  C   UNL A   1      33.263  28.534  25.524  1.00  0.00     0.342 C 
ATOM     10  O   UNL A   1      33.181  29.530  24.817  1.00  0.00    -0.246 OA
BRANCH   9  11
ATOM     11  C   UNL A   1      32.326  27.436  25.403  1.00  0.00     0.111 A 
ATOM     12  C   UNL A   1      32.069  26.619  24.255  1.00  0.00     0.165 A 
ATOM     13  N   UNL A   1      30.975  25.853  24.450  1.00  0.00    -0.167 NA
ATOM     14  N   UNL A   1      30.674  26.030  25.747  1.00  0.00    -0.274 N 
ATOM     15  C   UNL A   1      31.452  26.962  26.365  1.00  0.00     0.125 A 
ATOM     16  C   UNL A   1      29.634  25.219  26.334  1.00  0.00     0.173 C 
BRANCH  12  17
ATOM     17  C   UNL A   1      32.853  26.515  23.012  1.00  0.00     0.277 C 
ATOM     18  N   UNL A   1      33.806  25.505  22.870  1.00  0.00    -0.320 N 
ATOM     19  H   UNL A   1      34.317  25.537  22.029  1.00  0.00     0.170 HD
ATOM     20  O   UNL A   1      32.749  27.337  22.101  1.00  0.00    -0.267 OA
BRANCH  18  21
ATOM     21  C   UNL A   1      34.158  24.447  23.734  1.00  0.00     0.047 A 
ATOM     22  C   UNL A   1      32.989  22.708  22.218  1.00  0.00     0.046 C 
ATOM     23  C   UNL A   1      33.833  23.119  23.394  1.00  0.00    -0.027 A 
ATOM     24  C   UNL A   1      34.468  22.081  24.096  1.00  0.00     0.008 A 
ATOM     25  C   UNL A   1      35.396  22.356  25.097  1.00  0.00     0.039 A 
ATOM     26  C   UNL A   1      34.896  24.673  24.897  1.00  0.00     0.065 A 
ATOM     27  C   UNL A   1      35.571  23.649  25.524  1.00  0.00     0.125 A 
ATOM     28  F   UNL A   1      36.434  23.918  26.512  1.00  0.00    -0.207 F 
ENDBRANCH  18  21
ENDBRANCH  12  17
ENDBRANCH   9  11
ENDBRANCH   8   9
ENDBRANCH   7   8
ENDBRANCH   6   7
ENDBRANCH   5   6
ENDBRANCH   4   5
ENDBRANCH   3   4
ENDBRANCH   2   3
ENDBRANCH   1   2
BRANCH   1  29
ATOM     29  C   UNL A   1      33.589  35.659  28.852  1.00  0.00     0.188 C 
BRANCH  29  30
ATOM     30  O   UNL A   1      32.483  35.918  29.724  1.00  0.00    -0.376 OA
BRANCH  30  31
ATOM     31  C   UNL A   1      32.794  36.583  30.948  1.00  0.00     0.202 C 
BRANCH  31  32
ATOM     32  C   UNL A   1      32.287  35.847  32.199  1.00  0.00     0.261 C 
BRANCH  32  33
ATOM     33  O   UNL A   1      33.208  34.874  32.694  1.00  0.00    -0.460 OA
BRANCH  33  34
ATOM     34  C   UNL A   1      34.255  35.415  33.346  1.00  0.00     0.338 C 
ATOM     35  O   UNL A   1      34.237  36.358  34.126  1.00  0.00    -0.246 OA
BRANCH  34  36
ATOM     36  C   UNL A   1      35.422  34.571  33.117  1.00  0.00     0.060 A 
ATOM     37  C   UNL A   1      35.511  33.365  33.820  1.00  0.00     0.016 A 
ATOM     38  C   UNL A   1      36.449  35.019  32.284  1.00  0.00     0.016 A 
ATOM     39  C   UNL A   1      36.677  32.625  33.752  1.00  0.00     0.010 A 
ATOM     40  C   UNL A   1      37.627  34.290  32.234  1.00  0.00     0.010 A 
ATOM     41  C   UNL A   1      37.753  33.129  33.014  1.00  0.00    -0.014 A 
BRANCH  41  42
ATOM     42  C   UNL A   1      39.091  32.573  33.250  1.00  0.00     0.031 A 
ATOM     43  C   UNL A   1      39.808  32.986  34.500  1.00  0.00     0.074 A 
ATOM     44  C   UNL A   1      39.621  31.720  32.363  1.00  0.00     0.049 A 
ATOM     45  N   UNL A   1      41.024  32.719  34.882  1.00  0.00    -0.248 NA
ATOM     46  C   UNL A   1      39.050  33.829  35.444  1.00  0.00     0.031 C 
ATOM     47  C   UNL A   1      38.954  31.244  31.152  1.00  0.00     0.029 A 
ATOM     48  N   UNL A   1      40.848  31.123  32.338  1.00  0.00    -0.354 N 
ATOM     49  C   UNL A   1      41.182  33.361  36.103  1.00  0.00     0.074 A 
ATOM     50  C   UNL A   1      39.952  34.066  36.381  1.00  0.00     0.031 C 
ATOM     51  C   UNL A   1      39.801  30.449  30.477  1.00  0.00     0.029 A 
ATOM     52  C   UNL A   1      41.073  30.401  31.195  1.00  0.00     0.049 A 
ATOM     53  H   UNL A   1      41.505  31.203  33.068  1.00  0.00     0.167 HD
ATOM     54  C   UNL A   1      42.262  33.351  36.917  1.00  0.00     0.037 A 
ATOM     55  C   UNL A   1      42.201  29.809  30.765  1.00  0.00     0.037 A 
ATOM     56  C   UNL A   1      43.477  32.653  36.591  1.00  0.00     0.049 A 
ATOM     57  C   UNL A   1      43.418  29.872  31.647  1.00  0.00     0.074 A 
ATOM     58  C   UNL A   1      44.646  32.563  37.322  1.00  0.00     0.029 A 
ATOM     59  N   UNL A   1      43.679  31.931  35.419  1.00  0.00    -0.354 N 
ATOM     60  N   UNL A   1      43.563  30.467  32.809  1.00  0.00    -0.248 NA
ATOM     61  C   UNL A   1      44.619  29.180  31.168  1.00  0.00     0.031 C 
ATOM     62  C   UNL A   1      45.573  31.836  36.566  1.00  0.00     0.029 A 
ATOM     63  C   UNL A   1      44.962  31.416  35.394  1.00  0.00     0.049 A 
ATOM     64  H   UNL A   1      43.006  31.806  34.711  1.00  0.00     0.167 HD
ATOM     65  C   UNL A   1      44.867  30.207  33.213  1.00  0.00     0.074 A 
ATOM     66  C   UNL A   1      45.460  29.384  32.174  1.00  0.00     0.031 C 
ATOM     67  C   UNL A   1      45.517  30.605  34.335  1.00  0.00     0.037 A 
BRANCH  54  68
ATOM     68  C   UNL A   1      42.179  34.141  38.194  1.00  0.00     0.058 A 
ATOM     69  C   UNL A   1      41.821  33.544  39.416  1.00  0.00     0.135 A 
ATOM     70  C   UNL A   1      42.445  35.520  38.198  1.00  0.00     0.135 A 
ATOM     71  F   UNL A   1      41.531  32.235  39.470  1.00  0.00    -0.206 F 
ATOM     72  C   UNL A   1      41.695  34.291  40.583  1.00  0.00     0.059 A 
ATOM     73  C   UNL A   1      42.357  36.280  39.360  1.00  0.00     0.059 A 
ATOM     74  F   UNL A   1      42.781  36.146  37.060  1.00  0.00    -0.206 F 
ATOM     75  C   UNL A   1      41.964  35.660  40.545  1.00  0.00     0.060 A 
BRANCH  75  76
ATOM     76  S   UNL A   1      41.781  36.617  42.065  1.00  0.00     0.124 S 
ATOM     77  O   UNL A   1      42.851  37.600  41.920  1.00  0.00    -0.237 OA
ATOM     78  O   UNL A   1      40.424  37.138  41.943  1.00  0.00    -0.237 OA
ATOM     79  O   UNL A   1      41.979  35.626  43.118  1.00  0.00    -0.744 OA
ENDBRANCH  75  76
ENDBRANCH  54  68
BRANCH  55  80
ATOM     80  C   UNL A   1      42.215  29.144  29.439  1.00  0.00     0.058 A 
ATOM     81  C   UNL A   1      42.706  29.799  28.301  1.00  0.00     0.135 A 
ATOM     82  C   UNL A   1      41.792  27.812  29.296  1.00  0.00     0.135 A 
ATOM     83  F   UNL A   1      43.121  31.071  28.387  1.00  0.00    -0.206 F 
ATOM     84  C   UNL A   1      42.772  29.160  27.067  1.00  0.00     0.059 A 
ATOM     85  C   UNL A   1      41.874  27.144  28.080  1.00  0.00     0.059 A 
ATOM     86  F   UNL A   1      41.333  27.133  30.360  1.00  0.00    -0.206 F 
ATOM     87  C   UNL A   1      42.362  27.830  26.969  1.00  0.00     0.060 A 
BRANCH  87  88
ATOM     88  S   UNL A   1      42.519  26.991  25.378  1.00  0.00     0.124 S 
ATOM     89  O   UNL A   1      43.761  26.250  25.559  1.00  0.00    -0.237 OA
ATOM     90  O   UNL A   1      41.298  26.194  25.334  1.00  0.00    -0.237 OA
ATOM     91  O   UNL A   1      42.574  28.094  24.421  1.00  0.00    -0.744 OA
ENDBRANCH  87  88
ENDBRANCH  55  80
BRANCH  67  92
ATOM     92  C   UNL A   1      46.935  30.135  34.505  1.00  0.00     0.058 A 
ATOM     93  C   UNL A   1      47.237  28.908  35.118  1.00  0.00     0.135 A 
ATOM     94  C   UNL A   1      47.999  30.894  33.991  1.00  0.00     0.135 A 
ATOM     95  F   UNL A   1      46.255  28.150  35.632  1.00  0.00    -0.206 F 
ATOM     96  C   UNL A   1      48.547  28.462  35.237  1.00  0.00     0.059 A 
ATOM     97  C   UNL A   1      49.314  30.450  34.069  1.00  0.00     0.059 A 
ATOM     98  F   UNL A   1      47.762  32.068  33.385  1.00  0.00    -0.206 F 
ATOM     99  C   UNL A   1      49.579  29.238  34.703  1.00  0.00     0.060 A 
BRANCH  99 100
ATOM    100  S   UNL A   1      51.271  28.625  34.830  1.00  0.00     0.124 S 
ATOM    101  O   UNL A   1      52.027  29.868  34.932  1.00  0.00    -0.237 OA
ATOM    102  O   UNL A   1      51.216  27.813  36.041  1.00  0.00    -0.237 OA
ATOM    103  O   UNL A   1      51.456  27.878  33.589  1.00  0.00    -0.744 OA
ENDBRANCH  99 100
ENDBRANCH  67  92
ENDBRANCH  41  42
ENDBRANCH  34  36
ENDBRANCH  33  34
ENDBRANCH  32  33
ENDBRANCH  31  32
ENDBRANCH  30  31
ENDBRANCH  29  30
ENDBRANCH   1  29
TORSDOF 25
ENDMDL
