MODEL 1
REMARK VINA RESULT:      -9.4      0.000      0.000
REMARK SMILES O=C(OCCOCCOCCOCCOC(=O)c1nc(NC[C@H]2c3ccccc3CSc3ccccc32)c2ccccc2n1)c1ccc(-c2c3nc(c(-c4c(F)cc(S(=O)(=O)[O-])cc4F)c4ccc([nH]4)c(-c4c(F)cc(S(=O)(=O)[O-])cc4F)c4nc(c(-c5c(F)cc(S(=O)(=O)[O-])cc5F)c5ccc2[nH]5)C=C4)C=C3)cc1
REMARK SMILES IDX 9 1 8 2 7 3 6 4 5 5 4 6 3 7 2 8 1 9 45 10 46 11 110 12 47 13
REMARK SMILES IDX 109 14 48 15 49 16 50 17 103 18 51 19 108 20 102 21 104 22
REMARK SMILES IDX 52 23 107 24 101 25 100 26 53 28 87 29 66 30 86 31 67 32
REMARK SMILES IDX 70 33 85 34 105 35 68 36 69 37 84 39 106 40 71 41 54 42
REMARK SMILES IDX 55 43 64 44 56 45 57 46 63 47 65 48 58 49 59 50 60 51 61 52
REMARK SMILES IDX 62 53 88 54 89 55 98 56 90 57 91 58 97 59 99 60 92 61 93 62
REMARK SMILES IDX 94 63 95 64 96 65 72 66 73 67 82 68 74 69 75 70 81 71 83 72
REMARK SMILES IDX 76 73 77 74 78 75 79 76 80 77 10 78 11 79 12 80 13 81 14 82
REMARK SMILES IDX 15 83 16 84 17 85 18 86 19 87 44 88 20 89 43 90 38 91 42 92
REMARK SMILES IDX 39 93 41 94 40 95 21 96 22 98 23 99 24 100 37 101 25 102
REMARK SMILES IDX 29 103 32 104 36 105 26 106 28 107 30 108 31 109 33 110
REMARK SMILES IDX 35 111 27 112 34 113
REMARK H PARENT 104 27 70 38 21 97
REMARK Flexibility Score: inf
ROOT
ATOM      1  O   UNL A   1      44.619  24.956  25.071  1.00  0.00    -0.377 OA
ENDROOT
BRANCH   1   2
ATOM      2  C   UNL A   1      44.410  26.259  25.619  1.00  0.00     0.188 C 
BRANCH   2   3
ATOM      3  C   UNL A   1      45.208  27.373  24.936  1.00  0.00     0.188 C 
BRANCH   3   4
ATOM      4  O   UNL A   1      46.161  27.886  25.859  1.00  0.00    -0.376 OA
BRANCH   4   5
ATOM      5  C   UNL A   1      47.514  27.466  25.757  1.00  0.00     0.202 C 
BRANCH   5   6
ATOM      6  C   UNL A   1      47.868  26.106  26.366  1.00  0.00     0.261 C 
BRANCH   6   7
ATOM      7  O   UNL A   1      47.805  26.078  27.800  1.00  0.00    -0.460 OA
BRANCH   7   8
ATOM      8  C   UNL A   1      46.780  25.599  28.554  1.00  0.00     0.338 C 
ATOM      9  O   UNL A   1      46.494  24.406  28.493  1.00  0.00    -0.246 OA
BRANCH   8  10
ATOM     10  C   UNL A   1      46.004  26.471  29.478  1.00  0.00     0.060 A 
ATOM     11  C   UNL A   1      45.090  25.871  30.349  1.00  0.00     0.016 A 
ATOM     12  C   UNL A   1      46.082  27.861  29.478  1.00  0.00     0.016 A 
ATOM     13  C   UNL A   1      44.333  26.657  31.223  1.00  0.00     0.010 A 
ATOM     14  C   UNL A   1      45.434  28.640  30.411  1.00  0.00     0.010 A 
ATOM     15  C   UNL A   1      44.537  28.045  31.280  1.00  0.00    -0.014 A 
BRANCH  15  16
ATOM     16  C   UNL A   1      43.931  28.900  32.309  1.00  0.00     0.031 A 
ATOM     17  C   UNL A   1      44.573  29.054  33.660  1.00  0.00     0.074 A 
ATOM     18  C   UNL A   1      42.704  29.380  32.035  1.00  0.00     0.049 A 
ATOM     19  N   UNL A   1      44.193  29.802  34.659  1.00  0.00    -0.248 NA
ATOM     20  C   UNL A   1      45.759  28.226  33.955  1.00  0.00     0.031 C 
ATOM     21  C   UNL A   1      41.937  29.076  30.819  1.00  0.00     0.029 A 
ATOM     22  N   UNL A   1      41.886  30.210  32.742  1.00  0.00    -0.354 N 
ATOM     23  C   UNL A   1      45.092  29.544  35.689  1.00  0.00     0.074 A 
ATOM     24  C   UNL A   1      45.984  28.508  35.231  1.00  0.00     0.031 C 
ATOM     25  C   UNL A   1      40.791  29.768  30.836  1.00  0.00     0.029 A 
ATOM     26  C   UNL A   1      40.743  30.554  32.059  1.00  0.00     0.049 A 
ATOM     27  H   UNL A   1      42.092  30.532  33.649  1.00  0.00     0.167 HD
ATOM     28  C   UNL A   1      45.174  30.163  36.890  1.00  0.00     0.037 A 
ATOM     29  C   UNL A   1      39.792  31.448  32.376  1.00  0.00     0.037 A 
ATOM     30  C   UNL A   1      44.273  31.219  37.271  1.00  0.00     0.049 A 
ATOM     31  C   UNL A   1      39.990  32.236  33.634  1.00  0.00     0.074 A 
ATOM     32  C   UNL A   1      44.301  32.022  38.394  1.00  0.00     0.029 A 
ATOM     33  N   UNL A   1      43.176  31.620  36.515  1.00  0.00    -0.354 N 
ATOM     34  N   UNL A   1      40.932  32.102  34.541  1.00  0.00    -0.248 NA
ATOM     35  C   UNL A   1      39.032  33.310  33.907  1.00  0.00     0.031 C 
ATOM     36  C   UNL A   1      43.205  32.890  38.330  1.00  0.00     0.029 A 
ATOM     37  C   UNL A   1      42.514  32.653  37.150  1.00  0.00     0.049 A 
ATOM     38  H   UNL A   1      42.910  31.226  35.653  1.00  0.00     0.167 HD
ATOM     39  C   UNL A   1      40.685  33.075  35.494  1.00  0.00     0.074 A 
ATOM     40  C   UNL A   1      39.520  33.812  35.035  1.00  0.00     0.031 C 
ATOM     41  C   UNL A   1      41.346  33.335  36.649  1.00  0.00     0.037 A 
BRANCH  28  42
ATOM     42  C   UNL A   1      46.288  29.777  37.830  1.00  0.00     0.058 A 
ATOM     43  C   UNL A   1      47.552  30.387  37.754  1.00  0.00     0.135 A 
ATOM     44  C   UNL A   1      46.077  28.856  38.869  1.00  0.00     0.135 A 
ATOM     45  F   UNL A   1      47.822  31.264  36.774  1.00  0.00    -0.206 F 
ATOM     46  C   UNL A   1      48.563  30.096  38.665  1.00  0.00     0.059 A 
ATOM     47  C   UNL A   1      47.066  28.567  39.808  1.00  0.00     0.059 A 
ATOM     48  F   UNL A   1      44.893  28.233  38.990  1.00  0.00    -0.206 F 
ATOM     49  C   UNL A   1      48.307  29.192  39.697  1.00  0.00     0.060 A 
BRANCH  49  50
ATOM     50  S   UNL A   1      49.614  28.883  40.907  1.00  0.00     0.124 S 
ATOM     51  O   UNL A   1      50.213  27.658  40.387  1.00  0.00    -0.237 OA
ATOM     52  O   UNL A   1      50.432  30.085  40.792  1.00  0.00    -0.237 OA
ATOM     53  O   UNL A   1      48.887  28.740  42.165  1.00  0.00    -0.744 OA
ENDBRANCH  49  50
ENDBRANCH  28  42
BRANCH  29  54
ATOM     54  C   UNL A   1      38.686  31.704  31.417  1.00  0.00     0.058 A 
ATOM     55  C   UNL A   1      37.478  30.999  31.514  1.00  0.00     0.135 A 
ATOM     56  C   UNL A   1      38.765  32.740  30.472  1.00  0.00     0.135 A 
ATOM     57  F   UNL A   1      37.347  30.014  32.416  1.00  0.00    -0.206 F 
ATOM     58  C   UNL A   1      36.387  31.306  30.706  1.00  0.00     0.059 A 
ATOM     59  C   UNL A   1      37.681  33.079  29.667  1.00  0.00     0.059 A 
ATOM     60  F   UNL A   1      39.884  33.472  30.369  1.00  0.00    -0.206 F 
ATOM     61  C   UNL A   1      36.496  32.353  29.789  1.00  0.00     0.060 A 
BRANCH  61  62
ATOM     62  S   UNL A   1      35.047  32.793  28.804  1.00  0.00     0.124 S 
ATOM     63  O   UNL A   1      34.376  33.747  29.679  1.00  0.00    -0.237 OA
ATOM     64  O   UNL A   1      35.653  33.349  27.599  1.00  0.00    -0.237 OA
ATOM     65  O   UNL A   1      34.364  31.516  28.620  1.00  0.00    -0.744 OA
ENDBRANCH  61  62
ENDBRANCH  29  54
BRANCH  41  66
ATOM     66  C   UNL A   1      40.798  34.441  37.495  1.00  0.00     0.058 A 
ATOM     67  C   UNL A   1      39.914  34.167  38.548  1.00  0.00     0.135 A 
ATOM     68  C   UNL A   1      41.208  35.766  37.294  1.00  0.00     0.135 A 
ATOM     69  F   UNL A   1      39.492  32.912  38.769  1.00  0.00    -0.206 F 
ATOM     70  C   UNL A   1      39.438  35.180  39.369  1.00  0.00     0.059 A 
ATOM     71  C   UNL A   1      40.765  36.792  38.118  1.00  0.00     0.059 A 
ATOM     72  F   UNL A   1      42.062  36.068  36.303  1.00  0.00    -0.206 F 
ATOM     73  C   UNL A   1      39.873  36.488  39.147  1.00  0.00     0.060 A 
BRANCH  73  74
ATOM     74  S   UNL A   1      39.275  37.785  40.247  1.00  0.00     0.124 S 
ATOM     75  O   UNL A   1      38.907  37.017  41.431  1.00  0.00    -0.237 OA
ATOM     76  O   UNL A   1      40.449  38.642  40.385  1.00  0.00    -0.237 OA
ATOM     77  O   UNL A   1      38.161  38.371  39.507  1.00  0.00    -0.744 OA
ENDBRANCH  73  74
ENDBRANCH  41  66
ENDBRANCH  15  16
ENDBRANCH   8  10
ENDBRANCH   7   8
ENDBRANCH   6   7
ENDBRANCH   5   6
ENDBRANCH   4   5
ENDBRANCH   3   4
ENDBRANCH   2   3
ENDBRANCH   1   2
BRANCH   1  78
ATOM     78  C   UNL A   1      44.706  23.886  26.009  1.00  0.00     0.188 C 
BRANCH  78  79
ATOM     79  C   UNL A   1      45.565  22.655  25.656  1.00  0.00     0.188 C 
BRANCH  79  80
ATOM     80  O   UNL A   1      45.632  22.411  24.263  1.00  0.00    -0.376 OA
BRANCH  80  81
ATOM     81  C   UNL A   1      44.841  21.340  23.767  1.00  0.00     0.202 C 
BRANCH  81  82
ATOM     82  C   UNL A   1      44.916  19.966  24.460  1.00  0.00     0.261 C 
BRANCH  82  83
ATOM     83  O   UNL A   1      44.166  19.801  25.677  1.00  0.00    -0.457 OA
BRANCH  83  84
ATOM     84  C   UNL A   1      43.049  19.028  25.671  1.00  0.00     0.376 C 
ATOM     85  O   UNL A   1      43.012  17.808  25.699  1.00  0.00    -0.242 OA
BRANCH  84  86
ATOM     86  C   UNL A   1      41.865  19.952  25.748  1.00  0.00     0.241 A 
ATOM     87  N   UNL A   1      40.635  19.406  25.554  1.00  0.00    -0.204 NA
ATOM     88  N   UNL A   1      42.124  21.195  26.203  1.00  0.00    -0.222 NA
ATOM     89  C   UNL A   1      39.593  20.202  25.837  1.00  0.00     0.138 A 
ATOM     90  C   UNL A   1      41.072  21.993  26.381  1.00  0.00     0.077 A 
ATOM     91  C   UNL A   1      39.759  21.569  26.154  1.00  0.00     0.043 A 
ATOM     92  C   UNL A   1      41.276  23.294  26.830  1.00  0.00     0.029 A 
ATOM     93  C   UNL A   1      38.695  22.500  26.285  1.00  0.00     0.014 A 
ATOM     94  C   UNL A   1      40.222  24.199  26.990  1.00  0.00     0.002 A 
ATOM     95  C   UNL A   1      38.927  23.809  26.689  1.00  0.00     0.001 A 
BRANCH  89  96
ATOM     96  N   UNL A   1      38.306  19.686  25.913  1.00  0.00    -0.368 N 
ATOM     97  H   UNL A   1      37.982  19.471  26.817  1.00  0.00     0.162 HD
BRANCH  96  98
ATOM     98  C   UNL A   1      37.372  19.421  24.820  1.00  0.00     0.127 C 
BRANCH  98  99
ATOM     99  C   UNL A   1      35.890  19.912  25.177  1.00  0.00     0.070 C 
ATOM    100  C   UNL A   1      35.686  21.407  24.827  1.00  0.00    -0.035 A 
ATOM    101  C   UNL A   1      34.715  19.058  24.624  1.00  0.00    -0.025 A 
ATOM    102  C   UNL A   1      36.295  22.015  23.719  1.00  0.00     0.005 A 
ATOM    103  C   UNL A   1      34.755  22.182  25.557  1.00  0.00    -0.034 A 
ATOM    104  C   UNL A   1      33.361  19.478  24.600  1.00  0.00     0.011 A 
ATOM    105  C   UNL A   1      34.994  17.806  24.033  1.00  0.00     0.005 A 
ATOM    106  C   UNL A   1      36.009  23.336  23.355  1.00  0.00     0.000 A 
ATOM    107  C   UNL A   1      34.508  23.527  25.212  1.00  0.00     0.005 A 
ATOM    108  C   UNL A   1      33.841  21.522  26.550  1.00  0.00     0.110 C 
ATOM    109  S   UNL A   1      32.513  20.693  25.630  1.00  0.00    -0.121 SA
ATOM    110  C   UNL A   1      32.461  18.829  23.728  1.00  0.00     0.015 A 
ATOM    111  C   UNL A   1      34.074  17.146  23.215  1.00  0.00     0.000 A 
ATOM    112  C   UNL A   1      35.130  24.100  24.111  1.00  0.00     0.000 A 
ATOM    113  C   UNL A   1      32.825  17.697  23.006  1.00  0.00     0.001 A 
ENDBRANCH  98  99
ENDBRANCH  96  98
ENDBRANCH  89  96
ENDBRANCH  84  86
ENDBRANCH  83  84
ENDBRANCH  82  83
ENDBRANCH  81  82
ENDBRANCH  80  81
ENDBRANCH  79  80
ENDBRANCH  78  79
ENDBRANCH   1  78
TORSDOF 26
ENDMDL
MODEL 2
REMARK VINA RESULT:      -9.0      6.218     10.049
REMARK SMILES O=C(OCCOCCOCCOCCOC(=O)c1nc(NC[C@H]2c3ccccc3CSc3ccccc32)c2ccccc2n1)c1ccc(-c2c3nc(c(-c4c(F)cc(S(=O)(=O)[O-])cc4F)c4ccc([nH]4)c(-c4c(F)cc(S(=O)(=O)[O-])cc4F)c4nc(c(-c5c(F)cc(S(=O)(=O)[O-])cc5F)c5ccc2[nH]5)C=C4)C=C3)cc1
REMARK SMILES IDX 9 1 8 2 7 3 6 4 5 5 4 6 3 7 2 8 1 9 45 10 46 11 110 12 47 13
REMARK SMILES IDX 109 14 48 15 49 16 50 17 103 18 51 19 108 20 102 21 104 22
REMARK SMILES IDX 52 23 107 24 101 25 100 26 53 28 87 29 66 30 86 31 67 32
REMARK SMILES IDX 70 33 85 34 105 35 68 36 69 37 84 39 106 40 71 41 54 42
REMARK SMILES IDX 55 43 64 44 56 45 57 46 63 47 65 48 58 49 59 50 60 51 61 52
REMARK SMILES IDX 62 53 88 54 89 55 98 56 90 57 91 58 97 59 99 60 92 61 93 62
REMARK SMILES IDX 94 63 95 64 96 65 72 66 73 67 82 68 74 69 75 70 81 71 83 72
REMARK SMILES IDX 76 73 77 74 78 75 79 76 80 77 10 78 11 79 12 80 13 81 14 82
REMARK SMILES IDX 15 83 16 84 17 85 18 86 19 87 44 88 20 89 43 90 38 91 42 92
REMARK SMILES IDX 39 93 41 94 40 95 21 96 22 98 23 99 24 100 37 101 25 102
REMARK SMILES IDX 29 103 32 104 36 105 26 106 28 107 30 108 31 109 33 110
REMARK SMILES IDX 35 111 27 112 34 113
REMARK H PARENT 104 27 70 38 21 97
REMARK Flexibility Score: inf
ROOT
ATOM      1  O   UNL A   1      41.565  25.651  25.469  1.00  0.00    -0.377 OA
ENDROOT
BRANCH   1   2
ATOM      2  C   UNL A   1      42.422  24.524  25.658  1.00  0.00     0.188 C 
BRANCH   2   3
ATOM      3  C   UNL A   1      43.748  24.597  24.896  1.00  0.00     0.188 C 
BRANCH   3   4
ATOM      4  O   UNL A   1      44.717  25.233  25.721  1.00  0.00    -0.376 OA
BRANCH   4   5
ATOM      5  C   UNL A   1      44.909  24.761  27.047  1.00  0.00     0.202 C 
BRANCH   5   6
ATOM      6  C   UNL A   1      46.225  24.036  27.344  1.00  0.00     0.261 C 
BRANCH   6   7
ATOM      7  O   UNL A   1      47.351  24.556  26.621  1.00  0.00    -0.460 OA
BRANCH   7   8
ATOM      8  C   UNL A   1      48.280  25.430  27.091  1.00  0.00     0.338 C 
ATOM      9  O   UNL A   1      49.444  25.060  27.219  1.00  0.00    -0.246 OA
BRANCH   8  10
ATOM     10  C   UNL A   1      47.938  26.838  27.433  1.00  0.00     0.060 A 
ATOM     11  C   UNL A   1      47.206  27.588  26.507  1.00  0.00     0.016 A 
ATOM     12  C   UNL A   1      48.366  27.479  28.592  1.00  0.00     0.016 A 
ATOM     13  C   UNL A   1      46.877  28.918  26.786  1.00  0.00     0.010 A 
ATOM     14  C   UNL A   1      47.951  28.747  28.935  1.00  0.00     0.010 A 
ATOM     15  C   UNL A   1      47.218  29.486  28.024  1.00  0.00    -0.014 A 
BRANCH  15  16
ATOM     16  C   UNL A   1      46.729  30.799  28.463  1.00  0.00     0.031 A 
ATOM     17  C   UNL A   1      45.438  30.927  29.222  1.00  0.00     0.074 A 
ATOM     18  C   UNL A   1      47.400  31.868  27.998  1.00  0.00     0.049 A 
ATOM     19  N   UNL A   1      44.890  32.002  29.719  1.00  0.00    -0.248 NA
ATOM     20  C   UNL A   1      44.624  29.709  29.403  1.00  0.00     0.031 C 
ATOM     21  C   UNL A   1      48.538  31.806  27.069  1.00  0.00     0.029 A 
ATOM     22  N   UNL A   1      47.236  33.202  28.227  1.00  0.00    -0.354 N 
ATOM     23  C   UNL A   1      43.683  31.592  30.275  1.00  0.00     0.074 A 
ATOM     24  C   UNL A   1      43.531  30.188  29.980  1.00  0.00     0.031 C 
ATOM     25  C   UNL A   1      49.011  33.042  26.866  1.00  0.00     0.029 A 
ATOM     26  C   UNL A   1      48.209  33.977  27.641  1.00  0.00     0.049 A 
ATOM     27  H   UNL A   1      46.495  33.574  28.759  1.00  0.00     0.167 HD
ATOM     28  C   UNL A   1      42.813  32.330  31.002  1.00  0.00     0.037 A 
ATOM     29  C   UNL A   1      48.448  35.293  27.766  1.00  0.00     0.037 A 
ATOM     30  C   UNL A   1      43.045  33.721  31.292  1.00  0.00     0.049 A 
ATOM     31  C   UNL A   1      47.567  36.058  28.705  1.00  0.00     0.074 A 
ATOM     32  C   UNL A   1      42.325  34.569  32.111  1.00  0.00     0.029 A 
ATOM     33  N   UNL A   1      44.098  34.463  30.767  1.00  0.00    -0.354 N 
ATOM     34  N   UNL A   1      46.509  35.633  29.360  1.00  0.00    -0.248 NA
ATOM     35  C   UNL A   1      47.914  37.459  28.954  1.00  0.00     0.031 C 
ATOM     36  C   UNL A   1      42.927  35.831  32.058  1.00  0.00     0.029 A 
ATOM     37  C   UNL A   1      44.043  35.762  31.235  1.00  0.00     0.049 A 
ATOM     38  H   UNL A   1      44.781  34.115  30.150  1.00  0.00     0.167 HD
ATOM     39  C   UNL A   1      46.062  36.714  30.102  1.00  0.00     0.074 A 
ATOM     40  C   UNL A   1      46.986  37.803  29.838  1.00  0.00     0.031 C 
ATOM     41  C   UNL A   1      44.984  36.808  30.920  1.00  0.00     0.037 A 
BRANCH  28  42
ATOM     42  C   UNL A   1      41.597  31.654  31.582  1.00  0.00     0.058 A 
ATOM     43  C   UNL A   1      41.676  30.896  32.763  1.00  0.00     0.135 A 
ATOM     44  C   UNL A   1      40.326  31.828  31.011  1.00  0.00     0.135 A 
ATOM     45  F   UNL A   1      42.864  30.680  33.350  1.00  0.00    -0.206 F 
ATOM     46  C   UNL A   1      40.547  30.333  33.351  1.00  0.00     0.059 A 
ATOM     47  C   UNL A   1      39.178  31.295  31.595  1.00  0.00     0.059 A 
ATOM     48  F   UNL A   1      40.186  32.535  29.878  1.00  0.00    -0.206 F 
ATOM     49  C   UNL A   1      39.299  30.548  32.767  1.00  0.00     0.060 A 
BRANCH  49  50
ATOM     50  S   UNL A   1      37.841  29.864  33.586  1.00  0.00     0.124 S 
ATOM     51  O   UNL A   1      37.925  28.456  33.212  1.00  0.00    -0.237 OA
ATOM     52  O   UNL A   1      38.107  30.162  34.989  1.00  0.00    -0.237 OA
ATOM     53  O   UNL A   1      36.734  30.606  32.990  1.00  0.00    -0.744 OA
ENDBRANCH  49  50
ENDBRANCH  28  42
BRANCH  29  54
ATOM     54  C   UNL A   1      49.630  35.884  27.090  1.00  0.00     0.058 A 
ATOM     55  C   UNL A   1      50.900  35.818  27.680  1.00  0.00     0.135 A 
ATOM     56  C   UNL A   1      49.541  36.410  25.790  1.00  0.00     0.135 A 
ATOM     57  F   UNL A   1      51.041  35.305  28.912  1.00  0.00    -0.206 F 
ATOM     58  C   UNL A   1      52.040  36.255  27.012  1.00  0.00     0.059 A 
ATOM     59  C   UNL A   1      50.668  36.836  25.094  1.00  0.00     0.059 A 
ATOM     60  F   UNL A   1      48.355  36.456  25.165  1.00  0.00    -0.206 F 
ATOM     61  C   UNL A   1      51.915  36.757  25.716  1.00  0.00     0.060 A 
BRANCH  61  62
ATOM     62  S   UNL A   1      53.412  37.246  24.829  1.00  0.00     0.124 S 
ATOM     63  O   UNL A   1      53.291  38.699  24.830  1.00  0.00    -0.237 OA
ATOM     64  O   UNL A   1      54.464  36.692  25.675  1.00  0.00    -0.237 OA
ATOM     65  O   UNL A   1      53.259  36.599  23.529  1.00  0.00    -0.744 OA
ENDBRANCH  61  62
ENDBRANCH  29  54
BRANCH  41  66
ATOM     66  C   UNL A   1      44.744  38.143  31.552  1.00  0.00     0.058 A 
ATOM     67  C   UNL A   1      45.354  38.481  32.768  1.00  0.00     0.135 A 
ATOM     68  C   UNL A   1      43.959  39.108  30.907  1.00  0.00     0.135 A 
ATOM     69  F   UNL A   1      46.108  37.581  33.420  1.00  0.00    -0.206 F 
ATOM     70  C   UNL A   1      45.177  39.733  33.337  1.00  0.00     0.059 A 
ATOM     71  C   UNL A   1      43.789  40.377  31.445  1.00  0.00     0.059 A 
ATOM     72  F   UNL A   1      43.367  38.828  29.735  1.00  0.00    -0.206 F 
ATOM     73  C   UNL A   1      44.396  40.676  32.666  1.00  0.00     0.060 A 
BRANCH  73  74
ATOM     74  S   UNL A   1      44.209  42.311  33.401  1.00  0.00     0.124 S 
ATOM     75  O   UNL A   1      42.765  42.383  33.588  1.00  0.00    -0.237 OA
ATOM     76  O   UNL A   1      45.003  42.196  34.621  1.00  0.00    -0.237 OA
ATOM     77  O   UNL A   1      44.757  43.205  32.385  1.00  0.00    -0.744 OA
ENDBRANCH  73  74
ENDBRANCH  41  66
ENDBRANCH  15  16
ENDBRANCH   8  10
ENDBRANCH   7   8
ENDBRANCH   6   7
ENDBRANCH   5   6
ENDBRANCH   4   5
ENDBRANCH   3   4
ENDBRANCH   2   3
ENDBRANCH   1   2
BRANCH   1  78
ATOM     78  C   UNL A   1      40.804  26.059  26.604  1.00  0.00     0.188 C 
BRANCH  78  79
ATOM     79  C   UNL A   1      41.120  27.417  27.263  1.00  0.00     0.188 C 
BRANCH  79  80
ATOM     80  O   UNL A   1      40.495  27.576  28.524  1.00  0.00    -0.376 OA
BRANCH  80  81
ATOM     81  C   UNL A   1      40.060  28.886  28.855  1.00  0.00     0.202 C 
BRANCH  81  82
ATOM     82  C   UNL A   1      39.042  29.596  27.940  1.00  0.00     0.261 C 
BRANCH  82  83
ATOM     83  O   UNL A   1      37.684  29.123  27.976  1.00  0.00    -0.457 OA
BRANCH  83  84
ATOM     84  C   UNL A   1      36.914  29.395  29.061  1.00  0.00     0.376 C 
ATOM     85  O   UNL A   1      37.055  28.935  30.184  1.00  0.00    -0.242 OA
BRANCH  84  86
ATOM     86  C   UNL A   1      35.931  30.459  28.658  1.00  0.00     0.241 A 
ATOM     87  N   UNL A   1      34.977  30.116  27.751  1.00  0.00    -0.204 NA
ATOM     88  N   UNL A   1      35.967  31.593  29.387  1.00  0.00    -0.222 NA
ATOM     89  C   UNL A   1      33.995  31.011  27.572  1.00  0.00     0.138 A 
ATOM     90  C   UNL A   1      35.033  32.503  29.116  1.00  0.00     0.077 A 
ATOM     91  C   UNL A   1      34.035  32.295  28.159  1.00  0.00     0.043 A 
ATOM     92  C   UNL A   1      35.029  33.702  29.822  1.00  0.00     0.029 A 
ATOM     93  C   UNL A   1      33.123  33.344  27.865  1.00  0.00     0.014 A 
ATOM     94  C   UNL A   1      34.109  34.720  29.554  1.00  0.00     0.002 A 
ATOM     95  C   UNL A   1      33.168  34.552  28.550  1.00  0.00     0.001 A 
BRANCH  89  96
ATOM     96  N   UNL A   1      32.848  30.674  26.863  1.00  0.00    -0.368 N 
ATOM     97  H   UNL A   1      32.446  31.396  26.328  1.00  0.00     0.162 HD
BRANCH  96  98
ATOM     98  C   UNL A   1      32.164  29.384  26.813  1.00  0.00     0.127 C 
BRANCH  98  99
ATOM     99  C   UNL A   1      32.438  28.623  25.430  1.00  0.00     0.070 C 
ATOM    100  C   UNL A   1      32.547  27.091  25.636  1.00  0.00    -0.035 A 
ATOM    101  C   UNL A   1      31.482  28.946  24.249  1.00  0.00    -0.025 A 
ATOM    102  C   UNL A   1      31.786  26.398  26.590  1.00  0.00     0.005 A 
ATOM    103  C   UNL A   1      33.341  26.317  24.759  1.00  0.00    -0.034 A 
ATOM    104  C   UNL A   1      31.395  28.183  23.057  1.00  0.00     0.011 A 
ATOM    105  C   UNL A   1      30.575  30.022  24.372  1.00  0.00     0.005 A 
ATOM    106  C   UNL A   1      31.816  25.003  26.683  1.00  0.00     0.000 A 
ATOM    107  C   UNL A   1      33.402  24.914  24.890  1.00  0.00     0.005 A 
ATOM    108  C   UNL A   1      33.934  26.943  23.529  1.00  0.00     0.110 C 
ATOM    109  S   UNL A   1      32.619  27.104  22.288  1.00  0.00    -0.121 SA
ATOM    110  C   UNL A   1      30.243  28.307  22.250  1.00  0.00     0.015 A 
ATOM    111  C   UNL A   1      29.468  30.165  23.533  1.00  0.00     0.000 A 
ATOM    112  C   UNL A   1      32.638  24.260  25.847  1.00  0.00     0.000 A 
ATOM    113  C   UNL A   1      29.264  29.260  22.510  1.00  0.00     0.001 A 
ENDBRANCH  98  99
ENDBRANCH  96  98
ENDBRANCH  89  96
ENDBRANCH  84  86
ENDBRANCH  83  84
ENDBRANCH  82  83
ENDBRANCH  81  82
ENDBRANCH  80  81
ENDBRANCH  79  80
ENDBRANCH  78  79
ENDBRANCH   1  78
TORSDOF 26
ENDMDL
MODEL 3
REMARK VINA RESULT:      -8.8      3.122      9.368
REMARK SMILES O=C(OCCOCCOCCOCCOC(=O)c1nc(NC[C@H]2c3ccccc3CSc3ccccc32)c2ccccc2n1)c1ccc(-c2c3nc(c(-c4c(F)cc(S(=O)(=O)[O-])cc4F)c4ccc([nH]4)c(-c4c(F)cc(S(=O)(=O)[O-])cc4F)c4nc(c(-c5c(F)cc(S(=O)(=O)[O-])cc5F)c5ccc2[nH]5)C=C4)C=C3)cc1
REMARK SMILES IDX 9 1 8 2 7 3 6 4 5 5 4 6 3 7 2 8 1 9 45 10 46 11 110 12 47 13
REMARK SMILES IDX 109 14 48 15 49 16 50 17 103 18 51 19 108 20 102 21 104 22
REMARK SMILES IDX 52 23 107 24 101 25 100 26 53 28 87 29 66 30 86 31 67 32
REMARK SMILES IDX 70 33 85 34 105 35 68 36 69 37 84 39 106 40 71 41 54 42
REMARK SMILES IDX 55 43 64 44 56 45 57 46 63 47 65 48 58 49 59 50 60 51 61 52
REMARK SMILES IDX 62 53 88 54 89 55 98 56 90 57 91 58 97 59 99 60 92 61 93 62
REMARK SMILES IDX 94 63 95 64 96 65 72 66 73 67 82 68 74 69 75 70 81 71 83 72
REMARK SMILES IDX 76 73 77 74 78 75 79 76 80 77 10 78 11 79 12 80 13 81 14 82
REMARK SMILES IDX 15 83 16 84 17 85 18 86 19 87 44 88 20 89 43 90 38 91 42 92
REMARK SMILES IDX 39 93 41 94 40 95 21 96 22 98 23 99 24 100 37 101 25 102
REMARK SMILES IDX 29 103 32 104 36 105 26 106 28 107 30 108 31 109 33 110
REMARK SMILES IDX 35 111 27 112 34 113
REMARK H PARENT 104 27 70 38 21 97
REMARK Flexibility Score: inf
ROOT
ATOM      1  O   UNL A   1      36.256  30.190  27.311  1.00  0.00    -0.377 OA
ENDROOT
BRANCH   1   2
ATOM      2  C   UNL A   1      35.198  30.715  28.116  1.00  0.00     0.188 C 
BRANCH   2   3
ATOM      3  C   UNL A   1      34.616  32.040  27.619  1.00  0.00     0.188 C 
BRANCH   3   4
ATOM      4  O   UNL A   1      35.404  33.109  28.132  1.00  0.00    -0.376 OA
BRANCH   4   5
ATOM      5  C   UNL A   1      34.790  34.368  28.361  1.00  0.00     0.202 C 
BRANCH   5   6
ATOM      6  C   UNL A   1      33.820  34.466  29.541  1.00  0.00     0.261 C 
BRANCH   6   7
ATOM      7  O   UNL A   1      33.914  33.369  30.463  1.00  0.00    -0.460 OA
BRANCH   7   8
ATOM      8  C   UNL A   1      34.455  33.405  31.710  1.00  0.00     0.338 C 
ATOM      9  O   UNL A   1      33.723  33.589  32.678  1.00  0.00    -0.246 OA
BRANCH   8  10
ATOM     10  C   UNL A   1      35.912  33.200  31.945  1.00  0.00     0.060 A 
ATOM     11  C   UNL A   1      36.794  34.219  31.574  1.00  0.00     0.016 A 
ATOM     12  C   UNL A   1      36.456  32.022  32.448  1.00  0.00     0.016 A 
ATOM     13  C   UNL A   1      38.170  34.060  31.767  1.00  0.00     0.010 A 
ATOM     14  C   UNL A   1      37.793  31.895  32.755  1.00  0.00     0.010 A 
ATOM     15  C   UNL A   1      38.666  32.906  32.397  1.00  0.00    -0.014 A 
BRANCH  15  16
ATOM     16  C   UNL A   1      40.066  32.764  32.815  1.00  0.00     0.031 A 
ATOM     17  C   UNL A   1      41.067  32.066  31.938  1.00  0.00     0.074 A 
ATOM     18  C   UNL A   1      40.348  33.130  34.079  1.00  0.00     0.049 A 
ATOM     19  N   UNL A   1      42.345  31.897  32.137  1.00  0.00    -0.248 NA
ATOM     20  C   UNL A   1      40.569  31.425  30.705  1.00  0.00     0.031 C 
ATOM     21  C   UNL A   1      39.359  33.612  35.054  1.00  0.00     0.029 A 
ATOM     22  N   UNL A   1      41.526  33.157  34.766  1.00  0.00    -0.354 N 
ATOM     23  C   UNL A   1      42.802  31.145  31.060  1.00  0.00     0.074 A 
ATOM     24  C   UNL A   1      41.654  30.812  30.252  1.00  0.00     0.031 C 
ATOM     25  C   UNL A   1      39.985  33.951  36.188  1.00  0.00     0.029 A 
ATOM     26  C   UNL A   1      41.410  33.707  36.021  1.00  0.00     0.049 A 
ATOM     27  H   UNL A   1      42.375  32.817  34.400  1.00  0.00     0.167 HD
ATOM     28  C   UNL A   1      44.079  30.810  30.766  1.00  0.00     0.037 A 
ATOM     29  C   UNL A   1      42.366  34.021  36.911  1.00  0.00     0.037 A 
ATOM     30  C   UNL A   1      45.185  31.208  31.598  1.00  0.00     0.049 A 
ATOM     31  C   UNL A   1      43.786  33.788  36.494  1.00  0.00     0.074 A 
ATOM     32  C   UNL A   1      46.540  31.052  31.374  1.00  0.00     0.029 A 
ATOM     33  N   UNL A   1      45.049  31.855  32.821  1.00  0.00    -0.354 N 
ATOM     34  N   UNL A   1      44.231  33.215  35.399  1.00  0.00    -0.248 NA
ATOM     35  C   UNL A   1      44.833  34.263  37.402  1.00  0.00     0.031 C 
ATOM     36  C   UNL A   1      47.221  31.581  32.476  1.00  0.00     0.029 A 
ATOM     37  C   UNL A   1      46.293  32.099  33.370  1.00  0.00     0.049 A 
ATOM     38  H   UNL A   1      44.192  32.103  33.236  1.00  0.00     0.167 HD
ATOM     39  C   UNL A   1      45.613  33.260  35.481  1.00  0.00     0.074 A 
ATOM     40  C   UNL A   1      45.927  33.946  36.722  1.00  0.00     0.031 C 
ATOM     41  C   UNL A   1      46.542  32.772  34.621  1.00  0.00     0.037 A 
BRANCH  28  42
ATOM     42  C   UNL A   1      44.356  30.054  29.492  1.00  0.00     0.058 A 
ATOM     43  C   UNL A   1      44.396  28.649  29.471  1.00  0.00     0.135 A 
ATOM     44  C   UNL A   1      44.500  30.722  28.266  1.00  0.00     0.135 A 
ATOM     45  F   UNL A   1      44.281  27.951  30.612  1.00  0.00    -0.206 F 
ATOM     46  C   UNL A   1      44.573  27.938  28.288  1.00  0.00     0.059 A 
ATOM     47  C   UNL A   1      44.653  30.031  27.064  1.00  0.00     0.059 A 
ATOM     48  F   UNL A   1      44.479  32.064  28.221  1.00  0.00    -0.206 F 
ATOM     49  C   UNL A   1      44.689  28.637  27.086  1.00  0.00     0.060 A 
BRANCH  49  50
ATOM     50  S   UNL A   1      44.849  27.689  25.556  1.00  0.00     0.124 S 
ATOM     51  O   UNL A   1      43.515  27.833  24.979  1.00  0.00    -0.237 OA
ATOM     52  O   UNL A   1      45.917  28.400  24.862  1.00  0.00    -0.237 OA
ATOM     53  O   UNL A   1      45.190  26.348  26.019  1.00  0.00    -0.744 OA
ENDBRANCH  49  50
ENDBRANCH  28  42
BRANCH  29  54
ATOM     54  C   UNL A   1      41.985  34.695  38.178  1.00  0.00     0.058 A 
ATOM     55  C   UNL A   1      41.818  36.086  38.227  1.00  0.00     0.135 A 
ATOM     56  C   UNL A   1      41.656  33.957  39.327  1.00  0.00     0.135 A 
ATOM     57  F   UNL A   1      42.099  36.833  37.148  1.00  0.00    -0.206 F 
ATOM     58  C   UNL A   1      41.344  36.726  39.369  1.00  0.00     0.059 A 
ATOM     59  C   UNL A   1      41.163  34.572  40.474  1.00  0.00     0.059 A 
ATOM     60  F   UNL A   1      41.758  32.620  39.318  1.00  0.00    -0.206 F 
ATOM     61  C   UNL A   1      41.013  35.959  40.486  1.00  0.00     0.060 A 
BRANCH  61  62
ATOM     62  S   UNL A   1      40.323  36.792  41.934  1.00  0.00     0.124 S 
ATOM     63  O   UNL A   1      40.947  36.052  43.023  1.00  0.00    -0.237 OA
ATOM     64  O   UNL A   1      40.784  38.164  41.747  1.00  0.00    -0.237 OA
ATOM     65  O   UNL A   1      38.884  36.597  41.780  1.00  0.00    -0.744 OA
ENDBRANCH  61  62
ENDBRANCH  29  54
BRANCH  41  66
ATOM     66  C   UNL A   1      47.973  32.945  35.021  1.00  0.00     0.058 A 
ATOM     67  C   UNL A   1      48.683  34.100  34.664  1.00  0.00     0.135 A 
ATOM     68  C   UNL A   1      48.613  31.986  35.819  1.00  0.00     0.135 A 
ATOM     69  F   UNL A   1      48.107  35.038  33.895  1.00  0.00    -0.206 F 
ATOM     70  C   UNL A   1      49.995  34.291  35.072  1.00  0.00     0.059 A 
ATOM     71  C   UNL A   1      49.917  32.169  36.260  1.00  0.00     0.059 A 
ATOM     72  F   UNL A   1      47.964  30.872  36.192  1.00  0.00    -0.206 F 
ATOM     73  C   UNL A   1      50.602  33.321  35.873  1.00  0.00     0.060 A 
BRANCH  73  74
ATOM     74  S   UNL A   1      52.294  33.605  36.425  1.00  0.00     0.124 S 
ATOM     75  O   UNL A   1      52.257  33.054  37.775  1.00  0.00    -0.237 OA
ATOM     76  O   UNL A   1      53.071  32.846  35.450  1.00  0.00    -0.237 OA
ATOM     77  O   UNL A   1      52.439  35.056  36.343  1.00  0.00    -0.744 OA
ENDBRANCH  73  74
ENDBRANCH  41  66
ENDBRANCH  15  16
ENDBRANCH   8  10
ENDBRANCH   7   8
ENDBRANCH   6   7
ENDBRANCH   5   6
ENDBRANCH   4   5
ENDBRANCH   3   4
ENDBRANCH   2   3
ENDBRANCH   1   2
BRANCH   1  78
ATOM     78  C   UNL A   1      37.148  29.285  27.958  1.00  0.00     0.188 C 
BRANCH  78  79
ATOM     79  C   UNL A   1      37.795  29.704  29.293  1.00  0.00     0.188 C 
BRANCH  79  80
ATOM     80  O   UNL A   1      37.527  28.795  30.344  1.00  0.00    -0.376 OA
BRANCH  80  81
ATOM     81  C   UNL A   1      38.548  27.853  30.645  1.00  0.00     0.202 C 
BRANCH  81  82
ATOM     82  C   UNL A   1      39.756  27.725  29.697  1.00  0.00     0.261 C 
BRANCH  82  83
ATOM     83  O   UNL A   1      39.988  26.439  29.097  1.00  0.00    -0.457 OA
BRANCH  83  84
ATOM     84  C   UNL A   1      39.982  26.324  27.744  1.00  0.00     0.376 C 
ATOM     85  O   UNL A   1      40.071  27.239  26.939  1.00  0.00    -0.242 OA
BRANCH  84  86
ATOM     86  C   UNL A   1      39.969  24.856  27.418  1.00  0.00     0.241 A 
ATOM     87  N   UNL A   1      38.762  24.284  27.163  1.00  0.00    -0.204 NA
ATOM     88  N   UNL A   1      41.178  24.294  27.212  1.00  0.00    -0.222 NA
ATOM     89  C   UNL A   1      38.801  23.037  26.671  1.00  0.00     0.138 A 
ATOM     90  C   UNL A   1      41.182  23.022  26.817  1.00  0.00     0.077 A 
ATOM     91  C   UNL A   1      40.005  22.304  26.582  1.00  0.00     0.043 A 
ATOM     92  C   UNL A   1      42.398  22.381  26.606  1.00  0.00     0.029 A 
ATOM     93  C   UNL A   1      40.086  20.927  26.243  1.00  0.00     0.014 A 
ATOM     94  C   UNL A   1      42.475  21.033  26.239  1.00  0.00     0.002 A 
ATOM     95  C   UNL A   1      41.313  20.294  26.084  1.00  0.00     0.001 A 
BRANCH  89  96
ATOM     96  N   UNL A   1      37.658  22.445  26.147  1.00  0.00    -0.368 N 
ATOM     97  H   UNL A   1      37.414  21.571  26.528  1.00  0.00     0.162 HD
BRANCH  96  98
ATOM     98  C   UNL A   1      36.774  22.956  25.102  1.00  0.00     0.127 C 
BRANCH  98  99
ATOM     99  C   UNL A   1      35.244  22.964  25.574  1.00  0.00     0.070 C 
ATOM    100  C   UNL A   1      34.454  24.127  24.923  1.00  0.00    -0.035 A 
ATOM    101  C   UNL A   1      34.459  21.630  25.436  1.00  0.00    -0.025 A 
ATOM    102  C   UNL A   1      34.708  24.579  23.619  1.00  0.00     0.005 A 
ATOM    103  C   UNL A   1      33.345  24.689  25.596  1.00  0.00    -0.034 A 
ATOM    104  C   UNL A   1      33.050  21.515  25.538  1.00  0.00     0.011 A 
ATOM    105  C   UNL A   1      35.163  20.448  25.115  1.00  0.00     0.005 A 
ATOM    106  C   UNL A   1      33.910  25.553  23.010  1.00  0.00     0.000 A 
ATOM    107  C   UNL A   1      32.574  25.705  24.993  1.00  0.00     0.005 A 
ATOM    108  C   UNL A   1      32.823  24.051  26.852  1.00  0.00     0.110 C 
ATOM    109  S   UNL A   1      31.865  22.582  26.381  1.00  0.00    -0.121 SA
ATOM    110  C   UNL A   1      32.418  20.372  25.002  1.00  0.00     0.015 A 
ATOM    111  C   UNL A   1      34.521  19.304  24.637  1.00  0.00     0.000 A 
ATOM    112  C   UNL A   1      32.854  26.132  23.701  1.00  0.00     0.000 A 
ATOM    113  C   UNL A   1      33.145  19.292  24.513  1.00  0.00     0.001 A 
ENDBRANCH  98  99
ENDBRANCH  96  98
ENDBRANCH  89  96
ENDBRANCH  84  86
ENDBRANCH  83  84
ENDBRANCH  82  83
ENDBRANCH  81  82
ENDBRANCH  80  81
ENDBRANCH  79  80
ENDBRANCH  78  79
ENDBRANCH   1  78
TORSDOF 26
ENDMDL
