MODEL 1
REMARK VINA RESULT:     -11.6      0.000      0.000
REMARK SMILES Cc1ccccc1OCCN1C(=O)CC[C@H](C(=O)OCCOCCOCCOCCOC(=O)c2ccc(-c3c4nc(c(-c5c(F)cc(S(=O)(=O)[O-])cc5F)c5ccc([nH]5)c(-c5c(F)cc(S(=O)(=O)[O-])cc5F)c5nc(c(-c6c(F)cc(S(=O)(=O)[O-])cc6F)c6ccc3[nH]6)C=C5)C=C4)cc2)[C@@H]1c1ccco1
REMARK SMILES IDX 24 1 23 2 22 3 21 4 20 5 19 6 17 7 18 8 16 9 11 10 12 11
REMARK SMILES IDX 100 12 13 13 14 14 15 15 10 16 9 17 8 18 7 19 1 20 2 21 3 22
REMARK SMILES IDX 4 23 6 24 5 25 101 26 102 27 105 28 103 29 104 30 25 31
REMARK SMILES IDX 26 32 27 33 28 34 29 35 30 36 31 37 32 38 33 39 34 40 35 41
REMARK SMILES IDX 99 42 36 43 98 44 37 45 38 46 39 47 92 48 40 49 97 50 91 51
REMARK SMILES IDX 93 52 41 53 96 54 90 55 89 56 42 58 76 59 55 60 75 61 56 62
REMARK SMILES IDX 59 63 74 64 94 65 57 66 58 67 73 69 95 70 60 71 43 72 44 73
REMARK SMILES IDX 53 74 45 75 46 76 52 77 54 78 47 79 48 80 49 81 50 82 51 83
REMARK SMILES IDX 77 84 78 85 87 86 79 87 80 88 86 89 88 90 81 91 82 92 83 93
REMARK SMILES IDX 84 94 85 95 61 96 62 97 71 98 63 99 64 100 70 101 72 102
REMARK SMILES IDX 65 103 66 104 67 105 68 106 69 107
REMARK H PARENT 93 57 59 68
REMARK Flexibility Score: inf
ROOT
ATOM      1  C   UNL A   1      30.841  27.156  23.600  1.00  0.00     0.188 C 
ENDROOT
BRANCH   1   2
ATOM      2  C   UNL A   1      32.005  27.683  22.782  1.00  0.00     0.188 C 
BRANCH   2   3
ATOM      3  O   UNL A   1      32.277  26.640  21.859  1.00  0.00    -0.376 OA
BRANCH   3   4
ATOM      4  C   UNL A   1      33.021  25.612  22.469  1.00  0.00     0.202 C 
BRANCH   4   5
ATOM      5  C   UNL A   1      33.186  24.430  21.557  1.00  0.00     0.261 C 
BRANCH   5   6
ATOM      6  O   UNL A   1      33.699  23.232  22.056  1.00  0.00    -0.463 OA
BRANCH   6   7
ATOM      7  C   UNL A   1      32.775  22.428  22.567  1.00  0.00     0.311 C 
ATOM      8  O   UNL A   1      32.121  21.568  21.989  1.00  0.00    -0.252 OA
BRANCH   7   9
ATOM      9  C   UNL A   1      32.555  22.794  23.978  1.00  0.00     0.130 C 
ATOM     10  N   UNL A   1      33.533  22.480  26.131  1.00  0.00    -0.328 N 
ATOM     11  C   UNL A   1      32.355  22.668  26.831  1.00  0.00     0.223 C 
ATOM     12  C   UNL A   1      33.523  21.977  24.775  1.00  0.00     0.166 C 
ATOM     13  O   UNL A   1      32.333  22.859  28.048  1.00  0.00    -0.275 OA
ATOM     14  C   UNL A   1      31.056  22.602  26.031  1.00  0.00     0.101 C 
ATOM     15  C   UNL A   1      31.170  22.997  24.566  1.00  0.00     0.028 C 
BRANCH  10  16
ATOM     16  C   UNL A   1      34.831  22.770  26.710  1.00  0.00     0.162 C 
BRANCH  16  17
ATOM     17  C   UNL A   1      35.541  23.970  26.053  1.00  0.00     0.251 C 
BRANCH  17  18
ATOM     18  O   UNL A   1      36.654  23.657  25.211  1.00  0.00    -0.491 OA
BRANCH  18  19
ATOM     19  C   UNL A   1      37.828  23.224  25.765  1.00  0.00     0.122 A 
ATOM     20  C   UNL A   1      37.790  20.780  24.931  1.00  0.00     0.048 C 
ATOM     21  C   UNL A   1      38.390  21.941  25.681  1.00  0.00    -0.009 A 
ATOM     22  C   UNL A   1      39.598  21.695  26.376  1.00  0.00     0.007 A 
ATOM     23  C   UNL A   1      40.213  22.673  27.158  1.00  0.00     0.001 A 
ATOM     24  C   UNL A   1      38.434  24.183  26.595  1.00  0.00     0.047 A 
ATOM     25  C   UNL A   1      39.620  23.919  27.280  1.00  0.00     0.004 A 
ENDBRANCH  18  19
ENDBRANCH  17  18
ENDBRANCH  16  17
ENDBRANCH  10  16
BRANCH  12  26
ATOM     26  C   UNL A   1      33.416  20.478  24.786  1.00  0.00     0.127 A 
ATOM     27  C   UNL A   1      32.316  19.639  24.806  1.00  0.00     0.048 A 
ATOM     28  O   UNL A   1      34.547  19.732  24.601  1.00  0.00    -0.467 OA
ATOM     29  C   UNL A   1      32.793  18.329  24.580  1.00  0.00     0.042 A 
ATOM     30  C   UNL A   1      34.157  18.438  24.469  1.00  0.00     0.195 A 
ENDBRANCH  12  26
ENDBRANCH   7   9
ENDBRANCH   6   7
ENDBRANCH   5   6
ENDBRANCH   4   5
ENDBRANCH   3   4
ENDBRANCH   2   3
ENDBRANCH   1   2
BRANCH   1  31
ATOM     31  O   UNL A   1      29.614  27.811  23.284  1.00  0.00    -0.377 OA
BRANCH  31  32
ATOM     32  C   UNL A   1      29.793  28.981  22.494  1.00  0.00     0.188 C 
BRANCH  32  33
ATOM     33  C   UNL A   1      28.735  30.009  22.875  1.00  0.00     0.188 C 
BRANCH  33  34
ATOM     34  O   UNL A   1      29.124  30.974  23.888  1.00  0.00    -0.376 OA
BRANCH  34  35
ATOM     35  C   UNL A   1      30.333  31.222  24.734  1.00  0.00     0.202 C 
BRANCH  35  36
ATOM     36  C   UNL A   1      31.708  30.407  25.718  1.00  0.00     0.261 C 
BRANCH  36  37
ATOM     37  O   UNL A   1      32.919  30.780  27.003  1.00  0.00    -0.460 OA
BRANCH  37  38
ATOM     38  C   UNL A   1      34.306  31.207  27.687  1.00  0.00     0.338 C 
ATOM     39  O   UNL A   1      34.552  32.420  27.599  1.00  0.00    -0.246 OA
BRANCH  38  40
ATOM     40  C   UNL A   1      35.732  30.203  28.223  1.00  0.00     0.060 A 
ATOM     41  C   UNL A   1      35.787  29.598  29.490  1.00  0.00     0.016 A 
ATOM     42  C   UNL A   1      36.993  29.980  27.600  1.00  0.00     0.016 A 
ATOM     43  C   UNL A   1      37.048  29.321  30.191  1.00  0.00     0.010 A 
ATOM     44  C   UNL A   1      38.269  29.884  28.326  1.00  0.00     0.010 A 
ATOM     45  C   UNL A   1      38.328  29.705  29.699  1.00  0.00    -0.014 A 
BRANCH  45  46
ATOM     46  C   UNL A   1      39.352  30.477  30.586  1.00  0.00     0.031 A 
ATOM     47  C   UNL A   1      39.319  31.444  31.819  1.00  0.00     0.074 A 
ATOM     48  C   UNL A   1      40.562  29.964  30.304  1.00  0.00     0.049 A 
ATOM     49  N   UNL A   1      40.080  32.527  32.010  1.00  0.00    -0.248 NA
ATOM     50  C   UNL A   1      38.464  31.211  32.980  1.00  0.00     0.031 C 
ATOM     51  C   UNL A   1      41.622  29.466  31.120  1.00  0.00     0.029 A 
ATOM     52  N   UNL A   1      41.107  29.920  29.048  1.00  0.00    -0.354 N 
ATOM     53  C   UNL A   1      39.909  33.026  33.345  1.00  0.00     0.074 A 
ATOM     54  C   UNL A   1      38.843  32.166  33.853  1.00  0.00     0.031 C 
ATOM     55  C   UNL A   1      42.747  29.388  30.417  1.00  0.00     0.029 A 
ATOM     56  C   UNL A   1      42.461  29.916  29.131  1.00  0.00     0.049 A 
ATOM     57  H   UNL A   1      40.592  29.894  28.209  1.00  0.00     0.167 HD
ATOM     58  C   UNL A   1      40.734  33.948  34.021  1.00  0.00     0.037 A 
ATOM     59  C   UNL A   1      43.419  29.700  28.247  1.00  0.00     0.037 A 
ATOM     60  C   UNL A   1      42.007  34.321  33.277  1.00  0.00     0.049 A 
ATOM     61  C   UNL A   1      43.825  31.241  28.250  1.00  0.00     0.074 A 
ATOM     62  C   UNL A   1      43.350  34.276  33.662  1.00  0.00     0.029 A 
ATOM     63  N   UNL A   1      42.076  34.567  31.880  1.00  0.00    -0.354 N 
ATOM     64  N   UNL A   1      43.769  32.031  29.352  1.00  0.00    -0.248 NA
ATOM     65  C   UNL A   1      44.249  32.061  27.118  1.00  0.00     0.031 C 
ATOM     66  C   UNL A   1      44.201  34.376  32.518  1.00  0.00     0.029 A 
ATOM     67  C   UNL A   1      43.404  34.416  31.371  1.00  0.00     0.049 A 
ATOM     68  H   UNL A   1      41.300  34.813  31.326  1.00  0.00     0.167 HD
ATOM     69  C   UNL A   1      43.959  33.394  29.076  1.00  0.00     0.074 A 
ATOM     70  C   UNL A   1      44.374  33.295  27.665  1.00  0.00     0.031 C 
ATOM     71  C   UNL A   1      43.743  34.517  29.919  1.00  0.00     0.037 A 
BRANCH  58  72
ATOM     72  C   UNL A   1      40.575  34.392  35.611  1.00  0.00     0.058 A 
ATOM     73  C   UNL A   1      40.302  35.727  36.060  1.00  0.00     0.135 A 
ATOM     74  C   UNL A   1      40.607  33.504  36.721  1.00  0.00     0.135 A 
ATOM     75  F   UNL A   1      40.067  36.733  35.216  1.00  0.00    -0.206 F 
ATOM     76  C   UNL A   1      40.170  36.143  37.411  1.00  0.00     0.059 A 
ATOM     77  C   UNL A   1      40.474  33.896  38.094  1.00  0.00     0.059 A 
ATOM     78  F   UNL A   1      40.684  32.179  36.534  1.00  0.00    -0.206 F 
ATOM     79  C   UNL A   1      40.254  35.223  38.435  1.00  0.00     0.060 A 
BRANCH  79  80
ATOM     80  S   UNL A   1      39.948  35.772  40.143  1.00  0.00     0.124 S 
ATOM     81  O   UNL A   1      40.967  35.049  40.899  1.00  0.00    -0.237 OA
ATOM     82  O   UNL A   1      40.142  37.216  40.052  1.00  0.00    -0.237 OA
ATOM     83  O   UNL A   1      38.573  35.348  40.398  1.00  0.00    -0.744 OA
ENDBRANCH  79  80
ENDBRANCH  58  72
BRANCH  59  84
ATOM     84  C   UNL A   1      43.157  28.207  27.784  1.00  0.00     0.058 A 
ATOM     85  C   UNL A   1      43.150  28.015  26.363  1.00  0.00     0.135 A 
ATOM     86  C   UNL A   1      43.931  27.158  28.252  1.00  0.00     0.135 A 
ATOM     87  F   UNL A   1      42.162  28.612  25.673  1.00  0.00    -0.206 F 
ATOM     88  C   UNL A   1      44.249  27.381  25.526  1.00  0.00     0.059 A 
ATOM     89  C   UNL A   1      44.906  26.400  27.412  1.00  0.00     0.059 A 
ATOM     90  F   UNL A   1      43.992  26.918  29.574  1.00  0.00    -0.206 F 
ATOM     91  C   UNL A   1      45.316  26.621  26.045  1.00  0.00     0.060 A 
BRANCH  91  92
ATOM     92  S   UNL A   1      47.082  25.759  24.901  1.00  0.00     0.124 S 
ATOM     93  O   UNL A   1      47.734  26.699  23.967  1.00  0.00    -0.237 OA
ATOM     94  O   UNL A   1      48.229  25.436  25.766  1.00  0.00    -0.237 OA
ATOM     95  O   UNL A   1      46.500  24.649  24.243  1.00  0.00    -0.744 OA
ENDBRANCH  91  92
ENDBRANCH  59  84
BRANCH  71  96
ATOM     96  C   UNL A   1      43.880  36.014  29.533  1.00  0.00     0.058 A 
ATOM     97  C   UNL A   1      45.001  36.806  29.789  1.00  0.00     0.135 A 
ATOM     98  C   UNL A   1      42.885  36.668  28.726  1.00  0.00     0.135 A 
ATOM     99  F   UNL A   1      46.110  36.301  30.338  1.00  0.00    -0.206 F 
ATOM    100  C   UNL A   1      45.077  38.150  29.406  1.00  0.00     0.059 A 
ATOM    101  C   UNL A   1      42.984  37.968  28.255  1.00  0.00     0.059 A 
ATOM    102  F   UNL A   1      41.758  36.074  28.315  1.00  0.00    -0.206 F 
ATOM    103  C   UNL A   1      44.067  38.721  28.639  1.00  0.00     0.060 A 
BRANCH 103 104
ATOM    104  S   UNL A   1      44.212  40.422  28.086  1.00  0.00     0.124 S 
ATOM    105  O   UNL A   1      45.297  40.316  27.116  1.00  0.00    -0.237 OA
ATOM    106  O   UNL A   1      42.887  40.681  27.531  1.00  0.00    -0.237 OA
ATOM    107  O   UNL A   1      44.527  41.155  29.308  1.00  0.00    -0.744 OA
ENDBRANCH 103 104
ENDBRANCH  71  96
ENDBRANCH  45  46
ENDBRANCH  38  40
ENDBRANCH  37  38
ENDBRANCH  36  37
ENDBRANCH  35  36
ENDBRANCH  34  35
ENDBRANCH  33  34
ENDBRANCH  32  33
ENDBRANCH  31  32
ENDBRANCH   1  31
TORSDOF 28
ENDMDL
MODEL 2
REMARK VINA RESULT:      -9.3      2.899      8.755
REMARK SMILES Cc1ccccc1OCCN1C(=O)CC[C@H](C(=O)OCCOCCOCCOCCOC(=O)c2ccc(-c3c4nc(c(-c5c(F)cc(S(=O)(=O)[O-])cc5F)c5ccc([nH]5)c(-c5c(F)cc(S(=O)(=O)[O-])cc5F)c5nc(c(-c6c(F)cc(S(=O)(=O)[O-])cc6F)c6ccc3[nH]6)C=C5)C=C4)cc2)[C@@H]1c1ccco1
REMARK SMILES IDX 24 1 23 2 22 3 21 4 20 5 19 6 17 7 18 8 16 9 11 10 12 11
REMARK SMILES IDX 100 12 13 13 14 14 15 15 10 16 9 17 8 18 7 19 1 20 2 21 3 22
REMARK SMILES IDX 4 23 6 24 5 25 101 26 102 27 105 28 103 29 104 30 25 31
REMARK SMILES IDX 26 32 27 33 28 34 29 35 30 36 31 37 32 38 33 39 34 40 35 41
REMARK SMILES IDX 99 42 36 43 98 44 37 45 38 46 39 47 92 48 40 49 97 50 91 51
REMARK SMILES IDX 93 52 41 53 96 54 90 55 89 56 42 58 76 59 55 60 75 61 56 62
REMARK SMILES IDX 59 63 74 64 94 65 57 66 58 67 73 69 95 70 60 71 43 72 44 73
REMARK SMILES IDX 53 74 45 75 46 76 52 77 54 78 47 79 48 80 49 81 50 82 51 83
REMARK SMILES IDX 77 84 78 85 87 86 79 87 80 88 86 89 88 90 81 91 82 92 83 93
REMARK SMILES IDX 84 94 85 95 61 96 62 97 71 98 63 99 64 100 70 101 72 102
REMARK SMILES IDX 65 103 66 104 67 105 68 106 69 107
REMARK H PARENT 93 57 59 68
REMARK Flexibility Score: inf
ROOT
ATOM      1  C   UNL A   1      31.795  27.212  24.275  1.00  0.00     0.188 C 
ENDROOT
BRANCH   1   2
ATOM      2  C   UNL A   1      33.278  27.234  23.958  1.00  0.00     0.188 C 
BRANCH   2   3
ATOM      3  O   UNL A   1      33.359  26.686  22.652  1.00  0.00    -0.376 OA
BRANCH   3   4
ATOM      4  C   UNL A   1      33.778  25.342  22.695  1.00  0.00     0.202 C 
BRANCH   4   5
ATOM      5  C   UNL A   1      32.631  24.396  22.487  1.00  0.00     0.261 C 
BRANCH   5   6
ATOM      6  O   UNL A   1      32.844  23.174  21.848  1.00  0.00    -0.463 OA
BRANCH   6   7
ATOM      7  C   UNL A   1      32.520  22.120  22.587  1.00  0.00     0.311 C 
ATOM      8  O   UNL A   1      32.301  20.975  22.212  1.00  0.00    -0.252 OA
BRANCH   7   9
ATOM      9  C   UNL A   1      32.351  22.556  23.986  1.00  0.00     0.130 C 
ATOM     10  N   UNL A   1      33.471  22.457  26.089  1.00  0.00    -0.328 N 
ATOM     11  C   UNL A   1      32.324  22.596  26.848  1.00  0.00     0.223 C 
ATOM     12  C   UNL A   1      33.427  21.871  24.767  1.00  0.00     0.166 C 
ATOM     13  O   UNL A   1      32.355  22.861  28.051  1.00  0.00    -0.275 OA
ATOM     14  C   UNL A   1      30.991  22.377  26.135  1.00  0.00     0.101 C 
ATOM     15  C   UNL A   1      30.989  22.686  24.645  1.00  0.00     0.028 C 
BRANCH  10  16
ATOM     16  C   UNL A   1      34.772  22.884  26.569  1.00  0.00     0.162 C 
BRANCH  16  17
ATOM     17  C   UNL A   1      35.845  22.939  25.464  1.00  0.00     0.251 C 
BRANCH  17  18
ATOM     18  O   UNL A   1      36.987  22.100  25.656  1.00  0.00    -0.491 OA
BRANCH  18  19
ATOM     19  C   UNL A   1      38.175  22.645  26.057  1.00  0.00     0.122 A 
ATOM     20  C   UNL A   1      39.621  20.505  26.063  1.00  0.00     0.048 C 
ATOM     21  C   UNL A   1      39.394  21.981  26.266  1.00  0.00    -0.009 A 
ATOM     22  C   UNL A   1      40.496  22.737  26.732  1.00  0.00     0.007 A 
ATOM     23  C   UNL A   1      40.389  24.099  27.017  1.00  0.00     0.001 A 
ATOM     24  C   UNL A   1      38.072  24.006  26.396  1.00  0.00     0.047 A 
ATOM     25  C   UNL A   1      39.168  24.733  26.863  1.00  0.00     0.004 A 
ENDBRANCH  18  19
ENDBRANCH  17  18
ENDBRANCH  16  17
ENDBRANCH  10  16
BRANCH  12  26
ATOM     26  C   UNL A   1      33.445  20.371  24.872  1.00  0.00     0.127 A 
ATOM     27  C   UNL A   1      32.439  19.460  25.145  1.00  0.00     0.048 A 
ATOM     28  O   UNL A   1      34.576  19.696  24.510  1.00  0.00    -0.467 OA
ATOM     29  C   UNL A   1      32.968  18.175  24.896  1.00  0.00     0.042 A 
ATOM     30  C   UNL A   1      34.274  18.372  24.519  1.00  0.00     0.195 A 
ENDBRANCH  12  26
ENDBRANCH   7   9
ENDBRANCH   6   7
ENDBRANCH   5   6
ENDBRANCH   4   5
ENDBRANCH   3   4
ENDBRANCH   2   3
ENDBRANCH   1   2
BRANCH   1  31
ATOM     31  O   UNL A   1      30.992  27.546  23.145  1.00  0.00    -0.377 OA
BRANCH  31  32
ATOM     32  C   UNL A   1      31.172  28.889  22.711  1.00  0.00     0.188 C 
BRANCH  32  33
ATOM     33  C   UNL A   1      30.061  29.757  23.291  1.00  0.00     0.188 C 
BRANCH  33  34
ATOM     34  O   UNL A   1      30.279  30.247  24.641  1.00  0.00    -0.376 OA
BRANCH  34  35
ATOM     35  C   UNL A   1      31.456  30.694  25.449  1.00  0.00     0.202 C 
BRANCH  35  36
ATOM     36  C   UNL A   1      33.085  30.157  26.211  1.00  0.00     0.261 C 
BRANCH  36  37
ATOM     37  O   UNL A   1      34.235  30.617  27.523  1.00  0.00    -0.460 OA
BRANCH  37  38
ATOM     38  C   UNL A   1      35.603  30.741  28.352  1.00  0.00     0.338 C 
ATOM     39  O   UNL A   1      36.362  29.770  28.209  1.00  0.00    -0.246 OA
BRANCH  38  40
ATOM     40  C   UNL A   1      36.068  31.843  29.730  1.00  0.00     0.060 A 
ATOM     41  C   UNL A   1      36.286  33.219  29.547  1.00  0.00     0.016 A 
ATOM     42  C   UNL A   1      36.413  31.542  31.079  1.00  0.00     0.016 A 
ATOM     43  C   UNL A   1      37.196  34.005  30.391  1.00  0.00     0.010 A 
ATOM     44  C   UNL A   1      37.461  32.240  31.840  1.00  0.00     0.010 A 
ATOM     45  C   UNL A   1      38.005  33.443  31.419  1.00  0.00    -0.014 A 
BRANCH  45  46
ATOM     46  C   UNL A   1      39.534  33.733  31.513  1.00  0.00     0.031 A 
ATOM     47  C   UNL A   1      40.716  34.049  30.534  1.00  0.00     0.074 A 
ATOM     48  C   UNL A   1      39.796  33.974  32.810  1.00  0.00     0.049 A 
ATOM     49  N   UNL A   1      41.966  33.582  30.608  1.00  0.00    -0.248 NA
ATOM     50  C   UNL A   1      40.589  34.992  29.425  1.00  0.00     0.031 C 
ATOM     51  C   UNL A   1      40.488  35.026  33.484  1.00  0.00     0.029 A 
ATOM     52  N   UNL A   1      39.512  33.104  33.829  1.00  0.00    -0.354 N 
ATOM     53  C   UNL A   1      42.807  34.261  29.664  1.00  0.00     0.074 A 
ATOM     54  C   UNL A   1      41.843  35.085  28.940  1.00  0.00     0.031 C 
ATOM     55  C   UNL A   1      40.787  34.659  34.725  1.00  0.00     0.029 A 
ATOM     56  C   UNL A   1      40.361  33.312  34.866  1.00  0.00     0.049 A 
ATOM     57  H   UNL A   1      38.797  32.427  33.812  1.00  0.00     0.167 HD
ATOM     58  C   UNL A   1      44.217  34.273  29.635  1.00  0.00     0.037 A 
ATOM     59  C   UNL A   1      40.387  32.879  36.114  1.00  0.00     0.037 A 
ATOM     60  C   UNL A   1      44.880  33.602  30.828  1.00  0.00     0.049 A 
ATOM     61  C   UNL A   1      41.636  31.938  35.804  1.00  0.00     0.074 A 
ATOM     62  C   UNL A   1      45.836  34.065  31.736  1.00  0.00     0.029 A 
ATOM     63  N   UNL A   1      44.433  32.388  31.416  1.00  0.00    -0.354 N 
ATOM     64  N   UNL A   1      42.627  32.266  34.938  1.00  0.00    -0.248 NA
ATOM     65  C   UNL A   1      41.899  30.596  36.319  1.00  0.00     0.031 C 
ATOM     66  C   UNL A   1      45.882  33.220  32.888  1.00  0.00     0.029 A 
ATOM     67  C   UNL A   1      44.897  32.238  32.760  1.00  0.00     0.049 A 
ATOM     68  H   UNL A   1      43.870  31.728  30.951  1.00  0.00     0.167 HD
ATOM     69  C   UNL A   1      43.501  31.204  34.657  1.00  0.00     0.074 A 
ATOM     70  C   UNL A   1      43.031  30.237  35.666  1.00  0.00     0.031 C 
ATOM     71  C   UNL A   1      44.493  31.104  33.646  1.00  0.00     0.037 A 
BRANCH  58  72
ATOM     72  C   UNL A   1      45.148  35.182  28.607  1.00  0.00     0.058 A 
ATOM     73  C   UNL A   1      45.490  36.559  28.823  1.00  0.00     0.135 A 
ATOM     74  C   UNL A   1      45.789  34.701  27.432  1.00  0.00     0.135 A 
ATOM     75  F   UNL A   1      45.150  37.217  29.931  1.00  0.00    -0.206 F 
ATOM     76  C   UNL A   1      46.274  37.369  27.959  1.00  0.00     0.059 A 
ATOM     77  C   UNL A   1      46.588  35.496  26.546  1.00  0.00     0.059 A 
ATOM     78  F   UNL A   1      45.749  33.399  27.117  1.00  0.00    -0.206 F 
ATOM     79  C   UNL A   1      46.828  36.836  26.815  1.00  0.00     0.060 A 
BRANCH  79  80
ATOM     80  S   UNL A   1      47.937  37.868  25.805  1.00  0.00     0.124 S 
ATOM     81  O   UNL A   1      48.788  36.879  25.152  1.00  0.00    -0.237 OA
ATOM     82  O   UNL A   1      47.004  38.568  24.927  1.00  0.00    -0.237 OA
ATOM     83  O   UNL A   1      48.611  38.712  26.789  1.00  0.00    -0.744 OA
ENDBRANCH  79  80
ENDBRANCH  58  72
BRANCH  59  84
ATOM     84  C   UNL A   1      39.043  33.454  36.725  1.00  0.00     0.058 A 
ATOM     85  C   UNL A   1      38.091  32.455  37.119  1.00  0.00     0.135 A 
ATOM     86  C   UNL A   1      39.053  34.335  37.794  1.00  0.00     0.135 A 
ATOM     87  F   UNL A   1      37.557  31.706  36.139  1.00  0.00    -0.206 F 
ATOM     88  C   UNL A   1      37.769  32.015  38.537  1.00  0.00     0.059 A 
ATOM     89  C   UNL A   1      38.589  33.984  39.170  1.00  0.00     0.059 A 
ATOM     90  F   UNL A   1      39.703  35.507  37.681  1.00  0.00    -0.206 F 
ATOM     91  C   UNL A   1      38.142  32.716  39.700  1.00  0.00     0.060 A 
BRANCH  91  92
ATOM     92  S   UNL A   1      37.842  32.071  41.859  1.00  0.00     0.124 S 
ATOM     93  O   UNL A   1      36.856  32.871  42.614  1.00  0.00    -0.237 OA
ATOM     94  O   UNL A   1      37.225  30.739  41.984  1.00  0.00    -0.237 OA
ATOM     95  O   UNL A   1      39.150  32.174  42.389  1.00  0.00    -0.744 OA
ENDBRANCH  91  92
ENDBRANCH  59  84
BRANCH  71  96
ATOM     96  C   UNL A   1      45.371  29.867  33.318  1.00  0.00     0.058 A 
ATOM     97  C   UNL A   1      46.715  29.725  33.667  1.00  0.00     0.135 A 
ATOM     98  C   UNL A   1      44.798  28.680  32.742  1.00  0.00     0.135 A 
ATOM     99  F   UNL A   1      47.353  30.642  34.400  1.00  0.00    -0.206 F 
ATOM    100  C   UNL A   1      47.457  28.579  33.357  1.00  0.00     0.059 A 
ATOM    101  C   UNL A   1      45.492  27.501  32.515  1.00  0.00     0.059 A 
ATOM    102  F   UNL A   1      43.511  28.576  32.387  1.00  0.00    -0.206 F 
ATOM    103  C   UNL A   1      46.839  27.474  32.784  1.00  0.00     0.060 A 
BRANCH 103 104
ATOM    104  S   UNL A   1      47.782  25.981  32.465  1.00  0.00     0.124 S 
ATOM    105  O   UNL A   1      47.064  25.009  33.282  1.00  0.00    -0.237 OA
ATOM    106  O   UNL A   1      47.638  25.827  31.021  1.00  0.00    -0.237 OA
ATOM    107  O   UNL A   1      49.126  26.320  32.922  1.00  0.00    -0.744 OA
ENDBRANCH 103 104
ENDBRANCH  71  96
ENDBRANCH  45  46
ENDBRANCH  38  40
ENDBRANCH  37  38
ENDBRANCH  36  37
ENDBRANCH  35  36
ENDBRANCH  34  35
ENDBRANCH  33  34
ENDBRANCH  32  33
ENDBRANCH  31  32
ENDBRANCH   1  31
TORSDOF 28
ENDMDL
MODEL 3
REMARK VINA RESULT:      -9.0      9.998     14.463
REMARK SMILES Cc1ccccc1OCCN1C(=O)CC[C@H](C(=O)OCCOCCOCCOCCOC(=O)c2ccc(-c3c4nc(c(-c5c(F)cc(S(=O)(=O)[O-])cc5F)c5ccc([nH]5)c(-c5c(F)cc(S(=O)(=O)[O-])cc5F)c5nc(c(-c6c(F)cc(S(=O)(=O)[O-])cc6F)c6ccc3[nH]6)C=C5)C=C4)cc2)[C@@H]1c1ccco1
REMARK SMILES IDX 24 1 23 2 22 3 21 4 20 5 19 6 17 7 18 8 16 9 11 10 12 11
REMARK SMILES IDX 100 12 13 13 14 14 15 15 10 16 9 17 8 18 7 19 1 20 2 21 3 22
REMARK SMILES IDX 4 23 6 24 5 25 101 26 102 27 105 28 103 29 104 30 25 31
REMARK SMILES IDX 26 32 27 33 28 34 29 35 30 36 31 37 32 38 33 39 34 40 35 41
REMARK SMILES IDX 99 42 36 43 98 44 37 45 38 46 39 47 92 48 40 49 97 50 91 51
REMARK SMILES IDX 93 52 41 53 96 54 90 55 89 56 42 58 76 59 55 60 75 61 56 62
REMARK SMILES IDX 59 63 74 64 94 65 57 66 58 67 73 69 95 70 60 71 43 72 44 73
REMARK SMILES IDX 53 74 45 75 46 76 52 77 54 78 47 79 48 80 49 81 50 82 51 83
REMARK SMILES IDX 77 84 78 85 87 86 79 87 80 88 86 89 88 90 81 91 82 92 83 93
REMARK SMILES IDX 84 94 85 95 61 96 62 97 71 98 63 99 64 100 70 101 72 102
REMARK SMILES IDX 65 103 66 104 67 105 68 106 69 107
REMARK H PARENT 93 57 59 68
REMARK Flexibility Score: inf
ROOT
ATOM      1  C   UNL A   1      47.761  22.899  35.735  1.00  0.00     0.188 C 
ENDROOT
BRANCH   1   2
ATOM      2  C   UNL A   1      47.055  23.420  36.973  1.00  0.00     0.188 C 
BRANCH   2   3
ATOM      3  O   UNL A   1      47.323  22.438  37.961  1.00  0.00    -0.376 OA
BRANCH   3   4
ATOM      4  C   UNL A   1      46.176  21.665  38.226  1.00  0.00     0.202 C 
BRANCH   4   5
ATOM      5  C   UNL A   1      46.517  20.218  38.434  1.00  0.00     0.261 C 
BRANCH   5   6
ATOM      6  O   UNL A   1      45.714  19.423  39.253  1.00  0.00    -0.463 OA
BRANCH   6   7
ATOM      7  C   UNL A   1      46.399  18.607  40.043  1.00  0.00     0.311 C 
ATOM      8  O   UNL A   1      47.244  17.780  39.721  1.00  0.00    -0.252 OA
BRANCH   7   9
ATOM      9  C   UNL A   1      45.910  18.764  41.426  1.00  0.00     0.130 C 
ATOM     10  N   UNL A   1      45.212  17.448  43.287  1.00  0.00    -0.328 N 
ATOM     11  C   UNL A   1      44.421  18.434  43.847  1.00  0.00     0.223 C 
ATOM     12  C   UNL A   1      45.458  17.407  41.863  1.00  0.00     0.166 C 
ATOM     13  O   UNL A   1      43.996  18.364  45.002  1.00  0.00    -0.275 OA
ATOM     14  C   UNL A   1      44.064  19.623  42.958  1.00  0.00     0.101 C 
ATOM     15  C   UNL A   1      45.074  19.951  41.869  1.00  0.00     0.028 C 
BRANCH  10  16
ATOM     16  C   UNL A   1      45.831  16.407  44.086  1.00  0.00     0.162 C 
BRANCH  16  17
ATOM     17  C   UNL A   1      44.904  15.204  44.349  1.00  0.00     0.251 C 
BRANCH  17  18
ATOM     18  O   UNL A   1      45.406  13.925  43.949  1.00  0.00    -0.491 OA
BRANCH  18  19
ATOM     19  C   UNL A   1      44.801  12.784  44.398  1.00  0.00     0.122 A 
ATOM     20  C   UNL A   1      46.630  11.971  46.029  1.00  0.00     0.048 C 
ATOM     21  C   UNL A   1      45.302  11.859  45.327  1.00  0.00    -0.009 A 
ATOM     22  C   UNL A   1      44.524  10.712  45.614  1.00  0.00     0.007 A 
ATOM     23  C   UNL A   1      43.306  10.467  44.977  1.00  0.00     0.001 A 
ATOM     24  C   UNL A   1      43.596  12.498  43.731  1.00  0.00     0.047 A 
ATOM     25  C   UNL A   1      42.848  11.356  44.020  1.00  0.00     0.004 A 
ENDBRANCH  18  19
ENDBRANCH  17  18
ENDBRANCH  16  17
ENDBRANCH  10  16
BRANCH  12  26
ATOM     26  C   UNL A   1      44.310  16.732  41.164  1.00  0.00     0.127 A 
ATOM     27  C   UNL A   1      44.185  16.235  39.880  1.00  0.00     0.048 A 
ATOM     28  O   UNL A   1      43.208  16.379  41.892  1.00  0.00    -0.467 OA
ATOM     29  C   UNL A   1      42.974  15.509  39.834  1.00  0.00     0.042 A 
ATOM     30  C   UNL A   1      42.414  15.633  41.082  1.00  0.00     0.195 A 
ENDBRANCH  12  26
ENDBRANCH   7   9
ENDBRANCH   6   7
ENDBRANCH   5   6
ENDBRANCH   4   5
ENDBRANCH   3   4
ENDBRANCH   2   3
ENDBRANCH   1   2
BRANCH   1  31
ATOM     31  O   UNL A   1      46.998  21.907  35.051  1.00  0.00    -0.377 OA
BRANCH  31  32
ATOM     32  C   UNL A   1      47.804  20.911  34.433  1.00  0.00     0.188 C 
BRANCH  32  33
ATOM     33  C   UNL A   1      48.894  20.473  35.405  1.00  0.00     0.188 C 
BRANCH  33  34
ATOM     34  O   UNL A   1      50.260  20.613  34.931  1.00  0.00    -0.376 OA
BRANCH  34  35
ATOM     35  C   UNL A   1      51.068  21.686  34.272  1.00  0.00     0.202 C 
BRANCH  35  36
ATOM     36  C   UNL A   1      50.991  23.216  33.188  1.00  0.00     0.261 C 
BRANCH  36  37
ATOM     37  O   UNL A   1      49.797  24.357  32.460  1.00  0.00    -0.460 OA
BRANCH  37  38
ATOM     38  C   UNL A   1      49.050  25.731  32.108  1.00  0.00     0.338 C 
ATOM     39  O   UNL A   1      49.531  26.325  31.130  1.00  0.00    -0.246 OA
BRANCH  38  40
ATOM     40  C   UNL A   1      47.892  26.746  33.089  1.00  0.00     0.060 A 
ATOM     41  C   UNL A   1      46.498  26.595  32.991  1.00  0.00     0.016 A 
ATOM     42  C   UNL A   1      48.132  27.864  33.937  1.00  0.00     0.016 A 
ATOM     43  C   UNL A   1      45.554  27.693  33.243  1.00  0.00     0.010 A 
ATOM     44  C   UNL A   1      47.247  29.036  34.031  1.00  0.00     0.010 A 
ATOM     45  C   UNL A   1      45.954  29.029  33.531  1.00  0.00    -0.014 A 
BRANCH  45  46
ATOM     46  C   UNL A   1      45.365  30.248  32.758  1.00  0.00     0.031 A 
ATOM     47  C   UNL A   1      45.244  31.798  32.958  1.00  0.00     0.074 A 
ATOM     48  C   UNL A   1      45.106  29.819  31.511  1.00  0.00     0.049 A 
ATOM     49  N   UNL A   1      44.188  32.565  32.662  1.00  0.00    -0.248 NA
ATOM     50  C   UNL A   1      46.351  32.619  33.442  1.00  0.00     0.031 C 
ATOM     51  C   UNL A   1      45.436  30.327  30.218  1.00  0.00     0.029 A 
ATOM     52  N   UNL A   1      44.295  28.755  31.214  1.00  0.00    -0.354 N 
ATOM     53  C   UNL A   1      44.533  33.953  32.786  1.00  0.00     0.074 A 
ATOM     54  C   UNL A   1      45.888  33.880  33.326  1.00  0.00     0.031 C 
ATOM     55  C   UNL A   1      44.676  29.755  29.290  1.00  0.00     0.029 A 
ATOM     56  C   UNL A   1      43.766  28.907  29.975  1.00  0.00     0.049 A 
ATOM     57  H   UNL A   1      44.123  27.991  31.812  1.00  0.00     0.167 HD
ATOM     58  C   UNL A   1      43.810  35.056  32.287  1.00  0.00     0.037 A 
ATOM     59  C   UNL A   1      43.093  28.101  29.174  1.00  0.00     0.037 A 
ATOM     60  C   UNL A   1      42.624  34.691  31.409  1.00  0.00     0.049 A 
ATOM     61  C   UNL A   1      41.747  28.920  29.412  1.00  0.00     0.074 A 
ATOM     62  C   UNL A   1      42.277  35.080  30.112  1.00  0.00     0.029 A 
ATOM     63  N   UNL A   1      41.724  33.625  31.681  1.00  0.00    -0.354 N 
ATOM     64  N   UNL A   1      41.707  30.265  29.585  1.00  0.00    -0.248 NA
ATOM     65  C   UNL A   1      40.389  28.398  29.542  1.00  0.00     0.031 C 
ATOM     66  C   UNL A   1      41.281  34.205  29.577  1.00  0.00     0.029 A 
ATOM     67  C   UNL A   1      41.028  33.194  30.508  1.00  0.00     0.049 A 
ATOM     68  H   UNL A   1      41.594  33.230  32.573  1.00  0.00     0.167 HD
ATOM     69  C   UNL A   1      40.452  30.741  29.995  1.00  0.00     0.074 A 
ATOM     70  C   UNL A   1      39.662  29.508  29.821  1.00  0.00     0.031 C 
ATOM     71  C   UNL A   1      40.098  32.025  30.488  1.00  0.00     0.037 A 
BRANCH  58  72
ATOM     72  C   UNL A   1      44.316  36.635  32.335  1.00  0.00     0.058 A 
ATOM     73  C   UNL A   1      43.690  37.667  33.112  1.00  0.00     0.135 A 
ATOM     74  C   UNL A   1      45.471  37.150  31.684  1.00  0.00     0.135 A 
ATOM     75  F   UNL A   1      42.677  37.423  33.943  1.00  0.00    -0.206 F 
ATOM     76  C   UNL A   1      44.091  39.028  33.167  1.00  0.00     0.059 A 
ATOM     77  C   UNL A   1      45.898  38.518  31.726  1.00  0.00     0.059 A 
ATOM     78  F   UNL A   1      46.309  36.332  31.032  1.00  0.00    -0.206 F 
ATOM     79  C   UNL A   1      45.202  39.457  32.473  1.00  0.00     0.060 A 
BRANCH  79  80
ATOM     80  S   UNL A   1      45.761  41.178  32.675  1.00  0.00     0.124 S 
ATOM     81  O   UNL A   1      44.739  41.745  33.550  1.00  0.00    -0.237 OA
ATOM     82  O   UNL A   1      47.080  41.013  33.278  1.00  0.00    -0.237 OA
ATOM     83  O   UNL A   1      45.765  41.700  31.310  1.00  0.00    -0.744 OA
ENDBRANCH  79  80
ENDBRANCH  58  72
BRANCH  59  84
ATOM     84  C   UNL A   1      44.117  26.921  28.904  1.00  0.00     0.058 A 
ATOM     85  C   UNL A   1      43.789  25.685  29.554  1.00  0.00     0.135 A 
ATOM     86  C   UNL A   1      44.452  26.534  27.617  1.00  0.00     0.135 A 
ATOM     87  F   UNL A   1      43.828  25.676  30.898  1.00  0.00    -0.206 F 
ATOM     88  C   UNL A   1      43.207  24.441  28.903  1.00  0.00     0.059 A 
ATOM     89  C   UNL A   1      44.033  25.241  26.997  1.00  0.00     0.059 A 
ATOM     90  F   UNL A   1      45.000  27.431  26.777  1.00  0.00    -0.206 F 
ATOM     91  C   UNL A   1      43.168  24.206  27.514  1.00  0.00     0.060 A 
BRANCH  91  92
ATOM     92  S   UNL A   1      42.192  22.458  26.437  1.00  0.00     0.124 S 
ATOM     93  O   UNL A   1      42.710  22.201  25.078  1.00  0.00    -0.237 OA
ATOM     94  O   UNL A   1      42.485  21.157  27.061  1.00  0.00    -0.237 OA
ATOM     95  O   UNL A   1      40.826  22.828  26.440  1.00  0.00    -0.744 OA
ENDBRANCH  91  92
ENDBRANCH  59  84
BRANCH  71  96
ATOM     96  C   UNL A   1      38.709  32.472  31.017  1.00  0.00     0.058 A 
ATOM     97  C   UNL A   1      38.240  32.254  32.314  1.00  0.00     0.135 A 
ATOM     98  C   UNL A   1      37.841  33.298  30.222  1.00  0.00     0.135 A 
ATOM     99  F   UNL A   1      39.005  31.692  33.255  1.00  0.00    -0.206 F 
ATOM    100  C   UNL A   1      36.982  32.691  32.743  1.00  0.00     0.059 A 
ATOM    101  C   UNL A   1      36.634  33.821  30.660  1.00  0.00     0.059 A 
ATOM    102  F   UNL A   1      38.123  33.679  28.970  1.00  0.00    -0.206 F 
ATOM    103  C   UNL A   1      36.188  33.474  31.912  1.00  0.00     0.060 A 
BRANCH 103 104
ATOM    104  S   UNL A   1      34.611  34.095  32.501  1.00  0.00     0.124 S 
ATOM    105  O   UNL A   1      34.418  33.293  33.704  1.00  0.00    -0.237 OA
ATOM    106  O   UNL A   1      34.898  35.510  32.719  1.00  0.00    -0.237 OA
ATOM    107  O   UNL A   1      33.696  33.810  31.399  1.00  0.00    -0.744 OA
ENDBRANCH 103 104
ENDBRANCH  71  96
ENDBRANCH  45  46
ENDBRANCH  38  40
ENDBRANCH  37  38
ENDBRANCH  36  37
ENDBRANCH  35  36
ENDBRANCH  34  35
ENDBRANCH  33  34
ENDBRANCH  32  33
ENDBRANCH  31  32
ENDBRANCH   1  31
TORSDOF 28
ENDMDL
