MODEL 1
REMARK VINA RESULT:      -9.3      0.000      0.000
REMARK SMILES O=C(OCCOCCOCCOCCOC(=O)c1ccc(-c2c3nc(c(-c4c(F)cc(S(=O)(=O)[O-])cc4F)c4ccc([nH]4)c(-c4c(F)cc(S(=O)(=O)[O-])cc4F)c4nc(c(-c5c(F)cc(S(=O)(=O)[O-])cc5F)c5ccc2[nH]5)C=C4)C=C3)cc1)C1=Cc2c(Cl)cc(Cl)cc2O[C@@H]1C(F)(F)F
REMARK SMILES IDX 10 1 9 2 8 3 7 4 6 5 5 6 4 7 3 8 2 9 1 10 84 11 85 12 95 13
REMARK SMILES IDX 86 14 94 15 87 16 93 17 88 18 89 19 92 20 90 21 91 22 96 23
REMARK SMILES IDX 97 24 98 25 99 26 11 27 12 28 13 29 14 30 15 31 16 32 17 33
REMARK SMILES IDX 18 34 19 35 83 36 20 37 82 38 21 39 22 40 23 41 76 42 24 43
REMARK SMILES IDX 81 44 75 45 77 46 25 47 80 48 74 49 73 50 26 52 60 53 39 54
REMARK SMILES IDX 59 55 40 56 43 57 58 58 78 59 41 60 42 61 57 63 79 64 44 65
REMARK SMILES IDX 27 66 28 67 37 68 29 69 30 70 36 71 38 72 31 73 32 74 33 75
REMARK SMILES IDX 34 76 35 77 61 78 62 79 71 80 63 81 64 82 70 83 72 84 65 85
REMARK SMILES IDX 66 86 67 87 68 88 69 89 45 90 46 91 55 92 47 93 48 94 54 95
REMARK SMILES IDX 56 96 49 97 50 98 51 99 52 100 53 101
REMARK H PARENT 77 51 43 62
REMARK Flexibility Score: inf
ROOT
ATOM      1  C   UNL A   1      44.681  43.101  20.892  1.00  0.00     0.188 C 
ENDROOT
BRANCH   1   2
ATOM      2  O   UNL A   1      43.718  42.447  21.681  1.00  0.00    -0.377 OA
BRANCH   2   3
ATOM      3  C   UNL A   1      42.521  42.242  20.973  1.00  0.00     0.188 C 
BRANCH   3   4
ATOM      4  C   UNL A   1      41.675  43.500  20.712  1.00  0.00     0.188 C 
BRANCH   4   5
ATOM      5  O   UNL A   1      40.729  43.678  19.594  1.00  0.00    -0.376 OA
BRANCH   5   6
ATOM      6  C   UNL A   1      40.848  44.434  18.101  1.00  0.00     0.202 C 
BRANCH   6   7
ATOM      7  C   UNL A   1      41.695  46.411  17.725  1.00  0.00     0.261 C 
BRANCH   7   8
ATOM      8  O   UNL A   1      42.761  46.751  16.715  1.00  0.00    -0.460 OA
BRANCH   8   9
ATOM      9  C   UNL A   1      43.986  46.437  17.153  1.00  0.00     0.338 C 
ATOM     10  O   UNL A   1      44.552  45.375  17.072  1.00  0.00    -0.246 OA
BRANCH   9  11
ATOM     11  C   UNL A   1      44.133  47.520  18.118  1.00  0.00     0.087 C 
ATOM     12  C   UNL A   1      44.539  47.085  19.457  1.00  0.00     0.029 C 
ATOM     13  C   UNL A   1      45.241  48.534  16.925  1.00  0.00     0.316 C 
ATOM     14  C   UNL A   1      46.213  47.213  20.129  1.00  0.00     0.036 A 
ATOM     15  O   UNL A   1      47.092  48.572  17.539  1.00  0.00    -0.475 OA
ATOM     16  C   UNL A   1      46.530  46.701  21.365  1.00  0.00     0.053 A 
ATOM     17  C   UNL A   1      47.516  47.858  19.185  1.00  0.00     0.130 A 
ATOM     18  Cl  UNL A   1      45.382  45.958  22.397  1.00  0.00    -0.083 Cl
ATOM     19  C   UNL A   1      47.882  46.784  21.746  1.00  0.00     0.042 A 
ATOM     20  C   UNL A   1      48.814  47.885  19.627  1.00  0.00     0.067 A 
ATOM     21  C   UNL A   1      48.947  47.347  20.931  1.00  0.00     0.046 A 
ATOM     22  Cl  UNL A   1      50.527  47.352  21.652  1.00  0.00    -0.084 Cl
BRANCH  13  23
ATOM     23  C   UNL A   1      44.083  49.743  16.759  1.00  0.00     0.430 C 
ATOM     24  F   UNL A   1      43.029  49.517  15.952  1.00  0.00    -0.167 F 
ATOM     25  F   UNL A   1      43.513  49.902  17.995  1.00  0.00    -0.167 F 
ATOM     26  F   UNL A   1      44.566  50.974  16.458  1.00  0.00    -0.167 F 
ENDBRANCH  13  23
ENDBRANCH   9  11
ENDBRANCH   8   9
ENDBRANCH   7   8
ENDBRANCH   6   7
ENDBRANCH   5   6
ENDBRANCH   4   5
ENDBRANCH   3   4
ENDBRANCH   2   3
ENDBRANCH   1   2
BRANCH   1  27
ATOM     27  C   UNL A   1      46.005  42.354  20.678  1.00  0.00     0.188 C 
BRANCH  27  28
ATOM     28  O   UNL A   1      46.403  41.235  21.452  1.00  0.00    -0.376 OA
BRANCH  28  29
ATOM     29  C   UNL A   1      47.181  41.370  22.625  1.00  0.00     0.202 C 
BRANCH  29  30
ATOM     30  C   UNL A   1      47.114  40.361  23.780  1.00  0.00     0.261 C 
BRANCH  30  31
ATOM     31  O   UNL A   1      46.732  40.877  25.057  1.00  0.00    -0.460 OA
BRANCH  31  32
ATOM     32  C   UNL A   1      45.401  40.989  25.253  1.00  0.00     0.338 C 
ATOM     33  O   UNL A   1      44.626  41.684  24.621  1.00  0.00    -0.246 OA
BRANCH  32  34
ATOM     34  C   UNL A   1      44.966  39.974  26.238  1.00  0.00     0.060 A 
ATOM     35  C   UNL A   1      43.610  39.947  26.602  1.00  0.00     0.016 A 
ATOM     36  C   UNL A   1      45.865  39.064  26.799  1.00  0.00     0.016 A 
ATOM     37  C   UNL A   1      43.156  39.051  27.560  1.00  0.00     0.010 A 
ATOM     38  C   UNL A   1      45.418  38.199  27.800  1.00  0.00     0.010 A 
ATOM     39  C   UNL A   1      44.075  38.228  28.216  1.00  0.00    -0.014 A 
BRANCH  39  40
ATOM     40  C   UNL A   1      43.682  37.612  29.503  1.00  0.00     0.031 A 
ATOM     41  C   UNL A   1      43.999  38.368  30.765  1.00  0.00     0.074 A 
ATOM     42  C   UNL A   1      43.020  36.444  29.547  1.00  0.00     0.049 A 
ATOM     43  N   UNL A   1      43.823  38.016  32.010  1.00  0.00    -0.248 NA
ATOM     44  C   UNL A   1      44.601  39.703  30.596  1.00  0.00     0.031 C 
ATOM     45  C   UNL A   1      42.596  35.667  28.384  1.00  0.00     0.029 A 
ATOM     46  N   UNL A   1      42.596  35.705  30.622  1.00  0.00    -0.354 N 
ATOM     47  C   UNL A   1      44.306  39.074  32.771  1.00  0.00     0.074 A 
ATOM     48  C   UNL A   1      44.815  40.066  31.851  1.00  0.00     0.031 C 
ATOM     49  C   UNL A   1      41.986  34.547  28.810  1.00  0.00     0.029 A 
ATOM     50  C   UNL A   1      42.016  34.511  30.271  1.00  0.00     0.049 A 
ATOM     51  H   UNL A   1      42.698  36.003  31.555  1.00  0.00     0.167 HD
ATOM     52  C   UNL A   1      44.316  39.208  34.117  1.00  0.00     0.037 A 
ATOM     53  C   UNL A   1      41.589  33.495  31.047  1.00  0.00     0.037 A 
ATOM     54  C   UNL A   1      43.807  38.208  35.019  1.00  0.00     0.049 A 
ATOM     55  C   UNL A   1      41.699  33.624  32.546  1.00  0.00     0.074 A 
ATOM     56  C   UNL A   1      43.763  38.240  36.401  1.00  0.00     0.029 A 
ATOM     57  N   UNL A   1      43.266  36.991  34.629  1.00  0.00    -0.354 N 
ATOM     58  N   UNL A   1      42.152  34.628  33.259  1.00  0.00    -0.248 NA
ATOM     59  C   UNL A   1      41.236  32.482  33.347  1.00  0.00     0.031 C 
ATOM     60  C   UNL A   1      43.264  37.015  36.849  1.00  0.00     0.029 A 
ATOM     61  C   UNL A   1      42.916  36.250  35.746  1.00  0.00     0.049 A 
ATOM     62  H   UNL A   1      43.148  36.697  33.697  1.00  0.00     0.167 HD
ATOM     63  C   UNL A   1      41.991  34.256  34.591  1.00  0.00     0.074 A 
ATOM     64  C   UNL A   1      41.390  32.939  34.582  1.00  0.00     0.031 C 
ATOM     65  C   UNL A   1      42.307  34.941  35.719  1.00  0.00     0.037 A 
BRANCH  52  66
ATOM     66  C   UNL A   1      44.926  40.457  34.696  1.00  0.00     0.058 A 
ATOM     67  C   UNL A   1      46.287  40.535  35.035  1.00  0.00     0.135 A 
ATOM     68  C   UNL A   1      44.142  41.608  34.879  1.00  0.00     0.135 A 
ATOM     69  F   UNL A   1      47.081  39.461  34.903  1.00  0.00    -0.206 F 
ATOM     70  C   UNL A   1      46.841  41.701  35.556  1.00  0.00     0.059 A 
ATOM     71  C   UNL A   1      44.682  42.794  35.363  1.00  0.00     0.059 A 
ATOM     72  F   UNL A   1      42.833  41.589  34.580  1.00  0.00    -0.206 F 
ATOM     73  C   UNL A   1      46.031  42.828  35.708  1.00  0.00     0.060 A 
BRANCH  73  74
ATOM     74  S   UNL A   1      46.775  44.338  36.360  1.00  0.00     0.124 S 
ATOM     75  O   UNL A   1      48.198  44.060  36.194  1.00  0.00    -0.237 OA
ATOM     76  O   UNL A   1      46.221  45.360  35.477  1.00  0.00    -0.237 OA
ATOM     77  O   UNL A   1      46.303  44.382  37.741  1.00  0.00    -0.744 OA
ENDBRANCH  73  74
ENDBRANCH  52  66
BRANCH  53  78
ATOM     78  C   UNL A   1      41.032  32.264  30.425  1.00  0.00     0.058 A 
ATOM     79  C   UNL A   1      39.661  32.146  30.150  1.00  0.00     0.135 A 
ATOM     80  C   UNL A   1      41.857  31.175  30.097  1.00  0.00     0.135 A 
ATOM     81  F   UNL A   1      38.827  33.153  30.454  1.00  0.00    -0.206 F 
ATOM     82  C   UNL A   1      39.125  30.992  29.590  1.00  0.00     0.059 A 
ATOM     83  C   UNL A   1      41.349  30.023  29.505  1.00  0.00     0.059 A 
ATOM     84  F   UNL A   1      43.177  31.236  30.331  1.00  0.00    -0.206 F 
ATOM     85  C   UNL A   1      39.979  29.938  29.263  1.00  0.00     0.060 A 
BRANCH  85  86
ATOM     86  S   UNL A   1      39.278  28.468  28.485  1.00  0.00     0.124 S 
ATOM     87  O   UNL A   1      37.855  28.647  28.745  1.00  0.00    -0.237 OA
ATOM     88  O   UNL A   1      39.701  28.631  27.098  1.00  0.00    -0.237 OA
ATOM     89  O   UNL A   1      39.918  27.369  29.203  1.00  0.00    -0.744 OA
ENDBRANCH  85  86
ENDBRANCH  53  78
BRANCH  65  90
ATOM     90  C   UNL A   1      41.961  34.309  37.042  1.00  0.00     0.058 A 
ATOM     91  C   UNL A   1      42.817  33.401  37.683  1.00  0.00     0.135 A 
ATOM     92  C   UNL A   1      40.775  34.668  37.706  1.00  0.00     0.135 A 
ATOM     93  F   UNL A   1      43.961  33.017  37.094  1.00  0.00    -0.206 F 
ATOM     94  C   UNL A   1      42.495  32.847  38.918  1.00  0.00     0.059 A 
ATOM     95  C   UNL A   1      40.454  34.159  38.960  1.00  0.00     0.059 A 
ATOM     96  F   UNL A   1      39.923  35.543  37.147  1.00  0.00    -0.206 F 
ATOM     97  C   UNL A   1      41.315  33.238  39.552  1.00  0.00     0.060 A 
BRANCH  97  98
ATOM     98  S   UNL A   1      40.931  32.538  41.171  1.00  0.00     0.124 S 
ATOM     99  O   UNL A   1      42.021  31.583  41.345  1.00  0.00    -0.237 OA
ATOM    100  O   UNL A   1      40.974  33.714  42.034  1.00  0.00    -0.237 OA
ATOM    101  O   UNL A   1      39.607  31.951  40.985  1.00  0.00    -0.744 OA
ENDBRANCH  97  98
ENDBRANCH  65  90
ENDBRANCH  39  40
ENDBRANCH  32  34
ENDBRANCH  31  32
ENDBRANCH  30  31
ENDBRANCH  29  30
ENDBRANCH  28  29
ENDBRANCH  27  28
ENDBRANCH   1  27
TORSDOF 24
ENDMDL
MODEL 2
REMARK VINA RESULT:      -9.1      9.078     13.104
REMARK SMILES O=C(OCCOCCOCCOCCOC(=O)c1ccc(-c2c3nc(c(-c4c(F)cc(S(=O)(=O)[O-])cc4F)c4ccc([nH]4)c(-c4c(F)cc(S(=O)(=O)[O-])cc4F)c4nc(c(-c5c(F)cc(S(=O)(=O)[O-])cc5F)c5ccc2[nH]5)C=C4)C=C3)cc1)C1=Cc2c(Cl)cc(Cl)cc2O[C@@H]1C(F)(F)F
REMARK SMILES IDX 10 1 9 2 8 3 7 4 6 5 5 6 4 7 3 8 2 9 1 10 84 11 85 12 95 13
REMARK SMILES IDX 86 14 94 15 87 16 93 17 88 18 89 19 92 20 90 21 91 22 96 23
REMARK SMILES IDX 97 24 98 25 99 26 11 27 12 28 13 29 14 30 15 31 16 32 17 33
REMARK SMILES IDX 18 34 19 35 83 36 20 37 82 38 21 39 22 40 23 41 76 42 24 43
REMARK SMILES IDX 81 44 75 45 77 46 25 47 80 48 74 49 73 50 26 52 60 53 39 54
REMARK SMILES IDX 59 55 40 56 43 57 58 58 78 59 41 60 42 61 57 63 79 64 44 65
REMARK SMILES IDX 27 66 28 67 37 68 29 69 30 70 36 71 38 72 31 73 32 74 33 75
REMARK SMILES IDX 34 76 35 77 61 78 62 79 71 80 63 81 64 82 70 83 72 84 65 85
REMARK SMILES IDX 66 86 67 87 68 88 69 89 45 90 46 91 55 92 47 93 48 94 54 95
REMARK SMILES IDX 56 96 49 97 50 98 51 99 52 100 53 101
REMARK H PARENT 77 51 43 62
REMARK Flexibility Score: inf
ROOT
ATOM      1  C   UNL A   1      43.819  23.022  24.311  1.00  0.00     0.188 C 
ENDROOT
BRANCH   1   2
ATOM      2  O   UNL A   1      42.658  22.660  25.017  1.00  0.00    -0.377 OA
BRANCH   2   3
ATOM      3  C   UNL A   1      42.686  23.140  26.339  1.00  0.00     0.188 C 
BRANCH   3   4
ATOM      4  C   UNL A   1      41.573  24.135  26.711  1.00  0.00     0.188 C 
BRANCH   4   5
ATOM      5  O   UNL A   1      41.563  25.001  27.906  1.00  0.00    -0.376 OA
BRANCH   5   6
ATOM      6  C   UNL A   1      42.233  26.503  28.239  1.00  0.00     0.202 C 
BRANCH   6   7
ATOM      7  C   UNL A   1      43.707  27.552  27.018  1.00  0.00     0.261 C 
BRANCH   7   8
ATOM      8  O   UNL A   1      44.519  28.753  27.430  1.00  0.00    -0.460 OA
BRANCH   8   9
ATOM      9  C   UNL A   1      43.745  29.773  27.817  1.00  0.00     0.338 C 
ATOM     10  O   UNL A   1      42.541  29.845  27.781  1.00  0.00    -0.246 OA
BRANCH   9  11
ATOM     11  C   UNL A   1      44.760  30.819  27.772  1.00  0.00     0.087 C 
ATOM     12  C   UNL A   1      44.576  31.792  26.691  1.00  0.00     0.029 C 
ATOM     13  C   UNL A   1      44.544  31.215  29.635  1.00  0.00     0.316 C 
ATOM     14  C   UNL A   1      43.892  33.454  26.893  1.00  0.00     0.036 A 
ATOM     15  O   UNL A   1      43.671  32.940  29.896  1.00  0.00    -0.475 OA
ATOM     16  C   UNL A   1      43.672  34.274  25.812  1.00  0.00     0.053 A 
ATOM     17  C   UNL A   1      43.354  34.024  28.439  1.00  0.00     0.130 A 
ATOM     18  Cl  UNL A   1      44.071  33.837  24.203  1.00  0.00    -0.083 Cl
ATOM     19  C   UNL A   1      43.058  35.511  26.082  1.00  0.00     0.042 A 
ATOM     20  C   UNL A   1      42.746  35.241  28.613  1.00  0.00     0.067 A 
ATOM     21  C   UNL A   1      42.632  35.962  27.398  1.00  0.00     0.046 A 
ATOM     22  Cl  UNL A   1      41.924  37.546  27.460  1.00  0.00    -0.084 Cl
BRANCH  13  23
ATOM     23  C   UNL A   1      46.090  30.666  30.006  1.00  0.00     0.430 C 
ATOM     24  F   UNL A   1      47.131  31.497  29.814  1.00  0.00    -0.167 F 
ATOM     25  F   UNL A   1      46.104  30.438  31.357  1.00  0.00    -0.167 F 
ATOM     26  F   UNL A   1      46.426  29.467  29.468  1.00  0.00    -0.167 F 
ENDBRANCH  13  23
ENDBRANCH   9  11
ENDBRANCH   8   9
ENDBRANCH   7   8
ENDBRANCH   6   7
ENDBRANCH   5   6
ENDBRANCH   4   5
ENDBRANCH   3   4
ENDBRANCH   2   3
ENDBRANCH   1   2
BRANCH   1  27
ATOM     27  C   UNL A   1      44.472  24.351  24.713  1.00  0.00     0.188 C 
BRANCH  27  28
ATOM     28  O   UNL A   1      45.875  24.557  24.731  1.00  0.00    -0.376 OA
BRANCH  28  29
ATOM     29  C   UNL A   1      46.699  24.035  25.754  1.00  0.00     0.202 C 
BRANCH  29  30
ATOM     30  C   UNL A   1      46.131  23.486  27.070  1.00  0.00     0.261 C 
BRANCH  30  31
ATOM     31  O   UNL A   1      45.913  24.434  28.117  1.00  0.00    -0.460 OA
BRANCH  31  32
ATOM     32  C   UNL A   1      45.099  24.013  29.109  1.00  0.00     0.338 C 
ATOM     33  O   UNL A   1      44.654  22.889  29.260  1.00  0.00    -0.246 OA
BRANCH  32  34
ATOM     34  C   UNL A   1      44.975  25.080  30.125  1.00  0.00     0.060 A 
ATOM     35  C   UNL A   1      44.196  24.819  31.264  1.00  0.00     0.016 A 
ATOM     36  C   UNL A   1      45.605  26.317  29.970  1.00  0.00     0.016 A 
ATOM     37  C   UNL A   1      44.002  25.802  32.225  1.00  0.00     0.010 A 
ATOM     38  C   UNL A   1      45.367  27.322  30.911  1.00  0.00     0.010 A 
ATOM     39  C   UNL A   1      44.524  27.080  32.011  1.00  0.00    -0.014 A 
BRANCH  39  40
ATOM     40  C   UNL A   1      43.967  28.212  32.783  1.00  0.00     0.031 A 
ATOM     41  C   UNL A   1      44.671  28.602  34.055  1.00  0.00     0.074 A 
ATOM     42  C   UNL A   1      42.904  28.905  32.343  1.00  0.00     0.049 A 
ATOM     43  N   UNL A   1      44.345  29.506  34.940  1.00  0.00    -0.248 NA
ATOM     44  C   UNL A   1      45.907  27.867  34.374  1.00  0.00     0.031 C 
ATOM     45  C   UNL A   1      42.196  28.661  31.088  1.00  0.00     0.029 A 
ATOM     46  N   UNL A   1      42.231  29.954  32.914  1.00  0.00    -0.354 N 
ATOM     47  C   UNL A   1      45.324  29.437  35.925  1.00  0.00     0.074 A 
ATOM     48  C   UNL A   1      46.236  28.380  35.549  1.00  0.00     0.031 C 
ATOM     49  C   UNL A   1      41.172  29.528  30.993  1.00  0.00     0.029 A 
ATOM     50  C   UNL A   1      41.131  30.355  32.198  1.00  0.00     0.049 A 
ATOM     51  H   UNL A   1      42.510  30.379  33.758  1.00  0.00     0.167 HD
ATOM     52  C   UNL A   1      45.453  30.194  37.039  1.00  0.00     0.037 A 
ATOM     53  C   UNL A   1      40.184  31.264  32.501  1.00  0.00     0.037 A 
ATOM     54  C   UNL A   1      44.534  31.241  37.399  1.00  0.00     0.049 A 
ATOM     55  C   UNL A   1      40.294  32.030  33.796  1.00  0.00     0.074 A 
ATOM     56  C   UNL A   1      44.570  32.075  38.502  1.00  0.00     0.029 A 
ATOM     57  N   UNL A   1      43.405  31.591  36.670  1.00  0.00    -0.354 N 
ATOM     58  N   UNL A   1      41.224  31.963  34.720  1.00  0.00    -0.248 NA
ATOM     59  C   UNL A   1      39.228  32.998  34.089  1.00  0.00     0.031 C 
ATOM     60  C   UNL A   1      43.426  32.877  38.480  1.00  0.00     0.029 A 
ATOM     61  C   UNL A   1      42.719  32.605  37.318  1.00  0.00     0.049 A 
ATOM     62  H   UNL A   1      43.132  31.179  35.819  1.00  0.00     0.167 HD
ATOM     63  C   UNL A   1      40.877  32.908  35.682  1.00  0.00     0.074 A 
ATOM     64  C   UNL A   1      39.657  33.538  35.221  1.00  0.00     0.031 C 
ATOM     65  C   UNL A   1      41.509  33.229  36.839  1.00  0.00     0.037 A 
BRANCH  52  66
ATOM     66  C   UNL A   1      46.603  29.895  37.963  1.00  0.00     0.058 A 
ATOM     67  C   UNL A   1      47.841  30.549  37.851  1.00  0.00     0.135 A 
ATOM     68  C   UNL A   1      46.450  28.964  39.004  1.00  0.00     0.135 A 
ATOM     69  F   UNL A   1      48.054  31.432  36.862  1.00  0.00    -0.206 F 
ATOM     70  C   UNL A   1      48.891  30.273  38.722  1.00  0.00     0.059 A 
ATOM     71  C   UNL A   1      47.473  28.701  39.908  1.00  0.00     0.059 A 
ATOM     72  F   UNL A   1      45.291  28.303  39.155  1.00  0.00    -0.206 F 
ATOM     73  C   UNL A   1      48.694  29.353  39.753  1.00  0.00     0.060 A 
BRANCH  73  74
ATOM     74  S   UNL A   1      50.060  29.029  40.888  1.00  0.00     0.124 S 
ATOM     75  O   UNL A   1      51.189  29.599  40.159  1.00  0.00    -0.237 OA
ATOM     76  O   UNL A   1      49.645  29.755  42.083  1.00  0.00    -0.237 OA
ATOM     77  O   UNL A   1      50.064  27.574  41.009  1.00  0.00    -0.744 OA
ENDBRANCH  73  74
ENDBRANCH  52  66
BRANCH  53  78
ATOM     78  C   UNL A   1      39.044  31.494  31.573  1.00  0.00     0.058 A 
ATOM     79  C   UNL A   1      37.853  30.762  31.691  1.00  0.00     0.135 A 
ATOM     80  C   UNL A   1      39.122  32.447  30.544  1.00  0.00     0.135 A 
ATOM     81  F   UNL A   1      37.731  29.831  32.650  1.00  0.00    -0.206 F 
ATOM     82  C   UNL A   1      36.789  30.951  30.816  1.00  0.00     0.059 A 
ATOM     83  C   UNL A   1      38.059  32.679  29.678  1.00  0.00     0.059 A 
ATOM     84  F   UNL A   1      40.234  33.182  30.389  1.00  0.00    -0.206 F 
ATOM     85  C   UNL A   1      36.899  31.919  29.816  1.00  0.00     0.060 A 
BRANCH  85  86
ATOM     86  S   UNL A   1      35.489  32.194  28.723  1.00  0.00     0.124 S 
ATOM     87  O   UNL A   1      36.054  33.109  27.738  1.00  0.00    -0.237 OA
ATOM     88  O   UNL A   1      35.205  30.842  28.253  1.00  0.00    -0.237 OA
ATOM     89  O   UNL A   1      34.481  32.766  29.611  1.00  0.00    -0.744 OA
ENDBRANCH  85  86
ENDBRANCH  53  78
BRANCH  65  90
ATOM     90  C   UNL A   1      40.930  34.347  37.667  1.00  0.00     0.058 A 
ATOM     91  C   UNL A   1      40.002  34.115  38.692  1.00  0.00     0.135 A 
ATOM     92  C   UNL A   1      41.361  35.670  37.465  1.00  0.00     0.135 A 
ATOM     93  F   UNL A   1      39.551  32.872  38.928  1.00  0.00    -0.206 F 
ATOM     94  C   UNL A   1      39.497  35.155  39.466  1.00  0.00     0.059 A 
ATOM     95  C   UNL A   1      40.902  36.719  38.253  1.00  0.00     0.059 A 
ATOM     96  F   UNL A   1      42.258  35.951  36.505  1.00  0.00    -0.206 F 
ATOM     97  C   UNL A   1      39.959  36.453  39.243  1.00  0.00     0.060 A 
BRANCH  97  98
ATOM     98  S   UNL A   1      39.322  37.786  40.281  1.00  0.00     0.124 S 
ATOM     99  O   UNL A   1      38.981  37.070  41.505  1.00  0.00    -0.237 OA
ATOM    100  O   UNL A   1      40.470  38.684  40.369  1.00  0.00    -0.237 OA
ATOM    101  O   UNL A   1      38.188  38.301  39.518  1.00  0.00    -0.744 OA
ENDBRANCH  97  98
ENDBRANCH  65  90
ENDBRANCH  39  40
ENDBRANCH  32  34
ENDBRANCH  31  32
ENDBRANCH  30  31
ENDBRANCH  29  30
ENDBRANCH  28  29
ENDBRANCH  27  28
ENDBRANCH   1  27
TORSDOF 24
ENDMDL
MODEL 3
REMARK VINA RESULT:      -9.1      8.385     16.438
REMARK SMILES O=C(OCCOCCOCCOCCOC(=O)c1ccc(-c2c3nc(c(-c4c(F)cc(S(=O)(=O)[O-])cc4F)c4ccc([nH]4)c(-c4c(F)cc(S(=O)(=O)[O-])cc4F)c4nc(c(-c5c(F)cc(S(=O)(=O)[O-])cc5F)c5ccc2[nH]5)C=C4)C=C3)cc1)C1=Cc2c(Cl)cc(Cl)cc2O[C@@H]1C(F)(F)F
REMARK SMILES IDX 10 1 9 2 8 3 7 4 6 5 5 6 4 7 3 8 2 9 1 10 84 11 85 12 95 13
REMARK SMILES IDX 86 14 94 15 87 16 93 17 88 18 89 19 92 20 90 21 91 22 96 23
REMARK SMILES IDX 97 24 98 25 99 26 11 27 12 28 13 29 14 30 15 31 16 32 17 33
REMARK SMILES IDX 18 34 19 35 83 36 20 37 82 38 21 39 22 40 23 41 76 42 24 43
REMARK SMILES IDX 81 44 75 45 77 46 25 47 80 48 74 49 73 50 26 52 60 53 39 54
REMARK SMILES IDX 59 55 40 56 43 57 58 58 78 59 41 60 42 61 57 63 79 64 44 65
REMARK SMILES IDX 27 66 28 67 37 68 29 69 30 70 36 71 38 72 31 73 32 74 33 75
REMARK SMILES IDX 34 76 35 77 61 78 62 79 71 80 63 81 64 82 70 83 72 84 65 85
REMARK SMILES IDX 66 86 67 87 68 88 69 89 45 90 46 91 55 92 47 93 48 94 54 95
REMARK SMILES IDX 56 96 49 97 50 98 51 99 52 100 53 101
REMARK H PARENT 77 51 43 62
REMARK Flexibility Score: inf
ROOT
ATOM      1  C   UNL A   1      45.568  22.581  24.518  1.00  0.00     0.188 C 
ENDROOT
BRANCH   1   2
ATOM      2  O   UNL A   1      44.443  21.789  24.809  1.00  0.00    -0.377 OA
BRANCH   2   3
ATOM      3  C   UNL A   1      43.671  22.344  25.845  1.00  0.00     0.188 C 
BRANCH   3   4
ATOM      4  C   UNL A   1      42.146  22.262  25.661  1.00  0.00     0.188 C 
BRANCH   4   5
ATOM      5  O   UNL A   1      41.145  22.958  26.492  1.00  0.00    -0.376 OA
BRANCH   5   6
ATOM      6  C   UNL A   1      39.565  22.597  26.926  1.00  0.00     0.202 C 
BRANCH   6   7
ATOM      7  C   UNL A   1      37.882  22.344  25.559  1.00  0.00     0.261 C 
BRANCH   7   8
ATOM      8  O   UNL A   1      36.436  22.652  25.853  1.00  0.00    -0.460 OA
BRANCH   8   9
ATOM      9  C   UNL A   1      35.758  22.977  24.746  1.00  0.00     0.338 C 
ATOM     10  O   UNL A   1      36.193  23.432  23.717  1.00  0.00    -0.246 OA
BRANCH   9  11
ATOM     11  C   UNL A   1      34.437  23.097  25.353  1.00  0.00     0.087 C 
ATOM     12  C   UNL A   1      34.074  24.462  25.744  1.00  0.00     0.029 C 
ATOM     13  C   UNL A   1      33.610  22.120  23.925  1.00  0.00     0.316 C 
ATOM     14  C   UNL A   1      32.962  25.547  24.817  1.00  0.00     0.036 A 
ATOM     15  O   UNL A   1      32.516  23.289  22.809  1.00  0.00    -0.475 OA
ATOM     16  C   UNL A   1      32.741  26.847  25.207  1.00  0.00     0.053 A 
ATOM     17  C   UNL A   1      32.246  25.039  23.323  1.00  0.00     0.130 A 
ATOM     18  Cl  UNL A   1      33.434  27.537  26.614  1.00  0.00    -0.083 Cl
ATOM     19  C   UNL A   1      31.925  27.621  24.362  1.00  0.00     0.042 A 
ATOM     20  C   UNL A   1      31.474  25.866  22.548  1.00  0.00     0.067 A 
ATOM     21  C   UNL A   1      31.328  27.154  23.120  1.00  0.00     0.046 A 
ATOM     22  Cl  UNL A   1      30.338  28.306  22.279  1.00  0.00    -0.084 Cl
BRANCH  13  23
ATOM     23  C   UNL A   1      33.216  20.834  24.935  1.00  0.00     0.430 C 
ATOM     24  F   UNL A   1      32.224  20.004  24.562  1.00  0.00    -0.167 F 
ATOM     25  F   UNL A   1      34.319  20.022  24.971  1.00  0.00    -0.167 F 
ATOM     26  F   UNL A   1      33.005  21.159  26.235  1.00  0.00    -0.167 F 
ENDBRANCH  13  23
ENDBRANCH   9  11
ENDBRANCH   8   9
ENDBRANCH   7   8
ENDBRANCH   6   7
ENDBRANCH   5   6
ENDBRANCH   4   5
ENDBRANCH   3   4
ENDBRANCH   2   3
ENDBRANCH   1   2
BRANCH   1  27
ATOM     27  C   UNL A   1      45.540  24.021  25.049  1.00  0.00     0.188 C 
BRANCH  27  28
ATOM     28  O   UNL A   1      46.615  24.611  25.761  1.00  0.00    -0.376 OA
BRANCH  28  29
ATOM     29  C   UNL A   1      46.833  24.362  27.136  1.00  0.00     0.202 C 
BRANCH  29  30
ATOM     30  C   UNL A   1      45.686  24.071  28.113  1.00  0.00     0.261 C 
BRANCH  30  31
ATOM     31  O   UNL A   1      45.258  25.158  28.936  1.00  0.00    -0.460 OA
BRANCH  31  32
ATOM     32  C   UNL A   1      44.081  25.716  28.578  1.00  0.00     0.338 C 
ATOM     33  O   UNL A   1      43.188  25.190  27.938  1.00  0.00    -0.246 OA
BRANCH  32  34
ATOM     34  C   UNL A   1      43.934  27.024  29.255  1.00  0.00     0.060 A 
ATOM     35  C   UNL A   1      43.156  28.008  28.625  1.00  0.00     0.016 A 
ATOM     36  C   UNL A   1      44.547  27.287  30.482  1.00  0.00     0.016 A 
ATOM     37  C   UNL A   1      43.026  29.270  29.190  1.00  0.00     0.010 A 
ATOM     38  C   UNL A   1      44.460  28.572  31.022  1.00  0.00     0.010 A 
ATOM     39  C   UNL A   1      43.742  29.577  30.350  1.00  0.00    -0.014 A 
BRANCH  39  40
ATOM     40  C   UNL A   1      43.954  31.000  30.696  1.00  0.00     0.031 A 
ATOM     41  C   UNL A   1      43.125  31.578  31.812  1.00  0.00     0.074 A 
ATOM     42  C   UNL A   1      44.889  31.740  30.078  1.00  0.00     0.049 A 
ATOM     43  N   UNL A   1      43.073  32.804  32.256  1.00  0.00    -0.248 NA
ATOM     44  C   UNL A   1      42.230  30.643  32.516  1.00  0.00     0.031 C 
ATOM     45  C   UNL A   1      45.798  31.259  29.039  1.00  0.00     0.029 A 
ATOM     46  N   UNL A   1      45.220  33.061  30.233  1.00  0.00    -0.354 N 
ATOM     47  C   UNL A   1      42.130  32.792  33.279  1.00  0.00     0.074 A 
ATOM     48  C   UNL A   1      41.610  31.446  33.365  1.00  0.00     0.031 C 
ATOM     49  C   UNL A   1      46.574  32.280  28.636  1.00  0.00     0.029 A 
ATOM     50  C   UNL A   1      46.186  33.491  29.358  1.00  0.00     0.049 A 
ATOM     51  H   UNL A   1      44.804  33.646  30.907  1.00  0.00     0.167 HD
ATOM     52  C   UNL A   1      41.741  33.812  34.078  1.00  0.00     0.037 A 
ATOM     53  C   UNL A   1      46.674  34.729  29.147  1.00  0.00     0.037 A 
ATOM     54  C   UNL A   1      42.269  35.148  33.976  1.00  0.00     0.049 A 
ATOM     55  C   UNL A   1      46.156  35.872  29.984  1.00  0.00     0.074 A 
ATOM     56  C   UNL A   1      41.950  36.258  34.737  1.00  0.00     0.029 A 
ATOM     57  N   UNL A   1      43.216  35.557  33.048  1.00  0.00    -0.354 N 
ATOM     58  N   UNL A   1      45.269  35.854  30.951  1.00  0.00    -0.248 NA
ATOM     59  C   UNL A   1      46.707  37.205  29.703  1.00  0.00     0.031 C 
ATOM     60  C   UNL A   1      42.648  37.353  34.222  1.00  0.00     0.029 A 
ATOM     61  C   UNL A   1      43.469  36.911  33.195  1.00  0.00     0.049 A 
ATOM     62  H   UNL A   1      43.646  34.972  32.383  1.00  0.00     0.167 HD
ATOM     63  C   UNL A   1      45.186  37.162  31.420  1.00  0.00     0.074 A 
ATOM     64  C   UNL A   1      46.121  37.942  30.636  1.00  0.00     0.031 C 
ATOM     65  C   UNL A   1      44.412  37.672  32.411  1.00  0.00     0.037 A 
BRANCH  52  66
ATOM     66  C   UNL A   1      40.673  33.536  35.103  1.00  0.00     0.058 A 
ATOM     67  C   UNL A   1      39.311  33.747  34.837  1.00  0.00     0.135 A 
ATOM     68  C   UNL A   1      41.019  33.014  36.361  1.00  0.00     0.135 A 
ATOM     69  F   UNL A   1      38.922  34.266  33.661  1.00  0.00    -0.206 F 
ATOM     70  C   UNL A   1      38.333  33.474  35.789  1.00  0.00     0.059 A 
ATOM     71  C   UNL A   1      40.055  32.698  37.313  1.00  0.00     0.059 A 
ATOM     72  F   UNL A   1      42.306  32.799  36.674  1.00  0.00    -0.206 F 
ATOM     73  C   UNL A   1      38.715  32.942  37.021  1.00  0.00     0.060 A 
BRANCH  73  74
ATOM     74  S   UNL A   1      37.430  32.569  38.232  1.00  0.00     0.124 S 
ATOM     75  O   UNL A   1      37.961  33.210  39.431  1.00  0.00    -0.237 OA
ATOM     76  O   UNL A   1      36.256  33.204  37.641  1.00  0.00    -0.237 OA
ATOM     77  O   UNL A   1      37.403  31.110  38.263  1.00  0.00    -0.744 OA
ENDBRANCH  73  74
ENDBRANCH  52  66
BRANCH  53  78
ATOM     78  C   UNL A   1      47.700  34.958  28.093  1.00  0.00     0.058 A 
ATOM     79  C   UNL A   1      49.070  34.911  28.390  1.00  0.00     0.135 A 
ATOM     80  C   UNL A   1      47.331  35.234  26.765  1.00  0.00     0.135 A 
ATOM     81  F   UNL A   1      49.475  34.662  29.646  1.00  0.00    -0.206 F 
ATOM     82  C   UNL A   1      50.037  35.145  27.419  1.00  0.00     0.059 A 
ATOM     83  C   UNL A   1      48.281  35.438  25.769  1.00  0.00     0.059 A 
ATOM     84  F   UNL A   1      46.035  35.284  26.422  1.00  0.00    -0.206 F 
ATOM     85  C   UNL A   1      49.632  35.401  26.108  1.00  0.00     0.060 A 
BRANCH  85  86
ATOM     86  S   UNL A   1      50.899  35.647  24.846  1.00  0.00     0.124 S 
ATOM     87  O   UNL A   1      51.998  36.193  25.633  1.00  0.00    -0.237 OA
ATOM     88  O   UNL A   1      51.086  34.292  24.339  1.00  0.00    -0.237 OA
ATOM     89  O   UNL A   1      50.268  36.577  23.913  1.00  0.00    -0.744 OA
ENDBRANCH  85  86
ENDBRANCH  53  78
BRANCH  65  90
ATOM     90  C   UNL A   1      44.577  39.131  32.748  1.00  0.00     0.058 A 
ATOM     91  C   UNL A   1      45.473  39.575  33.732  1.00  0.00     0.135 A 
ATOM     92  C   UNL A   1      43.864  40.105  32.028  1.00  0.00     0.135 A 
ATOM     93  F   UNL A   1      46.177  38.690  34.455  1.00  0.00    -0.206 F 
ATOM     94  C   UNL A   1      45.633  40.928  34.012  1.00  0.00     0.059 A 
ATOM     95  C   UNL A   1      44.039  41.465  32.262  1.00  0.00     0.059 A 
ATOM     96  F   UNL A   1      43.002  39.740  31.065  1.00  0.00    -0.206 F 
ATOM     97  C   UNL A   1      44.917  41.866  33.267  1.00  0.00     0.060 A 
BRANCH  97  98
ATOM     98  S   UNL A   1      45.165  43.619  33.617  1.00  0.00     0.124 S 
ATOM     99  O   UNL A   1      44.780  43.696  35.022  1.00  0.00    -0.237 OA
ATOM    100  O   UNL A   1      46.587  43.792  33.338  1.00  0.00    -0.237 OA
ATOM    101  O   UNL A   1      44.263  44.286  32.682  1.00  0.00    -0.744 OA
ENDBRANCH  97  98
ENDBRANCH  65  90
ENDBRANCH  39  40
ENDBRANCH  32  34
ENDBRANCH  31  32
ENDBRANCH  30  31
ENDBRANCH  29  30
ENDBRANCH  28  29
ENDBRANCH  27  28
ENDBRANCH   1  27
TORSDOF 24
ENDMDL
