MODEL 1
REMARK VINA RESULT:     -10.1      0.000      0.000
REMARK SMILES CCc1ccnc(C(=O)c2[nH]c3ccc(OC(F)(F)F)cc3c2CC(=O)OCCOCCOCCOCCOC(=O)c2ccc(-c3c4nc(c(-c5c(F)cc(S(=O)(=O)[O-])cc5F)c5ccc([nH]5)c(-c5c(F)cc(S(=O)(=O)[O-])cc5F)c5nc(c(-c6c(F)cc(S(=O)(=O)[O-])cc6F)c6ccc3[nH]6)C=C5)C=C4)cc2)c1
REMARK SMILES IDX 32 1 31 2 30 3 29 4 28 5 27 6 25 7 26 8 24 9 23 10 10 11
REMARK SMILES IDX 11 12 12 13 22 15 13 16 21 17 14 18 15 19 8 20 9 21 7 22
REMARK SMILES IDX 3 23 4 24 108 25 5 26 6 27 2 28 1 29 16 30 17 31 18 32 19 33
REMARK SMILES IDX 20 34 33 35 34 36 35 37 36 38 37 39 38 40 39 41 40 42 41 43
REMARK SMILES IDX 42 44 43 45 107 46 44 47 106 48 45 49 46 50 47 51 100 52
REMARK SMILES IDX 48 53 105 54 99 55 101 56 49 57 104 58 98 59 97 60 50 62
REMARK SMILES IDX 84 63 63 64 83 65 64 66 67 67 82 68 102 69 65 70 66 71 81 73
REMARK SMILES IDX 103 74 68 75 51 76 52 77 61 78 53 79 54 80 60 81 62 82 55 83
REMARK SMILES IDX 56 84 57 85 58 86 59 87 85 88 86 89 95 90 87 91 88 92 94 93
REMARK SMILES IDX 96 94 89 95 90 96 91 97 92 98 93 99 69 100 70 101 79 102
REMARK SMILES IDX 71 103 72 104 78 105 80 106 73 107 74 108 75 109 76 110
REMARK SMILES IDX 77 111
REMARK H PARENT 11 14 101 61 67 72
REMARK Flexibility Score: inf
ROOT
ATOM      1  C   UNL A   1      40.295  21.876  27.322  1.00  0.00     0.188 C 
ENDROOT
BRANCH   1   2
ATOM      2  C   UNL A   1      39.486  21.937  26.028  1.00  0.00     0.188 C 
BRANCH   2   3
ATOM      3  O   UNL A   1      38.084  21.789  26.115  1.00  0.00    -0.376 OA
BRANCH   3   4
ATOM      4  C   UNL A   1      37.333  22.014  24.923  1.00  0.00     0.202 C 
BRANCH   4   5
ATOM      5  C   UNL A   1      36.119  22.970  24.946  1.00  0.00     0.261 C 
BRANCH   5   6
ATOM      6  O   UNL A   1      35.384  23.095  23.694  1.00  0.00    -0.463 OA
BRANCH   6   7
ATOM      7  C   UNL A   1      34.609  24.198  23.558  1.00  0.00     0.310 C 
ATOM      8  O   UNL A   1      34.195  24.591  22.465  1.00  0.00    -0.252 OA
BRANCH   7   9
ATOM      9  C   UNL A   1      34.222  24.965  24.811  1.00  0.00     0.161 C 
BRANCH   9  10
ATOM     10  C   UNL A   1      32.817  24.972  25.377  1.00  0.00     0.000 A 
ATOM     11  C   UNL A   1      32.214  24.017  26.216  1.00  0.00     0.093 A 
ATOM     12  N   UNL A   1      30.956  24.509  26.510  1.00  0.00    -0.352 N 
ATOM     13  C   UNL A   1      30.580  25.426  25.557  1.00  0.00     0.046 A 
ATOM     14  H   UNL A   1      30.412  24.242  27.285  1.00  0.00     0.167 HD
ATOM     15  C   UNL A   1      31.732  25.754  24.849  1.00  0.00     0.008 A 
ATOM     16  C   UNL A   1      29.325  25.968  25.256  1.00  0.00     0.030 A 
ATOM     17  C   UNL A   1      31.610  26.642  23.759  1.00  0.00     0.057 A 
ATOM     18  C   UNL A   1      29.226  26.803  24.131  1.00  0.00     0.049 A 
ATOM     19  C   UNL A   1      30.350  27.119  23.370  1.00  0.00     0.130 A 
BRANCH  11  20
ATOM     20  C   UNL A   1      32.778  22.752  26.690  1.00  0.00     0.227 C 
ATOM     21  O   UNL A   1      33.362  22.651  27.771  1.00  0.00    -0.285 OA
BRANCH  20  22
ATOM     22  C   UNL A   1      32.756  21.514  25.859  1.00  0.00     0.113 A 
ATOM     23  C   UNL A   1      32.486  20.485  23.708  1.00  0.00    -0.044 A 
ATOM     24  C   UNL A   1      33.266  19.422  24.176  1.00  0.00     0.024 A 
ATOM     25  C   UNL A   1      32.197  21.538  24.588  1.00  0.00     0.036 A 
ATOM     26  C   UNL A   1      33.752  19.468  25.473  1.00  0.00     0.112 A 
ATOM     27  N   UNL A   1      33.516  20.488  26.320  1.00  0.00    -0.253 NA
BRANCH  23  28
ATOM     28  C   UNL A   1      31.982  20.550  22.286  1.00  0.00     0.032 C 
ATOM     29  C   UNL A   1      32.114  19.244  21.512  1.00  0.00     0.009 C 
ENDBRANCH  23  28
ENDBRANCH  20  22
ENDBRANCH  11  20
BRANCH  19  30
ATOM     30  O   UNL A   1      30.372  27.857  22.220  1.00  0.00    -0.406 OA
BRANCH  30  31
ATOM     31  C   UNL A   1      30.009  29.223  22.300  1.00  0.00     0.573 C 
ATOM     32  F   UNL A   1      30.135  29.697  23.560  1.00  0.00    -0.132 F 
ATOM     33  F   UNL A   1      30.753  29.974  21.462  1.00  0.00    -0.132 F 
ATOM     34  F   UNL A   1      28.710  29.348  21.942  1.00  0.00    -0.132 F 
ENDBRANCH  30  31
ENDBRANCH  19  30
ENDBRANCH   9  10
ENDBRANCH   7   9
ENDBRANCH   6   7
ENDBRANCH   5   6
ENDBRANCH   4   5
ENDBRANCH   3   4
ENDBRANCH   2   3
ENDBRANCH   1   2
BRANCH   1  35
ATOM     35  O   UNL A   1      41.242  20.838  27.494  1.00  0.00    -0.377 OA
BRANCH  35  36
ATOM     36  C   UNL A   1      41.563  19.975  26.413  1.00  0.00     0.188 C 
BRANCH  36  37
ATOM     37  C   UNL A   1      42.957  20.084  25.800  1.00  0.00     0.188 C 
BRANCH  37  38
ATOM     38  O   UNL A   1      43.261  21.228  24.995  1.00  0.00    -0.376 OA
BRANCH  38  39
ATOM     39  C   UNL A   1      43.692  22.435  25.617  1.00  0.00     0.202 C 
BRANCH  39  40
ATOM     40  C   UNL A   1      42.798  23.643  25.365  1.00  0.00     0.261 C 
BRANCH  40  41
ATOM     41  O   UNL A   1      43.284  24.786  26.075  1.00  0.00    -0.460 OA
BRANCH  41  42
ATOM     42  C   UNL A   1      42.469  25.862  26.020  1.00  0.00     0.338 C 
ATOM     43  O   UNL A   1      41.643  26.122  25.157  1.00  0.00    -0.246 OA
BRANCH  42  44
ATOM     44  C   UNL A   1      42.600  26.631  27.266  1.00  0.00     0.060 A 
ATOM     45  C   UNL A   1      41.948  26.138  28.403  1.00  0.00     0.016 A 
ATOM     46  C   UNL A   1      43.292  27.845  27.304  1.00  0.00     0.016 A 
ATOM     47  C   UNL A   1      41.921  26.894  29.565  1.00  0.00     0.010 A 
ATOM     48  C   UNL A   1      43.254  28.611  28.466  1.00  0.00     0.010 A 
ATOM     49  C   UNL A   1      42.519  28.159  29.576  1.00  0.00    -0.014 A 
BRANCH  49  50
ATOM     50  C   UNL A   1      42.155  29.100  30.651  1.00  0.00     0.031 A 
ATOM     51  C   UNL A   1      43.044  29.161  31.863  1.00  0.00     0.074 A 
ATOM     52  C   UNL A   1      41.095  29.913  30.519  1.00  0.00     0.049 A 
ATOM     53  N   UNL A   1      42.924  29.882  32.944  1.00  0.00    -0.248 NA
ATOM     54  C   UNL A   1      44.231  28.286  31.851  1.00  0.00     0.031 C 
ATOM     55  C   UNL A   1      40.211  29.963  29.354  1.00  0.00     0.029 A 
ATOM     56  N   UNL A   1      40.586  30.854  31.373  1.00  0.00    -0.354 N 
ATOM     57  C   UNL A   1      44.011  29.543  33.743  1.00  0.00     0.074 A 
ATOM     58  C   UNL A   1      44.760  28.527  33.041  1.00  0.00     0.031 C 
ATOM     59  C   UNL A   1      39.257  30.883  29.574  1.00  0.00     0.029 A 
ATOM     60  C   UNL A   1      39.445  31.457  30.905  1.00  0.00     0.049 A 
ATOM     61  H   UNL A   1      40.997  31.074  32.240  1.00  0.00     0.167 HD
ATOM     62  C   UNL A   1      44.354  30.046  34.951  1.00  0.00     0.037 A 
ATOM     63  C   UNL A   1      38.637  32.353  31.503  1.00  0.00     0.037 A 
ATOM     64  C   UNL A   1      43.590  31.060  35.630  1.00  0.00     0.049 A 
ATOM     65  C   UNL A   1      38.998  32.845  32.881  1.00  0.00     0.074 A 
ATOM     66  C   UNL A   1      43.842  31.651  36.854  1.00  0.00     0.029 A 
ATOM     67  N   UNL A   1      42.420  31.626  35.142  1.00  0.00    -0.354 N 
ATOM     68  N   UNL A   1      40.031  32.527  33.627  1.00  0.00    -0.248 NA
ATOM     69  C   UNL A   1      38.090  33.820  33.497  1.00  0.00     0.031 C 
ATOM     70  C   UNL A   1      42.790  32.530  37.134  1.00  0.00     0.029 A 
ATOM     71  C   UNL A   1      41.921  32.539  36.053  1.00  0.00     0.049 A 
ATOM     72  H   UNL A   1      42.006  31.408  34.276  1.00  0.00     0.167 HD
ATOM     73  C   UNL A   1      39.916  33.289  34.785  1.00  0.00     0.074 A 
ATOM     74  C   UNL A   1      38.716  34.088  34.635  1.00  0.00     0.031 C 
ATOM     75  C   UNL A   1      40.727  33.330  35.872  1.00  0.00     0.037 A 
BRANCH  62  76
ATOM     76  C   UNL A   1      45.578  29.485  35.623  1.00  0.00     0.058 A 
ATOM     77  C   UNL A   1      45.521  28.347  36.445  1.00  0.00     0.135 A 
ATOM     78  C   UNL A   1      46.832  30.085  35.426  1.00  0.00     0.135 A 
ATOM     79  F   UNL A   1      44.346  27.746  36.690  1.00  0.00    -0.206 F 
ATOM     80  C   UNL A   1      46.659  27.840  37.066  1.00  0.00     0.059 A 
ATOM     81  C   UNL A   1      47.988  29.577  36.011  1.00  0.00     0.059 A 
ATOM     82  F   UNL A   1      46.944  31.180  34.658  1.00  0.00    -0.206 F 
ATOM     83  C   UNL A   1      47.889  28.461  36.842  1.00  0.00     0.060 A 
BRANCH  83  84
ATOM     84  S   UNL A   1      49.356  27.788  37.649  1.00  0.00     0.124 S 
ATOM     85  O   UNL A   1      49.149  28.209  39.030  1.00  0.00    -0.237 OA
ATOM     86  O   UNL A   1      49.220  26.357  37.394  1.00  0.00    -0.237 OA
ATOM     87  O   UNL A   1      50.459  28.443  36.953  1.00  0.00    -0.744 OA
ENDBRANCH  83  84
ENDBRANCH  62  76
BRANCH  63  88
ATOM     88  C   UNL A   1      37.413  32.829  30.806  1.00  0.00     0.058 A 
ATOM     89  C   UNL A   1      37.481  33.805  29.801  1.00  0.00     0.135 A 
ATOM     90  C   UNL A   1      36.149  32.308  31.124  1.00  0.00     0.135 A 
ATOM     91  F   UNL A   1      38.666  34.339  29.465  1.00  0.00    -0.206 F 
ATOM     92  C   UNL A   1      36.341  34.259  29.147  1.00  0.00     0.059 A 
ATOM     93  C   UNL A   1      34.997  32.724  30.465  1.00  0.00     0.059 A 
ATOM     94  F   UNL A   1      36.028  31.363  32.070  1.00  0.00    -0.206 F 
ATOM     95  C   UNL A   1      35.102  33.709  29.484  1.00  0.00     0.060 A 
BRANCH  95  96
ATOM     96  S   UNL A   1      33.635  34.275  28.597  1.00  0.00     0.124 S 
ATOM     97  O   UNL A   1      32.741  34.620  29.697  1.00  0.00    -0.237 OA
ATOM     98  O   UNL A   1      34.161  35.396  27.824  1.00  0.00    -0.237 OA
ATOM     99  O   UNL A   1      33.247  33.108  27.811  1.00  0.00    -0.744 OA
ENDBRANCH  95  96
ENDBRANCH  63  88
BRANCH  75 100
ATOM    100  C   UNL A   1      40.373  34.303  36.964  1.00  0.00     0.058 A 
ATOM    101  C   UNL A   1      40.836  35.627  36.956  1.00  0.00     0.135 A 
ATOM    102  C   UNL A   1      39.508  33.916  38.000  1.00  0.00     0.135 A 
ATOM    103  F   UNL A   1      41.670  36.048  35.992  1.00  0.00    -0.206 F 
ATOM    104  C   UNL A   1      40.475  36.527  37.954  1.00  0.00     0.059 A 
ATOM    105  C   UNL A   1      39.106  34.808  38.988  1.00  0.00     0.059 A 
ATOM    106  F   UNL A   1      39.025  32.664  38.047  1.00  0.00    -0.206 F 
ATOM    107  C   UNL A   1      39.606  36.108  38.963  1.00  0.00     0.060 A 
BRANCH 107 108
ATOM    108  S   UNL A   1      39.117  37.296  40.230  1.00  0.00     0.124 S 
ATOM    109  O   UNL A   1      38.351  36.454  41.142  1.00  0.00    -0.237 OA
ATOM    110  O   UNL A   1      40.405  37.766  40.731  1.00  0.00    -0.237 OA
ATOM    111  O   UNL A   1      38.341  38.286  39.490  1.00  0.00    -0.744 OA
ENDBRANCH 107 108
ENDBRANCH  75 100
ENDBRANCH  49  50
ENDBRANCH  42  44
ENDBRANCH  41  42
ENDBRANCH  40  41
ENDBRANCH  39  40
ENDBRANCH  38  39
ENDBRANCH  37  38
ENDBRANCH  36  37
ENDBRANCH  35  36
ENDBRANCH   1  35
TORSDOF 29
ENDMDL
MODEL 2
REMARK VINA RESULT:     -10.1      1.102      2.074
REMARK SMILES CCc1ccnc(C(=O)c2[nH]c3ccc(OC(F)(F)F)cc3c2CC(=O)OCCOCCOCCOCCOC(=O)c2ccc(-c3c4nc(c(-c5c(F)cc(S(=O)(=O)[O-])cc5F)c5ccc([nH]5)c(-c5c(F)cc(S(=O)(=O)[O-])cc5F)c5nc(c(-c6c(F)cc(S(=O)(=O)[O-])cc6F)c6ccc3[nH]6)C=C5)C=C4)cc2)c1
REMARK SMILES IDX 32 1 31 2 30 3 29 4 28 5 27 6 25 7 26 8 24 9 23 10 10 11
REMARK SMILES IDX 11 12 12 13 22 15 13 16 21 17 14 18 15 19 8 20 9 21 7 22
REMARK SMILES IDX 3 23 4 24 108 25 5 26 6 27 2 28 1 29 16 30 17 31 18 32 19 33
REMARK SMILES IDX 20 34 33 35 34 36 35 37 36 38 37 39 38 40 39 41 40 42 41 43
REMARK SMILES IDX 42 44 43 45 107 46 44 47 106 48 45 49 46 50 47 51 100 52
REMARK SMILES IDX 48 53 105 54 99 55 101 56 49 57 104 58 98 59 97 60 50 62
REMARK SMILES IDX 84 63 63 64 83 65 64 66 67 67 82 68 102 69 65 70 66 71 81 73
REMARK SMILES IDX 103 74 68 75 51 76 52 77 61 78 53 79 54 80 60 81 62 82 55 83
REMARK SMILES IDX 56 84 57 85 58 86 59 87 85 88 86 89 95 90 87 91 88 92 94 93
REMARK SMILES IDX 96 94 89 95 90 96 91 97 92 98 93 99 69 100 70 101 79 102
REMARK SMILES IDX 71 103 72 104 78 105 80 106 73 107 74 108 75 109 76 110
REMARK SMILES IDX 77 111
REMARK H PARENT 11 14 101 61 67 72
REMARK Flexibility Score: inf
ROOT
ATOM      1  C   UNL A   1      40.813  20.911  27.432  1.00  0.00     0.188 C 
ENDROOT
BRANCH   1   2
ATOM      2  C   UNL A   1      39.806  21.744  26.644  1.00  0.00     0.188 C 
BRANCH   2   3
ATOM      3  O   UNL A   1      39.858  23.149  26.778  1.00  0.00    -0.376 OA
BRANCH   3   4
ATOM      4  C   UNL A   1      38.662  23.874  26.496  1.00  0.00     0.202 C 
BRANCH   4   5
ATOM      5  C   UNL A   1      37.529  23.205  25.686  1.00  0.00     0.261 C 
BRANCH   5   6
ATOM      6  O   UNL A   1      36.584  24.111  25.047  1.00  0.00    -0.463 OA
BRANCH   6   7
ATOM      7  C   UNL A   1      36.053  23.697  23.871  1.00  0.00     0.310 C 
ATOM      8  O   UNL A   1      36.725  23.159  22.988  1.00  0.00    -0.252 OA
BRANCH   7   9
ATOM      9  C   UNL A   1      34.562  23.889  23.646  1.00  0.00     0.161 C 
BRANCH   9  10
ATOM     10  C   UNL A   1      33.592  24.217  24.763  1.00  0.00     0.000 A 
ATOM     11  C   UNL A   1      32.942  23.327  25.637  1.00  0.00     0.093 A 
ATOM     12  N   UNL A   1      32.222  24.116  26.515  1.00  0.00    -0.352 N 
ATOM     13  C   UNL A   1      32.008  25.356  25.961  1.00  0.00     0.046 A 
ATOM     14  H   UNL A   1      31.911  23.832  27.405  1.00  0.00     0.167 HD
ATOM     15  C   UNL A   1      32.873  25.457  24.876  1.00  0.00     0.008 A 
ATOM     16  C   UNL A   1      31.115  26.374  26.316  1.00  0.00     0.030 A 
ATOM     17  C   UNL A   1      32.810  26.623  24.084  1.00  0.00     0.057 A 
ATOM     18  C   UNL A   1      31.036  27.496  25.476  1.00  0.00     0.049 A 
ATOM     19  C   UNL A   1      31.853  27.613  24.354  1.00  0.00     0.130 A 
BRANCH  11  20
ATOM     20  C   UNL A   1      32.995  21.865  25.635  1.00  0.00     0.227 C 
ATOM     21  O   UNL A   1      33.193  21.207  26.659  1.00  0.00    -0.285 OA
BRANCH  20  22
ATOM     22  C   UNL A   1      32.892  21.070  24.378  1.00  0.00     0.113 A 
ATOM     23  C   UNL A   1      32.873  18.930  23.293  1.00  0.00    -0.044 A 
ATOM     24  C   UNL A   1      32.140  19.518  22.257  1.00  0.00     0.024 A 
ATOM     25  C   UNL A   1      33.288  19.739  24.360  1.00  0.00     0.036 A 
ATOM     26  C   UNL A   1      31.821  20.864  22.343  1.00  0.00     0.112 A 
ATOM     27  N   UNL A   1      32.178  21.648  23.378  1.00  0.00    -0.253 NA
BRANCH  23  28
ATOM     28  C   UNL A   1      33.196  17.455  23.314  1.00  0.00     0.032 C 
ATOM     29  C   UNL A   1      34.402  17.087  24.170  1.00  0.00     0.009 C 
ENDBRANCH  23  28
ENDBRANCH  20  22
ENDBRANCH  11  20
BRANCH  19  30
ATOM     30  O   UNL A   1      31.822  28.615  23.425  1.00  0.00    -0.406 OA
BRANCH  30  31
ATOM     31  C   UNL A   1      30.592  28.882  22.777  1.00  0.00     0.573 C 
ATOM     32  F   UNL A   1      29.983  27.742  22.380  1.00  0.00    -0.132 F 
ATOM     33  F   UNL A   1      29.760  29.579  23.578  1.00  0.00    -0.132 F 
ATOM     34  F   UNL A   1      30.835  29.623  21.671  1.00  0.00    -0.132 F 
ENDBRANCH  30  31
ENDBRANCH  19  30
ENDBRANCH   9  10
ENDBRANCH   7   9
ENDBRANCH   6   7
ENDBRANCH   5   6
ENDBRANCH   4   5
ENDBRANCH   3   4
ENDBRANCH   2   3
ENDBRANCH   1   2
BRANCH   1  35
ATOM     35  O   UNL A   1      41.463  19.829  26.790  1.00  0.00    -0.377 OA
BRANCH  35  36
ATOM     36  C   UNL A   1      42.876  19.824  26.648  1.00  0.00     0.188 C 
BRANCH  36  37
ATOM     37  C   UNL A   1      43.469  20.414  25.370  1.00  0.00     0.188 C 
BRANCH  37  38
ATOM     38  O   UNL A   1      43.154  21.769  25.033  1.00  0.00    -0.376 OA
BRANCH  38  39
ATOM     39  C   UNL A   1      43.964  22.828  25.534  1.00  0.00     0.202 C 
BRANCH  39  40
ATOM     40  C   UNL A   1      43.230  23.846  26.399  1.00  0.00     0.261 C 
BRANCH  40  41
ATOM     41  O   UNL A   1      43.308  25.151  25.817  1.00  0.00    -0.460 OA
BRANCH  41  42
ATOM     42  C   UNL A   1      42.192  25.896  25.976  1.00  0.00     0.338 C 
ATOM     43  O   UNL A   1      41.248  25.990  25.206  1.00  0.00    -0.246 OA
BRANCH  42  44
ATOM     44  C   UNL A   1      42.192  26.482  27.324  1.00  0.00     0.060 A 
ATOM     45  C   UNL A   1      41.132  26.149  28.175  1.00  0.00     0.016 A 
ATOM     46  C   UNL A   1      43.176  27.392  27.724  1.00  0.00     0.016 A 
ATOM     47  C   UNL A   1      41.007  26.781  29.403  1.00  0.00     0.010 A 
ATOM     48  C   UNL A   1      43.043  28.038  28.950  1.00  0.00     0.010 A 
ATOM     49  C   UNL A   1      41.927  27.773  29.762  1.00  0.00    -0.014 A 
BRANCH  49  50
ATOM     50  C   UNL A   1      41.574  28.698  30.855  1.00  0.00     0.031 A 
ATOM     51  C   UNL A   1      42.400  28.648  32.111  1.00  0.00     0.074 A 
ATOM     52  C   UNL A   1      40.584  29.591  30.702  1.00  0.00     0.049 A 
ATOM     53  N   UNL A   1      42.274  29.335  33.213  1.00  0.00    -0.248 NA
ATOM     54  C   UNL A   1      43.520  27.689  32.124  1.00  0.00     0.031 C 
ATOM     55  C   UNL A   1      39.770  29.750  29.498  1.00  0.00     0.029 A 
ATOM     56  N   UNL A   1      40.099  30.534  31.568  1.00  0.00    -0.354 N 
ATOM     57  C   UNL A   1      43.289  28.888  34.052  1.00  0.00     0.074 A 
ATOM     58  C   UNL A   1      44.000  27.846  33.348  1.00  0.00     0.031 C 
ATOM     59  C   UNL A   1      38.873  30.729  29.706  1.00  0.00     0.029 A 
ATOM     60  C   UNL A   1      39.031  31.237  31.067  1.00  0.00     0.049 A 
ATOM     61  H   UNL A   1      40.478  30.692  32.462  1.00  0.00     0.167 HD
ATOM     62  C   UNL A   1      43.603  29.319  35.296  1.00  0.00     0.037 A 
ATOM     63  C   UNL A   1      38.258  32.167  31.660  1.00  0.00     0.037 A 
ATOM     64  C   UNL A   1      42.878  30.360  35.976  1.00  0.00     0.049 A 
ATOM     65  C   UNL A   1      38.579  32.580  33.073  1.00  0.00     0.074 A 
ATOM     66  C   UNL A   1      43.106  30.885  37.234  1.00  0.00     0.029 A 
ATOM     67  N   UNL A   1      41.779  31.029  35.453  1.00  0.00    -0.354 N 
ATOM     68  N   UNL A   1      39.546  32.160  33.857  1.00  0.00    -0.248 NA
ATOM     69  C   UNL A   1      37.713  33.596  33.681  1.00  0.00     0.031 C 
ATOM     70  C   UNL A   1      42.106  31.829  37.497  1.00  0.00     0.029 A 
ATOM     71  C   UNL A   1      41.299  31.942  36.374  1.00  0.00     0.049 A 
ATOM     72  H   UNL A   1      41.398  30.874  34.559  1.00  0.00     0.167 HD
ATOM     73  C   UNL A   1      39.424  32.884  35.038  1.00  0.00     0.074 A 
ATOM     74  C   UNL A   1      38.294  33.774  34.860  1.00  0.00     0.031 C 
ATOM     75  C   UNL A   1      40.176  32.825  36.165  1.00  0.00     0.037 A 
BRANCH  62  76
ATOM     76  C   UNL A   1      44.745  28.644  36.005  1.00  0.00     0.058 A 
ATOM     77  C   UNL A   1      46.071  29.088  35.873  1.00  0.00     0.135 A 
ATOM     78  C   UNL A   1      44.506  27.545  36.845  1.00  0.00     0.135 A 
ATOM     79  F   UNL A   1      46.364  30.118  35.064  1.00  0.00    -0.206 F 
ATOM     80  C   UNL A   1      47.121  28.451  36.529  1.00  0.00     0.059 A 
ATOM     81  C   UNL A   1      45.536  26.912  37.536  1.00  0.00     0.059 A 
ATOM     82  F   UNL A   1      43.260  27.071  37.001  1.00  0.00    -0.206 F 
ATOM     83  C   UNL A   1      46.843  27.365  37.360  1.00  0.00     0.060 A 
BRANCH  83  84
ATOM     84  S   UNL A   1      48.214  26.555  38.210  1.00  0.00     0.124 S 
ATOM     85  O   UNL A   1      48.622  25.559  37.224  1.00  0.00    -0.237 OA
ATOM     86  O   UNL A   1      49.145  27.659  38.419  1.00  0.00    -0.237 OA
ATOM     87  O   UNL A   1      47.597  26.021  39.420  1.00  0.00    -0.744 OA
ENDBRANCH  83  84
ENDBRANCH  62  76
BRANCH  63  88
ATOM     88  C   UNL A   1      37.111  32.758  30.922  1.00  0.00     0.058 A 
ATOM     89  C   UNL A   1      35.792  32.368  31.195  1.00  0.00     0.135 A 
ATOM     90  C   UNL A   1      37.311  33.737  29.935  1.00  0.00     0.135 A 
ATOM     91  F   UNL A   1      35.548  31.432  32.126  1.00  0.00    -0.206 F 
ATOM     92  C   UNL A   1      34.713  32.914  30.507  1.00  0.00     0.059 A 
ATOM     93  C   UNL A   1      36.247  34.319  29.253  1.00  0.00     0.059 A 
ATOM     94  F   UNL A   1      38.552  34.155  29.643  1.00  0.00    -0.206 F 
ATOM     95  C   UNL A   1      34.951  33.892  29.539  1.00  0.00     0.060 A 
BRANCH  95  96
ATOM     96  S   UNL A   1      33.540  34.624  28.684  1.00  0.00     0.124 S 
ATOM     97  O   UNL A   1      34.140  35.814  28.091  1.00  0.00    -0.237 OA
ATOM     98  O   UNL A   1      33.166  33.565  27.753  1.00  0.00    -0.237 OA
ATOM     99  O   UNL A   1      32.585  34.869  29.761  1.00  0.00    -0.744 OA
ENDBRANCH  95  96
ENDBRANCH  63  88
BRANCH  75 100
ATOM    100  C   UNL A   1      39.836  33.780  37.276  1.00  0.00     0.058 A 
ATOM    101  C   UNL A   1      38.953  33.430  38.311  1.00  0.00     0.135 A 
ATOM    102  C   UNL A   1      40.451  35.041  37.337  1.00  0.00     0.135 A 
ATOM    103  F   UNL A   1      38.334  32.240  38.299  1.00  0.00    -0.206 F 
ATOM    104  C   UNL A   1      38.673  34.310  39.351  1.00  0.00     0.059 A 
ATOM    105  C   UNL A   1      40.212  35.922  38.385  1.00  0.00     0.059 A 
ATOM    106  F   UNL A   1      41.314  35.419  36.380  1.00  0.00    -0.206 F 
ATOM    107  C   UNL A   1      39.310  35.552  39.381  1.00  0.00     0.060 A 
BRANCH 107 108
ATOM    108  S   UNL A   1      38.964  36.668  40.756  1.00  0.00     0.124 S 
ATOM    109  O   UNL A   1      37.992  35.896  41.523  1.00  0.00    -0.237 OA
ATOM    110  O   UNL A   1      40.279  36.822  41.371  1.00  0.00    -0.237 OA
ATOM    111  O   UNL A   1      38.439  37.863  40.103  1.00  0.00    -0.744 OA
ENDBRANCH 107 108
ENDBRANCH  75 100
ENDBRANCH  49  50
ENDBRANCH  42  44
ENDBRANCH  41  42
ENDBRANCH  40  41
ENDBRANCH  39  40
ENDBRANCH  38  39
ENDBRANCH  37  38
ENDBRANCH  36  37
ENDBRANCH  35  36
ENDBRANCH   1  35
TORSDOF 29
ENDMDL
MODEL 3
REMARK VINA RESULT:      -9.3      2.207      4.049
REMARK SMILES CCc1ccnc(C(=O)c2[nH]c3ccc(OC(F)(F)F)cc3c2CC(=O)OCCOCCOCCOCCOC(=O)c2ccc(-c3c4nc(c(-c5c(F)cc(S(=O)(=O)[O-])cc5F)c5ccc([nH]5)c(-c5c(F)cc(S(=O)(=O)[O-])cc5F)c5nc(c(-c6c(F)cc(S(=O)(=O)[O-])cc6F)c6ccc3[nH]6)C=C5)C=C4)cc2)c1
REMARK SMILES IDX 32 1 31 2 30 3 29 4 28 5 27 6 25 7 26 8 24 9 23 10 10 11
REMARK SMILES IDX 11 12 12 13 22 15 13 16 21 17 14 18 15 19 8 20 9 21 7 22
REMARK SMILES IDX 3 23 4 24 108 25 5 26 6 27 2 28 1 29 16 30 17 31 18 32 19 33
REMARK SMILES IDX 20 34 33 35 34 36 35 37 36 38 37 39 38 40 39 41 40 42 41 43
REMARK SMILES IDX 42 44 43 45 107 46 44 47 106 48 45 49 46 50 47 51 100 52
REMARK SMILES IDX 48 53 105 54 99 55 101 56 49 57 104 58 98 59 97 60 50 62
REMARK SMILES IDX 84 63 63 64 83 65 64 66 67 67 82 68 102 69 65 70 66 71 81 73
REMARK SMILES IDX 103 74 68 75 51 76 52 77 61 78 53 79 54 80 60 81 62 82 55 83
REMARK SMILES IDX 56 84 57 85 58 86 59 87 85 88 86 89 95 90 87 91 88 92 94 93
REMARK SMILES IDX 96 94 89 95 90 96 91 97 92 98 93 99 69 100 70 101 79 102
REMARK SMILES IDX 71 103 72 104 78 105 80 106 73 107 74 108 75 109 76 110
REMARK SMILES IDX 77 111
REMARK H PARENT 11 14 101 61 67 72
REMARK Flexibility Score: inf
ROOT
ATOM      1  C   UNL A   1      40.315  21.564  27.341  1.00  0.00     0.188 C 
ENDROOT
BRANCH   1   2
ATOM      2  C   UNL A   1      39.505  21.668  26.052  1.00  0.00     0.188 C 
BRANCH   2   3
ATOM      3  O   UNL A   1      38.659  22.788  25.889  1.00  0.00    -0.376 OA
BRANCH   3   4
ATOM      4  C   UNL A   1      37.262  22.533  25.754  1.00  0.00     0.202 C 
BRANCH   4   5
ATOM      5  C   UNL A   1      36.334  23.618  25.164  1.00  0.00     0.261 C 
BRANCH   5   6
ATOM      6  O   UNL A   1      36.263  23.673  23.710  1.00  0.00    -0.463 OA
BRANCH   6   7
ATOM      7  C   UNL A   1      35.037  23.890  23.174  1.00  0.00     0.310 C 
ATOM      8  O   UNL A   1      34.462  23.059  22.468  1.00  0.00    -0.252 OA
BRANCH   7   9
ATOM      9  C   UNL A   1      34.341  25.206  23.477  1.00  0.00     0.161 C 
BRANCH   9  10
ATOM     10  C   UNL A   1      32.882  25.299  23.875  1.00  0.00     0.000 A 
ATOM     11  C   UNL A   1      31.985  26.358  23.643  1.00  0.00     0.093 A 
ATOM     12  N   UNL A   1      30.763  25.934  24.132  1.00  0.00    -0.352 N 
ATOM     13  C   UNL A   1      30.952  24.925  25.047  1.00  0.00     0.046 A 
ATOM     14  H   UNL A   1      29.890  26.300  23.864  1.00  0.00     0.167 HD
ATOM     15  C   UNL A   1      32.264  24.490  24.890  1.00  0.00     0.008 A 
ATOM     16  C   UNL A   1      30.083  24.385  26.003  1.00  0.00     0.030 A 
ATOM     17  C   UNL A   1      32.740  23.489  25.763  1.00  0.00     0.057 A 
ATOM     18  C   UNL A   1      30.603  23.432  26.893  1.00  0.00     0.049 A 
ATOM     19  C   UNL A   1      31.925  23.004  26.797  1.00  0.00     0.130 A 
BRANCH  11  20
ATOM     20  C   UNL A   1      32.263  27.653  23.020  1.00  0.00     0.227 C 
ATOM     21  O   UNL A   1      33.154  27.808  22.183  1.00  0.00    -0.285 OA
BRANCH  20  22
ATOM     22  C   UNL A   1      31.539  28.894  23.417  1.00  0.00     0.113 A 
ATOM     23  C   UNL A   1      29.510  30.175  23.436  1.00  0.00    -0.044 A 
ATOM     24  C   UNL A   1      29.989  30.822  24.580  1.00  0.00     0.024 A 
ATOM     25  C   UNL A   1      30.326  29.214  22.822  1.00  0.00     0.036 A 
ATOM     26  C   UNL A   1      31.229  30.462  25.083  1.00  0.00     0.112 A 
ATOM     27  N   UNL A   1      32.009  29.514  24.530  1.00  0.00    -0.253 NA
BRANCH  23  28
ATOM     28  C   UNL A   1      28.139  30.453  22.868  1.00  0.00     0.032 C 
ATOM     29  C   UNL A   1      28.087  30.513  21.346  1.00  0.00     0.009 C 
ENDBRANCH  23  28
ENDBRANCH  20  22
ENDBRANCH  11  20
BRANCH  19  30
ATOM     30  O   UNL A   1      32.565  22.141  27.642  1.00  0.00    -0.406 OA
BRANCH  30  31
ATOM     31  C   UNL A   1      33.593  21.327  27.107  1.00  0.00     0.573 C 
ATOM     32  F   UNL A   1      33.368  20.017  27.356  1.00  0.00    -0.132 F 
ATOM     33  F   UNL A   1      33.721  21.515  25.778  1.00  0.00    -0.132 F 
ATOM     34  F   UNL A   1      34.763  21.661  27.698  1.00  0.00    -0.132 F 
ENDBRANCH  30  31
ENDBRANCH  19  30
ENDBRANCH   9  10
ENDBRANCH   7   9
ENDBRANCH   6   7
ENDBRANCH   5   6
ENDBRANCH   4   5
ENDBRANCH   3   4
ENDBRANCH   2   3
ENDBRANCH   1   2
BRANCH   1  35
ATOM     35  O   UNL A   1      41.279  20.534  27.467  1.00  0.00    -0.377 OA
BRANCH  35  36
ATOM     36  C   UNL A   1      41.686  19.791  26.328  1.00  0.00     0.188 C 
BRANCH  36  37
ATOM     37  C   UNL A   1      43.018  20.154  25.675  1.00  0.00     0.188 C 
BRANCH  37  38
ATOM     38  O   UNL A   1      43.153  21.444  25.072  1.00  0.00    -0.376 OA
BRANCH  38  39
ATOM     39  C   UNL A   1      43.694  22.523  25.827  1.00  0.00     0.202 C 
BRANCH  39  40
ATOM     40  C   UNL A   1      43.294  23.912  25.342  1.00  0.00     0.261 C 
BRANCH  40  41
ATOM     41  O   UNL A   1      42.131  24.372  26.036  1.00  0.00    -0.460 OA
BRANCH  41  42
ATOM     42  C   UNL A   1      41.909  25.701  25.928  1.00  0.00     0.338 C 
ATOM     43  O   UNL A   1      41.590  26.319  24.923  1.00  0.00    -0.246 OA
BRANCH  42  44
ATOM     44  C   UNL A   1      41.952  26.307  27.266  1.00  0.00     0.060 A 
ATOM     45  C   UNL A   1      40.931  25.970  28.163  1.00  0.00     0.016 A 
ATOM     46  C   UNL A   1      42.935  27.238  27.614  1.00  0.00     0.016 A 
ATOM     47  C   UNL A   1      40.843  26.619  29.385  1.00  0.00     0.010 A 
ATOM     48  C   UNL A   1      42.840  27.900  28.835  1.00  0.00     0.010 A 
ATOM     49  C   UNL A   1      41.760  27.630  29.693  1.00  0.00    -0.014 A 
BRANCH  49  50
ATOM     50  C   UNL A   1      41.435  28.566  30.786  1.00  0.00     0.031 A 
ATOM     51  C   UNL A   1      42.271  28.506  32.034  1.00  0.00     0.074 A 
ATOM     52  C   UNL A   1      40.460  29.477  30.638  1.00  0.00     0.049 A 
ATOM     53  N   UNL A   1      42.169  29.200  33.135  1.00  0.00    -0.248 NA
ATOM     54  C   UNL A   1      43.373  27.526  32.040  1.00  0.00     0.031 C 
ATOM     55  C   UNL A   1      39.637  29.646  29.441  1.00  0.00     0.029 A 
ATOM     56  N   UNL A   1      40.001  30.432  31.504  1.00  0.00    -0.354 N 
ATOM     57  C   UNL A   1      43.183  28.737  33.965  1.00  0.00     0.074 A 
ATOM     58  C   UNL A   1      43.867  27.679  33.259  1.00  0.00     0.031 C 
ATOM     59  C   UNL A   1      38.761  30.642  29.653  1.00  0.00     0.029 A 
ATOM     60  C   UNL A   1      38.941  31.153  31.011  1.00  0.00     0.049 A 
ATOM     61  H   UNL A   1      40.391  30.586  32.394  1.00  0.00     0.167 HD
ATOM     62  C   UNL A   1      43.516  29.167  35.204  1.00  0.00     0.037 A 
ATOM     63  C   UNL A   1      38.191  32.100  31.607  1.00  0.00     0.037 A 
ATOM     64  C   UNL A   1      42.818  30.225  35.887  1.00  0.00     0.049 A 
ATOM     65  C   UNL A   1      38.533  32.512  33.015  1.00  0.00     0.074 A 
ATOM     66  C   UNL A   1      43.067  30.750  37.141  1.00  0.00     0.029 A 
ATOM     67  N   UNL A   1      41.726  30.911  35.371  1.00  0.00    -0.354 N 
ATOM     68  N   UNL A   1      39.499  32.077  33.792  1.00  0.00    -0.248 NA
ATOM     69  C   UNL A   1      37.692  33.546  33.627  1.00  0.00     0.031 C 
ATOM     70  C   UNL A   1      42.087  31.713  37.409  1.00  0.00     0.029 A 
ATOM     71  C   UNL A   1      41.272  31.837  36.293  1.00  0.00     0.049 A 
ATOM     72  H   UNL A   1      41.334  30.761  34.481  1.00  0.00     0.167 HD
ATOM     73  C   UNL A   1      39.402  32.809  34.970  1.00  0.00     0.074 A 
ATOM     74  C   UNL A   1      38.287  33.719  34.799  1.00  0.00     0.031 C 
ATOM     75  C   UNL A   1      40.164  32.740  36.091  1.00  0.00     0.037 A 
BRANCH  62  76
ATOM     76  C   UNL A   1      44.653  28.474  35.906  1.00  0.00     0.058 A 
ATOM     77  C   UNL A   1      45.987  28.882  35.746  1.00  0.00     0.135 A 
ATOM     78  C   UNL A   1      44.400  27.394  36.767  1.00  0.00     0.135 A 
ATOM     79  F   UNL A   1      46.292  29.892  34.916  1.00  0.00    -0.206 F 
ATOM     80  C   UNL A   1      47.031  28.228  36.395  1.00  0.00     0.059 A 
ATOM     81  C   UNL A   1      45.424  26.746  37.451  1.00  0.00     0.059 A 
ATOM     82  F   UNL A   1      43.144  26.955  36.950  1.00  0.00    -0.206 F 
ATOM     83  C   UNL A   1      46.739  27.163  37.247  1.00  0.00     0.060 A 
BRANCH  83  84
ATOM     84  S   UNL A   1      48.102  26.330  38.087  1.00  0.00     0.124 S 
ATOM     85  O   UNL A   1      48.879  27.464  38.578  1.00  0.00    -0.237 OA
ATOM     86  O   UNL A   1      47.408  25.549  39.106  1.00  0.00    -0.237 OA
ATOM     87  O   UNL A   1      48.732  25.552  37.026  1.00  0.00    -0.744 OA
ENDBRANCH  83  84
ENDBRANCH  62  76
BRANCH  63  88
ATOM     88  C   UNL A   1      37.048  32.709  30.877  1.00  0.00     0.058 A 
ATOM     89  C   UNL A   1      37.242  33.761  29.970  1.00  0.00     0.135 A 
ATOM     90  C   UNL A   1      35.738  32.242  31.064  1.00  0.00     0.135 A 
ATOM     91  F   UNL A   1      38.475  34.247  29.761  1.00  0.00    -0.206 F 
ATOM     92  C   UNL A   1      36.178  34.339  29.287  1.00  0.00     0.059 A 
ATOM     93  C   UNL A   1      34.660  32.783  30.371  1.00  0.00     0.059 A 
ATOM     94  F   UNL A   1      35.498  31.229  31.911  1.00  0.00    -0.206 F 
ATOM     95  C   UNL A   1      34.889  33.840  29.491  1.00  0.00     0.060 A 
BRANCH  95  96
ATOM     96  S   UNL A   1      33.522  34.569  28.565  1.00  0.00     0.124 S 
ATOM     97  O   UNL A   1      32.559  34.840  29.626  1.00  0.00    -0.237 OA
ATOM     98  O   UNL A   1      34.153  35.739  27.962  1.00  0.00    -0.237 OA
ATOM     99  O   UNL A   1      33.150  33.514  27.628  1.00  0.00    -0.744 OA
ENDBRANCH  95  96
ENDBRANCH  63  88
BRANCH  75 100
ATOM    100  C   UNL A   1      39.851  33.705  37.201  1.00  0.00     0.058 A 
ATOM    101  C   UNL A   1      39.060  33.340  38.302  1.00  0.00     0.135 A 
ATOM    102  C   UNL A   1      40.404  34.996  37.190  1.00  0.00     0.135 A 
ATOM    103  F   UNL A   1      38.503  32.121  38.360  1.00  0.00    -0.206 F 
ATOM    104  C   UNL A   1      38.807  34.232  39.339  1.00  0.00     0.059 A 
ATOM    105  C   UNL A   1      40.192  35.892  38.233  1.00  0.00     0.059 A 
ATOM    106  F   UNL A   1      41.180  35.392  36.167  1.00  0.00    -0.206 F 
ATOM    107  C   UNL A   1      39.381  35.504  39.297  1.00  0.00     0.060 A 
BRANCH 107 108
ATOM    108  S   UNL A   1      39.072  36.637  40.667  1.00  0.00     0.124 S 
ATOM    109  O   UNL A   1      37.963  35.978  41.348  1.00  0.00    -0.237 OA
ATOM    110  O   UNL A   1      40.349  36.625  41.375  1.00  0.00    -0.237 OA
ATOM    111  O   UNL A   1      38.743  37.894  40.003  1.00  0.00    -0.744 OA
ENDBRANCH 107 108
ENDBRANCH  75 100
ENDBRANCH  49  50
ENDBRANCH  42  44
ENDBRANCH  41  42
ENDBRANCH  40  41
ENDBRANCH  39  40
ENDBRANCH  38  39
ENDBRANCH  37  38
ENDBRANCH  36  37
ENDBRANCH  35  36
ENDBRANCH   1  35
TORSDOF 29
ENDMDL
