MODEL 1
REMARK VINA RESULT:      -8.3      0.000      0.000
REMARK SMILES COc1ccc2c(c1)c(CC(=O)OCCOCCOCCOCCOC(=O)c1ccc(-c3c4nc(c(-c5c(F)cc(S(=O)(=O)[O-])cc5F)c5ccc([nH]5)c(-c5c(F)cc(S(=O)(=O)[O-])cc5F)c5nc(c(-c6c(F)cc(S(=O)(=O)[O-])cc6F)c6ccc3[nH]6)C=C5)C=C4)cc1)c(C(F)(F)F)n2C(=O)c1ccc(Cl)cc1
REMARK SMILES IDX 19 1 18 2 17 3 16 4 15 5 14 6 13 7 11 8 12 9 10 10 9 11 3 12
REMARK SMILES IDX 4 13 8 14 5 15 7 16 6 17 99 18 94 19 2 20 1 21 100 22 101 23
REMARK SMILES IDX 102 24 103 25 108 26 104 27 107 28 105 29 106 30 95 31 96 32
REMARK SMILES IDX 97 33 98 34 20 35 21 36 22 37 23 38 24 39 25 40 26 41 27 42
REMARK SMILES IDX 28 43 29 44 93 45 30 46 92 47 31 48 32 49 33 50 86 51 34 52
REMARK SMILES IDX 91 53 85 54 87 55 35 56 90 57 84 58 83 59 36 61 70 62 49 63
REMARK SMILES IDX 69 64 50 65 53 66 68 67 88 68 51 69 52 70 67 72 89 73 54 74
REMARK SMILES IDX 37 75 38 76 47 77 39 78 40 79 46 80 48 81 41 82 42 83 43 84
REMARK SMILES IDX 44 85 45 86 71 87 72 88 81 89 73 90 74 91 80 92 82 93 75 94
REMARK SMILES IDX 76 95 77 96 78 97 79 98 55 99 56 100 65 101 57 102 58 103
REMARK SMILES IDX 64 104 66 105 59 106 60 107 61 108 62 109 63 110
REMARK H PARENT 87 60 53 71
REMARK Flexibility Score: inf
ROOT
ATOM      1  O   UNL A   1      47.930  39.578  31.618  1.00  0.00    -0.377 OA
ENDROOT
BRANCH   1   2
ATOM      2  C   UNL A   1      47.197  38.738  30.780  1.00  0.00     0.188 C 
BRANCH   2   3
ATOM      3  C   UNL A   1      46.729  39.156  29.393  1.00  0.00     0.188 C 
BRANCH   3   4
ATOM      4  O   UNL A   1      45.476  39.762  29.175  1.00  0.00    -0.376 OA
BRANCH   4   5
ATOM      5  C   UNL A   1      45.238  41.154  29.099  1.00  0.00     0.202 C 
BRANCH   5   6
ATOM      6  C   UNL A   1      44.557  41.923  27.945  1.00  0.00     0.261 C 
BRANCH   6   7
ATOM      7  O   UNL A   1      45.352  42.417  26.852  1.00  0.00    -0.463 OA
BRANCH   7   8
ATOM      8  C   UNL A   1      45.721  43.716  26.927  1.00  0.00     0.310 C 
ATOM      9  O   UNL A   1      46.387  44.174  27.854  1.00  0.00    -0.252 OA
BRANCH   8  10
ATOM     10  C   UNL A   1      45.283  44.611  25.772  1.00  0.00     0.161 C 
BRANCH  10  11
ATOM     11  C   UNL A   1      45.757  44.399  24.333  1.00  0.00     0.002 A 
ATOM     12  C   UNL A   1      49.446  45.279  23.688  1.00  0.00     0.119 A 
ATOM     13  C   UNL A   1      49.466  44.891  22.365  1.00  0.00     0.048 A 
ATOM     14  C   UNL A   1      48.222  45.311  24.377  1.00  0.00     0.057 A 
ATOM     15  C   UNL A   1      48.296  44.460  21.739  1.00  0.00     0.031 A 
ATOM     16  C   UNL A   1      47.045  44.751  23.802  1.00  0.00     0.008 A 
ATOM     17  C   UNL A   1      47.085  44.354  22.462  1.00  0.00     0.057 A 
ATOM     18  N   UNL A   1      45.802  43.896  22.096  1.00  0.00    -0.271 N 
ATOM     19  C   UNL A   1      44.986  43.974  23.240  1.00  0.00     0.135 A 
BRANCH  12  20
ATOM     20  O   UNL A   1      50.556  45.598  24.423  1.00  0.00    -0.497 OA
ATOM     21  C   UNL A   1      50.985  46.960  24.376  1.00  0.00     0.278 C 
ENDBRANCH  12  20
BRANCH  18  22
ATOM     22  C   UNL A   1      45.444  43.450  20.784  1.00  0.00     0.262 C 
ATOM     23  O   UNL A   1      45.856  42.371  20.375  1.00  0.00    -0.268 OA
BRANCH  22  24
ATOM     24  C   UNL A   1      44.600  44.184  19.820  1.00  0.00     0.040 A 
ATOM     25  C   UNL A   1      44.952  45.490  19.455  1.00  0.00     0.015 A 
ATOM     26  C   UNL A   1      43.456  43.576  19.285  1.00  0.00     0.015 A 
ATOM     27  C   UNL A   1      44.114  46.216  18.604  1.00  0.00     0.021 A 
ATOM     28  C   UNL A   1      42.628  44.307  18.426  1.00  0.00     0.021 A 
ATOM     29  C   UNL A   1      42.953  45.625  18.102  1.00  0.00     0.041 A 
ATOM     30  Cl  UNL A   1      41.901  46.538  17.089  1.00  0.00    -0.084 Cl
ENDBRANCH  22  24
ENDBRANCH  18  22
BRANCH  19  31
ATOM     31  C   UNL A   1      43.520  43.643  23.289  1.00  0.00     0.432 C 
ATOM     32  F   UNL A   1      42.796  44.567  22.623  1.00  0.00    -0.165 F 
ATOM     33  F   UNL A   1      43.311  42.450  22.662  1.00  0.00    -0.165 F 
ATOM     34  F   UNL A   1      42.976  43.468  24.509  1.00  0.00    -0.165 F 
ENDBRANCH  19  31
ENDBRANCH  10  11
ENDBRANCH   8  10
ENDBRANCH   7   8
ENDBRANCH   6   7
ENDBRANCH   5   6
ENDBRANCH   4   5
ENDBRANCH   3   4
ENDBRANCH   2   3
ENDBRANCH   1   2
BRANCH   1  35
ATOM     35  C   UNL A   1      48.377  40.767  31.050  1.00  0.00     0.188 C 
BRANCH  35  36
ATOM     36  C   UNL A   1      48.522  41.886  32.076  1.00  0.00     0.188 C 
BRANCH  36  37
ATOM     37  O   UNL A   1      47.390  42.527  32.671  1.00  0.00    -0.376 OA
BRANCH  37  38
ATOM     38  C   UNL A   1      46.695  41.940  33.762  1.00  0.00     0.202 C 
BRANCH  38  39
ATOM     39  C   UNL A   1      45.295  41.352  33.489  1.00  0.00     0.261 C 
BRANCH  39  40
ATOM     40  O   UNL A   1      45.267  39.926  33.390  1.00  0.00    -0.460 OA
BRANCH  40  41
ATOM     41  C   UNL A   1      45.548  39.209  34.523  1.00  0.00     0.338 C 
ATOM     42  O   UNL A   1      46.454  39.345  35.277  1.00  0.00    -0.246 OA
BRANCH  41  43
ATOM     43  C   UNL A   1      44.300  38.440  34.789  1.00  0.00     0.060 A 
ATOM     44  C   UNL A   1      44.123  37.735  35.983  1.00  0.00     0.016 A 
ATOM     45  C   UNL A   1      43.516  38.164  33.661  1.00  0.00     0.016 A 
ATOM     46  C   UNL A   1      43.267  36.635  35.986  1.00  0.00     0.010 A 
ATOM     47  C   UNL A   1      42.679  37.051  33.664  1.00  0.00     0.010 A 
ATOM     48  C   UNL A   1      42.599  36.252  34.806  1.00  0.00    -0.014 A 
BRANCH  48  49
ATOM     49  C   UNL A   1      41.607  35.178  34.900  1.00  0.00     0.031 A 
ATOM     50  C   UNL A   1      42.059  33.969  34.164  1.00  0.00     0.074 A 
ATOM     51  C   UNL A   1      40.508  35.123  35.683  1.00  0.00     0.049 A 
ATOM     52  N   UNL A   1      41.505  33.381  33.157  1.00  0.00    -0.248 NA
ATOM     53  C   UNL A   1      43.400  33.463  34.507  1.00  0.00     0.031 C 
ATOM     54  C   UNL A   1      40.083  36.076  36.707  1.00  0.00     0.029 A 
ATOM     55  N   UNL A   1      39.585  34.116  35.796  1.00  0.00    -0.354 N 
ATOM     56  C   UNL A   1      42.342  32.311  32.861  1.00  0.00     0.074 A 
ATOM     57  C   UNL A   1      43.570  32.528  33.578  1.00  0.00     0.031 C 
ATOM     58  C   UNL A   1      39.108  35.513  37.459  1.00  0.00     0.029 A 
ATOM     59  C   UNL A   1      38.796  34.191  36.939  1.00  0.00     0.049 A 
ATOM     60  H   UNL A   1      39.488  33.401  35.126  1.00  0.00     0.167 HD
ATOM     61  C   UNL A   1      41.897  31.187  32.242  1.00  0.00     0.037 A 
ATOM     62  C   UNL A   1      38.028  33.205  37.479  1.00  0.00     0.037 A 
ATOM     63  C   UNL A   1      40.659  31.404  31.547  1.00  0.00     0.049 A 
ATOM     64  C   UNL A   1      37.754  32.211  36.405  1.00  0.00     0.074 A 
ATOM     65  C   UNL A   1      40.257  32.262  30.543  1.00  0.00     0.029 A 
ATOM     66  N   UNL A   1      39.504  30.911  32.104  1.00  0.00    -0.354 N 
ATOM     67  N   UNL A   1      37.023  32.448  35.349  1.00  0.00    -0.248 NA
ATOM     68  C   UNL A   1      38.643  31.063  36.297  1.00  0.00     0.031 C 
ATOM     69  C   UNL A   1      38.910  32.601  30.857  1.00  0.00     0.029 A 
ATOM     70  C   UNL A   1      38.561  31.904  32.015  1.00  0.00     0.049 A 
ATOM     71  H   UNL A   1      39.376  30.016  32.493  1.00  0.00     0.167 HD
ATOM     72  C   UNL A   1      37.647  31.757  34.320  1.00  0.00     0.074 A 
ATOM     73  C   UNL A   1      38.578  30.849  34.980  1.00  0.00     0.031 C 
ATOM     74  C   UNL A   1      37.554  32.172  33.022  1.00  0.00     0.037 A 
BRANCH  61  75
ATOM     75  C   UNL A   1      42.446  29.825  32.564  1.00  0.00     0.058 A 
ATOM     76  C   UNL A   1      42.337  29.313  33.867  1.00  0.00     0.135 A 
ATOM     77  C   UNL A   1      43.293  29.105  31.687  1.00  0.00     0.135 A 
ATOM     78  F   UNL A   1      41.588  29.941  34.787  1.00  0.00    -0.206 F 
ATOM     79  C   UNL A   1      43.047  28.186  34.281  1.00  0.00     0.059 A 
ATOM     80  C   UNL A   1      43.955  27.945  32.056  1.00  0.00     0.059 A 
ATOM     81  F   UNL A   1      43.600  29.553  30.462  1.00  0.00    -0.206 F 
ATOM     82  C   UNL A   1      43.860  27.516  33.368  1.00  0.00     0.060 A 
BRANCH  82  83
ATOM     83  S   UNL A   1      44.866  26.131  33.923  1.00  0.00     0.124 S 
ATOM     84  O   UNL A   1      43.866  25.074  34.026  1.00  0.00    -0.237 OA
ATOM     85  O   UNL A   1      45.830  26.000  32.836  1.00  0.00    -0.237 OA
ATOM     86  O   UNL A   1      45.420  26.604  35.189  1.00  0.00    -0.744 OA
ENDBRANCH  82  83
ENDBRANCH  61  75
BRANCH  62  87
ATOM     87  C   UNL A   1      37.788  32.928  38.928  1.00  0.00     0.058 A 
ATOM     88  C   UNL A   1      36.512  32.607  39.434  1.00  0.00     0.135 A 
ATOM     89  C   UNL A   1      38.859  32.738  39.827  1.00  0.00     0.135 A 
ATOM     90  F   UNL A   1      35.429  32.707  38.649  1.00  0.00    -0.206 F 
ATOM     91  C   UNL A   1      36.319  32.117  40.737  1.00  0.00     0.059 A 
ATOM     92  C   UNL A   1      38.691  32.276  41.131  1.00  0.00     0.059 A 
ATOM     93  F   UNL A   1      40.132  32.905  39.441  1.00  0.00    -0.206 F 
ATOM     94  C   UNL A   1      37.420  31.946  41.576  1.00  0.00     0.060 A 
BRANCH  94  95
ATOM     95  S   UNL A   1      37.212  31.190  43.206  1.00  0.00     0.124 S 
ATOM     96  O   UNL A   1      37.803  29.871  43.007  1.00  0.00    -0.237 OA
ATOM     97  O   UNL A   1      37.960  32.103  44.065  1.00  0.00    -0.237 OA
ATOM     98  O   UNL A   1      35.764  31.199  43.403  1.00  0.00    -0.744 OA
ENDBRANCH  94  95
ENDBRANCH  62  87
BRANCH  74  99
ATOM     99  C   UNL A   1      36.514  33.200  32.657  1.00  0.00     0.058 A 
ATOM    100  C   UNL A   1      35.253  32.885  32.122  1.00  0.00     0.135 A 
ATOM    101  C   UNL A   1      36.722  34.527  33.071  1.00  0.00     0.135 A 
ATOM    102  F   UNL A   1      34.936  31.626  31.789  1.00  0.00    -0.206 F 
ATOM    103  C   UNL A   1      34.248  33.847  32.000  1.00  0.00     0.059 A 
ATOM    104  C   UNL A   1      35.723  35.493  32.990  1.00  0.00     0.059 A 
ATOM    105  F   UNL A   1      37.888  34.878  33.639  1.00  0.00    -0.206 F 
ATOM    106  C   UNL A   1      34.487  35.144  32.454  1.00  0.00     0.060 A 
BRANCH 106 107
ATOM    107  S   UNL A   1      33.126  36.333  32.438  1.00  0.00     0.124 S 
ATOM    108  O   UNL A   1      33.399  37.123  33.635  1.00  0.00    -0.237 OA
ATOM    109  O   UNL A   1      33.327  37.022  31.166  1.00  0.00    -0.237 OA
ATOM    110  O   UNL A   1      31.936  35.489  32.503  1.00  0.00    -0.744 OA
ENDBRANCH 106 107
ENDBRANCH  74  99
ENDBRANCH  48  49
ENDBRANCH  41  43
ENDBRANCH  40  41
ENDBRANCH  39  40
ENDBRANCH  38  39
ENDBRANCH  37  38
ENDBRANCH  36  37
ENDBRANCH  35  36
ENDBRANCH   1  35
TORSDOF 28
ENDMDL
MODEL 2
REMARK VINA RESULT:      -8.2      9.571     17.900
REMARK SMILES COc1ccc2c(c1)c(CC(=O)OCCOCCOCCOCCOC(=O)c1ccc(-c3c4nc(c(-c5c(F)cc(S(=O)(=O)[O-])cc5F)c5ccc([nH]5)c(-c5c(F)cc(S(=O)(=O)[O-])cc5F)c5nc(c(-c6c(F)cc(S(=O)(=O)[O-])cc6F)c6ccc3[nH]6)C=C5)C=C4)cc1)c(C(F)(F)F)n2C(=O)c1ccc(Cl)cc1
REMARK SMILES IDX 19 1 18 2 17 3 16 4 15 5 14 6 13 7 11 8 12 9 10 10 9 11 3 12
REMARK SMILES IDX 4 13 8 14 5 15 7 16 6 17 99 18 94 19 2 20 1 21 100 22 101 23
REMARK SMILES IDX 102 24 103 25 108 26 104 27 107 28 105 29 106 30 95 31 96 32
REMARK SMILES IDX 97 33 98 34 20 35 21 36 22 37 23 38 24 39 25 40 26 41 27 42
REMARK SMILES IDX 28 43 29 44 93 45 30 46 92 47 31 48 32 49 33 50 86 51 34 52
REMARK SMILES IDX 91 53 85 54 87 55 35 56 90 57 84 58 83 59 36 61 70 62 49 63
REMARK SMILES IDX 69 64 50 65 53 66 68 67 88 68 51 69 52 70 67 72 89 73 54 74
REMARK SMILES IDX 37 75 38 76 47 77 39 78 40 79 46 80 48 81 41 82 42 83 43 84
REMARK SMILES IDX 44 85 45 86 71 87 72 88 81 89 73 90 74 91 80 92 82 93 75 94
REMARK SMILES IDX 76 95 77 96 78 97 79 98 55 99 56 100 65 101 57 102 58 103
REMARK SMILES IDX 64 104 66 105 59 106 60 107 61 108 62 109 63 110
REMARK H PARENT 87 60 53 71
REMARK Flexibility Score: inf
ROOT
ATOM      1  O   UNL A   1      39.580  22.726  26.564  1.00  0.00    -0.377 OA
ENDROOT
BRANCH   1   2
ATOM      2  C   UNL A   1      38.472  23.552  26.371  1.00  0.00     0.188 C 
BRANCH   2   3
ATOM      3  C   UNL A   1      37.188  23.072  25.710  1.00  0.00     0.188 C 
BRANCH   3   4
ATOM      4  O   UNL A   1      36.564  21.863  26.073  1.00  0.00    -0.376 OA
BRANCH   4   5
ATOM      5  C   UNL A   1      35.607  21.165  25.299  1.00  0.00     0.202 C 
BRANCH   5   6
ATOM      6  C   UNL A   1      34.369  21.758  24.591  1.00  0.00     0.261 C 
BRANCH   6   7
ATOM      7  O   UNL A   1      33.229  22.164  25.370  1.00  0.00    -0.463 OA
BRANCH   7   8
ATOM      8  C   UNL A   1      33.392  23.274  26.125  1.00  0.00     0.310 C 
ATOM      9  O   UNL A   1      33.343  23.265  27.354  1.00  0.00    -0.252 OA
BRANCH   8  10
ATOM     10  C   UNL A   1      33.665  24.571  25.370  1.00  0.00     0.161 C 
BRANCH  10  11
ATOM     11  C   UNL A   1      32.592  25.640  25.145  1.00  0.00     0.002 A 
ATOM     12  C   UNL A   1      33.209  28.975  26.960  1.00  0.00     0.119 A 
ATOM     13  C   UNL A   1      32.109  29.631  26.451  1.00  0.00     0.048 A 
ATOM     14  C   UNL A   1      33.363  27.599  26.717  1.00  0.00     0.057 A 
ATOM     15  C   UNL A   1      31.197  28.954  25.640  1.00  0.00     0.031 A 
ATOM     16  C   UNL A   1      32.522  26.922  25.788  1.00  0.00     0.008 A 
ATOM     17  C   UNL A   1      31.415  27.605  25.275  1.00  0.00     0.057 A 
ATOM     18  N   UNL A   1      30.701  26.726  24.435  1.00  0.00    -0.271 N 
ATOM     19  C   UNL A   1      31.409  25.509  24.403  1.00  0.00     0.135 A 
BRANCH  12  20
ATOM     20  O   UNL A   1      34.222  29.577  27.659  1.00  0.00    -0.497 OA
ATOM     21  C   UNL A   1      35.554  29.233  27.277  1.00  0.00     0.278 C 
ENDBRANCH  12  20
BRANCH  18  22
ATOM     22  C   UNL A   1      29.480  27.056  23.765  1.00  0.00     0.262 C 
ATOM     23  O   UNL A   1      28.573  26.234  23.713  1.00  0.00    -0.268 OA
BRANCH  22  24
ATOM     24  C   UNL A   1      29.180  28.335  23.091  1.00  0.00     0.040 A 
ATOM     25  C   UNL A   1      27.953  28.967  23.333  1.00  0.00     0.015 A 
ATOM     26  C   UNL A   1      30.115  28.902  22.216  1.00  0.00     0.015 A 
ATOM     27  C   UNL A   1      27.633  30.136  22.638  1.00  0.00     0.021 A 
ATOM     28  C   UNL A   1      29.790  30.078  21.531  1.00  0.00     0.021 A 
ATOM     29  C   UNL A   1      28.547  30.681  21.734  1.00  0.00     0.041 A 
ATOM     30  Cl  UNL A   1      28.131  32.097  20.849  1.00  0.00    -0.084 Cl
ENDBRANCH  22  24
ENDBRANCH  18  22
BRANCH  19  31
ATOM     31  C   UNL A   1      30.971  24.267  23.676  1.00  0.00     0.432 C 
ATOM     32  F   UNL A   1      31.995  23.735  22.974  1.00  0.00    -0.165 F 
ATOM     33  F   UNL A   1      30.587  23.328  24.587  1.00  0.00    -0.165 F 
ATOM     34  F   UNL A   1      29.905  24.383  22.861  1.00  0.00    -0.165 F 
ENDBRANCH  19  31
ENDBRANCH  10  11
ENDBRANCH   8  10
ENDBRANCH   7   8
ENDBRANCH   6   7
ENDBRANCH   5   6
ENDBRANCH   4   5
ENDBRANCH   3   4
ENDBRANCH   2   3
ENDBRANCH   1   2
BRANCH   1  35
ATOM     35  C   UNL A   1      39.646  21.595  25.757  1.00  0.00     0.188 C 
BRANCH  35  36
ATOM     36  C   UNL A   1      40.126  20.363  26.516  1.00  0.00     0.188 C 
BRANCH  36  37
ATOM     37  O   UNL A   1      41.508  20.135  26.805  1.00  0.00    -0.376 OA
BRANCH  37  38
ATOM     38  C   UNL A   1      42.530  20.532  25.902  1.00  0.00     0.202 C 
BRANCH  38  39
ATOM     39  C   UNL A   1      43.065  21.975  26.013  1.00  0.00     0.261 C 
BRANCH  39  40
ATOM     40  O   UNL A   1      43.632  22.294  27.285  1.00  0.00    -0.460 OA
BRANCH  40  41
ATOM     41  C   UNL A   1      42.823  22.918  28.198  1.00  0.00     0.338 C 
ATOM     42  O   UNL A   1      41.923  22.460  28.821  1.00  0.00    -0.246 OA
BRANCH  41  43
ATOM     43  C   UNL A   1      43.518  24.204  28.485  1.00  0.00     0.060 A 
ATOM     44  C   UNL A   1      43.453  25.278  27.592  1.00  0.00     0.016 A 
ATOM     45  C   UNL A   1      44.511  24.140  29.471  1.00  0.00     0.016 A 
ATOM     46  C   UNL A   1      44.493  26.206  27.589  1.00  0.00     0.010 A 
ATOM     47  C   UNL A   1      45.559  25.057  29.449  1.00  0.00     0.010 A 
ATOM     48  C   UNL A   1      45.581  26.054  28.472  1.00  0.00    -0.014 A 
BRANCH  48  49
ATOM     49  C   UNL A   1      46.574  27.131  28.524  1.00  0.00     0.031 A 
ATOM     50  C   UNL A   1      47.807  26.755  27.785  1.00  0.00     0.074 A 
ATOM     51  C   UNL A   1      46.413  28.393  28.976  1.00  0.00     0.049 A 
ATOM     52  N   UNL A   1      49.012  26.632  28.232  1.00  0.00    -0.248 NA
ATOM     53  C   UNL A   1      47.619  26.294  26.398  1.00  0.00     0.031 C 
ATOM     54  C   UNL A   1      45.183  29.036  29.436  1.00  0.00     0.029 A 
ATOM     55  N   UNL A   1      47.326  29.414  29.010  1.00  0.00    -0.354 N 
ATOM     56  C   UNL A   1      49.769  26.257  27.127  1.00  0.00     0.074 A 
ATOM     57  C   UNL A   1      48.843  25.875  26.095  1.00  0.00     0.031 C 
ATOM     58  C   UNL A   1      45.384  30.372  29.516  1.00  0.00     0.029 A 
ATOM     59  C   UNL A   1      46.765  30.676  29.175  1.00  0.00     0.049 A 
ATOM     60  H   UNL A   1      48.296  29.268  28.925  1.00  0.00     0.167 HD
ATOM     61  C   UNL A   1      51.099  26.512  27.036  1.00  0.00     0.037 A 
ATOM     62  C   UNL A   1      47.358  31.881  28.945  1.00  0.00     0.037 A 
ATOM     63  C   UNL A   1      51.694  26.766  28.318  1.00  0.00     0.049 A 
ATOM     64  C   UNL A   1      48.831  31.670  28.982  1.00  0.00     0.074 A 
ATOM     65  C   UNL A   1      51.789  26.047  29.493  1.00  0.00     0.029 A 
ATOM     66  N   UNL A   1      52.011  28.062  28.645  1.00  0.00    -0.354 N 
ATOM     67  N   UNL A   1      49.503  31.344  30.053  1.00  0.00    -0.248 NA
ATOM     68  C   UNL A   1      49.514  31.417  27.722  1.00  0.00     0.031 C 
ATOM     69  C   UNL A   1      51.694  27.016  30.533  1.00  0.00     0.029 A 
ATOM     70  C   UNL A   1      51.579  28.270  29.930  1.00  0.00     0.049 A 
ATOM     71  H   UNL A   1      52.463  28.718  28.066  1.00  0.00     0.167 HD
ATOM     72  C   UNL A   1      50.491  30.478  29.605  1.00  0.00     0.074 A 
ATOM     73  C   UNL A   1      50.508  30.638  28.155  1.00  0.00     0.031 C 
ATOM     74  C   UNL A   1      51.016  29.513  30.416  1.00  0.00     0.037 A 
BRANCH  61  75
ATOM     75  C   UNL A   1      51.762  26.845  25.728  1.00  0.00     0.058 A 
ATOM     76  C   UNL A   1      51.353  27.975  25.000  1.00  0.00     0.135 A 
ATOM     77  C   UNL A   1      52.625  25.952  25.048  1.00  0.00     0.135 A 
ATOM     78  F   UNL A   1      50.506  28.864  25.540  1.00  0.00    -0.206 F 
ATOM     79  C   UNL A   1      51.744  28.183  23.677  1.00  0.00     0.059 A 
ATOM     80  C   UNL A   1      53.080  26.174  23.758  1.00  0.00     0.059 A 
ATOM     81  F   UNL A   1      52.983  24.770  25.567  1.00  0.00    -0.206 F 
ATOM     82  C   UNL A   1      52.601  27.271  23.064  1.00  0.00     0.060 A 
BRANCH  82  83
ATOM     83  S   UNL A   1      53.018  27.472  21.325  1.00  0.00     0.124 S 
ATOM     84  O   UNL A   1      51.739  27.177  20.688  1.00  0.00    -0.237 OA
ATOM     85  O   UNL A   1      53.454  28.863  21.277  1.00  0.00    -0.237 OA
ATOM     86  O   UNL A   1      54.073  26.484  21.117  1.00  0.00    -0.744 OA
ENDBRANCH  82  83
ENDBRANCH  61  75
BRANCH  62  87
ATOM     87  C   UNL A   1      46.723  33.117  28.393  1.00  0.00     0.058 A 
ATOM     88  C   UNL A   1      45.849  33.087  27.287  1.00  0.00     0.135 A 
ATOM     89  C   UNL A   1      46.772  34.343  29.091  1.00  0.00     0.135 A 
ATOM     90  F   UNL A   1      45.691  31.957  26.581  1.00  0.00    -0.206 F 
ATOM     91  C   UNL A   1      45.069  34.193  26.913  1.00  0.00     0.059 A 
ATOM     92  C   UNL A   1      46.025  35.461  28.725  1.00  0.00     0.059 A 
ATOM     93  F   UNL A   1      47.482  34.474  30.220  1.00  0.00    -0.206 F 
ATOM     94  C   UNL A   1      45.158  35.376  27.647  1.00  0.00     0.060 A 
BRANCH  94  95
ATOM     95  S   UNL A   1      44.065  36.767  27.268  1.00  0.00     0.124 S 
ATOM     96  O   UNL A   1      45.005  37.765  26.771  1.00  0.00    -0.237 OA
ATOM     97  O   UNL A   1      43.165  36.187  26.277  1.00  0.00    -0.237 OA
ATOM     98  O   UNL A   1      43.451  37.078  28.556  1.00  0.00    -0.744 OA
ENDBRANCH  94  95
ENDBRANCH  62  87
BRANCH  74  99
ATOM     99  C   UNL A   1      50.755  29.584  31.899  1.00  0.00     0.058 A 
ATOM    100  C   UNL A   1      49.662  28.968  32.533  1.00  0.00     0.135 A 
ATOM    101  C   UNL A   1      51.766  30.105  32.724  1.00  0.00     0.135 A 
ATOM    102  F   UNL A   1      48.699  28.362  31.823  1.00  0.00    -0.206 F 
ATOM    103  C   UNL A   1      49.577  28.880  33.924  1.00  0.00     0.059 A 
ATOM    104  C   UNL A   1      51.717  29.997  34.112  1.00  0.00     0.059 A 
ATOM    105  F   UNL A   1      52.862  30.659  32.177  1.00  0.00    -0.206 F 
ATOM    106  C   UNL A   1      50.619  29.381  34.704  1.00  0.00     0.060 A 
BRANCH 106 107
ATOM    107  S   UNL A   1      50.571  29.116  36.491  1.00  0.00     0.124 S 
ATOM    108  O   UNL A   1      49.930  30.338  36.963  1.00  0.00    -0.237 OA
ATOM    109  O   UNL A   1      49.774  27.897  36.606  1.00  0.00    -0.237 OA
ATOM    110  O   UNL A   1      51.980  28.968  36.850  1.00  0.00    -0.744 OA
ENDBRANCH 106 107
ENDBRANCH  74  99
ENDBRANCH  48  49
ENDBRANCH  41  43
ENDBRANCH  40  41
ENDBRANCH  39  40
ENDBRANCH  38  39
ENDBRANCH  37  38
ENDBRANCH  36  37
ENDBRANCH  35  36
ENDBRANCH   1  35
TORSDOF 28
ENDMDL
MODEL 3
REMARK VINA RESULT:      -7.9      8.225     14.111
REMARK SMILES COc1ccc2c(c1)c(CC(=O)OCCOCCOCCOCCOC(=O)c1ccc(-c3c4nc(c(-c5c(F)cc(S(=O)(=O)[O-])cc5F)c5ccc([nH]5)c(-c5c(F)cc(S(=O)(=O)[O-])cc5F)c5nc(c(-c6c(F)cc(S(=O)(=O)[O-])cc6F)c6ccc3[nH]6)C=C5)C=C4)cc1)c(C(F)(F)F)n2C(=O)c1ccc(Cl)cc1
REMARK SMILES IDX 19 1 18 2 17 3 16 4 15 5 14 6 13 7 11 8 12 9 10 10 9 11 3 12
REMARK SMILES IDX 4 13 8 14 5 15 7 16 6 17 99 18 94 19 2 20 1 21 100 22 101 23
REMARK SMILES IDX 102 24 103 25 108 26 104 27 107 28 105 29 106 30 95 31 96 32
REMARK SMILES IDX 97 33 98 34 20 35 21 36 22 37 23 38 24 39 25 40 26 41 27 42
REMARK SMILES IDX 28 43 29 44 93 45 30 46 92 47 31 48 32 49 33 50 86 51 34 52
REMARK SMILES IDX 91 53 85 54 87 55 35 56 90 57 84 58 83 59 36 61 70 62 49 63
REMARK SMILES IDX 69 64 50 65 53 66 68 67 88 68 51 69 52 70 67 72 89 73 54 74
REMARK SMILES IDX 37 75 38 76 47 77 39 78 40 79 46 80 48 81 41 82 42 83 43 84
REMARK SMILES IDX 44 85 45 86 71 87 72 88 81 89 73 90 74 91 80 92 82 93 75 94
REMARK SMILES IDX 76 95 77 96 78 97 79 98 55 99 56 100 65 101 57 102 58 103
REMARK SMILES IDX 64 104 66 105 59 106 60 107 61 108 62 109 63 110
REMARK H PARENT 87 60 53 71
REMARK Flexibility Score: inf
ROOT
ATOM      1  O   UNL A   1      41.196  30.642  30.811  1.00  0.00    -0.377 OA
ENDROOT
BRANCH   1   2
ATOM      2  C   UNL A   1      41.827  31.530  29.939  1.00  0.00     0.188 C 
BRANCH   2   3
ATOM      3  C   UNL A   1      43.223  31.291  29.382  1.00  0.00     0.188 C 
BRANCH   3   4
ATOM      4  O   UNL A   1      43.437  30.703  28.121  1.00  0.00    -0.376 OA
BRANCH   4   5
ATOM      5  C   UNL A   1      42.626  29.706  27.530  1.00  0.00     0.202 C 
BRANCH   5   6
ATOM      6  C   UNL A   1      42.983  28.218  27.316  1.00  0.00     0.261 C 
BRANCH   6   7
ATOM      7  O   UNL A   1      43.840  27.841  26.224  1.00  0.00    -0.463 OA
BRANCH   7   8
ATOM      8  C   UNL A   1      45.147  27.671  26.526  1.00  0.00     0.310 C 
ATOM      9  O   UNL A   1      45.941  28.604  26.632  1.00  0.00    -0.252 OA
BRANCH   8  10
ATOM     10  C   UNL A   1      45.606  26.234  26.756  1.00  0.00     0.161 C 
BRANCH  10  11
ATOM     11  C   UNL A   1      44.687  25.152  27.329  1.00  0.00     0.002 A 
ATOM     12  C   UNL A   1      45.052  24.542  31.109  1.00  0.00     0.119 A 
ATOM     13  C   UNL A   1      44.049  23.601  31.209  1.00  0.00     0.048 A 
ATOM     14  C   UNL A   1      45.449  24.991  29.839  1.00  0.00     0.057 A 
ATOM     15  C   UNL A   1      43.383  23.156  30.066  1.00  0.00     0.031 A 
ATOM     16  C   UNL A   1      44.699  24.654  28.676  1.00  0.00     0.008 A 
ATOM     17  C   UNL A   1      43.680  23.705  28.796  1.00  0.00     0.057 A 
ATOM     18  N   UNL A   1      43.124  23.485  27.519  1.00  0.00    -0.271 N 
ATOM     19  C   UNL A   1      43.784  24.345  26.620  1.00  0.00     0.135 A 
BRANCH  12  20
ATOM     20  O   UNL A   1      45.677  25.131  32.176  1.00  0.00    -0.497 OA
ATOM     21  C   UNL A   1      45.266  24.700  33.474  1.00  0.00     0.278 C 
ENDBRANCH  12  20
BRANCH  18  22
ATOM     22  C   UNL A   1      42.084  22.543  27.237  1.00  0.00     0.262 C 
ATOM     23  O   UNL A   1      42.336  21.344  27.226  1.00  0.00    -0.268 OA
BRANCH  22  24
ATOM     24  C   UNL A   1      40.676  22.871  26.937  1.00  0.00     0.040 A 
ATOM     25  C   UNL A   1      39.863  21.908  26.326  1.00  0.00     0.015 A 
ATOM     26  C   UNL A   1      40.167  24.136  27.258  1.00  0.00     0.015 A 
ATOM     27  C   UNL A   1      38.553  22.240  25.969  1.00  0.00     0.021 A 
ATOM     28  C   UNL A   1      38.852  24.458  26.906  1.00  0.00     0.021 A 
ATOM     29  C   UNL A   1      38.057  23.514  26.251  1.00  0.00     0.041 A 
ATOM     30  Cl  UNL A   1      36.457  23.933  25.771  1.00  0.00    -0.084 Cl
ENDBRANCH  22  24
ENDBRANCH  18  22
BRANCH  19  31
ATOM     31  C   UNL A   1      43.550  24.399  25.136  1.00  0.00     0.432 C 
ATOM     32  F   UNL A   1      44.693  24.695  24.479  1.00  0.00    -0.165 F 
ATOM     33  F   UNL A   1      43.151  23.170  24.701  1.00  0.00    -0.165 F 
ATOM     34  F   UNL A   1      42.580  25.228  24.704  1.00  0.00    -0.165 F 
ENDBRANCH  19  31
ENDBRANCH  10  11
ENDBRANCH   8  10
ENDBRANCH   7   8
ENDBRANCH   6   7
ENDBRANCH   5   6
ENDBRANCH   4   5
ENDBRANCH   3   4
ENDBRANCH   2   3
ENDBRANCH   1   2
BRANCH   1  35
ATOM     35  C   UNL A   1      40.157  29.891  30.271  1.00  0.00     0.188 C 
BRANCH  35  36
ATOM     36  C   UNL A   1      38.948  30.743  29.904  1.00  0.00     0.188 C 
BRANCH  36  37
ATOM     37  O   UNL A   1      38.090  30.419  28.807  1.00  0.00    -0.376 OA
BRANCH  37  38
ATOM     38  C   UNL A   1      36.684  30.611  28.883  1.00  0.00     0.202 C 
BRANCH  38  39
ATOM     39  C   UNL A   1      36.165  31.795  29.724  1.00  0.00     0.261 C 
BRANCH  39  40
ATOM     40  O   UNL A   1      35.574  31.415  30.969  1.00  0.00    -0.460 OA
BRANCH  40  41
ATOM     41  C   UNL A   1      35.020  32.408  31.733  1.00  0.00     0.338 C 
ATOM     42  O   UNL A   1      33.967  32.940  31.602  1.00  0.00    -0.246 OA
BRANCH  41  43
ATOM     43  C   UNL A   1      35.874  32.452  32.953  1.00  0.00     0.060 A 
ATOM     44  C   UNL A   1      36.022  33.629  33.692  1.00  0.00     0.016 A 
ATOM     45  C   UNL A   1      36.782  31.393  33.086  1.00  0.00     0.016 A 
ATOM     46  C   UNL A   1      37.184  33.802  34.443  1.00  0.00     0.010 A 
ATOM     47  C   UNL A   1      37.950  31.580  33.819  1.00  0.00     0.010 A 
ATOM     48  C   UNL A   1      38.179  32.805  34.449  1.00  0.00    -0.014 A 
BRANCH  48  49
ATOM     49  C   UNL A   1      39.312  32.976  35.363  1.00  0.00     0.031 A 
ATOM     50  C   UNL A   1      38.850  33.097  36.770  1.00  0.00     0.074 A 
ATOM     51  C   UNL A   1      40.629  32.851  35.091  1.00  0.00     0.049 A 
ATOM     52  N   UNL A   1      39.001  34.084  37.588  1.00  0.00    -0.248 NA
ATOM     53  C   UNL A   1      37.954  32.032  37.254  1.00  0.00     0.031 C 
ATOM     54  C   UNL A   1      41.254  32.417  33.843  1.00  0.00     0.029 A 
ATOM     55  N   UNL A   1      41.696  32.986  35.940  1.00  0.00    -0.354 N 
ATOM     56  C   UNL A   1      38.374  33.678  38.761  1.00  0.00     0.074 A 
ATOM     57  C   UNL A   1      37.589  32.517  38.436  1.00  0.00     0.031 C 
ATOM     58  C   UNL A   1      42.560  32.141  34.073  1.00  0.00     0.029 A 
ATOM     59  C   UNL A   1      42.880  32.435  35.461  1.00  0.00     0.049 A 
ATOM     60  H   UNL A   1      41.631  33.435  36.814  1.00  0.00     0.167 HD
ATOM     61  C   UNL A   1      38.722  34.164  39.979  1.00  0.00     0.037 A 
ATOM     62  C   UNL A   1      44.002  32.140  36.174  1.00  0.00     0.037 A 
ATOM     63  C   UNL A   1      39.431  35.409  39.885  1.00  0.00     0.049 A 
ATOM     64  C   UNL A   1      43.968  32.953  37.420  1.00  0.00     0.074 A 
ATOM     65  C   UNL A   1      39.139  36.644  39.341  1.00  0.00     0.029 A 
ATOM     66  N   UNL A   1      40.790  35.403  40.093  1.00  0.00    -0.354 N 
ATOM     67  N   UNL A   1      44.072  34.254  37.456  1.00  0.00    -0.248 NA
ATOM     68  C   UNL A   1      43.398  32.345  38.614  1.00  0.00     0.031 C 
ATOM     69  C   UNL A   1      40.373  37.124  38.817  1.00  0.00     0.029 A 
ATOM     70  C   UNL A   1      41.351  36.168  39.101  1.00  0.00     0.049 A 
ATOM     71  H   UNL A   1      41.269  34.938  40.815  1.00  0.00     0.167 HD
ATOM     72  C   UNL A   1      43.216  34.654  38.473  1.00  0.00     0.074 A 
ATOM     73  C   UNL A   1      42.905  33.434  39.210  1.00  0.00     0.031 C 
ATOM     74  C   UNL A   1      42.619  35.882  38.463  1.00  0.00     0.037 A 
BRANCH  61  75
ATOM     75  C   UNL A   1      38.687  33.316  41.221  1.00  0.00     0.058 A 
ATOM     76  C   UNL A   1      37.789  33.621  42.256  1.00  0.00     0.135 A 
ATOM     77  C   UNL A   1      39.680  32.354  41.528  1.00  0.00     0.135 A 
ATOM     78  F   UNL A   1      36.833  34.546  42.080  1.00  0.00    -0.206 F 
ATOM     79  C   UNL A   1      37.891  33.038  43.519  1.00  0.00     0.059 A 
ATOM     80  C   UNL A   1      39.759  31.713  42.754  1.00  0.00     0.059 A 
ATOM     81  F   UNL A   1      40.683  32.069  40.687  1.00  0.00    -0.206 F 
ATOM     82  C   UNL A   1      38.886  32.092  43.758  1.00  0.00     0.060 A 
BRANCH  82  83
ATOM     83  S   UNL A   1      39.096  31.421  45.415  1.00  0.00     0.124 S 
ATOM     84  O   UNL A   1      40.126  32.302  45.953  1.00  0.00    -0.237 OA
ATOM     85  O   UNL A   1      37.759  31.578  45.977  1.00  0.00    -0.237 OA
ATOM     86  O   UNL A   1      39.507  30.042  45.169  1.00  0.00    -0.744 OA
ENDBRANCH  82  83
ENDBRANCH  61  75
BRANCH  62  87
ATOM     87  C   UNL A   1      44.925  30.980  35.981  1.00  0.00     0.058 A 
ATOM     88  C   UNL A   1      46.305  31.145  35.744  1.00  0.00     0.135 A 
ATOM     89  C   UNL A   1      44.514  29.659  36.259  1.00  0.00     0.135 A 
ATOM     90  F   UNL A   1      46.811  32.367  35.516  1.00  0.00    -0.206 F 
ATOM     91  C   UNL A   1      47.213  30.074  35.798  1.00  0.00     0.059 A 
ATOM     92  C   UNL A   1      45.391  28.576  36.294  1.00  0.00     0.059 A 
ATOM     93  F   UNL A   1      43.249  29.381  36.603  1.00  0.00    -0.206 F 
ATOM     94  C   UNL A   1      46.744  28.792  36.084  1.00  0.00     0.060 A 
BRANCH  94  95
ATOM     95  S   UNL A   1      47.910  27.423  36.292  1.00  0.00     0.124 S 
ATOM     96  O   UNL A   1      48.423  27.663  37.636  1.00  0.00    -0.237 OA
ATOM     97  O   UNL A   1      47.045  26.258  36.137  1.00  0.00    -0.237 OA
ATOM     98  O   UNL A   1      48.872  27.629  35.213  1.00  0.00    -0.744 OA
ENDBRANCH  94  95
ENDBRANCH  62  87
BRANCH  74  99
ATOM     99  C   UNL A   1      43.131  36.935  37.513  1.00  0.00     0.058 A 
ATOM    100  C   UNL A   1      44.159  37.841  37.826  1.00  0.00     0.135 A 
ATOM    101  C   UNL A   1      42.717  36.873  36.172  1.00  0.00     0.135 A 
ATOM    102  F   UNL A   1      44.680  37.900  39.061  1.00  0.00    -0.206 F 
ATOM    103  C   UNL A   1      44.744  38.651  36.851  1.00  0.00     0.059 A 
ATOM    104  C   UNL A   1      43.310  37.647  35.178  1.00  0.00     0.059 A 
ATOM    105  F   UNL A   1      41.775  35.989  35.799  1.00  0.00    -0.206 F 
ATOM    106  C   UNL A   1      44.325  38.534  35.526  1.00  0.00     0.060 A 
BRANCH 106 107
ATOM    107  S   UNL A   1      45.200  39.470  34.252  1.00  0.00     0.124 S 
ATOM    108  O   UNL A   1      45.266  38.507  33.158  1.00  0.00    -0.237 OA
ATOM    109  O   UNL A   1      44.315  40.612  34.039  1.00  0.00    -0.237 OA
ATOM    110  O   UNL A   1      46.478  39.789  34.883  1.00  0.00    -0.744 OA
ENDBRANCH 106 107
ENDBRANCH  74  99
ENDBRANCH  48  49
ENDBRANCH  41  43
ENDBRANCH  40  41
ENDBRANCH  39  40
ENDBRANCH  38  39
ENDBRANCH  37  38
ENDBRANCH  36  37
ENDBRANCH  35  36
ENDBRANCH   1  35
TORSDOF 28
ENDMDL
