MODEL 1
REMARK VINA RESULT:     -12.4      0.000      0.000
REMARK SMILES Cc1ccc(N2C(=O)N=C(OCCOCCOCCOCCOC(=O)c3ccc(-c4c5nc(c(-c6c(F)cc(S(=O)(=O)[O-])cc6F)c6ccc([nH]6)c(-c6c(F)cc(S(=O)(=O)[O-])cc6F)c6nc(c(-c7c(F)cc(S(=O)(=O)[O-])cc7F)c7ccc4[nH]7)C=C6)C=C5)cc3)/C(=C\c3ccccc3OCc3cccc(C(=O)[O-])c3)C2=O)cc1
REMARK SMILES IDX 16 1 15 2 14 3 13 4 12 5 11 6 10 7 6 8 7 9 111 10 8 11 9 12
REMARK SMILES IDX 92 13 112 14 93 15 5 16 1 17 2 18 3 19 114 20 4 21 113 22
REMARK SMILES IDX 94 23 95 24 99 25 96 26 98 27 97 28 100 29 101 30 102 31
REMARK SMILES IDX 103 32 110 33 104 34 106 35 105 36 107 37 108 38 109 39
REMARK SMILES IDX 17 40 18 41 19 42 20 43 21 44 22 45 23 46 24 47 25 48 26 49
REMARK SMILES IDX 27 50 91 51 28 52 90 53 29 54 30 55 31 56 84 57 32 58 89 59
REMARK SMILES IDX 83 60 85 61 33 62 88 63 82 64 81 65 34 67 68 68 47 69 67 70
REMARK SMILES IDX 48 71 51 72 66 73 86 74 49 75 50 76 65 78 87 79 52 80 35 81
REMARK SMILES IDX 36 82 45 83 37 84 38 85 44 86 46 87 39 88 40 89 41 90 42 91
REMARK SMILES IDX 43 92 69 93 70 94 79 95 71 96 72 97 78 98 80 99 73 100
REMARK SMILES IDX 74 101 75 102 76 103 77 104 53 105 54 106 63 107 55 108
REMARK SMILES IDX 56 109 62 110 64 111 57 112 58 113 59 114 60 115 61 116
REMARK H PARENT 85 66 51 77
REMARK Flexibility Score: inf
ROOT
ATOM      1  C   UNL A   1      32.157  27.569  27.168  1.00  0.00     0.188 C 
ENDROOT
BRANCH   1   2
ATOM      2  C   UNL A   1      30.873  26.847  26.883  1.00  0.00     0.188 C 
BRANCH   2   3
ATOM      3  O   UNL A   1      30.512  26.790  25.305  1.00  0.00    -0.376 OA
BRANCH   3   4
ATOM      4  C   UNL A   1      29.443  25.963  24.345  1.00  0.00     0.201 C 
BRANCH   4   5
ATOM      5  C   UNL A   1      29.999  24.710  23.052  1.00  0.00     0.260 C 
BRANCH   5   6
ATOM      6  O   UNL A   1      31.571  23.868  23.118  1.00  0.00    -0.475 OA
BRANCH   6   7
ATOM      7  C   UNL A   1      32.227  22.532  23.133  1.00  0.00     0.231 C 
ATOM      8  N   UNL A   1      32.908  19.901  23.876  1.00  0.00    -0.226 N 
ATOM      9  C   UNL A   1      32.194  20.188  22.731  1.00  0.00     0.358 C 
ATOM     10  C   UNL A   1      33.658  20.899  24.435  1.00  0.00     0.272 C 
ATOM     11  O   UNL A   1      31.601  19.291  22.124  1.00  0.00    -0.245 OA
ATOM     12  N   UNL A   1      32.010  21.508  22.340  1.00  0.00    -0.156 NA
ATOM     13  C   UNL A   1      33.252  22.284  24.029  1.00  0.00     0.103 C 
ATOM     14  O   UNL A   1      34.588  20.674  25.203  1.00  0.00    -0.268 OA
ATOM     15  C   UNL A   1      33.955  23.402  24.100  1.00  0.00     0.031 C 
BRANCH   8  16
ATOM     16  C   UNL A   1      33.137  18.529  24.235  1.00  0.00     0.054 A 
ATOM     17  C   UNL A   1      33.560  14.396  25.460  1.00  0.00     0.044 C 
ATOM     18  C   UNL A   1      33.487  15.839  25.052  1.00  0.00    -0.051 A 
ATOM     19  C   UNL A   1      32.613  16.685  25.737  1.00  0.00     0.005 A 
ATOM     20  C   UNL A   1      34.217  16.356  23.973  1.00  0.00     0.005 A 
ATOM     21  C   UNL A   1      32.452  18.011  25.340  1.00  0.00     0.027 A 
ATOM     22  C   UNL A   1      34.031  17.691  23.550  1.00  0.00     0.027 A 
ENDBRANCH   8  16
BRANCH  15  23
ATOM     23  C   UNL A   1      33.830  24.882  23.971  1.00  0.00     0.018 A 
ATOM     24  C   UNL A   1      33.213  25.707  22.942  1.00  0.00     0.012 A 
ATOM     25  C   UNL A   1      34.387  25.510  25.012  1.00  0.00     0.127 A 
ATOM     26  C   UNL A   1      33.327  27.095  22.851  1.00  0.00     0.001 A 
ATOM     27  C   UNL A   1      34.536  26.930  24.858  1.00  0.00     0.047 A 
ATOM     28  C   UNL A   1      34.024  27.722  23.830  1.00  0.00     0.004 A 
BRANCH  25  29
ATOM     29  O   UNL A   1      34.963  24.708  26.006  1.00  0.00    -0.488 OA
BRANCH  29  30
ATOM     30  C   UNL A   1      36.161  23.923  26.419  1.00  0.00     0.265 C 
BRANCH  30  31
ATOM     31  C   UNL A   1      37.521  23.577  25.676  1.00  0.00    -0.010 A 
ATOM     32  C   UNL A   1      37.687  22.189  25.453  1.00  0.00     0.007 A 
ATOM     33  C   UNL A   1      38.638  24.321  26.009  1.00  0.00     0.017 A 
ATOM     34  C   UNL A   1      38.810  21.530  25.909  1.00  0.00     0.001 A 
ATOM     35  C   UNL A   1      39.570  23.649  26.782  1.00  0.00    -0.002 A 
ATOM     36  C   UNL A   1      39.688  22.254  26.701  1.00  0.00     0.010 A 
BRANCH  35  37
ATOM     37  C   UNL A   1      40.123  24.332  27.991  1.00  0.00     0.071 C 
ATOM     38  O   UNL A   1      39.716  25.346  28.451  1.00  0.00    -0.545 OA
ATOM     39  O   UNL A   1      41.286  23.763  28.402  1.00  0.00    -0.545 OA
ENDBRANCH  35  37
ENDBRANCH  30  31
ENDBRANCH  29  30
ENDBRANCH  25  29
ENDBRANCH  15  23
ENDBRANCH   6   7
ENDBRANCH   5   6
ENDBRANCH   4   5
ENDBRANCH   3   4
ENDBRANCH   2   3
ENDBRANCH   1   2
BRANCH   1  40
ATOM     40  O   UNL A   1      31.889  28.909  27.456  1.00  0.00    -0.377 OA
BRANCH  40  41
ATOM     41  C   UNL A   1      32.009  29.794  26.335  1.00  0.00     0.188 C 
BRANCH  41  42
ATOM     42  C   UNL A   1      32.982  31.117  26.510  1.00  0.00     0.188 C 
BRANCH  42  43
ATOM     43  O   UNL A   1      33.829  31.063  27.621  1.00  0.00    -0.376 OA
BRANCH  43  44
ATOM     44  C   UNL A   1      33.763  32.386  28.082  1.00  0.00     0.202 C 
BRANCH  44  45
ATOM     45  C   UNL A   1      34.823  32.779  29.264  1.00  0.00     0.261 C 
BRANCH  45  46
ATOM     46  O   UNL A   1      35.690  31.717  30.309  1.00  0.00    -0.460 OA
BRANCH  46  47
ATOM     47  C   UNL A   1      36.346  30.599  30.892  1.00  0.00     0.338 C 
ATOM     48  O   UNL A   1      36.052  30.343  32.066  1.00  0.00    -0.246 OA
BRANCH  47  49
ATOM     49  C   UNL A   1      37.450  29.562  30.320  1.00  0.00     0.060 A 
ATOM     50  C   UNL A   1      37.750  28.305  30.883  1.00  0.00     0.016 A 
ATOM     51  C   UNL A   1      38.219  29.746  29.180  1.00  0.00     0.016 A 
ATOM     52  C   UNL A   1      39.084  27.688  30.715  1.00  0.00     0.010 A 
ATOM     53  C   UNL A   1      39.572  29.248  29.117  1.00  0.00     0.010 A 
ATOM     54  C   UNL A   1      40.129  28.451  30.131  1.00  0.00    -0.014 A 
BRANCH  54  55
ATOM     55  C   UNL A   1      41.766  29.004  30.749  1.00  0.00     0.031 A 
ATOM     56  C   UNL A   1      40.881  30.026  31.972  1.00  0.00     0.074 A 
ATOM     57  C   UNL A   1      43.354  28.579  30.214  1.00  0.00     0.049 A 
ATOM     58  N   UNL A   1      40.326  31.216  31.700  1.00  0.00    -0.248 NA
ATOM     59  C   UNL A   1      40.351  29.707  33.302  1.00  0.00     0.031 C 
ATOM     60  C   UNL A   1      44.951  28.506  30.541  1.00  0.00     0.029 A 
ATOM     61  N   UNL A   1      44.013  28.209  28.748  1.00  0.00    -0.354 N 
ATOM     62  C   UNL A   1      40.150  32.044  32.835  1.00  0.00     0.074 A 
ATOM     63  C   UNL A   1      39.838  30.901  33.734  1.00  0.00     0.031 C 
ATOM     64  C   UNL A   1      45.787  28.972  29.504  1.00  0.00     0.029 A 
ATOM     65  C   UNL A   1      45.069  29.050  28.269  1.00  0.00     0.049 A 
ATOM     66  H   UNL A   1      43.694  27.441  28.223  1.00  0.00     0.167 HD
ATOM     67  C   UNL A   1      40.562  33.461  33.072  1.00  0.00     0.037 A 
ATOM     68  C   UNL A   1      45.051  29.745  27.047  1.00  0.00     0.037 A 
ATOM     69  C   UNL A   1      41.642  34.439  32.093  1.00  0.00     0.049 A 
ATOM     70  C   UNL A   1      45.087  31.544  26.854  1.00  0.00     0.074 A 
ATOM     71  C   UNL A   1      42.971  34.818  32.416  1.00  0.00     0.029 A 
ATOM     72  N   UNL A   1      41.740  34.773  30.614  1.00  0.00    -0.354 N 
ATOM     73  N   UNL A   1      45.230  32.486  27.795  1.00  0.00    -0.248 NA
ATOM     74  C   UNL A   1      44.921  32.380  25.624  1.00  0.00     0.031 C 
ATOM     75  C   UNL A   1      43.759  35.352  31.311  1.00  0.00     0.029 A 
ATOM     76  C   UNL A   1      43.205  34.954  30.069  1.00  0.00     0.049 A 
ATOM     77  H   UNL A   1      40.946  34.869  30.040  1.00  0.00     0.167 HD
ATOM     78  C   UNL A   1      44.652  33.911  27.518  1.00  0.00     0.074 A 
ATOM     79  C   UNL A   1      44.763  33.701  26.023  1.00  0.00     0.031 C 
ATOM     80  C   UNL A   1      43.854  34.996  28.415  1.00  0.00     0.037 A 
BRANCH  67  81
ATOM     81  C   UNL A   1      40.478  33.867  34.623  1.00  0.00     0.058 A 
ATOM     82  C   UNL A   1      39.438  34.631  35.208  1.00  0.00     0.135 A 
ATOM     83  C   UNL A   1      41.469  33.512  35.569  1.00  0.00     0.135 A 
ATOM     84  F   UNL A   1      38.262  34.823  34.616  1.00  0.00    -0.206 F 
ATOM     85  C   UNL A   1      39.465  35.153  36.509  1.00  0.00     0.059 A 
ATOM     86  C   UNL A   1      41.526  34.019  36.888  1.00  0.00     0.059 A 
ATOM     87  F   UNL A   1      42.390  32.582  35.266  1.00  0.00    -0.206 F 
ATOM     88  C   UNL A   1      40.518  34.852  37.348  1.00  0.00     0.060 A 
BRANCH  88  89
ATOM     89  S   UNL A   1      40.411  35.385  39.071  1.00  0.00     0.124 S 
ATOM     90  O   UNL A   1      41.323  34.466  39.744  1.00  0.00    -0.237 OA
ATOM     91  O   UNL A   1      40.862  36.771  38.988  1.00  0.00    -0.237 OA
ATOM     92  O   UNL A   1      38.999  35.210  39.394  1.00  0.00    -0.744 OA
ENDBRANCH  88  89
ENDBRANCH  67  81
BRANCH  68  93
ATOM     93  C   UNL A   1      44.621  28.519  26.016  1.00  0.00     0.058 A 
ATOM     94  C   UNL A   1      45.721  27.644  25.672  1.00  0.00     0.135 A 
ATOM     95  C   UNL A   1      43.375  27.839  25.888  1.00  0.00     0.135 A 
ATOM     96  F   UNL A   1      46.973  28.130  25.724  1.00  0.00    -0.206 F 
ATOM     97  C   UNL A   1      45.630  26.242  25.457  1.00  0.00     0.059 A 
ATOM     98  C   UNL A   1      43.257  26.417  25.603  1.00  0.00     0.059 A 
ATOM     99  F   UNL A   1      42.226  28.477  26.161  1.00  0.00    -0.206 F 
ATOM    100  C   UNL A   1      44.395  25.617  25.439  1.00  0.00     0.060 A 
BRANCH 100 101
ATOM    101  S   UNL A   1      44.337  23.779  25.338  1.00  0.00     0.124 S 
ATOM    102  O   UNL A   1      42.911  23.505  25.474  1.00  0.00    -0.237 OA
ATOM    103  O   UNL A   1      44.891  23.485  24.017  1.00  0.00    -0.237 OA
ATOM    104  O   UNL A   1      45.172  23.361  26.457  1.00  0.00    -0.744 OA
ENDBRANCH 100 101
ENDBRANCH  68  93
BRANCH  80 105
ATOM    105  C   UNL A   1      43.535  36.436  27.928  1.00  0.00     0.058 A 
ATOM    106  C   UNL A   1      42.287  36.880  27.496  1.00  0.00     0.135 A 
ATOM    107  C   UNL A   1      44.577  37.411  27.752  1.00  0.00     0.135 A 
ATOM    108  F   UNL A   1      41.258  36.041  27.345  1.00  0.00    -0.206 F 
ATOM    109  C   UNL A   1      42.064  38.202  27.084  1.00  0.00     0.059 A 
ATOM    110  C   UNL A   1      44.392  38.700  27.301  1.00  0.00     0.059 A 
ATOM    111  F   UNL A   1      45.880  37.188  27.942  1.00  0.00    -0.206 F 
ATOM    112  C   UNL A   1      43.122  39.102  26.996  1.00  0.00     0.060 A 
BRANCH 112 113
ATOM    113  S   UNL A   1      42.874  40.757  26.365  1.00  0.00     0.124 S 
ATOM    114  O   UNL A   1      43.347  41.571  27.480  1.00  0.00    -0.237 OA
ATOM    115  O   UNL A   1      43.717  40.741  25.176  1.00  0.00    -0.237 OA
ATOM    116  O   UNL A   1      41.437  40.822  26.114  1.00  0.00    -0.744 OA
ENDBRANCH 112 113
ENDBRANCH  80 105
ENDBRANCH  54  55
ENDBRANCH  47  49
ENDBRANCH  46  47
ENDBRANCH  45  46
ENDBRANCH  44  45
ENDBRANCH  43  44
ENDBRANCH  42  43
ENDBRANCH  41  42
ENDBRANCH  40  41
ENDBRANCH   1  40
TORSDOF 28
ENDMDL
MODEL 2
REMARK VINA RESULT:     -12.2      4.485     10.798
REMARK SMILES Cc1ccc(N2C(=O)N=C(OCCOCCOCCOCCOC(=O)c3ccc(-c4c5nc(c(-c6c(F)cc(S(=O)(=O)[O-])cc6F)c6ccc([nH]6)c(-c6c(F)cc(S(=O)(=O)[O-])cc6F)c6nc(c(-c7c(F)cc(S(=O)(=O)[O-])cc7F)c7ccc4[nH]7)C=C6)C=C5)cc3)/C(=C\c3ccccc3OCc3cccc(C(=O)[O-])c3)C2=O)cc1
REMARK SMILES IDX 16 1 15 2 14 3 13 4 12 5 11 6 10 7 6 8 7 9 111 10 8 11 9 12
REMARK SMILES IDX 92 13 112 14 93 15 5 16 1 17 2 18 3 19 114 20 4 21 113 22
REMARK SMILES IDX 94 23 95 24 99 25 96 26 98 27 97 28 100 29 101 30 102 31
REMARK SMILES IDX 103 32 110 33 104 34 106 35 105 36 107 37 108 38 109 39
REMARK SMILES IDX 17 40 18 41 19 42 20 43 21 44 22 45 23 46 24 47 25 48 26 49
REMARK SMILES IDX 27 50 91 51 28 52 90 53 29 54 30 55 31 56 84 57 32 58 89 59
REMARK SMILES IDX 83 60 85 61 33 62 88 63 82 64 81 65 34 67 68 68 47 69 67 70
REMARK SMILES IDX 48 71 51 72 66 73 86 74 49 75 50 76 65 78 87 79 52 80 35 81
REMARK SMILES IDX 36 82 45 83 37 84 38 85 44 86 46 87 39 88 40 89 41 90 42 91
REMARK SMILES IDX 43 92 69 93 70 94 79 95 71 96 72 97 78 98 80 99 73 100
REMARK SMILES IDX 74 101 75 102 76 103 77 104 53 105 54 106 63 107 55 108
REMARK SMILES IDX 56 109 62 110 64 111 57 112 58 113 59 114 60 115 61 116
REMARK H PARENT 85 66 51 77
REMARK Flexibility Score: inf
ROOT
ATOM      1  C   UNL A   1      34.015  37.197  32.762  1.00  0.00     0.188 C 
ENDROOT
BRANCH   1   2
ATOM      2  C   UNL A   1      32.591  36.842  32.445  1.00  0.00     0.188 C 
BRANCH   2   3
ATOM      3  O   UNL A   1      32.396  36.291  30.933  1.00  0.00    -0.376 OA
BRANCH   3   4
ATOM      4  C   UNL A   1      33.272  35.376  29.865  1.00  0.00     0.201 C 
BRANCH   4   5
ATOM      5  C   UNL A   1      34.617  34.177  30.421  1.00  0.00     0.260 C 
BRANCH   5   6
ATOM      6  O   UNL A   1      35.111  32.751  29.468  1.00  0.00    -0.475 OA
BRANCH   6   7
ATOM      7  C   UNL A   1      34.693  31.815  28.390  1.00  0.00     0.231 C 
ATOM      8  N   UNL A   1      33.666  29.542  27.080  1.00  0.00    -0.226 N 
ATOM      9  C   UNL A   1      33.010  30.755  27.085  1.00  0.00     0.358 C 
ATOM     10  C   UNL A   1      35.009  29.534  27.337  1.00  0.00     0.272 C 
ATOM     11  O   UNL A   1      31.827  30.826  26.740  1.00  0.00    -0.245 OA
ATOM     12  N   UNL A   1      33.628  31.876  27.623  1.00  0.00    -0.156 NA
ATOM     13  C   UNL A   1      35.513  30.752  28.051  1.00  0.00     0.103 C 
ATOM     14  O   UNL A   1      35.740  28.605  27.006  1.00  0.00    -0.268 OA
ATOM     15  C   UNL A   1      36.752  31.206  28.133  1.00  0.00     0.031 C 
BRANCH   8  16
ATOM     16  C   UNL A   1      33.035  28.405  26.468  1.00  0.00     0.054 A 
ATOM     17  C   UNL A   1      31.381  24.944  24.454  1.00  0.00     0.044 C 
ATOM     18  C   UNL A   1      31.886  26.178  25.148  1.00  0.00    -0.051 A 
ATOM     19  C   UNL A   1      32.921  26.902  24.555  1.00  0.00     0.005 A 
ATOM     20  C   UNL A   1      31.400  26.595  26.394  1.00  0.00     0.005 A 
ATOM     21  C   UNL A   1      33.475  28.005  25.201  1.00  0.00     0.027 A 
ATOM     22  C   UNL A   1      31.982  27.692  27.065  1.00  0.00     0.027 A 
ENDBRANCH   8  16
BRANCH  15  23
ATOM     23  C   UNL A   1      37.596  32.205  28.849  1.00  0.00     0.018 A 
ATOM     24  C   UNL A   1      37.635  33.658  28.775  1.00  0.00     0.012 A 
ATOM     25  C   UNL A   1      38.436  31.608  29.703  1.00  0.00     0.127 A 
ATOM     26  C   UNL A   1      38.605  34.466  29.370  1.00  0.00     0.001 A 
ATOM     27  C   UNL A   1      39.453  32.461  30.252  1.00  0.00     0.047 A 
ATOM     28  C   UNL A   1      39.552  33.846  30.116  1.00  0.00     0.004 A 
BRANCH  25  29
ATOM     29  O   UNL A   1      38.379  30.211  29.781  1.00  0.00    -0.488 OA
BRANCH  29  30
ATOM     30  C   UNL A   1      39.111  28.931  29.561  1.00  0.00     0.265 C 
BRANCH  30  31
ATOM     31  C   UNL A   1      39.150  27.917  28.341  1.00  0.00    -0.010 A 
ATOM     32  C   UNL A   1      39.459  26.593  28.735  1.00  0.00     0.007 A 
ATOM     33  C   UNL A   1      39.669  28.377  27.145  1.00  0.00     0.017 A 
ATOM     34  C   UNL A   1      40.520  25.917  28.171  1.00  0.00     0.001 A 
ATOM     35  C   UNL A   1      40.926  27.886  26.834  1.00  0.00    -0.002 A 
ATOM     36  C   UNL A   1      41.338  26.634  27.311  1.00  0.00     0.010 A 
BRANCH  35  37
ATOM     37  C   UNL A   1      41.977  28.848  26.382  1.00  0.00     0.071 C 
ATOM     38  O   UNL A   1      42.568  29.598  27.085  1.00  0.00    -0.545 OA
ATOM     39  O   UNL A   1      42.051  28.912  25.027  1.00  0.00    -0.545 OA
ENDBRANCH  35  37
ENDBRANCH  30  31
ENDBRANCH  29  30
ENDBRANCH  25  29
ENDBRANCH  15  23
ENDBRANCH   6   7
ENDBRANCH   5   6
ENDBRANCH   4   5
ENDBRANCH   3   4
ENDBRANCH   2   3
ENDBRANCH   1   2
BRANCH   1  40
ATOM     40  O   UNL A   1      34.396  36.587  33.959  1.00  0.00    -0.377 OA
BRANCH  40  41
ATOM     41  C   UNL A   1      34.435  35.155  33.911  1.00  0.00     0.188 C 
BRANCH  41  42
ATOM     42  C   UNL A   1      35.911  34.439  33.722  1.00  0.00     0.188 C 
BRANCH  42  43
ATOM     43  O   UNL A   1      35.925  33.069  34.001  1.00  0.00    -0.376 OA
BRANCH  43  44
ATOM     44  C   UNL A   1      37.223  32.903  34.505  1.00  0.00     0.202 C 
BRANCH  44  45
ATOM     45  C   UNL A   1      37.822  34.165  35.355  1.00  0.00     0.261 C 
BRANCH  45  46
ATOM     46  O   UNL A   1      39.293  35.023  35.087  1.00  0.00    -0.460 OA
BRANCH  46  47
ATOM     47  C   UNL A   1      40.563  35.456  34.620  1.00  0.00     0.338 C 
ATOM     48  O   UNL A   1      40.800  36.666  34.719  1.00  0.00    -0.246 OA
BRANCH  47  49
ATOM     49  C   UNL A   1      41.806  34.665  33.948  1.00  0.00     0.060 A 
ATOM     50  C   UNL A   1      43.134  35.135  33.894  1.00  0.00     0.016 A 
ATOM     51  C   UNL A   1      41.746  33.403  33.373  1.00  0.00     0.016 A 
ATOM     52  C   UNL A   1      44.057  34.705  32.822  1.00  0.00     0.010 A 
ATOM     53  C   UNL A   1      42.567  33.075  32.232  1.00  0.00     0.010 A 
ATOM     54  C   UNL A   1      43.548  33.950  31.733  1.00  0.00    -0.014 A 
BRANCH  54  55
ATOM     55  C   UNL A   1      43.474  34.257  29.926  1.00  0.00     0.031 A 
ATOM     56  C   UNL A   1      44.488  32.759  29.700  1.00  0.00     0.074 A 
ATOM     57  C   UNL A   1      42.694  35.525  29.048  1.00  0.00     0.049 A 
ATOM     58  N   UNL A   1      45.818  32.716  29.869  1.00  0.00    -0.248 NA
ATOM     59  C   UNL A   1      44.119  31.344  29.598  1.00  0.00     0.031 C 
ATOM     60  C   UNL A   1      42.093  36.059  27.628  1.00  0.00     0.029 A 
ATOM     61  N   UNL A   1      42.401  37.120  29.349  1.00  0.00    -0.354 N 
ATOM     62  C   UNL A   1      46.454  31.655  29.182  1.00  0.00     0.074 A 
ATOM     63  C   UNL A   1      45.320  30.717  29.394  1.00  0.00     0.031 C 
ATOM     64  C   UNL A   1      42.460  37.380  27.292  1.00  0.00     0.029 A 
ATOM     65  C   UNL A   1      42.957  38.076  28.439  1.00  0.00     0.049 A 
ATOM     66  H   UNL A   1      41.864  37.405  30.123  1.00  0.00     0.167 HD
ATOM     67  C   UNL A   1      47.622  31.670  28.248  1.00  0.00     0.037 A 
ATOM     68  C   UNL A   1      43.824  39.121  28.803  1.00  0.00     0.037 A 
ATOM     69  C   UNL A   1      48.385  33.067  27.512  1.00  0.00     0.049 A 
ATOM     70  C   UNL A   1      45.537  39.315  28.248  1.00  0.00     0.074 A 
ATOM     71  C   UNL A   1      48.290  33.471  26.155  1.00  0.00     0.029 A 
ATOM     72  N   UNL A   1      48.923  34.391  28.030  1.00  0.00    -0.354 N 
ATOM     73  N   UNL A   1      46.217  38.584  27.357  1.00  0.00    -0.248 NA
ATOM     74  C   UNL A   1      46.581  40.292  28.687  1.00  0.00     0.031 C 
ATOM     75  C   UNL A   1      48.746  34.825  25.868  1.00  0.00     0.029 A 
ATOM     76  C   UNL A   1      48.749  35.609  27.049  1.00  0.00     0.049 A 
ATOM     77  H   UNL A   1      49.348  34.480  28.914  1.00  0.00     0.167 HD
ATOM     78  C   UNL A   1      47.775  38.535  27.466  1.00  0.00     0.074 A 
ATOM     79  C   UNL A   1      47.800  39.876  28.168  1.00  0.00     0.031 C 
ATOM     80  C   UNL A   1      48.879  37.362  27.307  1.00  0.00     0.037 A 
BRANCH  67  81
ATOM     81  C   UNL A   1      47.763  30.295  27.431  1.00  0.00     0.058 A 
ATOM     82  C   UNL A   1      46.825  29.813  26.483  1.00  0.00     0.135 A 
ATOM     83  C   UNL A   1      48.849  29.403  27.599  1.00  0.00     0.135 A 
ATOM     84  F   UNL A   1      45.895  30.586  25.930  1.00  0.00    -0.206 F 
ATOM     85  C   UNL A   1      46.845  28.528  25.922  1.00  0.00     0.059 A 
ATOM     86  C   UNL A   1      48.901  28.103  27.048  1.00  0.00     0.059 A 
ATOM     87  F   UNL A   1      49.953  29.800  28.253  1.00  0.00    -0.206 F 
ATOM     88  C   UNL A   1      47.883  27.668  26.214  1.00  0.00     0.060 A 
BRANCH  88  89
ATOM     89  S   UNL A   1      47.967  26.101  25.316  1.00  0.00     0.124 S 
ATOM     90  O   UNL A   1      46.764  26.146  24.490  1.00  0.00    -0.237 OA
ATOM     91  O   UNL A   1      49.230  26.232  24.596  1.00  0.00    -0.237 OA
ATOM     92  O   UNL A   1      47.958  25.100  26.378  1.00  0.00    -0.744 OA
ENDBRANCH  88  89
ENDBRANCH  67  81
BRANCH  68  93
ATOM     93  C   UNL A   1      42.978  39.782  30.067  1.00  0.00     0.058 A 
ATOM     94  C   UNL A   1      43.728  39.822  31.303  1.00  0.00     0.135 A 
ATOM     95  C   UNL A   1      41.973  40.793  30.052  1.00  0.00     0.135 A 
ATOM     96  F   UNL A   1      44.710  38.924  31.491  1.00  0.00    -0.206 F 
ATOM     97  C   UNL A   1      43.656  40.847  32.285  1.00  0.00     0.059 A 
ATOM     98  C   UNL A   1      41.839  41.813  31.081  1.00  0.00     0.059 A 
ATOM     99  F   UNL A   1      41.163  40.925  28.990  1.00  0.00    -0.206 F 
ATOM    100  C   UNL A   1      42.721  41.860  32.169  1.00  0.00     0.060 A 
BRANCH 100 101
ATOM    101  S   UNL A   1      42.784  43.261  33.364  1.00  0.00     0.124 S 
ATOM    102  O   UNL A   1      42.154  44.339  32.611  1.00  0.00    -0.237 OA
ATOM    103  O   UNL A   1      42.008  42.780  34.505  1.00  0.00    -0.237 OA
ATOM    104  O   UNL A   1      44.211  43.415  33.616  1.00  0.00    -0.744 OA
ENDBRANCH 100 101
ENDBRANCH  68  93
BRANCH  80 105
ATOM    105  C   UNL A   1      50.409  37.626  27.303  1.00  0.00     0.058 A 
ATOM    106  C   UNL A   1      51.153  38.058  28.399  1.00  0.00     0.135 A 
ATOM    107  C   UNL A   1      51.172  37.572  26.085  1.00  0.00     0.135 A 
ATOM    108  F   UNL A   1      50.567  38.411  29.547  1.00  0.00    -0.206 F 
ATOM    109  C   UNL A   1      52.539  38.262  28.331  1.00  0.00     0.059 A 
ATOM    110  C   UNL A   1      52.524  37.816  25.983  1.00  0.00     0.059 A 
ATOM    111  F   UNL A   1      50.668  37.338  24.871  1.00  0.00    -0.206 F 
ATOM    112  C   UNL A   1      53.213  38.132  27.120  1.00  0.00     0.060 A 
BRANCH 112 113
ATOM    113  S   UNL A   1      54.959  38.498  26.994  1.00  0.00     0.124 S 
ATOM    114  O   UNL A   1      55.553  37.295  27.567  1.00  0.00    -0.237 OA
ATOM    115  O   UNL A   1      55.114  38.668  25.554  1.00  0.00    -0.237 OA
ATOM    116  O   UNL A   1      55.119  39.711  27.789  1.00  0.00    -0.744 OA
ENDBRANCH 112 113
ENDBRANCH  80 105
ENDBRANCH  54  55
ENDBRANCH  47  49
ENDBRANCH  46  47
ENDBRANCH  45  46
ENDBRANCH  44  45
ENDBRANCH  43  44
ENDBRANCH  42  43
ENDBRANCH  41  42
ENDBRANCH  40  41
ENDBRANCH   1  40
TORSDOF 28
ENDMDL
MODEL 3
REMARK VINA RESULT:     -12.2      4.384     11.034
REMARK SMILES Cc1ccc(N2C(=O)N=C(OCCOCCOCCOCCOC(=O)c3ccc(-c4c5nc(c(-c6c(F)cc(S(=O)(=O)[O-])cc6F)c6ccc([nH]6)c(-c6c(F)cc(S(=O)(=O)[O-])cc6F)c6nc(c(-c7c(F)cc(S(=O)(=O)[O-])cc7F)c7ccc4[nH]7)C=C6)C=C5)cc3)/C(=C\c3ccccc3OCc3cccc(C(=O)[O-])c3)C2=O)cc1
REMARK SMILES IDX 16 1 15 2 14 3 13 4 12 5 11 6 10 7 6 8 7 9 111 10 8 11 9 12
REMARK SMILES IDX 92 13 112 14 93 15 5 16 1 17 2 18 3 19 114 20 4 21 113 22
REMARK SMILES IDX 94 23 95 24 99 25 96 26 98 27 97 28 100 29 101 30 102 31
REMARK SMILES IDX 103 32 110 33 104 34 106 35 105 36 107 37 108 38 109 39
REMARK SMILES IDX 17 40 18 41 19 42 20 43 21 44 22 45 23 46 24 47 25 48 26 49
REMARK SMILES IDX 27 50 91 51 28 52 90 53 29 54 30 55 31 56 84 57 32 58 89 59
REMARK SMILES IDX 83 60 85 61 33 62 88 63 82 64 81 65 34 67 68 68 47 69 67 70
REMARK SMILES IDX 48 71 51 72 66 73 86 74 49 75 50 76 65 78 87 79 52 80 35 81
REMARK SMILES IDX 36 82 45 83 37 84 38 85 44 86 46 87 39 88 40 89 41 90 42 91
REMARK SMILES IDX 43 92 69 93 70 94 79 95 71 96 72 97 78 98 80 99 73 100
REMARK SMILES IDX 74 101 75 102 76 103 77 104 53 105 54 106 63 107 55 108
REMARK SMILES IDX 56 109 62 110 64 111 57 112 58 113 59 114 60 115 61 116
REMARK H PARENT 85 66 51 77
REMARK Flexibility Score: inf
ROOT
ATOM      1  C   UNL A   1      30.704  24.409  26.163  1.00  0.00     0.188 C 
ENDROOT
BRANCH   1   2
ATOM      2  C   UNL A   1      31.957  24.103  26.930  1.00  0.00     0.188 C 
BRANCH   2   3
ATOM      3  O   UNL A   1      32.021  22.573  27.460  1.00  0.00    -0.376 OA
BRANCH   3   4
ATOM      4  C   UNL A   1      33.148  21.358  27.490  1.00  0.00     0.201 C 
BRANCH   4   5
ATOM      5  C   UNL A   1      33.431  20.199  26.031  1.00  0.00     0.260 C 
BRANCH   5   6
ATOM      6  O   UNL A   1      34.949  20.158  25.094  1.00  0.00    -0.475 OA
BRANCH   6   7
ATOM      7  C   UNL A   1      36.369  20.605  25.073  1.00  0.00     0.231 C 
ATOM      8  N   UNL A   1      38.883  21.547  25.928  1.00  0.00    -0.226 N 
ATOM      9  C   UNL A   1      38.676  20.243  25.528  1.00  0.00     0.358 C 
ATOM     10  C   UNL A   1      37.991  22.498  25.514  1.00  0.00     0.272 C 
ATOM     11  O   UNL A   1      39.516  19.374  25.774  1.00  0.00    -0.245 OA
ATOM     12  N   UNL A   1      37.454  19.871  24.982  1.00  0.00    -0.156 NA
ATOM     13  C   UNL A   1      36.660  21.958  25.085  1.00  0.00     0.103 C 
ATOM     14  O   UNL A   1      38.264  23.694  25.494  1.00  0.00    -0.268 OA
ATOM     15  C   UNL A   1      35.740  22.537  24.331  1.00  0.00     0.031 C 
BRANCH   8  16
ATOM     16  C   UNL A   1      40.170  21.929  26.437  1.00  0.00     0.054 A 
ATOM     17  C   UNL A   1      44.133  23.150  27.690  1.00  0.00     0.044 C 
ATOM     18  C   UNL A   1      42.764  22.667  27.304  1.00  0.00    -0.051 A 
ATOM     19  C   UNL A   1      42.530  22.314  25.974  1.00  0.00     0.005 A 
ATOM     20  C   UNL A   1      41.699  22.615  28.213  1.00  0.00     0.005 A 
ATOM     21  C   UNL A   1      41.256  21.938  25.554  1.00  0.00     0.027 A 
ATOM     22  C   UNL A   1      40.400  22.267  27.781  1.00  0.00     0.027 A 
ENDBRANCH   8  16
BRANCH  15  23
ATOM     23  C   UNL A   1      34.327  22.392  23.879  1.00  0.00     0.018 A 
ATOM     24  C   UNL A   1      33.580  21.231  23.417  1.00  0.00     0.012 A 
ATOM     25  C   UNL A   1      33.676  23.560  23.937  1.00  0.00     0.127 A 
ATOM     26  C   UNL A   1      32.308  21.270  22.846  1.00  0.00     0.001 A 
ATOM     27  C   UNL A   1      32.393  23.575  23.292  1.00  0.00     0.047 A 
ATOM     28  C   UNL A   1      31.704  22.481  22.766  1.00  0.00     0.004 A 
BRANCH  25  29
ATOM     29  O   UNL A   1      34.397  24.668  24.399  1.00  0.00    -0.488 OA
BRANCH  29  30
ATOM     30  C   UNL A   1      34.397  26.146  24.598  1.00  0.00     0.265 C 
BRANCH  30  31
ATOM     31  C   UNL A   1      34.132  27.358  23.607  1.00  0.00    -0.010 A 
ATOM     32  C   UNL A   1      34.049  28.604  24.273  1.00  0.00     0.007 A 
ATOM     33  C   UNL A   1      33.286  27.135  22.537  1.00  0.00     0.017 A 
ATOM     34  C   UNL A   1      32.939  29.410  24.127  1.00  0.00     0.001 A 
ATOM     35  C   UNL A   1      32.038  27.722  22.654  1.00  0.00    -0.002 A 
ATOM     36  C   UNL A   1      31.870  28.888  23.416  1.00  0.00     0.010 A 
BRANCH  35  37
ATOM     37  C   UNL A   1      30.828  26.897  22.356  1.00  0.00     0.071 C 
ATOM     38  O   UNL A   1      29.814  26.921  22.969  1.00  0.00    -0.545 OA
ATOM     39  O   UNL A   1      31.082  25.956  21.409  1.00  0.00    -0.545 OA
ENDBRANCH  35  37
ENDBRANCH  30  31
ENDBRANCH  29  30
ENDBRANCH  25  29
ENDBRANCH  15  23
ENDBRANCH   6   7
ENDBRANCH   5   6
ENDBRANCH   4   5
ENDBRANCH   3   4
ENDBRANCH   2   3
ENDBRANCH   1   2
BRANCH   1  40
ATOM     40  O   UNL A   1      30.250  25.687  26.495  1.00  0.00    -0.377 OA
BRANCH  40  41
ATOM     41  C   UNL A   1      31.210  26.731  26.293  1.00  0.00     0.188 C 
BRANCH  41  42
ATOM     42  C   UNL A   1      31.515  27.741  27.564  1.00  0.00     0.188 C 
BRANCH  42  43
ATOM     43  O   UNL A   1      32.793  28.310  27.552  1.00  0.00    -0.376 OA
BRANCH  43  44
ATOM     44  C   UNL A   1      32.501  29.635  27.196  1.00  0.00     0.202 C 
BRANCH  44  45
ATOM     45  C   UNL A   1      33.641  30.741  27.583  1.00  0.00     0.261 C 
BRANCH  45  46
ATOM     46  O   UNL A   1      35.328  30.486  27.829  1.00  0.00    -0.460 OA
BRANCH  46  47
ATOM     47  C   UNL A   1      36.709  30.633  28.133  1.00  0.00     0.338 C 
ATOM     48  O   UNL A   1      37.069  31.755  28.509  1.00  0.00    -0.246 OA
BRANCH  47  49
ATOM     49  C   UNL A   1      37.955  29.602  28.073  1.00  0.00     0.060 A 
ATOM     50  C   UNL A   1      38.117  28.476  28.907  1.00  0.00     0.016 A 
ATOM     51  C   UNL A   1      39.008  29.656  27.171  1.00  0.00     0.016 A 
ATOM     52  C   UNL A   1      39.460  27.940  29.219  1.00  0.00     0.010 A 
ATOM     53  C   UNL A   1      40.337  29.255  27.567  1.00  0.00     0.010 A 
ATOM     54  C   UNL A   1      40.607  28.673  28.818  1.00  0.00    -0.014 A 
BRANCH  54  55
ATOM     55  C   UNL A   1      41.990  29.437  29.751  1.00  0.00     0.031 A 
ATOM     56  C   UNL A   1      43.135  28.514  28.673  1.00  0.00     0.074 A 
ATOM     57  C   UNL A   1      41.955  30.548  31.075  1.00  0.00     0.049 A 
ATOM     58  N   UNL A   1      43.441  27.219  28.831  1.00  0.00    -0.248 NA
ATOM     59  C   UNL A   1      43.691  28.829  27.353  1.00  0.00     0.031 C 
ATOM     60  C   UNL A   1      42.743  31.663  31.967  1.00  0.00     0.029 A 
ATOM     61  N   UNL A   1      40.940  30.779  32.355  1.00  0.00    -0.354 N 
ATOM     62  C   UNL A   1      44.674  26.841  28.247  1.00  0.00     0.074 A 
ATOM     63  C   UNL A   1      44.515  27.766  27.094  1.00  0.00     0.031 C 
ATOM     64  C   UNL A   1      42.598  31.512  33.363  1.00  0.00     0.029 A 
ATOM     65  C   UNL A   1      41.497  30.651  33.669  1.00  0.00     0.049 A 
ATOM     66  H   UNL A   1      39.989  30.997  32.222  1.00  0.00     0.167 HD
ATOM     67  C   UNL A   1      45.840  26.112  28.834  1.00  0.00     0.037 A 
ATOM     68  C   UNL A   1      41.035  29.760  34.652  1.00  0.00     0.037 A 
ATOM     69  C   UNL A   1      46.132  25.748  30.525  1.00  0.00     0.049 A 
ATOM     70  C   UNL A   1      41.981  28.394  35.370  1.00  0.00     0.074 A 
ATOM     71  C   UNL A   1      47.086  26.366  31.375  1.00  0.00     0.029 A 
ATOM     72  N   UNL A   1      45.316  25.116  31.641  1.00  0.00    -0.354 N 
ATOM     73  N   UNL A   1      43.264  28.066  35.169  1.00  0.00    -0.248 NA
ATOM     74  C   UNL A   1      41.542  27.307  36.299  1.00  0.00     0.031 C 
ATOM     75  C   UNL A   1      46.915  26.114  32.801  1.00  0.00     0.029 A 
ATOM     76  C   UNL A   1      45.587  25.703  33.076  1.00  0.00     0.049 A 
ATOM     77  H   UNL A   1      44.667  24.394  31.478  1.00  0.00     0.167 HD
ATOM     78  C   UNL A   1      43.698  26.582  35.388  1.00  0.00     0.074 A 
ATOM     79  C   UNL A   1      42.552  26.356  36.352  1.00  0.00     0.031 C 
ATOM     80  C   UNL A   1      44.680  25.567  34.599  1.00  0.00     0.037 A 
BRANCH  67  81
ATOM     81  C   UNL A   1      47.152  26.227  27.916  1.00  0.00     0.058 A 
ATOM     82  C   UNL A   1      47.654  25.196  27.083  1.00  0.00     0.135 A 
ATOM     83  C   UNL A   1      47.963  27.386  27.868  1.00  0.00     0.135 A 
ATOM     84  F   UNL A   1      46.928  24.142  26.721  1.00  0.00    -0.206 F 
ATOM     85  C   UNL A   1      48.900  25.223  26.441  1.00  0.00     0.059 A 
ATOM     86  C   UNL A   1      49.223  27.448  27.230  1.00  0.00     0.059 A 
ATOM     87  F   UNL A   1      47.516  28.545  28.380  1.00  0.00    -0.206 F 
ATOM     88  C   UNL A   1      49.691  26.351  26.524  1.00  0.00     0.060 A 
BRANCH  88  89
ATOM     89  S   UNL A   1      51.193  26.411  25.522  1.00  0.00     0.124 S 
ATOM     90  O   UNL A   1      50.675  26.717  24.192  1.00  0.00    -0.237 OA
ATOM     91  O   UNL A   1      51.945  27.483  26.167  1.00  0.00    -0.237 OA
ATOM     92  O   UNL A   1      51.759  25.075  25.678  1.00  0.00    -0.744 OA
ENDBRANCH  88  89
ENDBRANCH  67  81
BRANCH  68  93
ATOM     93  C   UNL A   1      39.411  30.098  34.620  1.00  0.00     0.058 A 
ATOM     94  C   UNL A   1      39.065  31.329  35.295  1.00  0.00     0.135 A 
ATOM     95  C   UNL A   1      38.440  29.776  33.627  1.00  0.00     0.135 A 
ATOM     96  F   UNL A   1      39.869  31.775  36.276  1.00  0.00    -0.206 F 
ATOM     97  C   UNL A   1      38.042  32.234  34.901  1.00  0.00     0.059 A 
ATOM     98  C   UNL A   1      37.345  30.658  33.253  1.00  0.00     0.059 A 
ATOM     99  F   UNL A   1      38.576  28.666  32.884  1.00  0.00    -0.206 F 
ATOM    100  C   UNL A   1      37.186  31.909  33.863  1.00  0.00     0.060 A 
BRANCH 100 101
ATOM    101  S   UNL A   1      35.995  33.184  33.269  1.00  0.00     0.124 S 
ATOM    102  O   UNL A   1      35.193  33.437  34.460  1.00  0.00    -0.237 OA
ATOM    103  O   UNL A   1      36.851  34.296  32.863  1.00  0.00    -0.237 OA
ATOM    104  O   UNL A   1      35.310  32.509  32.175  1.00  0.00    -0.744 OA
ENDBRANCH 100 101
ENDBRANCH  68  93
BRANCH  80 105
ATOM    105  C   UNL A   1      45.071  24.164  35.139  1.00  0.00     0.058 A 
ATOM    106  C   UNL A   1      44.682  22.949  34.578  1.00  0.00     0.135 A 
ATOM    107  C   UNL A   1      45.775  24.015  36.384  1.00  0.00     0.135 A 
ATOM    108  F   UNL A   1      43.810  22.893  33.567  1.00  0.00    -0.206 F 
ATOM    109  C   UNL A   1      45.085  21.716  35.109  1.00  0.00     0.059 A 
ATOM    110  C   UNL A   1      46.139  22.813  36.952  1.00  0.00     0.059 A 
ATOM    111  F   UNL A   1      46.123  25.016  37.197  1.00  0.00    -0.206 F 
ATOM    112  C   UNL A   1      45.817  21.661  36.292  1.00  0.00     0.060 A 
BRANCH 112 113
ATOM    113  S   UNL A   1      46.242  20.094  37.041  1.00  0.00     0.124 S 
ATOM    114  O   UNL A   1      45.986  20.364  38.451  1.00  0.00    -0.237 OA
ATOM    115  O   UNL A   1      45.305  19.195  36.377  1.00  0.00    -0.237 OA
ATOM    116  O   UNL A   1      47.646  19.907  36.687  1.00  0.00    -0.744 OA
ENDBRANCH 112 113
ENDBRANCH  80 105
ENDBRANCH  54  55
ENDBRANCH  47  49
ENDBRANCH  46  47
ENDBRANCH  45  46
ENDBRANCH  44  45
ENDBRANCH  43  44
ENDBRANCH  42  43
ENDBRANCH  41  42
ENDBRANCH  40  41
ENDBRANCH   1  40
TORSDOF 28
ENDMDL
