MODEL 1
REMARK VINA RESULT:      -6.7      0.000      0.000
REMARK SMILES CCOc1ncnc(N[C@@H]2C=C[C@H](C(=O)OCCOCCOCCOCCOC(=O)c3ccc(-c4c5nc(c(-c6c(F)cc(S(=O)(=O)[O-])cc6F)c6ccc([nH]6)c(-c6c(F)cc(S(=O)(=O)[O-])cc6F)c6nc(c(-c7c(F)cc(S(=O)(=O)[O-])cc7F)c7ccc4[nH]7)C=C6)C=C5)cc3)C2)c1C
REMARK SMILES IDX 21 1 20 2 19 3 18 4 17 5 16 6 14 7 15 8 13 9 10 10 11 11
REMARK SMILES IDX 97 12 12 13 9 14 8 16 4 17 5 18 98 19 6 20 99 21 7 22 3 23
REMARK SMILES IDX 2 24 1 25 22 26 23 27 24 28 25 29 26 30 27 31 28 32 29 33
REMARK SMILES IDX 30 34 31 35 32 36 96 37 33 38 95 39 34 40 35 41 36 42 89 43
REMARK SMILES IDX 37 44 94 45 88 46 90 47 38 48 93 49 87 50 86 51 39 53 73 54
REMARK SMILES IDX 52 55 72 56 53 57 56 58 71 59 91 60 54 61 55 62 70 64 92 65
REMARK SMILES IDX 57 66 40 67 41 68 50 69 42 70 43 71 49 72 51 73 44 74 45 75
REMARK SMILES IDX 46 76 47 77 48 78 74 79 75 80 84 81 76 82 77 83 83 84 85 85
REMARK SMILES IDX 78 86 79 87 80 88 81 89 82 90 58 91 59 92 68 93 60 94 61 95
REMARK SMILES IDX 67 96 69 97 62 98 63 99 64 100 65 101 66 102
REMARK H PARENT 9 15 90 52 56 63
REMARK Flexibility Score: inf
ROOT
ATOM      1  C   UNL A   1      34.058  34.249  29.905  1.00  0.00     0.188 C 
ENDROOT
BRANCH   1   2
ATOM      2  C   UNL A   1      35.000  34.264  28.680  1.00  0.00     0.188 C 
BRANCH   2   3
ATOM      3  O   UNL A   1      35.034  33.064  27.931  1.00  0.00    -0.376 OA
BRANCH   3   4
ATOM      4  C   UNL A   1      34.266  31.945  28.317  1.00  0.00     0.202 C 
BRANCH   4   5
ATOM      5  C   UNL A   1      34.435  30.675  27.452  1.00  0.00     0.261 C 
BRANCH   5   6
ATOM      6  O   UNL A   1      33.319  29.762  27.404  1.00  0.00    -0.463 OA
BRANCH   6   7
ATOM      7  C   UNL A   1      33.021  29.327  26.158  1.00  0.00     0.312 C 
ATOM      8  O   UNL A   1      33.885  29.106  25.326  1.00  0.00    -0.252 OA
BRANCH   7   9
ATOM      9  C   UNL A   1      31.554  28.995  25.978  1.00  0.00     0.124 C 
ATOM     10  C   UNL A   1      31.096  27.052  24.524  1.00  0.00     0.104 C 
ATOM     11  C   UNL A   1      30.836  28.344  23.834  1.00  0.00    -0.006 C 
ATOM     12  C   UNL A   1      31.333  27.464  25.985  1.00  0.00     0.048 C 
ATOM     13  C   UNL A   1      31.058  29.400  24.628  1.00  0.00    -0.014 C 
BRANCH  10  14
ATOM     14  N   UNL A   1      32.152  26.247  23.937  1.00  0.00    -0.363 N 
ATOM     15  H   UNL A   1      32.776  26.719  23.340  1.00  0.00     0.162 HD
BRANCH  14  16
ATOM     16  C   UNL A   1      32.388  24.895  24.114  1.00  0.00     0.136 A 
ATOM     17  C   UNL A   1      33.774  23.101  24.739  1.00  0.00     0.221 A 
ATOM     18  N   UNL A   1      32.963  22.192  24.184  1.00  0.00    -0.201 NA
ATOM     19  C   UNL A   1      33.567  24.473  24.722  1.00  0.00     0.054 A 
ATOM     20  C   UNL A   1      31.852  22.709  23.656  1.00  0.00     0.228 A 
ATOM     21  C   UNL A   1      34.507  25.417  25.402  1.00  0.00     0.054 C 
ATOM     22  N   UNL A   1      31.493  24.006  23.659  1.00  0.00    -0.219 NA
BRANCH  17  23
ATOM     23  O   UNL A   1      34.911  22.607  25.341  1.00  0.00    -0.478 OA
BRANCH  23  24
ATOM     24  C   UNL A   1      35.672  21.843  24.401  1.00  0.00     0.228 C 
ATOM     25  C   UNL A   1      37.126  21.820  24.842  1.00  0.00     0.049 C 
ENDBRANCH  23  24
ENDBRANCH  17  23
ENDBRANCH  14  16
ENDBRANCH  10  14
ENDBRANCH   7   9
ENDBRANCH   6   7
ENDBRANCH   5   6
ENDBRANCH   4   5
ENDBRANCH   3   4
ENDBRANCH   2   3
ENDBRANCH   1   2
BRANCH   1  26
ATOM     26  O   UNL A   1      34.413  34.886  31.126  1.00  0.00    -0.377 OA
BRANCH  26  27
ATOM     27  C   UNL A   1      33.542  34.775  32.245  1.00  0.00     0.188 C 
BRANCH  27  28
ATOM     28  C   UNL A   1      33.676  33.544  33.176  1.00  0.00     0.188 C 
BRANCH  28  29
ATOM     29  O   UNL A   1      34.875  33.516  33.937  1.00  0.00    -0.376 OA
BRANCH  29  30
ATOM     30  C   UNL A   1      35.971  32.796  33.403  1.00  0.00     0.202 C 
BRANCH  30  31
ATOM     31  C   UNL A   1      37.006  33.563  32.565  1.00  0.00     0.261 C 
BRANCH  31  32
ATOM     32  O   UNL A   1      37.992  32.779  31.876  1.00  0.00    -0.460 OA
BRANCH  32  33
ATOM     33  C   UNL A   1      37.617  31.574  31.397  1.00  0.00     0.338 C 
ATOM     34  O   UNL A   1      36.475  31.158  31.278  1.00  0.00    -0.246 OA
BRANCH  33  35
ATOM     35  C   UNL A   1      38.819  30.930  30.818  1.00  0.00     0.060 A 
ATOM     36  C   UNL A   1      39.669  30.191  31.657  1.00  0.00     0.016 A 
ATOM     37  C   UNL A   1      39.076  31.003  29.447  1.00  0.00     0.016 A 
ATOM     38  C   UNL A   1      40.791  29.551  31.131  1.00  0.00     0.010 A 
ATOM     39  C   UNL A   1      40.222  30.398  28.928  1.00  0.00     0.010 A 
ATOM     40  C   UNL A   1      41.104  29.700  29.775  1.00  0.00    -0.014 A 
BRANCH  40  41
ATOM     41  C   UNL A   1      42.468  29.360  29.302  1.00  0.00     0.031 A 
ATOM     42  C   UNL A   1      42.700  27.955  28.811  1.00  0.00     0.074 A 
ATOM     43  C   UNL A   1      43.462  30.265  29.276  1.00  0.00     0.049 A 
ATOM     44  N   UNL A   1      43.805  27.383  28.416  1.00  0.00    -0.248 NA
ATOM     45  C   UNL A   1      41.518  27.076  28.763  1.00  0.00     0.031 C 
ATOM     46  C   UNL A   1      43.346  31.667  29.674  1.00  0.00     0.029 A 
ATOM     47  N   UNL A   1      44.778  30.128  28.906  1.00  0.00    -0.354 N 
ATOM     48  C   UNL A   1      43.456  26.081  28.077  1.00  0.00     0.074 A 
ATOM     49  C   UNL A   1      42.043  25.935  28.343  1.00  0.00     0.031 C 
ATOM     50  C   UNL A   1      44.549  32.255  29.550  1.00  0.00     0.029 A 
ATOM     51  C   UNL A   1      45.526  31.266  29.097  1.00  0.00     0.049 A 
ATOM     52  H   UNL A   1      45.150  29.294  28.539  1.00  0.00     0.167 HD
ATOM     53  C   UNL A   1      44.239  25.099  27.578  1.00  0.00     0.037 A 
ATOM     54  C   UNL A   1      46.852  31.470  28.953  1.00  0.00     0.037 A 
ATOM     55  C   UNL A   1      45.646  25.250  27.320  1.00  0.00     0.049 A 
ATOM     56  C   UNL A   1      47.724  30.331  28.475  1.00  0.00     0.074 A 
ATOM     57  C   UNL A   1      46.533  24.315  26.817  1.00  0.00     0.029 A 
ATOM     58  N   UNL A   1      46.373  26.410  27.547  1.00  0.00    -0.354 N 
ATOM     59  N   UNL A   1      47.380  29.107  28.147  1.00  0.00    -0.248 NA
ATOM     60  C   UNL A   1      49.164  30.601  28.343  1.00  0.00     0.031 C 
ATOM     61  C   UNL A   1      47.805  24.891  26.791  1.00  0.00     0.029 A 
ATOM     62  C   UNL A   1      47.701  26.207  27.215  1.00  0.00     0.049 A 
ATOM     63  H   UNL A   1      45.998  27.252  27.893  1.00  0.00     0.167 HD
ATOM     64  C   UNL A   1      48.554  28.477  27.738  1.00  0.00     0.074 A 
ATOM     65  C   UNL A   1      49.612  29.457  27.848  1.00  0.00     0.031 C 
ATOM     66  C   UNL A   1      48.739  27.202  27.311  1.00  0.00     0.037 A 
BRANCH  53  67
ATOM     67  C   UNL A   1      43.600  23.768  27.296  1.00  0.00     0.058 A 
ATOM     68  C   UNL A   1      43.249  22.884  28.330  1.00  0.00     0.135 A 
ATOM     69  C   UNL A   1      43.286  23.393  25.980  1.00  0.00     0.135 A 
ATOM     70  F   UNL A   1      43.548  23.181  29.605  1.00  0.00    -0.206 F 
ATOM     71  C   UNL A   1      42.617  21.675  28.067  1.00  0.00     0.059 A 
ATOM     72  C   UNL A   1      42.629  22.202  25.696  1.00  0.00     0.059 A 
ATOM     73  F   UNL A   1      43.611  24.196  24.954  1.00  0.00    -0.206 F 
ATOM     74  C   UNL A   1      42.302  21.346  26.747  1.00  0.00     0.060 A 
BRANCH  74  75
ATOM     75  S   UNL A   1      41.444  19.790  26.429  1.00  0.00     0.124 S 
ATOM     76  O   UNL A   1      40.068  20.246  26.252  1.00  0.00    -0.237 OA
ATOM     77  O   UNL A   1      42.111  19.309  25.224  1.00  0.00    -0.237 OA
ATOM     78  O   UNL A   1      41.695  19.009  27.636  1.00  0.00    -0.744 OA
ENDBRANCH  74  75
ENDBRANCH  53  67
BRANCH  54  79
ATOM     79  C   UNL A   1      47.456  32.789  29.294  1.00  0.00     0.058 A 
ATOM     80  C   UNL A   1      47.854  33.095  30.605  1.00  0.00     0.135 A 
ATOM     81  C   UNL A   1      47.606  33.789  28.320  1.00  0.00     0.135 A 
ATOM     82  F   UNL A   1      47.720  32.179  31.577  1.00  0.00    -0.206 F 
ATOM     83  C   UNL A   1      48.349  34.352  30.944  1.00  0.00     0.059 A 
ATOM     84  C   UNL A   1      48.128  35.042  28.628  1.00  0.00     0.059 A 
ATOM     85  F   UNL A   1      47.248  33.551  27.049  1.00  0.00    -0.206 F 
ATOM     86  C   UNL A   1      48.481  35.319  29.948  1.00  0.00     0.060 A 
BRANCH  86  87
ATOM     87  S   UNL A   1      49.140  36.941  30.395  1.00  0.00     0.124 S 
ATOM     88  O   UNL A   1      50.531  36.619  30.694  1.00  0.00    -0.237 OA
ATOM     89  O   UNL A   1      48.909  37.710  29.178  1.00  0.00    -0.237 OA
ATOM     90  O   UNL A   1      48.322  37.331  31.540  1.00  0.00    -0.744 OA
ENDBRANCH  86  87
ENDBRANCH  54  79
BRANCH  66  91
ATOM     91  C   UNL A   1      50.124  26.804  26.876  1.00  0.00     0.058 A 
ATOM     92  C   UNL A   1      51.059  26.263  27.772  1.00  0.00     0.135 A 
ATOM     93  C   UNL A   1      50.498  26.907  25.526  1.00  0.00     0.135 A 
ATOM     94  F   UNL A   1      50.756  26.143  29.075  1.00  0.00    -0.206 F 
ATOM     95  C   UNL A   1      52.324  25.865  27.351  1.00  0.00     0.059 A 
ATOM     96  C   UNL A   1      51.745  26.484  25.076  1.00  0.00     0.059 A 
ATOM     97  F   UNL A   1      49.639  27.403  24.621  1.00  0.00    -0.206 F 
ATOM     98  C   UNL A   1      52.656  25.977  26.000  1.00  0.00     0.060 A 
BRANCH  98  99
ATOM     99  S   UNL A   1      54.290  25.424  25.462  1.00  0.00     0.124 S 
ATOM    100  O   UNL A   1      54.869  24.955  26.716  1.00  0.00    -0.237 OA
ATOM    101  O   UNL A   1      53.962  24.389  24.487  1.00  0.00    -0.237 OA
ATOM    102  O   UNL A   1      54.892  26.633  24.906  1.00  0.00    -0.744 OA
ENDBRANCH  98  99
ENDBRANCH  66  91
ENDBRANCH  40  41
ENDBRANCH  33  35
ENDBRANCH  32  33
ENDBRANCH  31  32
ENDBRANCH  30  31
ENDBRANCH  29  30
ENDBRANCH  28  29
ENDBRANCH  27  28
ENDBRANCH  26  27
ENDBRANCH   1  26
TORSDOF 27
ENDMDL
MODEL 2
REMARK VINA RESULT:      -6.7      5.877     14.012
REMARK SMILES CCOc1ncnc(N[C@@H]2C=C[C@H](C(=O)OCCOCCOCCOCCOC(=O)c3ccc(-c4c5nc(c(-c6c(F)cc(S(=O)(=O)[O-])cc6F)c6ccc([nH]6)c(-c6c(F)cc(S(=O)(=O)[O-])cc6F)c6nc(c(-c7c(F)cc(S(=O)(=O)[O-])cc7F)c7ccc4[nH]7)C=C6)C=C5)cc3)C2)c1C
REMARK SMILES IDX 21 1 20 2 19 3 18 4 17 5 16 6 14 7 15 8 13 9 10 10 11 11
REMARK SMILES IDX 97 12 12 13 9 14 8 16 4 17 5 18 98 19 6 20 99 21 7 22 3 23
REMARK SMILES IDX 2 24 1 25 22 26 23 27 24 28 25 29 26 30 27 31 28 32 29 33
REMARK SMILES IDX 30 34 31 35 32 36 96 37 33 38 95 39 34 40 35 41 36 42 89 43
REMARK SMILES IDX 37 44 94 45 88 46 90 47 38 48 93 49 87 50 86 51 39 53 73 54
REMARK SMILES IDX 52 55 72 56 53 57 56 58 71 59 91 60 54 61 55 62 70 64 92 65
REMARK SMILES IDX 57 66 40 67 41 68 50 69 42 70 43 71 49 72 51 73 44 74 45 75
REMARK SMILES IDX 46 76 47 77 48 78 74 79 75 80 84 81 76 82 77 83 83 84 85 85
REMARK SMILES IDX 78 86 79 87 80 88 81 89 82 90 58 91 59 92 68 93 60 94 61 95
REMARK SMILES IDX 67 96 69 97 62 98 63 99 64 100 65 101 66 102
REMARK H PARENT 9 15 90 52 56 63
REMARK Flexibility Score: inf
ROOT
ATOM      1  C   UNL A   1      46.487  25.607  24.862  1.00  0.00     0.188 C 
ENDROOT
BRANCH   1   2
ATOM      2  C   UNL A   1      47.540  25.303  25.953  1.00  0.00     0.188 C 
BRANCH   2   3
ATOM      3  O   UNL A   1      47.098  25.483  27.285  1.00  0.00    -0.376 OA
BRANCH   3   4
ATOM      4  C   UNL A   1      47.872  25.028  28.374  1.00  0.00     0.202 C 
BRANCH   4   5
ATOM      5  C   UNL A   1      47.533  25.645  29.750  1.00  0.00     0.261 C 
BRANCH   5   6
ATOM      6  O   UNL A   1      47.731  27.067  29.897  1.00  0.00    -0.463 OA
BRANCH   6   7
ATOM      7  C   UNL A   1      46.579  27.773  29.987  1.00  0.00     0.312 C 
ATOM      8  O   UNL A   1      45.735  27.528  30.832  1.00  0.00    -0.252 OA
BRANCH   7   9
ATOM      9  C   UNL A   1      46.542  28.971  29.061  1.00  0.00     0.124 C 
ATOM     10  C   UNL A   1      45.231  30.891  29.892  1.00  0.00     0.104 C 
ATOM     11  C   UNL A   1      44.502  30.123  28.847  1.00  0.00    -0.006 C 
ATOM     12  C   UNL A   1      46.643  30.289  29.862  1.00  0.00     0.048 C 
ATOM     13  C   UNL A   1      45.220  29.095  28.375  1.00  0.00    -0.014 C 
BRANCH  10  14
ATOM     14  N   UNL A   1      44.597  30.900  31.198  1.00  0.00    -0.363 N 
ATOM     15  H   UNL A   1      44.711  30.088  31.741  1.00  0.00     0.162 HD
BRANCH  14  16
ATOM     16  C   UNL A   1      43.852  31.914  31.774  1.00  0.00     0.136 A 
ATOM     17  C   UNL A   1      43.416  33.424  33.524  1.00  0.00     0.221 A 
ATOM     18  N   UNL A   1      42.199  33.722  33.053  1.00  0.00    -0.201 NA
ATOM     19  C   UNL A   1      44.291  32.511  32.953  1.00  0.00     0.054 A 
ATOM     20  C   UNL A   1      41.897  33.113  31.906  1.00  0.00     0.228 A 
ATOM     21  C   UNL A   1      45.652  32.266  33.523  1.00  0.00     0.054 C 
ATOM     22  N   UNL A   1      42.692  32.281  31.209  1.00  0.00    -0.219 NA
BRANCH  17  23
ATOM     23  O   UNL A   1      43.790  34.069  34.682  1.00  0.00    -0.478 OA
BRANCH  23  24
ATOM     24  C   UNL A   1      44.040  35.452  34.415  1.00  0.00     0.228 C 
ATOM     25  C   UNL A   1      44.971  36.003  35.482  1.00  0.00     0.049 C 
ENDBRANCH  23  24
ENDBRANCH  17  23
ENDBRANCH  14  16
ENDBRANCH  10  14
ENDBRANCH   7   9
ENDBRANCH   6   7
ENDBRANCH   5   6
ENDBRANCH   4   5
ENDBRANCH   3   4
ENDBRANCH   2   3
ENDBRANCH   1   2
BRANCH   1  26
ATOM     26  O   UNL A   1      45.603  24.603  24.379  1.00  0.00    -0.377 OA
BRANCH  26  27
ATOM     27  C   UNL A   1      46.106  23.297  24.127  1.00  0.00     0.188 C 
BRANCH  27  28
ATOM     28  C   UNL A   1      45.669  22.137  25.056  1.00  0.00     0.188 C 
BRANCH  28  29
ATOM     29  O   UNL A   1      45.963  22.347  26.429  1.00  0.00    -0.376 OA
BRANCH  29  30
ATOM     30  C   UNL A   1      44.889  22.703  27.281  1.00  0.00     0.202 C 
BRANCH  30  31
ATOM     31  C   UNL A   1      43.523  23.006  26.642  1.00  0.00     0.261 C 
BRANCH  31  32
ATOM     32  O   UNL A   1      42.938  24.283  26.938  1.00  0.00    -0.460 OA
BRANCH  32  33
ATOM     33  C   UNL A   1      41.591  24.377  26.928  1.00  0.00     0.338 C 
ATOM     34  O   UNL A   1      40.805  23.553  26.486  1.00  0.00    -0.246 OA
BRANCH  33  35
ATOM     35  C   UNL A   1      41.219  25.546  27.757  1.00  0.00     0.060 A 
ATOM     36  C   UNL A   1      42.040  26.684  27.742  1.00  0.00     0.016 A 
ATOM     37  C   UNL A   1      40.035  25.544  28.499  1.00  0.00     0.016 A 
ATOM     38  C   UNL A   1      41.696  27.809  28.492  1.00  0.00     0.010 A 
ATOM     39  C   UNL A   1      39.713  26.654  29.283  1.00  0.00     0.010 A 
ATOM     40  C   UNL A   1      40.561  27.776  29.311  1.00  0.00    -0.014 A 
BRANCH  40  41
ATOM     41  C   UNL A   1      40.408  28.791  30.381  1.00  0.00     0.031 A 
ATOM     42  C   UNL A   1      41.295  28.661  31.591  1.00  0.00     0.074 A 
ATOM     43  C   UNL A   1      39.537  29.812  30.280  1.00  0.00     0.049 A 
ATOM     44  N   UNL A   1      41.313  29.367  32.690  1.00  0.00    -0.248 NA
ATOM     45  C   UNL A   1      42.300  27.584  31.552  1.00  0.00     0.031 C 
ATOM     46  C   UNL A   1      38.664  30.073  29.136  1.00  0.00     0.029 A 
ATOM     47  N   UNL A   1      39.238  30.816  31.168  1.00  0.00    -0.354 N 
ATOM     48  C   UNL A   1      42.323  28.819  33.472  1.00  0.00     0.074 A 
ATOM     49  C   UNL A   1      42.874  27.702  32.739  1.00  0.00     0.031 C 
ATOM     50  C   UNL A   1      37.909  31.154  29.404  1.00  0.00     0.029 A 
ATOM     51  C   UNL A   1      38.220  31.640  30.748  1.00  0.00     0.049 A 
ATOM     52  H   UNL A   1      39.709  30.935  32.024  1.00  0.00     0.167 HD
ATOM     53  C   UNL A   1      42.759  29.217  34.689  1.00  0.00     0.037 A 
ATOM     54  C   UNL A   1      37.594  32.646  31.392  1.00  0.00     0.037 A 
ATOM     55  C   UNL A   1      42.202  30.327  35.415  1.00  0.00     0.049 A 
ATOM     56  C   UNL A   1      38.042  33.019  32.787  1.00  0.00     0.074 A 
ATOM     57  C   UNL A   1      42.571  30.812  36.657  1.00  0.00     0.029 A 
ATOM     58  N   UNL A   1      41.158  31.122  34.968  1.00  0.00    -0.354 N 
ATOM     59  N   UNL A   1      39.005  32.501  33.513  1.00  0.00    -0.248 NA
ATOM     60  C   UNL A   1      37.321  34.117  33.449  1.00  0.00     0.031 C 
ATOM     61  C   UNL A   1      41.714  31.866  36.984  1.00  0.00     0.029 A 
ATOM     62  C   UNL A   1      40.854  32.081  35.918  1.00  0.00     0.049 A 
ATOM     63  H   UNL A   1      40.701  31.020  34.102  1.00  0.00     0.167 HD
ATOM     64  C   UNL A   1      39.027  33.232  34.698  1.00  0.00     0.074 A 
ATOM     65  C   UNL A   1      37.991  34.235  34.587  1.00  0.00     0.031 C 
ATOM     66  C   UNL A   1      39.831  33.087  35.782  1.00  0.00     0.037 A 
BRANCH  53  67
ATOM     67  C   UNL A   1      43.879  28.439  35.321  1.00  0.00     0.058 A 
ATOM     68  C   UNL A   1      45.218  28.635  34.944  1.00  0.00     0.135 A 
ATOM     69  C   UNL A   1      43.616  27.526  36.355  1.00  0.00     0.135 A 
ATOM     70  F   UNL A   1      45.524  29.477  33.945  1.00  0.00    -0.206 F 
ATOM     71  C   UNL A   1      46.254  27.946  35.564  1.00  0.00     0.059 A 
ATOM     72  C   UNL A   1      44.639  26.848  37.008  1.00  0.00     0.059 A 
ATOM     73  F   UNL A   1      42.353  27.294  36.745  1.00  0.00    -0.206 F 
ATOM     74  C   UNL A   1      45.956  27.061  36.602  1.00  0.00     0.060 A 
BRANCH  74  75
ATOM     75  S   UNL A   1      47.318  26.207  37.423  1.00  0.00     0.124 S 
ATOM     76  O   UNL A   1      47.575  25.108  36.495  1.00  0.00    -0.237 OA
ATOM     77  O   UNL A   1      48.344  27.242  37.478  1.00  0.00    -0.237 OA
ATOM     78  O   UNL A   1      46.752  25.819  38.711  1.00  0.00    -0.744 OA
ENDBRANCH  74  75
ENDBRANCH  53  67
BRANCH  54  79
ATOM     79  C   UNL A   1      36.451  33.358  30.752  1.00  0.00     0.058 A 
ATOM     80  C   UNL A   1      36.646  34.232  29.672  1.00  0.00     0.135 A 
ATOM     81  C   UNL A   1      35.142  33.210  31.241  1.00  0.00     0.135 A 
ATOM     82  F   UNL A   1      37.878  34.420  29.175  1.00  0.00    -0.206 F 
ATOM     83  C   UNL A   1      35.593  34.957  29.119  1.00  0.00     0.059 A 
ATOM     84  C   UNL A   1      34.069  33.899  30.684  1.00  0.00     0.059 A 
ATOM     85  F   UNL A   1      34.896  32.382  32.268  1.00  0.00    -0.206 F 
ATOM     86  C   UNL A   1      34.308  34.783  29.634  1.00  0.00     0.060 A 
BRANCH  86  87
ATOM     87  S   UNL A   1      32.946  35.715  28.897  1.00  0.00     0.124 S 
ATOM     88  O   UNL A   1      32.164  36.072  30.075  1.00  0.00    -0.237 OA
ATOM     89  O   UNL A   1      33.648  36.812  28.240  1.00  0.00    -0.237 OA
ATOM     90  O   UNL A   1      32.326  34.748  27.997  1.00  0.00    -0.744 OA
ENDBRANCH  86  87
ENDBRANCH  54  79
BRANCH  66  91
ATOM     91  C   UNL A   1      39.665  34.066  36.913  1.00  0.00     0.058 A 
ATOM     92  C   UNL A   1      38.887  33.772  38.044  1.00  0.00     0.135 A 
ATOM     93  C   UNL A   1      40.349  35.293  36.892  1.00  0.00     0.135 A 
ATOM     94  F   UNL A   1      38.209  32.615  38.116  1.00  0.00    -0.206 F 
ATOM     95  C   UNL A   1      38.771  34.671  39.100  1.00  0.00     0.059 A 
ATOM     96  C   UNL A   1      40.274  36.192  37.952  1.00  0.00     0.059 A 
ATOM     97  F   UNL A   1      41.120  35.621  35.843  1.00  0.00    -0.206 F 
ATOM     98  C   UNL A   1      39.471  35.877  39.046  1.00  0.00     0.060 A 
BRANCH  98  99
ATOM     99  S   UNL A   1      39.336  37.018  40.439  1.00  0.00     0.124 S 
ATOM    100  O   UNL A   1      38.653  36.194  41.429  1.00  0.00    -0.237 OA
ATOM    101  O   UNL A   1      40.734  37.326  40.725  1.00  0.00    -0.237 OA
ATOM    102  O   UNL A   1      38.555  38.126  39.897  1.00  0.00    -0.744 OA
ENDBRANCH  98  99
ENDBRANCH  66  91
ENDBRANCH  40  41
ENDBRANCH  33  35
ENDBRANCH  32  33
ENDBRANCH  31  32
ENDBRANCH  30  31
ENDBRANCH  29  30
ENDBRANCH  28  29
ENDBRANCH  27  28
ENDBRANCH  26  27
ENDBRANCH   1  26
TORSDOF 27
ENDMDL
MODEL 3
REMARK VINA RESULT:      -6.4      1.380      8.150
REMARK SMILES CCOc1ncnc(N[C@@H]2C=C[C@H](C(=O)OCCOCCOCCOCCOC(=O)c3ccc(-c4c5nc(c(-c6c(F)cc(S(=O)(=O)[O-])cc6F)c6ccc([nH]6)c(-c6c(F)cc(S(=O)(=O)[O-])cc6F)c6nc(c(-c7c(F)cc(S(=O)(=O)[O-])cc7F)c7ccc4[nH]7)C=C6)C=C5)cc3)C2)c1C
REMARK SMILES IDX 21 1 20 2 19 3 18 4 17 5 16 6 14 7 15 8 13 9 10 10 11 11
REMARK SMILES IDX 97 12 12 13 9 14 8 16 4 17 5 18 98 19 6 20 99 21 7 22 3 23
REMARK SMILES IDX 2 24 1 25 22 26 23 27 24 28 25 29 26 30 27 31 28 32 29 33
REMARK SMILES IDX 30 34 31 35 32 36 96 37 33 38 95 39 34 40 35 41 36 42 89 43
REMARK SMILES IDX 37 44 94 45 88 46 90 47 38 48 93 49 87 50 86 51 39 53 73 54
REMARK SMILES IDX 52 55 72 56 53 57 56 58 71 59 91 60 54 61 55 62 70 64 92 65
REMARK SMILES IDX 57 66 40 67 41 68 50 69 42 70 43 71 49 72 51 73 44 74 45 75
REMARK SMILES IDX 46 76 47 77 48 78 74 79 75 80 84 81 76 82 77 83 83 84 85 85
REMARK SMILES IDX 78 86 79 87 80 88 81 89 82 90 58 91 59 92 68 93 60 94 61 95
REMARK SMILES IDX 67 96 69 97 62 98 63 99 64 100 65 101 66 102
REMARK H PARENT 9 15 90 52 56 63
REMARK Flexibility Score: inf
ROOT
ATOM      1  C   UNL A   1      33.953  32.621  28.276  1.00  0.00     0.188 C 
ENDROOT
BRANCH   1   2
ATOM      2  C   UNL A   1      34.901  31.440  27.967  1.00  0.00     0.188 C 
BRANCH   2   3
ATOM      3  O   UNL A   1      34.320  30.374  27.241  1.00  0.00    -0.376 OA
BRANCH   3   4
ATOM      4  C   UNL A   1      34.864  29.073  27.300  1.00  0.00     0.202 C 
BRANCH   4   5
ATOM      5  C   UNL A   1      34.142  27.997  26.457  1.00  0.00     0.261 C 
BRANCH   5   6
ATOM      6  O   UNL A   1      32.968  28.415  25.730  1.00  0.00    -0.463 OA
BRANCH   6   7
ATOM      7  C   UNL A   1      32.882  27.896  24.483  1.00  0.00     0.312 C 
ATOM      8  O   UNL A   1      33.766  27.201  24.010  1.00  0.00    -0.252 OA
BRANCH   7   9
ATOM      9  C   UNL A   1      31.533  28.126  23.834  1.00  0.00     0.124 C 
ATOM     10  C   UNL A   1      30.063  26.143  23.756  1.00  0.00     0.104 C 
ATOM     11  C   UNL A   1      30.690  26.430  22.438  1.00  0.00    -0.006 C 
ATOM     12  C   UNL A   1      30.419  27.376  24.601  1.00  0.00     0.048 C 
ATOM     13  C   UNL A   1      31.468  27.519  22.469  1.00  0.00    -0.014 C 
BRANCH  10  14
ATOM     14  N   UNL A   1      30.432  24.869  24.346  1.00  0.00    -0.363 N 
ATOM     15  H   UNL A   1      29.781  24.476  24.970  1.00  0.00     0.162 HD
BRANCH  14  16
ATOM     16  C   UNL A   1      31.589  24.140  24.138  1.00  0.00     0.136 A 
ATOM     17  C   UNL A   1      33.769  23.500  24.747  1.00  0.00     0.221 A 
ATOM     18  N   UNL A   1      34.001  22.919  23.563  1.00  0.00    -0.201 NA
ATOM     19  C   UNL A   1      32.597  24.153  25.099  1.00  0.00     0.054 A 
ATOM     20  C   UNL A   1      32.957  22.943  22.734  1.00  0.00     0.228 A 
ATOM     21  C   UNL A   1      32.406  24.743  26.460  1.00  0.00     0.054 C 
ATOM     22  N   UNL A   1      31.742  23.461  22.992  1.00  0.00    -0.219 NA
BRANCH  17  23
ATOM     23  O   UNL A   1      34.804  23.455  25.654  1.00  0.00    -0.478 OA
BRANCH  23  24
ATOM     24  C   UNL A   1      36.037  23.187  24.980  1.00  0.00     0.228 C 
ATOM     25  C   UNL A   1      37.177  23.822  25.759  1.00  0.00     0.049 C 
ENDBRANCH  23  24
ENDBRANCH  17  23
ENDBRANCH  14  16
ENDBRANCH  10  14
ENDBRANCH   7   9
ENDBRANCH   6   7
ENDBRANCH   5   6
ENDBRANCH   4   5
ENDBRANCH   3   4
ENDBRANCH   2   3
ENDBRANCH   1   2
BRANCH   1  26
ATOM     26  O   UNL A   1      34.449  33.885  28.697  1.00  0.00    -0.377 OA
BRANCH  26  27
ATOM     27  C   UNL A   1      34.315  34.264  30.062  1.00  0.00     0.188 C 
BRANCH  27  28
ATOM     28  C   UNL A   1      34.415  33.170  31.153  1.00  0.00     0.188 C 
BRANCH  28  29
ATOM     29  O   UNL A   1      35.496  33.344  32.058  1.00  0.00    -0.376 OA
BRANCH  29  30
ATOM     30  C   UNL A   1      36.769  33.635  31.507  1.00  0.00     0.202 C 
BRANCH  30  31
ATOM     31  C   UNL A   1      37.639  34.693  32.206  1.00  0.00     0.261 C 
BRANCH  31  32
ATOM     32  O   UNL A   1      39.018  34.357  32.424  1.00  0.00    -0.460 OA
BRANCH  32  33
ATOM     33  C   UNL A   1      39.292  33.310  33.231  1.00  0.00     0.338 C 
ATOM     34  O   UNL A   1      38.746  33.042  34.290  1.00  0.00    -0.246 OA
BRANCH  33  35
ATOM     35  C   UNL A   1      40.209  32.408  32.497  1.00  0.00     0.060 A 
ATOM     36  C   UNL A   1      40.851  31.372  33.193  1.00  0.00     0.016 A 
ATOM     37  C   UNL A   1      40.390  32.545  31.118  1.00  0.00     0.016 A 
ATOM     38  C   UNL A   1      41.697  30.491  32.519  1.00  0.00     0.010 A 
ATOM     39  C   UNL A   1      41.270  31.690  30.451  1.00  0.00     0.010 A 
ATOM     40  C   UNL A   1      41.954  30.683  31.156  1.00  0.00    -0.014 A 
BRANCH  40  41
ATOM     41  C   UNL A   1      43.123  30.012  30.536  1.00  0.00     0.031 A 
ATOM     42  C   UNL A   1      44.418  30.778  30.492  1.00  0.00     0.074 A 
ATOM     43  C   UNL A   1      43.055  28.757  30.055  1.00  0.00     0.049 A 
ATOM     44  N   UNL A   1      45.559  30.454  29.946  1.00  0.00    -0.248 NA
ATOM     45  C   UNL A   1      44.422  32.094  31.156  1.00  0.00     0.031 C 
ATOM     46  C   UNL A   1      41.873  27.897  30.089  1.00  0.00     0.029 A 
ATOM     47  N   UNL A   1      44.009  27.995  29.427  1.00  0.00    -0.354 N 
ATOM     48  C   UNL A   1      46.413  31.522  30.196  1.00  0.00     0.074 A 
ATOM     49  C   UNL A   1      45.652  32.519  30.913  1.00  0.00     0.031 C 
ATOM     50  C   UNL A   1      42.167  26.732  29.485  1.00  0.00     0.029 A 
ATOM     51  C   UNL A   1      43.543  26.775  28.993  1.00  0.00     0.049 A 
ATOM     52  H   UNL A   1      44.939  28.292  29.302  1.00  0.00     0.167 HD
ATOM     53  C   UNL A   1      47.718  31.655  29.867  1.00  0.00     0.037 A 
ATOM     54  C   UNL A   1      44.152  25.825  28.254  1.00  0.00     0.037 A 
ATOM     55  C   UNL A   1      48.468  30.659  29.148  1.00  0.00     0.049 A 
ATOM     56  C   UNL A   1      45.586  26.033  27.824  1.00  0.00     0.074 A 
ATOM     57  C   UNL A   1      49.796  30.697  28.762  1.00  0.00     0.029 A 
ATOM     58  N   UNL A   1      47.956  29.449  28.705  1.00  0.00    -0.354 N 
ATOM     59  N   UNL A   1      46.387  27.042  28.075  1.00  0.00    -0.248 NA
ATOM     60  C   UNL A   1      46.201  24.971  27.013  1.00  0.00     0.031 C 
ATOM     61  C   UNL A   1      50.073  29.534  28.039  1.00  0.00     0.029 A 
ATOM     62  C   UNL A   1      48.935  28.741  28.031  1.00  0.00     0.049 A 
ATOM     63  H   UNL A   1      47.033  29.139  28.850  1.00  0.00     0.167 HD
ATOM     64  C   UNL A   1      47.607  26.719  27.484  1.00  0.00     0.074 A 
ATOM     65  C   UNL A   1      47.441  25.417  26.875  1.00  0.00     0.031 C 
ATOM     66  C   UNL A   1      48.759  27.435  27.448  1.00  0.00     0.037 A 
BRANCH  53  67
ATOM     67  C   UNL A   1      48.414  32.927  30.261  1.00  0.00     0.058 A 
ATOM     68  C   UNL A   1      48.430  34.051  29.420  1.00  0.00     0.135 A 
ATOM     69  C   UNL A   1      49.027  33.042  31.520  1.00  0.00     0.135 A 
ATOM     70  F   UNL A   1      47.881  33.988  28.196  1.00  0.00    -0.206 F 
ATOM     71  C   UNL A   1      49.036  35.240  29.808  1.00  0.00     0.059 A 
ATOM     72  C   UNL A   1      49.614  34.231  31.940  1.00  0.00     0.059 A 
ATOM     73  F   UNL A   1      49.050  31.995  32.358  1.00  0.00    -0.206 F 
ATOM     74  C   UNL A   1      49.618  35.324  31.075  1.00  0.00     0.060 A 
BRANCH  74  75
ATOM     75  S   UNL A   1      50.363  36.889  31.578  1.00  0.00     0.124 S 
ATOM     76  O   UNL A   1      51.494  36.982  30.659  1.00  0.00    -0.237 OA
ATOM     77  O   UNL A   1      49.279  37.837  31.345  1.00  0.00    -0.237 OA
ATOM     78  O   UNL A   1      50.710  36.668  32.978  1.00  0.00    -0.744 OA
ENDBRANCH  74  75
ENDBRANCH  53  67
BRANCH  54  79
ATOM     79  C   UNL A   1      43.410  24.601  27.837  1.00  0.00     0.058 A 
ATOM     80  C   UNL A   1      42.740  24.535  26.606  1.00  0.00     0.135 A 
ATOM     81  C   UNL A   1      43.321  23.485  28.686  1.00  0.00     0.135 A 
ATOM     82  F   UNL A   1      42.781  25.579  25.764  1.00  0.00    -0.206 F 
ATOM     83  C   UNL A   1      41.983  23.423  26.245  1.00  0.00     0.059 A 
ATOM     84  C   UNL A   1      42.598  22.350  28.333  1.00  0.00     0.059 A 
ATOM     85  F   UNL A   1      43.949  23.490  29.873  1.00  0.00    -0.206 F 
ATOM     86  C   UNL A   1      41.918  22.336  27.117  1.00  0.00     0.060 A 
BRANCH  86  87
ATOM     87  S   UNL A   1      40.948  20.891  26.630  1.00  0.00     0.124 S 
ATOM     88  O   UNL A   1      41.856  20.226  25.703  1.00  0.00    -0.237 OA
ATOM     89  O   UNL A   1      40.736  20.221  27.909  1.00  0.00    -0.237 OA
ATOM     90  O   UNL A   1      39.752  21.476  26.031  1.00  0.00    -0.744 OA
ENDBRANCH  86  87
ENDBRANCH  54  79
BRANCH  66  91
ATOM     91  C   UNL A   1      49.952  26.808  26.776  1.00  0.00     0.058 A 
ATOM     92  C   UNL A   1      50.296  27.100  25.447  1.00  0.00     0.135 A 
ATOM     93  C   UNL A   1      50.799  25.950  27.497  1.00  0.00     0.135 A 
ATOM     94  F   UNL A   1      49.520  27.911  24.710  1.00  0.00    -0.206 F 
ATOM     95  C   UNL A   1      51.422  26.542  24.849  1.00  0.00     0.059 A 
ATOM     96  C   UNL A   1      51.948  25.408  26.929  1.00  0.00     0.059 A 
ATOM     97  F   UNL A   1      50.528  25.648  28.777  1.00  0.00    -0.206 F 
ATOM     98  C   UNL A   1      52.243  25.700  25.599  1.00  0.00     0.060 A 
BRANCH  98  99
ATOM     99  S   UNL A   1      53.719  25.010  24.819  1.00  0.00     0.124 S 
ATOM    100  O   UNL A   1      54.783  25.700  25.540  1.00  0.00    -0.237 OA
ATOM    101  O   UNL A   1      53.582  23.584  25.101  1.00  0.00    -0.237 OA
ATOM    102  O   UNL A   1      53.568  25.383  23.415  1.00  0.00    -0.744 OA
ENDBRANCH  98  99
ENDBRANCH  66  91
ENDBRANCH  40  41
ENDBRANCH  33  35
ENDBRANCH  32  33
ENDBRANCH  31  32
ENDBRANCH  30  31
ENDBRANCH  29  30
ENDBRANCH  28  29
ENDBRANCH  27  28
ENDBRANCH  26  27
ENDBRANCH   1  26
TORSDOF 27
ENDMDL
