MODEL 1
REMARK VINA RESULT:      -9.0      0.000      0.000
REMARK SMILES O=C(Nc1ccsc1C(=O)OCCOCCOCCOCCOC(=O)c1ccc(-c2c3nc(c(-c4c(F)cc(S(=O)(=O)[O-])cc4F)c4ccc([nH]4)c(-c4c(F)cc(S(=O)(=O)[O-])cc4F)c4nc(c(-c5c(F)cc(S(=O)(=O)[O-])cc5F)c5ccc2[nH]5)C=C4)C=C3)cc1)c1ccc(Br)nc1
REMARK SMILES IDX 18 1 17 2 16 3 15 4 14 5 13 6 12 7 11 8 9 9 10 10 8 11 4 12
REMARK SMILES IDX 5 13 6 14 7 15 3 16 1 17 2 18 92 20 93 21 98 22 94 23 97 24
REMARK SMILES IDX 95 25 96 26 19 27 20 28 21 29 22 30 23 31 24 32 25 33 26 34
REMARK SMILES IDX 27 35 91 36 28 37 90 38 29 39 30 40 31 41 84 42 32 43 89 44
REMARK SMILES IDX 83 45 85 46 33 47 88 48 82 49 81 50 34 52 68 53 47 54 67 55
REMARK SMILES IDX 48 56 51 57 66 58 86 59 49 60 50 61 65 63 87 64 52 65 35 66
REMARK SMILES IDX 36 67 45 68 37 69 38 70 44 71 46 72 39 73 40 74 41 75 42 76
REMARK SMILES IDX 43 77 69 78 70 79 79 80 71 81 72 82 78 83 80 84 73 85 74 86
REMARK SMILES IDX 75 87 76 88 77 89 53 90 54 91 63 92 55 93 56 94 62 95 64 96
REMARK SMILES IDX 57 97 58 98 59 99 60 100 61 101
REMARK H PARENT 3 19 85 51 51 62
REMARK Flexibility Score: inf
ROOT
ATOM      1  C   UNL A   1      39.701  21.698  26.553  1.00  0.00     0.188 C 
ENDROOT
BRANCH   1   2
ATOM      2  O   UNL A   1      38.904  22.048  25.421  1.00  0.00    -0.377 OA
BRANCH   2   3
ATOM      3  C   UNL A   1      37.501  22.114  25.622  1.00  0.00     0.188 C 
BRANCH   3   4
ATOM      4  C   UNL A   1      36.719  21.341  24.549  1.00  0.00     0.188 C 
BRANCH   4   5
ATOM      5  O   UNL A   1      35.754  20.448  25.100  1.00  0.00    -0.376 OA
BRANCH   5   6
ATOM      6  C   UNL A   1      34.421  20.938  25.220  1.00  0.00     0.202 C 
BRANCH   6   7
ATOM      7  C   UNL A   1      33.293  20.090  24.604  1.00  0.00     0.261 C 
BRANCH   7   8
ATOM      8  O   UNL A   1      32.048  20.774  24.380  1.00  0.00    -0.459 OA
BRANCH   8   9
ATOM      9  C   UNL A   1      32.076  21.969  23.736  1.00  0.00     0.350 C 
ATOM     10  O   UNL A   1      32.539  22.127  22.612  1.00  0.00    -0.245 OA
BRANCH   9  11
ATOM     11  C   UNL A   1      31.372  22.965  24.535  1.00  0.00     0.136 A 
ATOM     12  C   UNL A   1      31.044  24.295  24.269  1.00  0.00     0.067 A 
ATOM     13  C   UNL A   1      30.382  24.887  25.394  1.00  0.00     0.039 A 
ATOM     14  C   UNL A   1      30.303  24.047  26.480  1.00  0.00     0.068 A 
ATOM     15  S   UNL A   1      30.927  22.506  26.133  1.00  0.00    -0.135 S 
BRANCH  12  16
ATOM     16  N   UNL A   1      31.316  24.902  23.041  1.00  0.00    -0.320 N 
ATOM     17  O   UNL A   1      31.454  26.592  21.536  1.00  0.00    -0.269 OA
ATOM     18  C   UNL A   1      31.530  26.219  22.704  1.00  0.00     0.257 C 
ATOM     19  H   UNL A   1      31.366  24.276  22.282  1.00  0.00     0.170 HD
BRANCH  18  20
ATOM     20  C   UNL A   1      31.918  27.215  23.709  1.00  0.00     0.058 A 
ATOM     21  C   UNL A   1      33.172  27.160  24.317  1.00  0.00     0.018 A 
ATOM     22  C   UNL A   1      31.025  28.192  24.120  1.00  0.00     0.126 A 
ATOM     23  C   UNL A   1      33.508  28.130  25.260  1.00  0.00     0.037 A 
ATOM     24  N   UNL A   1      31.333  29.158  25.021  1.00  0.00    -0.249 NA
ATOM     25  C   UNL A   1      32.569  29.106  25.569  1.00  0.00     0.106 A 
ATOM     26  Br  UNL A   1      33.035  30.466  26.806  1.00  0.00    -0.029 Br
ENDBRANCH  18  20
ENDBRANCH  12  16
ENDBRANCH   9  11
ENDBRANCH   8   9
ENDBRANCH   7   8
ENDBRANCH   6   7
ENDBRANCH   5   6
ENDBRANCH   4   5
ENDBRANCH   3   4
ENDBRANCH   2   3
ENDBRANCH   1   2
BRANCH   1  27
ATOM     27  C   UNL A   1      41.240  21.726  26.449  1.00  0.00     0.188 C 
BRANCH  27  28
ATOM     28  O   UNL A   1      41.883  20.825  27.356  1.00  0.00    -0.376 OA
BRANCH  28  29
ATOM     29  C   UNL A   1      41.789  19.440  27.032  1.00  0.00     0.202 C 
BRANCH  29  30
ATOM     30  C   UNL A   1      42.395  19.079  25.668  1.00  0.00     0.261 C 
BRANCH  30  31
ATOM     31  O   UNL A   1      43.829  19.147  25.608  1.00  0.00    -0.460 OA
BRANCH  31  32
ATOM     32  C   UNL A   1      44.368  19.919  24.640  1.00  0.00     0.338 C 
ATOM     33  O   UNL A   1      44.598  19.598  23.489  1.00  0.00    -0.246 OA
BRANCH  32  34
ATOM     34  C   UNL A   1      44.463  21.299  25.156  1.00  0.00     0.060 A 
ATOM     35  C   UNL A   1      44.133  22.358  24.302  1.00  0.00     0.016 A 
ATOM     36  C   UNL A   1      44.890  21.544  26.463  1.00  0.00     0.016 A 
ATOM     37  C   UNL A   1      44.279  23.675  24.742  1.00  0.00     0.010 A 
ATOM     38  C   UNL A   1      45.050  22.861  26.896  1.00  0.00     0.010 A 
ATOM     39  C   UNL A   1      44.782  23.931  26.025  1.00  0.00    -0.014 A 
BRANCH  39  40
ATOM     40  C   UNL A   1      45.209  25.301  26.392  1.00  0.00     0.031 A 
ATOM     41  C   UNL A   1      44.170  26.253  26.920  1.00  0.00     0.074 A 
ATOM     42  C   UNL A   1      46.486  25.695  26.254  1.00  0.00     0.049 A 
ATOM     43  N   UNL A   1      44.293  27.508  27.264  1.00  0.00    -0.248 NA
ATOM     44  C   UNL A   1      42.808  25.714  27.076  1.00  0.00     0.031 C 
ATOM     45  C   UNL A   1      47.583  24.859  25.771  1.00  0.00     0.029 A 
ATOM     46  N   UNL A   1      47.071  26.912  26.498  1.00  0.00    -0.354 N 
ATOM     47  C   UNL A   1      43.029  27.910  27.677  1.00  0.00     0.074 A 
ATOM     48  C   UNL A   1      42.146  26.776  27.513  1.00  0.00     0.031 C 
ATOM     49  C   UNL A   1      48.709  25.595  25.739  1.00  0.00     0.029 A 
ATOM     50  C   UNL A   1      48.406  26.957  26.177  1.00  0.00     0.049 A 
ATOM     51  H   UNL A   1      46.580  27.681  26.867  1.00  0.00     0.167 HD
ATOM     52  C   UNL A   1      42.639  29.115  28.155  1.00  0.00     0.037 A 
ATOM     53  C   UNL A   1      49.276  27.986  26.214  1.00  0.00     0.037 A 
ATOM     54  C   UNL A   1      43.514  30.246  28.304  1.00  0.00     0.049 A 
ATOM     55  C   UNL A   1      48.806  29.335  26.694  1.00  0.00     0.074 A 
ATOM     56  C   UNL A   1      43.218  31.505  28.794  1.00  0.00     0.029 A 
ATOM     57  N   UNL A   1      44.857  30.256  27.956  1.00  0.00    -0.354 N 
ATOM     58  N   UNL A   1      47.615  29.694  27.113  1.00  0.00    -0.248 NA
ATOM     59  C   UNL A   1      49.798  30.421  26.707  1.00  0.00     0.031 C 
ATOM     60  C   UNL A   1      44.374  32.290  28.704  1.00  0.00     0.029 A 
ATOM     61  C   UNL A   1      45.398  31.505  28.199  1.00  0.00     0.049 A 
ATOM     62  H   UNL A   1      45.350  29.487  27.589  1.00  0.00     0.167 HD
ATOM     63  C   UNL A   1      47.722  31.036  27.464  1.00  0.00     0.074 A 
ATOM     64  C   UNL A   1      49.095  31.425  27.213  1.00  0.00     0.031 C 
ATOM     65  C   UNL A   1      46.771  31.873  27.950  1.00  0.00     0.037 A 
BRANCH  52  66
ATOM     66  C   UNL A   1      41.192  29.271  28.528  1.00  0.00     0.058 A 
ATOM     67  C   UNL A   1      40.188  29.360  27.551  1.00  0.00     0.135 A 
ATOM     68  C   UNL A   1      40.804  29.325  29.876  1.00  0.00     0.135 A 
ATOM     69  F   UNL A   1      40.508  29.335  26.248  1.00  0.00    -0.206 F 
ATOM     70  C   UNL A   1      38.851  29.525  27.897  1.00  0.00     0.059 A 
ATOM     71  C   UNL A   1      39.471  29.467  30.245  1.00  0.00     0.059 A 
ATOM     72  F   UNL A   1      41.727  29.251  30.848  1.00  0.00    -0.206 F 
ATOM     73  C   UNL A   1      38.502  29.581  29.248  1.00  0.00     0.060 A 
BRANCH  73  74
ATOM     74  S   UNL A   1      36.765  29.803  29.685  1.00  0.00     0.124 S 
ATOM     75  O   UNL A   1      36.661  28.982  30.887  1.00  0.00    -0.237 OA
ATOM     76  O   UNL A   1      36.675  31.244  29.893  1.00  0.00    -0.237 OA
ATOM     77  O   UNL A   1      36.054  29.296  28.515  1.00  0.00    -0.744 OA
ENDBRANCH  73  74
ENDBRANCH  52  66
BRANCH  53  78
ATOM     78  C   UNL A   1      50.683  27.785  25.778  1.00  0.00     0.058 A 
ATOM     79  C   UNL A   1      51.693  27.500  26.707  1.00  0.00     0.135 A 
ATOM     80  C   UNL A   1      51.043  27.876  24.425  1.00  0.00     0.135 A 
ATOM     81  F   UNL A   1      51.400  27.417  28.013  1.00  0.00    -0.206 F 
ATOM     82  C   UNL A   1      53.016  27.323  26.312  1.00  0.00     0.059 A 
ATOM     83  C   UNL A   1      52.355  27.681  24.003  1.00  0.00     0.059 A 
ATOM     84  F   UNL A   1      50.111  28.143  23.497  1.00  0.00    -0.206 F 
ATOM     85  C   UNL A   1      53.336  27.413  24.957  1.00  0.00     0.060 A 
BRANCH  85  86
ATOM     86  S   UNL A   1      55.047  27.130  24.449  1.00  0.00     0.124 S 
ATOM     87  O   UNL A   1      55.631  28.453  24.634  1.00  0.00    -0.237 OA
ATOM     88  O   UNL A   1      55.481  26.102  25.390  1.00  0.00    -0.237 OA
ATOM     89  O   UNL A   1      54.916  26.685  23.065  1.00  0.00    -0.744 OA
ENDBRANCH  85  86
ENDBRANCH  53  78
BRANCH  65  90
ATOM     90  C   UNL A   1      47.184  33.280  28.278  1.00  0.00     0.058 A 
ATOM     91  C   UNL A   1      47.711  33.619  29.534  1.00  0.00     0.135 A 
ATOM     92  C   UNL A   1      47.112  34.287  27.302  1.00  0.00     0.135 A 
ATOM     93  F   UNL A   1      47.797  32.694  30.503  1.00  0.00    -0.206 F 
ATOM     94  C   UNL A   1      48.134  34.914  29.817  1.00  0.00     0.059 A 
ATOM     95  C   UNL A   1      47.550  35.583  27.556  1.00  0.00     0.059 A 
ATOM     96  F   UNL A   1      46.627  34.011  26.081  1.00  0.00    -0.206 F 
ATOM     97  C   UNL A   1      48.051  35.889  28.821  1.00  0.00     0.060 A 
BRANCH  97  98
ATOM     98  S   UNL A   1      48.641  37.557  29.185  1.00  0.00     0.124 S 
ATOM     99  O   UNL A   1      48.601  38.177  27.865  1.00  0.00    -0.237 OA
ATOM    100  O   UNL A   1      47.649  38.039  30.142  1.00  0.00    -0.237 OA
ATOM    101  O   UNL A   1      49.974  37.332  29.735  1.00  0.00    -0.744 OA
ENDBRANCH  97  98
ENDBRANCH  65  90
ENDBRANCH  39  40
ENDBRANCH  32  34
ENDBRANCH  31  32
ENDBRANCH  30  31
ENDBRANCH  29  30
ENDBRANCH  28  29
ENDBRANCH  27  28
ENDBRANCH   1  27
TORSDOF 25
ENDMDL
MODEL 2
REMARK VINA RESULT:      -8.6      1.538      2.187
REMARK SMILES O=C(Nc1ccsc1C(=O)OCCOCCOCCOCCOC(=O)c1ccc(-c2c3nc(c(-c4c(F)cc(S(=O)(=O)[O-])cc4F)c4ccc([nH]4)c(-c4c(F)cc(S(=O)(=O)[O-])cc4F)c4nc(c(-c5c(F)cc(S(=O)(=O)[O-])cc5F)c5ccc2[nH]5)C=C4)C=C3)cc1)c1ccc(Br)nc1
REMARK SMILES IDX 18 1 17 2 16 3 15 4 14 5 13 6 12 7 11 8 9 9 10 10 8 11 4 12
REMARK SMILES IDX 5 13 6 14 7 15 3 16 1 17 2 18 92 20 93 21 98 22 94 23 97 24
REMARK SMILES IDX 95 25 96 26 19 27 20 28 21 29 22 30 23 31 24 32 25 33 26 34
REMARK SMILES IDX 27 35 91 36 28 37 90 38 29 39 30 40 31 41 84 42 32 43 89 44
REMARK SMILES IDX 83 45 85 46 33 47 88 48 82 49 81 50 34 52 68 53 47 54 67 55
REMARK SMILES IDX 48 56 51 57 66 58 86 59 49 60 50 61 65 63 87 64 52 65 35 66
REMARK SMILES IDX 36 67 45 68 37 69 38 70 44 71 46 72 39 73 40 74 41 75 42 76
REMARK SMILES IDX 43 77 69 78 70 79 79 80 71 81 72 82 78 83 80 84 73 85 74 86
REMARK SMILES IDX 75 87 76 88 77 89 53 90 54 91 63 92 55 93 56 94 62 95 64 96
REMARK SMILES IDX 57 97 58 98 59 99 60 100 61 101
REMARK H PARENT 3 19 85 51 51 62
REMARK Flexibility Score: inf
ROOT
ATOM      1  C   UNL A   1      39.651  21.444  26.398  1.00  0.00     0.188 C 
ENDROOT
BRANCH   1   2
ATOM      2  O   UNL A   1      38.733  21.880  25.394  1.00  0.00    -0.377 OA
BRANCH   2   3
ATOM      3  C   UNL A   1      37.358  21.881  25.741  1.00  0.00     0.188 C 
BRANCH   3   4
ATOM      4  C   UNL A   1      36.555  20.832  24.958  1.00  0.00     0.188 C 
BRANCH   4   5
ATOM      5  O   UNL A   1      35.296  20.535  25.555  1.00  0.00    -0.376 OA
BRANCH   5   6
ATOM      6  C   UNL A   1      34.240  21.463  25.325  1.00  0.00     0.202 C 
BRANCH   6   7
ATOM      7  C   UNL A   1      33.935  21.845  23.865  1.00  0.00     0.261 C 
BRANCH   7   8
ATOM      8  O   UNL A   1      33.130  23.024  23.682  1.00  0.00    -0.459 OA
BRANCH   8   9
ATOM      9  C   UNL A   1      33.500  24.162  24.322  1.00  0.00     0.350 C 
ATOM     10  O   UNL A   1      34.624  24.649  24.253  1.00  0.00    -0.245 OA
BRANCH   9  11
ATOM     11  C   UNL A   1      32.337  24.749  24.976  1.00  0.00     0.136 A 
ATOM     12  C   UNL A   1      32.103  26.038  25.458  1.00  0.00     0.067 A 
ATOM     13  C   UNL A   1      30.810  26.121  26.070  1.00  0.00     0.039 A 
ATOM     14  C   UNL A   1      30.151  24.915  26.113  1.00  0.00     0.068 A 
ATOM     15  S   UNL A   1      31.028  23.689  25.330  1.00  0.00    -0.135 S 
BRANCH  12  16
ATOM     16  N   UNL A   1      33.026  27.073  25.303  1.00  0.00    -0.320 N 
ATOM     17  O   UNL A   1      34.080  28.788  24.258  1.00  0.00    -0.269 OA
ATOM     18  C   UNL A   1      33.044  28.158  24.456  1.00  0.00     0.257 C 
ATOM     19  H   UNL A   1      33.802  27.018  25.906  1.00  0.00     0.170 HD
BRANCH  18  20
ATOM     20  C   UNL A   1      31.821  28.647  23.809  1.00  0.00     0.058 A 
ATOM     21  C   UNL A   1      31.025  29.610  24.429  1.00  0.00     0.018 A 
ATOM     22  C   UNL A   1      31.399  28.117  22.599  1.00  0.00     0.126 A 
ATOM     23  C   UNL A   1      29.876  30.056  23.778  1.00  0.00     0.037 A 
ATOM     24  N   UNL A   1      30.296  28.545  21.937  1.00  0.00    -0.249 NA
ATOM     25  C   UNL A   1      29.561  29.508  22.540  1.00  0.00     0.106 A 
ATOM     26  Br  UNL A   1      28.033  30.148  21.618  1.00  0.00    -0.029 Br
ENDBRANCH  18  20
ENDBRANCH  12  16
ENDBRANCH   9  11
ENDBRANCH   8   9
ENDBRANCH   7   8
ENDBRANCH   6   7
ENDBRANCH   5   6
ENDBRANCH   4   5
ENDBRANCH   3   4
ENDBRANCH   2   3
ENDBRANCH   1   2
BRANCH   1  27
ATOM     27  C   UNL A   1      41.169  21.592  26.170  1.00  0.00     0.188 C 
BRANCH  27  28
ATOM     28  O   UNL A   1      41.945  20.629  26.889  1.00  0.00    -0.376 OA
BRANCH  28  29
ATOM     29  C   UNL A   1      41.758  19.268  26.509  1.00  0.00     0.202 C 
BRANCH  29  30
ATOM     30  C   UNL A   1      42.673  18.812  25.364  1.00  0.00     0.261 C 
BRANCH  30  31
ATOM     31  O   UNL A   1      44.036  19.253  25.471  1.00  0.00    -0.460 OA
BRANCH  31  32
ATOM     32  C   UNL A   1      44.479  20.113  24.528  1.00  0.00     0.338 C 
ATOM     33  O   UNL A   1      44.590  19.901  23.335  1.00  0.00    -0.246 OA
BRANCH  32  34
ATOM     34  C   UNL A   1      44.633  21.440  25.157  1.00  0.00     0.060 A 
ATOM     35  C   UNL A   1      44.288  22.577  24.417  1.00  0.00     0.016 A 
ATOM     36  C   UNL A   1      45.131  21.560  26.457  1.00  0.00     0.016 A 
ATOM     37  C   UNL A   1      44.490  23.846  24.962  1.00  0.00     0.010 A 
ATOM     38  C   UNL A   1      45.344  22.830  26.995  1.00  0.00     0.010 A 
ATOM     39  C   UNL A   1      45.061  23.977  26.236  1.00  0.00    -0.014 A 
BRANCH  39  40
ATOM     40  C   UNL A   1      45.540  25.301  26.699  1.00  0.00     0.031 A 
ATOM     41  C   UNL A   1      44.603  26.150  27.515  1.00  0.00     0.074 A 
ATOM     42  C   UNL A   1      46.772  25.742  26.397  1.00  0.00     0.049 A 
ATOM     43  N   UNL A   1      44.779  27.354  27.993  1.00  0.00    -0.248 NA
ATOM     44  C   UNL A   1      43.291  25.561  27.830  1.00  0.00     0.031 C 
ATOM     45  C   UNL A   1      47.772  25.003  25.630  1.00  0.00     0.029 A 
ATOM     46  N   UNL A   1      47.385  26.933  26.693  1.00  0.00    -0.354 N 
ATOM     47  C   UNL A   1      43.603  27.667  28.663  1.00  0.00     0.074 A 
ATOM     48  C   UNL A   1      42.710  26.541  28.507  1.00  0.00     0.031 C 
ATOM     49  C   UNL A   1      48.873  25.766  25.502  1.00  0.00     0.029 A 
ATOM     50  C   UNL A   1      48.645  27.053  26.158  1.00  0.00     0.049 A 
ATOM     51  H   UNL A   1      46.962  27.637  27.237  1.00  0.00     0.167 HD
ATOM     52  C   UNL A   1      43.297  28.792  29.353  1.00  0.00     0.037 A 
ATOM     53  C   UNL A   1      49.504  28.092  26.179  1.00  0.00     0.037 A 
ATOM     54  C   UNL A   1      44.180  29.917  29.495  1.00  0.00     0.049 A 
ATOM     55  C   UNL A   1      49.119  29.357  26.903  1.00  0.00     0.074 A 
ATOM     56  C   UNL A   1      43.968  31.096  30.187  1.00  0.00     0.029 A 
ATOM     57  N   UNL A   1      45.443  30.006  28.927  1.00  0.00    -0.354 N 
ATOM     58  N   UNL A   1      48.017  29.628  27.562  1.00  0.00    -0.248 NA
ATOM     59  C   UNL A   1      50.094  30.457  26.887  1.00  0.00     0.031 C 
ATOM     60  C   UNL A   1      45.088  31.915  30.004  1.00  0.00     0.029 A 
ATOM     61  C   UNL A   1      46.013  31.228  29.235  1.00  0.00     0.049 A 
ATOM     62  H   UNL A   1      45.868  29.303  28.386  1.00  0.00     0.167 HD
ATOM     63  C   UNL A   1      48.177  30.917  28.060  1.00  0.00     0.074 A 
ATOM     64  C   UNL A   1      49.485  31.371  27.631  1.00  0.00     0.031 C 
ATOM     65  C   UNL A   1      47.321  31.660  28.805  1.00  0.00     0.037 A 
BRANCH  52  66
ATOM     66  C   UNL A   1      41.936  28.861  29.983  1.00  0.00     0.058 A 
ATOM     67  C   UNL A   1      40.819  29.326  29.271  1.00  0.00     0.135 A 
ATOM     68  C   UNL A   1      41.743  28.452  31.313  1.00  0.00     0.135 A 
ATOM     69  F   UNL A   1      40.954  29.750  28.004  1.00  0.00    -0.206 F 
ATOM     70  C   UNL A   1      39.563  29.409  29.862  1.00  0.00     0.059 A 
ATOM     71  C   UNL A   1      40.491  28.505  31.917  1.00  0.00     0.059 A 
ATOM     72  F   UNL A   1      42.780  28.006  32.039  1.00  0.00    -0.206 F 
ATOM     73  C   UNL A   1      39.410  29.000  31.189  1.00  0.00     0.060 A 
BRANCH  73  74
ATOM     74  S   UNL A   1      37.777  29.120  31.948  1.00  0.00     0.124 S 
ATOM     75  O   UNL A   1      37.764  27.933  32.797  1.00  0.00    -0.237 OA
ATOM     76  O   UNL A   1      37.849  30.397  32.648  1.00  0.00    -0.237 OA
ATOM     77  O   UNL A   1      36.868  29.085  30.806  1.00  0.00    -0.744 OA
ENDBRANCH  73  74
ENDBRANCH  52  66
BRANCH  53  78
ATOM     78  C   UNL A   1      50.816  27.985  25.487  1.00  0.00     0.058 A 
ATOM     79  C   UNL A   1      50.909  28.101  24.093  1.00  0.00     0.135 A 
ATOM     80  C   UNL A   1      51.999  27.763  26.207  1.00  0.00     0.135 A 
ATOM     81  F   UNL A   1      49.802  28.300  23.361  1.00  0.00    -0.206 F 
ATOM     82  C   UNL A   1      52.129  27.989  23.433  1.00  0.00     0.059 A 
ATOM     83  C   UNL A   1      53.234  27.669  25.572  1.00  0.00     0.059 A 
ATOM     84  F   UNL A   1      51.963  27.649  27.544  1.00  0.00    -0.206 F 
ATOM     85  C   UNL A   1      53.287  27.776  24.183  1.00  0.00     0.060 A 
BRANCH  85  86
ATOM     86  S   UNL A   1      54.873  27.685  23.322  1.00  0.00     0.124 S 
ATOM     87  O   UNL A   1      55.748  27.174  24.371  1.00  0.00    -0.237 OA
ATOM     88  O   UNL A   1      54.578  26.761  22.231  1.00  0.00    -0.237 OA
ATOM     89  O   UNL A   1      55.113  29.066  22.915  1.00  0.00    -0.744 OA
ENDBRANCH  85  86
ENDBRANCH  53  78
BRANCH  65  90
ATOM     90  C   UNL A   1      47.779  33.025  29.237  1.00  0.00     0.058 A 
ATOM     91  C   UNL A   1      47.545  34.163  28.451  1.00  0.00     0.135 A 
ATOM     92  C   UNL A   1      48.402  33.203  30.483  1.00  0.00     0.135 A 
ATOM     93  F   UNL A   1      46.957  34.046  27.250  1.00  0.00    -0.206 F 
ATOM     94  C   UNL A   1      47.931  35.430  28.876  1.00  0.00     0.059 A 
ATOM     95  C   UNL A   1      48.775  34.464  30.938  1.00  0.00     0.059 A 
ATOM     96  F   UNL A   1      48.637  32.148  31.279  1.00  0.00    -0.206 F 
ATOM     97  C   UNL A   1      48.545  35.571  30.123  1.00  0.00     0.060 A 
BRANCH  97  98
ATOM     98  S   UNL A   1      49.005  37.225  30.684  1.00  0.00     0.124 S 
ATOM     99  O   UNL A   1      49.526  37.817  29.455  1.00  0.00    -0.237 OA
ATOM    100  O   UNL A   1      47.733  37.762  31.157  1.00  0.00    -0.237 OA
ATOM    101  O   UNL A   1      49.995  36.965  31.725  1.00  0.00    -0.744 OA
ENDBRANCH  97  98
ENDBRANCH  65  90
ENDBRANCH  39  40
ENDBRANCH  32  34
ENDBRANCH  31  32
ENDBRANCH  30  31
ENDBRANCH  29  30
ENDBRANCH  28  29
ENDBRANCH  27  28
ENDBRANCH   1  27
TORSDOF 25
ENDMDL
MODEL 3
REMARK VINA RESULT:      -8.5      1.667      8.090
REMARK SMILES O=C(Nc1ccsc1C(=O)OCCOCCOCCOCCOC(=O)c1ccc(-c2c3nc(c(-c4c(F)cc(S(=O)(=O)[O-])cc4F)c4ccc([nH]4)c(-c4c(F)cc(S(=O)(=O)[O-])cc4F)c4nc(c(-c5c(F)cc(S(=O)(=O)[O-])cc5F)c5ccc2[nH]5)C=C4)C=C3)cc1)c1ccc(Br)nc1
REMARK SMILES IDX 18 1 17 2 16 3 15 4 14 5 13 6 12 7 11 8 9 9 10 10 8 11 4 12
REMARK SMILES IDX 5 13 6 14 7 15 3 16 1 17 2 18 92 20 93 21 98 22 94 23 97 24
REMARK SMILES IDX 95 25 96 26 19 27 20 28 21 29 22 30 23 31 24 32 25 33 26 34
REMARK SMILES IDX 27 35 91 36 28 37 90 38 29 39 30 40 31 41 84 42 32 43 89 44
REMARK SMILES IDX 83 45 85 46 33 47 88 48 82 49 81 50 34 52 68 53 47 54 67 55
REMARK SMILES IDX 48 56 51 57 66 58 86 59 49 60 50 61 65 63 87 64 52 65 35 66
REMARK SMILES IDX 36 67 45 68 37 69 38 70 44 71 46 72 39 73 40 74 41 75 42 76
REMARK SMILES IDX 43 77 69 78 70 79 79 80 71 81 72 82 78 83 80 84 73 85 74 86
REMARK SMILES IDX 75 87 76 88 77 89 53 90 54 91 63 92 55 93 56 94 62 95 64 96
REMARK SMILES IDX 57 97 58 98 59 99 60 100 61 101
REMARK H PARENT 3 19 85 51 51 62
REMARK Flexibility Score: inf
ROOT
ATOM      1  C   UNL A   1      39.607  21.357  26.370  1.00  0.00     0.188 C 
ENDROOT
BRANCH   1   2
ATOM      2  O   UNL A   1      38.694  21.781  25.356  1.00  0.00    -0.377 OA
BRANCH   2   3
ATOM      3  C   UNL A   1      37.318  21.796  25.700  1.00  0.00     0.188 C 
BRANCH   3   4
ATOM      4  C   UNL A   1      36.514  20.723  24.949  1.00  0.00     0.188 C 
BRANCH   4   5
ATOM      5  O   UNL A   1      35.264  20.431  25.567  1.00  0.00    -0.376 OA
BRANCH   5   6
ATOM      6  C   UNL A   1      34.209  21.365  25.357  1.00  0.00     0.202 C 
BRANCH   6   7
ATOM      7  C   UNL A   1      33.875  21.746  23.903  1.00  0.00     0.261 C 
BRANCH   7   8
ATOM      8  O   UNL A   1      33.092  22.941  23.734  1.00  0.00    -0.459 OA
BRANCH   8   9
ATOM      9  C   UNL A   1      33.497  24.072  24.366  1.00  0.00     0.350 C 
ATOM     10  O   UNL A   1      34.633  24.527  24.288  1.00  0.00    -0.245 OA
BRANCH   9  11
ATOM     11  C   UNL A   1      32.354  24.692  25.024  1.00  0.00     0.136 A 
ATOM     12  C   UNL A   1      32.146  25.998  25.474  1.00  0.00     0.067 A 
ATOM     13  C   UNL A   1      30.866  26.116  26.107  1.00  0.00     0.039 A 
ATOM     14  C   UNL A   1      30.192  24.921  26.196  1.00  0.00     0.068 A 
ATOM     15  S   UNL A   1      31.037  23.661  25.432  1.00  0.00    -0.135 S 
BRANCH  12  16
ATOM     16  N   UNL A   1      33.081  27.015  25.273  1.00  0.00    -0.320 N 
ATOM     17  O   UNL A   1      34.125  28.698  24.169  1.00  0.00    -0.269 OA
ATOM     18  C   UNL A   1      33.087  28.089  24.412  1.00  0.00     0.257 C 
ATOM     19  H   UNL A   1      33.876  26.955  25.850  1.00  0.00     0.170 HD
BRANCH  18  20
ATOM     20  C   UNL A   1      31.850  28.589  23.801  1.00  0.00     0.058 A 
ATOM     21  C   UNL A   1      31.078  29.554  24.447  1.00  0.00     0.018 A 
ATOM     22  C   UNL A   1      31.392  28.070  22.600  1.00  0.00     0.126 A 
ATOM     23  C   UNL A   1      29.914  30.011  23.830  1.00  0.00     0.037 A 
ATOM     24  N   UNL A   1      30.275  28.510  21.970  1.00  0.00    -0.249 NA
ATOM     25  C   UNL A   1      29.562  29.473  22.599  1.00  0.00     0.106 A 
ATOM     26  Br  UNL A   1      28.014  30.130  21.721  1.00  0.00    -0.029 Br
ENDBRANCH  18  20
ENDBRANCH  12  16
ENDBRANCH   9  11
ENDBRANCH   8   9
ENDBRANCH   7   8
ENDBRANCH   6   7
ENDBRANCH   5   6
ENDBRANCH   4   5
ENDBRANCH   3   4
ENDBRANCH   2   3
ENDBRANCH   1   2
BRANCH   1  27
ATOM     27  C   UNL A   1      41.126  21.503  26.148  1.00  0.00     0.188 C 
BRANCH  27  28
ATOM     28  O   UNL A   1      41.896  20.516  26.839  1.00  0.00    -0.376 OA
BRANCH  28  29
ATOM     29  C   UNL A   1      41.761  19.177  26.369  1.00  0.00     0.202 C 
BRANCH  29  30
ATOM     30  C   UNL A   1      42.774  18.797  25.280  1.00  0.00     0.261 C 
BRANCH  30  31
ATOM     31  O   UNL A   1      44.098  19.318  25.481  1.00  0.00    -0.460 OA
BRANCH  31  32
ATOM     32  C   UNL A   1      44.558  20.199  24.566  1.00  0.00     0.338 C 
ATOM     33  O   UNL A   1      44.780  19.985  23.388  1.00  0.00    -0.246 OA
BRANCH  32  34
ATOM     34  C   UNL A   1      44.571  21.537  25.188  1.00  0.00     0.060 A 
ATOM     35  C   UNL A   1      44.270  22.649  24.392  1.00  0.00     0.016 A 
ATOM     36  C   UNL A   1      44.894  21.694  26.538  1.00  0.00     0.016 A 
ATOM     37  C   UNL A   1      44.343  23.932  24.938  1.00  0.00     0.010 A 
ATOM     38  C   UNL A   1      44.980  22.978  27.078  1.00  0.00     0.010 A 
ATOM     39  C   UNL A   1      44.742  24.103  26.270  1.00  0.00    -0.014 A 
BRANCH  39  40
ATOM     40  C   UNL A   1      45.098  25.452  26.769  1.00  0.00     0.031 A 
ATOM     41  C   UNL A   1      46.452  26.006  26.418  1.00  0.00     0.074 A 
ATOM     42  C   UNL A   1      44.244  26.165  27.523  1.00  0.00     0.049 A 
ATOM     43  N   UNL A   1      47.003  27.137  26.772  1.00  0.00    -0.248 NA
ATOM     44  C   UNL A   1      47.298  25.167  25.552  1.00  0.00     0.031 C 
ATOM     45  C   UNL A   1      42.901  25.742  27.913  1.00  0.00     0.029 A 
ATOM     46  N   UNL A   1      44.393  27.398  28.106  1.00  0.00    -0.354 N 
ATOM     47  C   UNL A   1      48.258  27.147  26.175  1.00  0.00     0.074 A 
ATOM     48  C   UNL A   1      48.399  25.898  25.460  1.00  0.00     0.031 C 
ATOM     49  C   UNL A   1      42.353  26.696  28.687  1.00  0.00     0.029 A 
ATOM     50  C   UNL A   1      43.314  27.784  28.864  1.00  0.00     0.049 A 
ATOM     51  H   UNL A   1      45.198  27.955  27.993  1.00  0.00     0.167 HD
ATOM     52  C   UNL A   1      49.205  28.113  26.215  1.00  0.00     0.037 A 
ATOM     53  C   UNL A   1      43.134  28.880  29.628  1.00  0.00     0.037 A 
ATOM     54  C   UNL A   1      49.069  29.349  26.938  1.00  0.00     0.049 A 
ATOM     55  C   UNL A   1      44.226  29.916  29.705  1.00  0.00     0.074 A 
ATOM     56  C   UNL A   1      49.965  30.398  27.028  1.00  0.00     0.029 A 
ATOM     57  N   UNL A   1      47.966  29.696  27.705  1.00  0.00    -0.354 N 
ATOM     58  N   UNL A   1      45.395  29.929  29.108  1.00  0.00    -0.248 NA
ATOM     59  C   UNL A   1      43.975  31.087  30.558  1.00  0.00     0.031 C 
ATOM     60  C   UNL A   1      49.421  31.364  27.882  1.00  0.00     0.029 A 
ATOM     61  C   UNL A   1      48.168  30.935  28.288  1.00  0.00     0.049 A 
ATOM     62  H   UNL A   1      47.160  29.143  27.817  1.00  0.00     0.167 HD
ATOM     63  C   UNL A   1      46.006  31.119  29.493  1.00  0.00     0.074 A 
ATOM     64  C   UNL A   1      45.076  31.802  30.369  1.00  0.00     0.031 C 
ATOM     65  C   UNL A   1      47.227  31.603  29.152  1.00  0.00     0.037 A 
BRANCH  52  66
ATOM     66  C   UNL A   1      50.483  27.854  25.470  1.00  0.00     0.058 A 
ATOM     67  C   UNL A   1      51.666  27.505  26.140  1.00  0.00     0.135 A 
ATOM     68  C   UNL A   1      50.524  27.948  24.069  1.00  0.00     0.135 A 
ATOM     69  F   UNL A   1      51.685  27.423  27.479  1.00  0.00    -0.206 F 
ATOM     70  C   UNL A   1      52.854  27.284  25.450  1.00  0.00     0.059 A 
ATOM     71  C   UNL A   1      51.695  27.709  23.358  1.00  0.00     0.059 A 
ATOM     72  F   UNL A   1      49.421  28.285  23.382  1.00  0.00    -0.206 F 
ATOM     73  C   UNL A   1      52.859  27.393  24.058  1.00  0.00     0.060 A 
BRANCH  73  74
ATOM     74  S   UNL A   1      54.408  27.112  23.175  1.00  0.00     0.124 S 
ATOM     75  O   UNL A   1      53.946  26.363  22.010  1.00  0.00    -0.237 OA
ATOM     76  O   UNL A   1      54.869  28.471  22.910  1.00  0.00    -0.237 OA
ATOM     77  O   UNL A   1      55.211  26.356  24.130  1.00  0.00    -0.744 OA
ENDBRANCH  73  74
ENDBRANCH  52  66
BRANCH  53  78
ATOM     78  C   UNL A   1      41.869  29.055  30.389  1.00  0.00     0.058 A 
ATOM     79  C   UNL A   1      41.694  28.459  31.646  1.00  0.00     0.135 A 
ATOM     80  C   UNL A   1      40.812  29.819  29.873  1.00  0.00     0.135 A 
ATOM     81  F   UNL A   1      42.672  27.709  32.175  1.00  0.00    -0.206 F 
ATOM     82  C   UNL A   1      40.510  28.606  32.362  1.00  0.00     0.059 A 
ATOM     83  C   UNL A   1      39.627  29.998  30.580  1.00  0.00     0.059 A 
ATOM     84  F   UNL A   1      40.932  30.413  28.676  1.00  0.00    -0.206 F 
ATOM     85  C   UNL A   1      39.482  29.380  31.821  1.00  0.00     0.060 A 
BRANCH  85  86
ATOM     86  S   UNL A   1      37.969  29.606  32.782  1.00  0.00     0.124 S 
ATOM     87  O   UNL A   1      37.098  30.255  31.809  1.00  0.00    -0.237 OA
ATOM     88  O   UNL A   1      37.620  28.233  33.135  1.00  0.00    -0.237 OA
ATOM     89  O   UNL A   1      38.402  30.440  33.898  1.00  0.00    -0.744 OA
ENDBRANCH  85  86
ENDBRANCH  53  78
BRANCH  65  90
ATOM     90  C   UNL A   1      47.617  32.949  29.695  1.00  0.00     0.058 A 
ATOM     91  C   UNL A   1      48.230  33.088  30.950  1.00  0.00     0.135 A 
ATOM     92  C   UNL A   1      47.433  34.108  28.923  1.00  0.00     0.135 A 
ATOM     93  F   UNL A   1      48.425  32.012  31.729  1.00  0.00    -0.206 F 
ATOM     94  C   UNL A   1      48.631  34.331  31.428  1.00  0.00     0.059 A 
ATOM     95  C   UNL A   1      47.846  35.358  29.372  1.00  0.00     0.059 A 
ATOM     96  F   UNL A   1      46.861  34.028  27.710  1.00  0.00    -0.206 F 
ATOM     97  C   UNL A   1      48.435  35.461  30.631  1.00  0.00     0.060 A 
BRANCH  97  98
ATOM     98  S   UNL A   1      48.995  37.065  31.244  1.00  0.00     0.124 S 
ATOM     99  O   UNL A   1      48.608  36.993  32.650  1.00  0.00    -0.237 OA
ATOM    100  O   UNL A   1      50.429  37.021  30.978  1.00  0.00    -0.237 OA
ATOM    101  O   UNL A   1      48.243  38.018  30.433  1.00  0.00    -0.744 OA
ENDBRANCH  97  98
ENDBRANCH  65  90
ENDBRANCH  39  40
ENDBRANCH  32  34
ENDBRANCH  31  32
ENDBRANCH  30  31
ENDBRANCH  29  30
ENDBRANCH  28  29
ENDBRANCH  27  28
ENDBRANCH   1  27
TORSDOF 25
ENDMDL
