MODEL 1
REMARK VINA RESULT:      -9.2      0.000      0.000
REMARK SMILES CC1(C)C[C@](CC(=O)OCCOCCOCCOCCOC(=O)c2ccc(-c3c4nc(c(-c5c(F)cc(S(=O)(=O)[O-])cc5F)c5ccc([nH]5)c(-c5c(F)cc(S(=O)(=O)[O-])cc5F)c5nc(c(-c6c(F)cc(S(=O)(=O)[O-])cc6F)c6ccc3[nH]6)C=C5)C=C4)cc2)([NH+]2CCCC2)C(C)(C)O1
REMARK SMILES IDX 16 1 15 2 14 3 13 4 12 5 11 6 10 7 9 8 7 9 8 10 6 11 5 12
REMARK SMILES IDX 1 13 2 14 3 15 4 16 98 17 95 18 96 19 97 20 90 21 91 22
REMARK SMILES IDX 94 23 92 25 93 26 17 27 18 28 19 29 20 30 21 31 22 32 23 33
REMARK SMILES IDX 24 34 25 35 89 36 26 37 88 38 27 39 28 40 29 41 82 42 30 43
REMARK SMILES IDX 87 44 81 45 83 46 31 47 86 48 80 49 79 50 32 52 66 53 45 54
REMARK SMILES IDX 65 55 46 56 49 57 64 58 84 59 47 60 48 61 63 63 85 64 50 65
REMARK SMILES IDX 33 66 34 67 43 68 35 69 36 70 42 71 44 72 37 73 38 74 39 75
REMARK SMILES IDX 40 76 41 77 67 78 68 79 77 80 69 81 70 82 76 83 78 84 71 85
REMARK SMILES IDX 72 86 73 87 74 88 75 89 51 90 52 91 61 92 53 93 54 94 60 95
REMARK SMILES IDX 62 96 55 97 56 98 57 99 58 100 59 101
REMARK H PARENT 90 24 83 51 49 62
REMARK Flexibility Score: inf
ROOT
ATOM      1  C   UNL A   1      33.778  34.448  31.839  1.00  0.00     0.188 C 
ENDROOT
BRANCH   1   2
ATOM      2  O   UNL A   1      33.281  35.213  30.751  1.00  0.00    -0.377 OA
BRANCH   2   3
ATOM      3  C   UNL A   1      33.977  35.167  29.514  1.00  0.00     0.188 C 
BRANCH   3   4
ATOM      4  C   UNL A   1      32.992  34.768  28.404  1.00  0.00     0.188 C 
BRANCH   4   5
ATOM      5  O   UNL A   1      33.343  33.575  27.696  1.00  0.00    -0.376 OA
BRANCH   5   6
ATOM      6  C   UNL A   1      34.381  32.782  28.264  1.00  0.00     0.202 C 
BRANCH   6   7
ATOM      7  C   UNL A   1      34.625  31.403  27.634  1.00  0.00     0.261 C 
BRANCH   7   8
ATOM      8  O   UNL A   1      33.445  30.633  27.298  1.00  0.00    -0.463 OA
BRANCH   8   9
ATOM      9  C   UNL A   1      33.690  29.378  26.858  1.00  0.00     0.312 C 
ATOM     10  O   UNL A   1      34.824  28.930  26.687  1.00  0.00    -0.252 OA
BRANCH   9  11
ATOM     11  C   UNL A   1      32.495  28.469  26.605  1.00  0.00     0.194 C 
BRANCH  11  12
ATOM     12  C   UNL A   1      32.078  27.752  25.270  1.00  0.00     0.140 C 
ATOM     13  C   UNL A   1      30.657  24.366  25.616  1.00  0.00     0.042 C 
ATOM     14  C   UNL A   1      30.851  25.626  24.760  1.00  0.00     0.070 C 
ATOM     15  C   UNL A   1      29.772  25.572  23.661  1.00  0.00     0.042 C 
ATOM     16  C   UNL A   1      30.816  26.889  25.630  1.00  0.00     0.107 C 
ATOM     17  O   UNL A   1      32.158  25.589  24.159  1.00  0.00    -0.363 OA
ATOM     18  C   UNL A   1      33.029  26.600  24.757  1.00  0.00     0.118 C 
ATOM     19  C   UNL A   1      33.804  25.884  25.880  1.00  0.00     0.049 C 
ATOM     20  C   UNL A   1      34.065  26.981  23.690  1.00  0.00     0.049 C 
BRANCH  12  21
ATOM     21  N   UNL A   1      31.571  28.766  24.296  1.00  0.00    -0.327 N 
ATOM     22  C   UNL A   1      31.479  28.325  22.920  1.00  0.00     0.263 C 
ATOM     23  C   UNL A   1      30.345  29.501  24.604  1.00  0.00     0.263 C 
ATOM     24  H   UNL A   1      32.342  29.423  24.416  1.00  0.00     0.348 HD
ATOM     25  C   UNL A   1      30.631  29.377  22.249  1.00  0.00     0.067 C 
ATOM     26  C   UNL A   1      29.662  29.838  23.298  1.00  0.00     0.067 C 
ENDBRANCH  12  21
ENDBRANCH  11  12
ENDBRANCH   9  11
ENDBRANCH   8   9
ENDBRANCH   7   8
ENDBRANCH   6   7
ENDBRANCH   5   6
ENDBRANCH   4   5
ENDBRANCH   3   4
ENDBRANCH   2   3
ENDBRANCH   1   2
BRANCH   1  27
ATOM     27  C   UNL A   1      35.034  34.932  32.579  1.00  0.00     0.188 C 
BRANCH  27  28
ATOM     28  O   UNL A   1      36.312  34.391  32.275  1.00  0.00    -0.376 OA
BRANCH  28  29
ATOM     29  C   UNL A   1      36.398  33.143  31.606  1.00  0.00     0.202 C 
BRANCH  29  30
ATOM     30  C   UNL A   1      37.125  31.982  32.305  1.00  0.00     0.261 C 
BRANCH  30  31
ATOM     31  O   UNL A   1      36.423  30.726  32.254  1.00  0.00    -0.460 OA
BRANCH  31  32
ATOM     32  C   UNL A   1      36.700  29.956  31.174  1.00  0.00     0.338 C 
ATOM     33  O   UNL A   1      35.908  29.320  30.501  1.00  0.00    -0.246 OA
BRANCH  32  34
ATOM     34  C   UNL A   1      38.119  30.080  30.792  1.00  0.00     0.060 A 
ATOM     35  C   UNL A   1      38.410  30.288  29.440  1.00  0.00     0.016 A 
ATOM     36  C   UNL A   1      39.141  29.796  31.703  1.00  0.00     0.016 A 
ATOM     37  C   UNL A   1      39.718  30.158  28.978  1.00  0.00     0.010 A 
ATOM     38  C   UNL A   1      40.455  29.652  31.234  1.00  0.00     0.010 A 
ATOM     39  C   UNL A   1      40.738  29.784  29.862  1.00  0.00    -0.014 A 
BRANCH  39  40
ATOM     40  C   UNL A   1      42.034  29.331  29.296  1.00  0.00     0.031 A 
ATOM     41  C   UNL A   1      43.184  30.302  29.253  1.00  0.00     0.074 A 
ATOM     42  C   UNL A   1      42.212  28.054  28.912  1.00  0.00     0.049 A 
ATOM     43  N   UNL A   1      44.407  30.123  28.825  1.00  0.00    -0.248 NA
ATOM     44  C   UNL A   1      42.922  31.655  29.772  1.00  0.00     0.031 C 
ATOM     45  C   UNL A   1      41.195  27.006  28.969  1.00  0.00     0.029 A 
ATOM     46  N   UNL A   1      43.319  27.424  28.401  1.00  0.00    -0.354 N 
ATOM     47  C   UNL A   1      45.059  31.336  29.022  1.00  0.00     0.074 A 
ATOM     48  C   UNL A   1      44.091  32.251  29.584  1.00  0.00     0.031 C 
ATOM     49  C   UNL A   1      41.724  25.861  28.502  1.00  0.00     0.029 A 
ATOM     50  C   UNL A   1      43.104  26.104  28.082  1.00  0.00     0.049 A 
ATOM     51  H   UNL A   1      44.185  27.874  28.275  1.00  0.00     0.167 HD
ATOM     52  C   UNL A   1      46.350  31.655  28.764  1.00  0.00     0.037 A 
ATOM     53  C   UNL A   1      43.920  25.204  27.499  1.00  0.00     0.037 A 
ATOM     54  C   UNL A   1      47.309  30.744  28.199  1.00  0.00     0.049 A 
ATOM     55  C   UNL A   1      45.327  25.610  27.136  1.00  0.00     0.074 A 
ATOM     56  C   UNL A   1      48.642  30.970  27.903  1.00  0.00     0.029 A 
ATOM     57  N   UNL A   1      47.036  29.433  27.835  1.00  0.00    -0.354 N 
ATOM     58  N   UNL A   1      45.933  26.755  27.337  1.00  0.00    -0.248 NA
ATOM     59  C   UNL A   1      46.159  24.599  26.467  1.00  0.00     0.031 C 
ATOM     60  C   UNL A   1      49.160  29.813  27.311  1.00  0.00     0.029 A 
ATOM     61  C   UNL A   1      48.166  28.847  27.289  1.00  0.00     0.049 A 
ATOM     62  H   UNL A   1      46.167  28.985  27.948  1.00  0.00     0.167 HD
ATOM     63  C   UNL A   1      47.223  26.597  26.838  1.00  0.00     0.074 A 
ATOM     64  C   UNL A   1      47.314  25.240  26.341  1.00  0.00     0.031 C 
ATOM     65  C   UNL A   1      48.240  27.494  26.797  1.00  0.00     0.037 A 
BRANCH  52  66
ATOM     66  C   UNL A   1      46.789  33.064  29.057  1.00  0.00     0.058 A 
ATOM     67  C   UNL A   1      47.300  33.436  30.310  1.00  0.00     0.135 A 
ATOM     68  C   UNL A   1      46.724  34.049  28.058  1.00  0.00     0.135 A 
ATOM     69  F   UNL A   1      47.368  32.539  31.306  1.00  0.00    -0.206 F 
ATOM     70  C   UNL A   1      47.707  34.741  30.571  1.00  0.00     0.059 A 
ATOM     71  C   UNL A   1      47.149  35.354  28.289  1.00  0.00     0.059 A 
ATOM     72  F   UNL A   1      46.240  33.749  26.843  1.00  0.00    -0.206 F 
ATOM     73  C   UNL A   1      47.626  35.694  29.554  1.00  0.00     0.060 A 
BRANCH  73  74
ATOM     74  S   UNL A   1      48.160  37.383  29.907  1.00  0.00     0.124 S 
ATOM     75  O   UNL A   1      48.349  37.915  28.560  1.00  0.00    -0.237 OA
ATOM     76  O   UNL A   1      47.024  37.921  30.647  1.00  0.00    -0.237 OA
ATOM     77  O   UNL A   1      49.380  37.198  30.685  1.00  0.00    -0.744 OA
ENDBRANCH  73  74
ENDBRANCH  52  66
BRANCH  53  78
ATOM     78  C   UNL A   1      43.420  23.837  27.192  1.00  0.00     0.058 A 
ATOM     79  C   UNL A   1      43.001  23.485  25.901  1.00  0.00     0.135 A 
ATOM     80  C   UNL A   1      43.347  22.855  28.194  1.00  0.00     0.135 A 
ATOM     81  F   UNL A   1      43.038  24.391  24.914  1.00  0.00    -0.206 F 
ATOM     82  C   UNL A   1      42.518  22.211  25.615  1.00  0.00     0.059 A 
ATOM     83  C   UNL A   1      42.893  21.568  27.926  1.00  0.00     0.059 A 
ATOM     84  F   UNL A   1      43.743  23.139  29.444  1.00  0.00    -0.206 F 
ATOM     85  C   UNL A   1      42.472  21.258  26.635  1.00  0.00     0.060 A 
BRANCH  85  86
ATOM     86  S   UNL A   1      41.894  19.593  26.241  1.00  0.00     0.124 S 
ATOM     87  O   UNL A   1      40.475  19.825  26.000  1.00  0.00    -0.237 OA
ATOM     88  O   UNL A   1      42.696  19.260  25.068  1.00  0.00    -0.237 OA
ATOM     89  O   UNL A   1      42.215  18.834  27.447  1.00  0.00    -0.744 OA
ENDBRANCH  85  86
ENDBRANCH  53  78
BRANCH  65  90
ATOM     90  C   UNL A   1      49.550  27.032  26.216  1.00  0.00     0.058 A 
ATOM     91  C   UNL A   1      50.506  26.362  26.994  1.00  0.00     0.135 A 
ATOM     92  C   UNL A   1      49.827  27.214  24.850  1.00  0.00     0.135 A 
ATOM     93  F   UNL A   1      50.294  26.167  28.305  1.00  0.00    -0.206 F 
ATOM     94  C   UNL A   1      51.701  25.908  26.444  1.00  0.00     0.059 A 
ATOM     95  C   UNL A   1      51.002  26.743  24.274  1.00  0.00     0.059 A 
ATOM     96  F   UNL A   1      48.941  27.839  24.058  1.00  0.00    -0.206 F 
ATOM     97  C   UNL A   1      51.940  26.102  25.082  1.00  0.00     0.060 A 
BRANCH  97  98
ATOM     98  S   UNL A   1      53.479  25.477  24.376  1.00  0.00     0.124 S 
ATOM     99  O   UNL A   1      54.472  26.280  25.080  1.00  0.00    -0.237 OA
ATOM    100  O   UNL A   1      53.437  24.063  24.732  1.00  0.00    -0.237 OA
ATOM    101  O   UNL A   1      53.339  25.763  22.950  1.00  0.00    -0.744 OA
ENDBRANCH  97  98
ENDBRANCH  65  90
ENDBRANCH  39  40
ENDBRANCH  32  34
ENDBRANCH  31  32
ENDBRANCH  30  31
ENDBRANCH  29  30
ENDBRANCH  28  29
ENDBRANCH  27  28
ENDBRANCH   1  27
TORSDOF 25
ENDMDL
MODEL 2
REMARK VINA RESULT:      -9.1      0.925      8.233
REMARK SMILES CC1(C)C[C@](CC(=O)OCCOCCOCCOCCOC(=O)c2ccc(-c3c4nc(c(-c5c(F)cc(S(=O)(=O)[O-])cc5F)c5ccc([nH]5)c(-c5c(F)cc(S(=O)(=O)[O-])cc5F)c5nc(c(-c6c(F)cc(S(=O)(=O)[O-])cc6F)c6ccc3[nH]6)C=C5)C=C4)cc2)([NH+]2CCCC2)C(C)(C)O1
REMARK SMILES IDX 16 1 15 2 14 3 13 4 12 5 11 6 10 7 9 8 7 9 8 10 6 11 5 12
REMARK SMILES IDX 1 13 2 14 3 15 4 16 98 17 95 18 96 19 97 20 90 21 91 22
REMARK SMILES IDX 94 23 92 25 93 26 17 27 18 28 19 29 20 30 21 31 22 32 23 33
REMARK SMILES IDX 24 34 25 35 89 36 26 37 88 38 27 39 28 40 29 41 82 42 30 43
REMARK SMILES IDX 87 44 81 45 83 46 31 47 86 48 80 49 79 50 32 52 66 53 45 54
REMARK SMILES IDX 65 55 46 56 49 57 64 58 84 59 47 60 48 61 63 63 85 64 50 65
REMARK SMILES IDX 33 66 34 67 43 68 35 69 36 70 42 71 44 72 37 73 38 74 39 75
REMARK SMILES IDX 40 76 41 77 67 78 68 79 77 80 69 81 70 82 76 83 78 84 71 85
REMARK SMILES IDX 72 86 73 87 74 88 75 89 51 90 52 91 61 92 53 93 54 94 60 95
REMARK SMILES IDX 62 96 55 97 56 98 57 99 58 100 59 101
REMARK H PARENT 90 24 83 51 49 62
REMARK Flexibility Score: inf
ROOT
ATOM      1  C   UNL A   1      33.835  34.308  31.929  1.00  0.00     0.188 C 
ENDROOT
BRANCH   1   2
ATOM      2  O   UNL A   1      33.383  34.967  30.755  1.00  0.00    -0.377 OA
BRANCH   2   3
ATOM      3  C   UNL A   1      34.051  34.706  29.529  1.00  0.00     0.188 C 
BRANCH   3   4
ATOM      4  C   UNL A   1      33.002  34.403  28.447  1.00  0.00     0.188 C 
BRANCH   4   5
ATOM      5  O   UNL A   1      33.255  33.217  27.688  1.00  0.00    -0.376 OA
BRANCH   5   6
ATOM      6  C   UNL A   1      34.133  32.262  28.275  1.00  0.00     0.202 C 
BRANCH   6   7
ATOM      7  C   UNL A   1      34.337  30.945  27.512  1.00  0.00     0.261 C 
BRANCH   7   8
ATOM      8  O   UNL A   1      33.213  30.476  26.728  1.00  0.00    -0.463 OA
BRANCH   8   9
ATOM      9  C   UNL A   1      32.913  29.167  26.889  1.00  0.00     0.312 C 
ATOM     10  O   UNL A   1      33.532  28.419  27.647  1.00  0.00    -0.252 OA
BRANCH   9  11
ATOM     11  C   UNL A   1      31.721  28.613  26.120  1.00  0.00     0.194 C 
BRANCH  11  12
ATOM     12  C   UNL A   1      31.711  27.535  24.977  1.00  0.00     0.140 C 
ATOM     13  C   UNL A   1      33.802  28.267  22.028  1.00  0.00     0.042 C 
ATOM     14  C   UNL A   1      33.036  27.236  22.869  1.00  0.00     0.070 C 
ATOM     15  C   UNL A   1      33.579  25.854  22.458  1.00  0.00     0.042 C 
ATOM     16  C   UNL A   1      33.157  27.552  24.366  1.00  0.00     0.107 C 
ATOM     17  O   UNL A   1      31.634  27.321  22.555  1.00  0.00    -0.363 OA
ATOM     18  C   UNL A   1      30.888  27.888  23.676  1.00  0.00     0.118 C 
ATOM     19  C   UNL A   1      30.781  29.400  23.396  1.00  0.00     0.049 C 
ATOM     20  C   UNL A   1      29.460  27.330  23.587  1.00  0.00     0.049 C 
BRANCH  12  21
ATOM     21  N   UNL A   1      31.575  26.173  25.577  1.00  0.00    -0.327 N 
ATOM     22  C   UNL A   1      30.784  25.227  24.818  1.00  0.00     0.263 C 
ATOM     23  C   UNL A   1      32.774  25.473  26.036  1.00  0.00     0.263 C 
ATOM     24  H   UNL A   1      31.076  26.475  26.414  1.00  0.00     0.348 HD
ATOM     25  C   UNL A   1      31.106  23.890  25.440  1.00  0.00     0.067 C 
ATOM     26  C   UNL A   1      32.537  23.988  25.879  1.00  0.00     0.067 C 
ENDBRANCH  12  21
ENDBRANCH  11  12
ENDBRANCH   9  11
ENDBRANCH   8   9
ENDBRANCH   7   8
ENDBRANCH   6   7
ENDBRANCH   5   6
ENDBRANCH   4   5
ENDBRANCH   3   4
ENDBRANCH   2   3
ENDBRANCH   1   2
BRANCH   1  27
ATOM     27  C   UNL A   1      34.997  34.917  32.726  1.00  0.00     0.188 C 
BRANCH  27  28
ATOM     28  O   UNL A   1      36.334  34.492  32.504  1.00  0.00    -0.376 OA
BRANCH  28  29
ATOM     29  C   UNL A   1      36.574  33.202  31.965  1.00  0.00     0.202 C 
BRANCH  29  30
ATOM     30  C   UNL A   1      37.481  32.236  32.744  1.00  0.00     0.261 C 
BRANCH  30  31
ATOM     31  O   UNL A   1      36.944  30.909  32.893  1.00  0.00    -0.460 OA
BRANCH  31  32
ATOM     32  C   UNL A   1      37.243  30.052  31.887  1.00  0.00     0.338 C 
ATOM     33  O   UNL A   1      36.480  29.291  31.318  1.00  0.00    -0.246 OA
BRANCH  32  34
ATOM     34  C   UNL A   1      38.634  30.239  31.434  1.00  0.00     0.060 A 
ATOM     35  C   UNL A   1      38.841  30.532  30.082  1.00  0.00     0.016 A 
ATOM     36  C   UNL A   1      39.713  29.934  32.268  1.00  0.00     0.016 A 
ATOM     37  C   UNL A   1      40.122  30.468  29.541  1.00  0.00     0.010 A 
ATOM     38  C   UNL A   1      41.001  29.856  31.718  1.00  0.00     0.010 A 
ATOM     39  C   UNL A   1      41.201  30.074  30.343  1.00  0.00    -0.014 A 
BRANCH  39  40
ATOM     40  C   UNL A   1      42.474  29.693  29.679  1.00  0.00     0.031 A 
ATOM     41  C   UNL A   1      42.612  28.299  29.124  1.00  0.00     0.074 A 
ATOM     42  C   UNL A   1      43.454  30.595  29.492  1.00  0.00     0.049 A 
ATOM     43  N   UNL A   1      43.617  27.754  28.489  1.00  0.00    -0.248 NA
ATOM     44  C   UNL A   1      41.456  27.404  29.301  1.00  0.00     0.031 C 
ATOM     45  C   UNL A   1      43.409  31.990  29.924  1.00  0.00     0.029 A 
ATOM     46  N   UNL A   1      44.677  30.468  28.884  1.00  0.00    -0.354 N 
ATOM     47  C   UNL A   1      43.216  26.455  28.191  1.00  0.00     0.074 A 
ATOM     48  C   UNL A   1      41.887  26.286  28.736  1.00  0.00     0.031 C 
ATOM     49  C   UNL A   1      44.561  32.590  29.574  1.00  0.00     0.029 A 
ATOM     50  C   UNL A   1      45.435  31.614  28.925  1.00  0.00     0.049 A 
ATOM     51  H   UNL A   1      44.984  29.635  28.460  1.00  0.00     0.167 HD
ATOM     52  C   UNL A   1      43.893  25.494  27.518  1.00  0.00     0.037 A 
ATOM     53  C   UNL A   1      46.696  31.841  28.506  1.00  0.00     0.037 A 
ATOM     54  C   UNL A   1      45.217  25.665  26.982  1.00  0.00     0.049 A 
ATOM     55  C   UNL A   1      47.464  30.727  27.840  1.00  0.00     0.074 A 
ATOM     56  C   UNL A   1      45.987  24.753  26.281  1.00  0.00     0.029 A 
ATOM     57  N   UNL A   1      45.974  26.821  27.096  1.00  0.00    -0.354 N 
ATOM     58  N   UNL A   1      47.071  29.509  27.555  1.00  0.00    -0.248 NA
ATOM     59  C   UNL A   1      48.847  31.020  27.439  1.00  0.00     0.031 C 
ATOM     60  C   UNL A   1      47.229  25.341  26.017  1.00  0.00     0.029 A 
ATOM     61  C   UNL A   1      47.213  26.638  26.505  1.00  0.00     0.049 A 
ATOM     62  H   UNL A   1      45.674  27.651  27.532  1.00  0.00     0.167 HD
ATOM     63  C   UNL A   1      48.150  28.897  26.924  1.00  0.00     0.074 A 
ATOM     64  C   UNL A   1      49.206  29.885  26.854  1.00  0.00     0.031 C 
ATOM     65  C   UNL A   1      48.256  27.632  26.444  1.00  0.00     0.037 A 
BRANCH  52  66
ATOM     66  C   UNL A   1      43.223  24.157  27.356  1.00  0.00     0.058 A 
ATOM     67  C   UNL A   1      42.420  23.859  26.244  1.00  0.00     0.135 A 
ATOM     68  C   UNL A   1      43.411  23.149  28.316  1.00  0.00     0.135 A 
ATOM     69  F   UNL A   1      42.192  24.791  25.306  1.00  0.00    -0.206 F 
ATOM     70  C   UNL A   1      41.807  22.617  26.101  1.00  0.00     0.059 A 
ATOM     71  C   UNL A   1      42.829  21.892  28.181  1.00  0.00     0.059 A 
ATOM     72  F   UNL A   1      44.166  23.381  29.401  1.00  0.00    -0.206 F 
ATOM     73  C   UNL A   1      42.017  21.640  27.077  1.00  0.00     0.060 A 
BRANCH  73  74
ATOM     74  S   UNL A   1      41.216  20.034  26.877  1.00  0.00     0.124 S 
ATOM     75  O   UNL A   1      42.352  19.185  26.530  1.00  0.00    -0.237 OA
ATOM     76  O   UNL A   1      40.636  19.808  28.196  1.00  0.00    -0.237 OA
ATOM     77  O   UNL A   1      40.255  20.264  25.803  1.00  0.00    -0.744 OA
ENDBRANCH  73  74
ENDBRANCH  52  66
BRANCH  53  78
ATOM     78  C   UNL A   1      47.325  33.170  28.730  1.00  0.00     0.058 A 
ATOM     79  C   UNL A   1      48.107  33.427  29.865  1.00  0.00     0.135 A 
ATOM     80  C   UNL A   1      47.148  34.216  27.808  1.00  0.00     0.135 A 
ATOM     81  F   UNL A   1      48.294  32.466  30.781  1.00  0.00    -0.206 F 
ATOM     82  C   UNL A   1      48.684  34.674  30.085  1.00  0.00     0.059 A 
ATOM     83  C   UNL A   1      47.736  35.463  27.993  1.00  0.00     0.059 A 
ATOM     84  F   UNL A   1      46.414  34.020  26.702  1.00  0.00    -0.206 F 
ATOM     85  C   UNL A   1      48.496  35.685  29.140  1.00  0.00     0.060 A 
BRANCH  85  86
ATOM     86  S   UNL A   1      49.292  37.284  29.408  1.00  0.00     0.124 S 
ATOM     87  O   UNL A   1      50.268  37.311  28.325  1.00  0.00    -0.237 OA
ATOM     88  O   UNL A   1      48.169  38.208  29.283  1.00  0.00    -0.237 OA
ATOM     89  O   UNL A   1      49.844  37.160  30.755  1.00  0.00    -0.744 OA
ENDBRANCH  85  86
ENDBRANCH  53  78
BRANCH  65  90
ATOM     90  C   UNL A   1      49.550  27.248  25.779  1.00  0.00     0.058 A 
ATOM     91  C   UNL A   1      49.747  27.412  24.400  1.00  0.00     0.135 A 
ATOM     92  C   UNL A   1      50.626  26.762  26.542  1.00  0.00     0.135 A 
ATOM     93  F   UNL A   1      48.750  27.868  23.624  1.00  0.00    -0.206 F 
ATOM     94  C   UNL A   1      50.956  27.086  23.795  1.00  0.00     0.059 A 
ATOM     95  C   UNL A   1      51.853  26.457  25.962  1.00  0.00     0.059 A 
ATOM     96  F   UNL A   1      50.495  26.597  27.867  1.00  0.00    -0.206 F 
ATOM     97  C   UNL A   1      52.005  26.610  24.585  1.00  0.00     0.060 A 
BRANCH  97  98
ATOM     98  S   UNL A   1      53.580  26.224  23.791  1.00  0.00     0.124 S 
ATOM     99  O   UNL A   1      53.154  25.905  22.433  1.00  0.00    -0.237 OA
ATOM    100  O   UNL A   1      54.323  27.470  23.947  1.00  0.00    -0.237 OA
ATOM    101  O   UNL A   1      54.086  25.098  24.571  1.00  0.00    -0.744 OA
ENDBRANCH  97  98
ENDBRANCH  65  90
ENDBRANCH  39  40
ENDBRANCH  32  34
ENDBRANCH  31  32
ENDBRANCH  30  31
ENDBRANCH  29  30
ENDBRANCH  28  29
ENDBRANCH  27  28
ENDBRANCH   1  27
TORSDOF 25
ENDMDL
MODEL 3
REMARK VINA RESULT:      -9.1      5.666     11.995
REMARK SMILES CC1(C)C[C@](CC(=O)OCCOCCOCCOCCOC(=O)c2ccc(-c3c4nc(c(-c5c(F)cc(S(=O)(=O)[O-])cc5F)c5ccc([nH]5)c(-c5c(F)cc(S(=O)(=O)[O-])cc5F)c5nc(c(-c6c(F)cc(S(=O)(=O)[O-])cc6F)c6ccc3[nH]6)C=C5)C=C4)cc2)([NH+]2CCCC2)C(C)(C)O1
REMARK SMILES IDX 16 1 15 2 14 3 13 4 12 5 11 6 10 7 9 8 7 9 8 10 6 11 5 12
REMARK SMILES IDX 1 13 2 14 3 15 4 16 98 17 95 18 96 19 97 20 90 21 91 22
REMARK SMILES IDX 94 23 92 25 93 26 17 27 18 28 19 29 20 30 21 31 22 32 23 33
REMARK SMILES IDX 24 34 25 35 89 36 26 37 88 38 27 39 28 40 29 41 82 42 30 43
REMARK SMILES IDX 87 44 81 45 83 46 31 47 86 48 80 49 79 50 32 52 66 53 45 54
REMARK SMILES IDX 65 55 46 56 49 57 64 58 84 59 47 60 48 61 63 63 85 64 50 65
REMARK SMILES IDX 33 66 34 67 43 68 35 69 36 70 42 71 44 72 37 73 38 74 39 75
REMARK SMILES IDX 40 76 41 77 67 78 68 79 77 80 69 81 70 82 76 83 78 84 71 85
REMARK SMILES IDX 72 86 73 87 74 88 75 89 51 90 52 91 61 92 53 93 54 94 60 95
REMARK SMILES IDX 62 96 55 97 56 98 57 99 58 100 59 101
REMARK H PARENT 90 24 83 51 49 62
REMARK Flexibility Score: inf
ROOT
ATOM      1  C   UNL A   1      43.026  21.535  25.638  1.00  0.00     0.188 C 
ENDROOT
BRANCH   1   2
ATOM      2  O   UNL A   1      42.185  22.573  26.119  1.00  0.00    -0.377 OA
BRANCH   2   3
ATOM      3  C   UNL A   1      41.801  22.558  27.486  1.00  0.00     0.188 C 
BRANCH   3   4
ATOM      4  C   UNL A   1      40.421  21.893  27.608  1.00  0.00     0.188 C 
BRANCH   4   5
ATOM      5  O   UNL A   1      39.530  22.165  26.522  1.00  0.00    -0.376 OA
BRANCH   5   6
ATOM      6  C   UNL A   1      38.952  23.466  26.486  1.00  0.00     0.202 C 
BRANCH   6   7
ATOM      7  C   UNL A   1      37.433  23.545  26.271  1.00  0.00     0.261 C 
BRANCH   7   8
ATOM      8  O   UNL A   1      36.992  23.941  24.950  1.00  0.00    -0.463 OA
BRANCH   8   9
ATOM      9  C   UNL A   1      36.521  22.932  24.180  1.00  0.00     0.312 C 
ATOM     10  O   UNL A   1      37.065  21.830  24.102  1.00  0.00    -0.252 OA
BRANCH   9  11
ATOM     11  C   UNL A   1      35.230  23.171  23.410  1.00  0.00     0.194 C 
BRANCH  11  12
ATOM     12  C   UNL A   1      33.771  23.332  23.972  1.00  0.00     0.140 C 
ATOM     13  C   UNL A   1      33.249  22.282  27.469  1.00  0.00     0.042 C 
ATOM     14  C   UNL A   1      32.760  23.080  26.252  1.00  0.00     0.070 C 
ATOM     15  C   UNL A   1      31.739  24.102  26.789  1.00  0.00     0.042 C 
ATOM     16  C   UNL A   1      33.941  23.695  25.491  1.00  0.00     0.107 C 
ATOM     17  O   UNL A   1      32.112  22.184  25.331  1.00  0.00    -0.363 OA
ATOM     18  C   UNL A   1      32.920  22.010  24.126  1.00  0.00     0.118 C 
ATOM     19  C   UNL A   1      33.770  20.746  24.362  1.00  0.00     0.049 C 
ATOM     20  C   UNL A   1      31.951  21.674  22.984  1.00  0.00     0.049 C 
BRANCH  12  21
ATOM     21  N   UNL A   1      33.134  24.541  23.368  1.00  0.00    -0.327 N 
ATOM     22  C   UNL A   1      33.696  25.815  23.766  1.00  0.00     0.263 C 
ATOM     23  C   UNL A   1      32.923  24.589  21.921  1.00  0.00     0.263 C 
ATOM     24  H   UNL A   1      32.217  24.400  23.791  1.00  0.00     0.348 HD
ATOM     25  C   UNL A   1      33.133  26.798  22.770  1.00  0.00     0.067 C 
ATOM     26  C   UNL A   1      33.003  26.035  21.486  1.00  0.00     0.067 C 
ENDBRANCH  12  21
ENDBRANCH  11  12
ENDBRANCH   9  11
ENDBRANCH   8   9
ENDBRANCH   7   8
ENDBRANCH   6   7
ENDBRANCH   5   6
ENDBRANCH   4   5
ENDBRANCH   3   4
ENDBRANCH   2   3
ENDBRANCH   1   2
BRANCH   1  27
ATOM     27  C   UNL A   1      44.542  21.642  25.854  1.00  0.00     0.188 C 
BRANCH  27  28
ATOM     28  O   UNL A   1      45.339  22.475  25.024  1.00  0.00    -0.376 OA
BRANCH  28  29
ATOM     29  C   UNL A   1      46.278  23.356  25.619  1.00  0.00     0.202 C 
BRANCH  29  30
ATOM     30  C   UNL A   1      45.954  24.859  25.658  1.00  0.00     0.261 C 
BRANCH  30  31
ATOM     31  O   UNL A   1      44.933  25.221  26.607  1.00  0.00    -0.460 OA
BRANCH  31  32
ATOM     32  C   UNL A   1      43.770  25.653  26.063  1.00  0.00     0.338 C 
ATOM     33  O   UNL A   1      43.295  25.327  24.989  1.00  0.00    -0.246 OA
BRANCH  32  34
ATOM     34  C   UNL A   1      43.029  26.501  27.014  1.00  0.00     0.060 A 
ATOM     35  C   UNL A   1      43.181  27.887  26.900  1.00  0.00     0.016 A 
ATOM     36  C   UNL A   1      42.368  25.948  28.114  1.00  0.00     0.016 A 
ATOM     37  C   UNL A   1      42.722  28.727  27.911  1.00  0.00     0.010 A 
ATOM     38  C   UNL A   1      41.919  26.795  29.139  1.00  0.00     0.010 A 
ATOM     39  C   UNL A   1      42.140  28.182  29.063  1.00  0.00    -0.014 A 
BRANCH  39  40
ATOM     40  C   UNL A   1      41.969  29.055  30.251  1.00  0.00     0.031 A 
ATOM     41  C   UNL A   1      40.773  29.969  30.313  1.00  0.00     0.074 A 
ATOM     42  C   UNL A   1      42.811  28.973  31.297  1.00  0.00     0.049 A 
ATOM     43  N   UNL A   1      40.410  30.800  31.255  1.00  0.00    -0.248 NA
ATOM     44  C   UNL A   1      39.858  29.932  29.159  1.00  0.00     0.031 C 
ATOM     45  C   UNL A   1      43.965  28.080  31.382  1.00  0.00     0.029 A 
ATOM     46  N   UNL A   1      42.819  29.651  32.490  1.00  0.00    -0.354 N 
ATOM     47  C   UNL A   1      39.228  31.384  30.811  1.00  0.00     0.074 A 
ATOM     48  C   UNL A   1      38.948  30.832  29.504  1.00  0.00     0.031 C 
ATOM     49  C   UNL A   1      44.576  28.272  32.564  1.00  0.00     0.029 A 
ATOM     50  C   UNL A   1      43.877  29.323  33.303  1.00  0.00     0.049 A 
ATOM     51  H   UNL A   1      42.133  30.311  32.739  1.00  0.00     0.167 HD
ATOM     52  C   UNL A   1      38.444  32.292  31.439  1.00  0.00     0.037 A 
ATOM     53  C   UNL A   1      44.251  29.829  34.496  1.00  0.00     0.037 A 
ATOM     54  C   UNL A   1      38.730  32.844  32.737  1.00  0.00     0.049 A 
ATOM     55  C   UNL A   1      43.411  30.907  35.135  1.00  0.00     0.074 A 
ATOM     56  C   UNL A   1      37.996  33.767  33.461  1.00  0.00     0.029 A 
ATOM     57  N   UNL A   1      39.842  32.529  33.503  1.00  0.00    -0.354 N 
ATOM     58  N   UNL A   1      42.292  31.443  34.709  1.00  0.00    -0.248 NA
ATOM     59  C   UNL A   1      43.886  31.449  36.416  1.00  0.00     0.031 C 
ATOM     60  C   UNL A   1      38.692  34.051  34.641  1.00  0.00     0.029 A 
ATOM     61  C   UNL A   1      39.832  33.263  34.678  1.00  0.00     0.049 A 
ATOM     62  H   UNL A   1      40.537  31.881  33.249  1.00  0.00     0.167 HD
ATOM     63  C   UNL A   1      41.918  32.368  35.679  1.00  0.00     0.074 A 
ATOM     64  C   UNL A   1      42.923  32.309  36.720  1.00  0.00     0.031 C 
ATOM     65  C   UNL A   1      40.841  33.193  35.706  1.00  0.00     0.037 A 
BRANCH  52  66
ATOM     66  C   UNL A   1      37.220  32.776  30.711  1.00  0.00     0.058 A 
ATOM     67  C   UNL A   1      35.972  32.151  30.862  1.00  0.00     0.135 A 
ATOM     68  C   UNL A   1      37.292  33.899  29.870  1.00  0.00     0.135 A 
ATOM     69  F   UNL A   1      35.850  31.063  31.639  1.00  0.00    -0.206 F 
ATOM     70  C   UNL A   1      34.844  32.607  30.186  1.00  0.00     0.059 A 
ATOM     71  C   UNL A   1      36.172  34.388  29.205  1.00  0.00     0.059 A 
ATOM     72  F   UNL A   1      38.461  34.531  29.686  1.00  0.00    -0.206 F 
ATOM     73  C   UNL A   1      34.954  33.726  29.358  1.00  0.00     0.060 A 
BRANCH  73  74
ATOM     74  S   UNL A   1      33.481  34.307  28.490  1.00  0.00     0.124 S 
ATOM     75  O   UNL A   1      34.045  35.334  27.618  1.00  0.00    -0.237 OA
ATOM     76  O   UNL A   1      33.014  33.097  27.823  1.00  0.00    -0.237 OA
ATOM     77  O   UNL A   1      32.624  34.798  29.564  1.00  0.00    -0.744 OA
ENDBRANCH  73  74
ENDBRANCH  52  66
BRANCH  53  78
ATOM     78  C   UNL A   1      45.494  29.345  35.152  1.00  0.00     0.058 A 
ATOM     79  C   UNL A   1      46.741  29.922  34.871  1.00  0.00     0.135 A 
ATOM     80  C   UNL A   1      45.458  28.286  36.074  1.00  0.00     0.135 A 
ATOM     81  F   UNL A   1      46.831  30.927  33.987  1.00  0.00    -0.206 F 
ATOM     82  C   UNL A   1      47.909  29.461  35.472  1.00  0.00     0.059 A 
ATOM     83  C   UNL A   1      46.607  27.825  36.707  1.00  0.00     0.059 A 
ATOM     84  F   UNL A   1      44.288  27.704  36.383  1.00  0.00    -0.206 F 
ATOM     85  C   UNL A   1      47.830  28.414  36.392  1.00  0.00     0.060 A 
BRANCH  85  86
ATOM     86  S   UNL A   1      49.344  27.858  37.205  1.00  0.00     0.124 S 
ATOM     87  O   UNL A   1      50.053  27.221  36.102  1.00  0.00    -0.237 OA
ATOM     88  O   UNL A   1      49.909  29.114  37.689  1.00  0.00    -0.237 OA
ATOM     89  O   UNL A   1      48.853  26.958  38.246  1.00  0.00    -0.744 OA
ENDBRANCH  85  86
ENDBRANCH  53  78
BRANCH  65  90
ATOM     90  C   UNL A   1      40.676  34.082  36.909  1.00  0.00     0.058 A 
ATOM     91  C   UNL A   1      41.268  35.352  36.974  1.00  0.00     0.135 A 
ATOM     92  C   UNL A   1      39.868  33.679  37.986  1.00  0.00     0.135 A 
ATOM     93  F   UNL A   1      42.054  35.783  35.974  1.00  0.00    -0.206 F 
ATOM     94  C   UNL A   1      41.085  36.184  38.074  1.00  0.00     0.059 A 
ATOM     95  C   UNL A   1      39.647  34.506  39.083  1.00  0.00     0.059 A 
ATOM     96  F   UNL A   1      39.268  32.479  37.969  1.00  0.00    -0.206 F 
ATOM     97  C   UNL A   1      40.271  35.752  39.124  1.00  0.00     0.060 A 
BRANCH  97  98
ATOM     98  S   UNL A   1      40.014  36.856  40.529  1.00  0.00     0.124 S 
ATOM     99  O   UNL A   1      38.558  36.941  40.573  1.00  0.00    -0.237 OA
ATOM    100  O   UNL A   1      40.640  36.122  41.624  1.00  0.00    -0.237 OA
ATOM    101  O   UNL A   1      40.702  38.081  40.130  1.00  0.00    -0.744 OA
ENDBRANCH  97  98
ENDBRANCH  65  90
ENDBRANCH  39  40
ENDBRANCH  32  34
ENDBRANCH  31  32
ENDBRANCH  30  31
ENDBRANCH  29  30
ENDBRANCH  28  29
ENDBRANCH  27  28
ENDBRANCH   1  27
TORSDOF 25
ENDMDL
