MODEL 1
REMARK VINA RESULT:      -9.0      0.000      0.000
REMARK SMILES O=C(OCCOCCOCCOCCOC(=O)c1ccc(N2C(=O)/C(=C/C3=c4ccccc4=NC3)SC2=S)cc1O)c1ccc(-c2c3nc(c(-c4c(F)cc(S(=O)(=O)[O-])cc4F)c4ccc([nH]4)c(-c4c(F)cc(S(=O)(=O)[O-])cc4F)c4nc(c(-c5c(F)cc(S(=O)(=O)[O-])cc5F)c5ccc2[nH]5)C=C4)C=C3)cc1
REMARK SMILES IDX 8 1 7 2 6 3 5 4 4 5 3 6 2 7 1 8 42 9 43 10 107 11 44 12
REMARK SMILES IDX 106 13 45 14 46 15 47 16 100 17 48 18 105 19 99 20 101 21
REMARK SMILES IDX 49 22 104 23 98 24 97 25 50 27 84 28 63 29 83 30 64 31 67 32
REMARK SMILES IDX 82 33 102 34 65 35 66 36 81 38 103 39 68 40 51 41 52 42
REMARK SMILES IDX 61 43 53 44 54 45 60 46 62 47 55 48 56 49 57 50 58 51 59 52
REMARK SMILES IDX 85 53 86 54 95 55 87 56 88 57 94 58 96 59 89 60 90 61 91 62
REMARK SMILES IDX 92 63 93 64 69 65 70 66 79 67 71 68 72 69 78 70 80 71 73 72
REMARK SMILES IDX 74 73 75 74 76 75 77 76 9 77 10 78 11 79 12 80 13 81 14 82
REMARK SMILES IDX 15 83 16 84 17 85 18 86 19 87 40 88 20 89 39 90 21 91 41 92
REMARK SMILES IDX 22 94 23 95 37 96 24 97 25 98 36 99 38 100 26 101 27 102
REMARK SMILES IDX 28 103 35 104 29 105 33 106 34 107 30 108 32 109 31 110
REMARK H PARENT 101 26 67 37 41 93
REMARK Flexibility Score: inf
ROOT
ATOM      1  C   UNL A   1      34.487  35.066  32.473  1.00  0.00     0.188 C 
ENDROOT
BRANCH   1   2
ATOM      2  C   UNL A   1      34.990  34.727  33.876  1.00  0.00     0.188 C 
BRANCH   2   3
ATOM      3  O   UNL A   1      34.999  33.316  34.118  1.00  0.00    -0.376 OA
BRANCH   3   4
ATOM      4  C   UNL A   1      36.290  32.710  34.114  1.00  0.00     0.202 C 
BRANCH   4   5
ATOM      5  C   UNL A   1      37.216  33.149  35.247  1.00  0.00     0.261 C 
BRANCH   5   6
ATOM      6  O   UNL A   1      37.668  32.071  36.073  1.00  0.00    -0.460 OA
BRANCH   6   7
ATOM      7  C   UNL A   1      38.665  31.181  35.848  1.00  0.00     0.338 C 
ATOM      8  O   UNL A   1      38.619  30.126  36.483  1.00  0.00    -0.246 OA
BRANCH   7   9
ATOM      9  C   UNL A   1      39.851  31.398  34.943  1.00  0.00     0.060 A 
ATOM     10  C   UNL A   1      39.561  31.555  33.573  1.00  0.00     0.016 A 
ATOM     11  C   UNL A   1      41.199  31.433  35.316  1.00  0.00     0.016 A 
ATOM     12  C   UNL A   1      40.571  31.752  32.626  1.00  0.00     0.010 A 
ATOM     13  C   UNL A   1      42.216  31.603  34.379  1.00  0.00     0.010 A 
ATOM     14  C   UNL A   1      41.907  31.791  33.034  1.00  0.00    -0.014 A 
BRANCH  14  15
ATOM     15  C   UNL A   1      42.972  32.277  32.140  1.00  0.00     0.031 A 
ATOM     16  C   UNL A   1      43.291  33.730  32.011  1.00  0.00     0.074 A 
ATOM     17  C   UNL A   1      43.543  31.351  31.346  1.00  0.00     0.049 A 
ATOM     18  N   UNL A   1      44.212  34.301  31.280  1.00  0.00    -0.248 NA
ATOM     19  C   UNL A   1      42.460  34.672  32.779  1.00  0.00     0.031 C 
ATOM     20  C   UNL A   1      43.190  29.925  31.343  1.00  0.00     0.029 A 
ATOM     21  N   UNL A   1      44.505  31.455  30.382  1.00  0.00    -0.354 N 
ATOM     22  C   UNL A   1      44.098  35.665  31.519  1.00  0.00     0.074 A 
ATOM     23  C   UNL A   1      42.976  35.841  32.418  1.00  0.00     0.031 C 
ATOM     24  C   UNL A   1      43.930  29.289  30.426  1.00  0.00     0.029 A 
ATOM     25  C   UNL A   1      44.806  30.258  29.780  1.00  0.00     0.049 A 
ATOM     26  H   UNL A   1      44.940  32.306  30.142  1.00  0.00     0.167 HD
ATOM     27  C   UNL A   1      44.882  36.660  31.039  1.00  0.00     0.037 A 
ATOM     28  C   UNL A   1      45.706  29.971  28.824  1.00  0.00     0.037 A 
ATOM     29  C   UNL A   1      45.967  36.432  30.114  1.00  0.00     0.049 A 
ATOM     30  C   UNL A   1      46.577  31.085  28.329  1.00  0.00     0.074 A 
ATOM     31  C   UNL A   1      46.874  37.343  29.603  1.00  0.00     0.029 A 
ATOM     32  N   UNL A   1      46.278  35.200  29.549  1.00  0.00    -0.354 N 
ATOM     33  N   UNL A   1      46.547  32.356  28.656  1.00  0.00    -0.248 NA
ATOM     34  C   UNL A   1      47.618  30.733  27.359  1.00  0.00     0.031 C 
ATOM     35  C   UNL A   1      47.702  36.672  28.695  1.00  0.00     0.029 A 
ATOM     36  C   UNL A   1      47.348  35.332  28.678  1.00  0.00     0.049 A 
ATOM     37  H   UNL A   1      45.808  34.357  29.741  1.00  0.00     0.167 HD
ATOM     38  C   UNL A   1      47.574  32.957  27.945  1.00  0.00     0.074 A 
ATOM     39  C   UNL A   1      48.220  31.902  27.186  1.00  0.00     0.031 C 
ATOM     40  C   UNL A   1      47.952  34.260  27.921  1.00  0.00     0.037 A 
BRANCH  27  41
ATOM     41  C   UNL A   1      44.626  38.067  31.519  1.00  0.00     0.058 A 
ATOM     42  C   UNL A   1      45.192  38.541  32.715  1.00  0.00     0.135 A 
ATOM     43  C   UNL A   1      43.887  38.979  30.747  1.00  0.00     0.135 A 
ATOM     44  F   UNL A   1      45.904  37.716  33.501  1.00  0.00    -0.206 F 
ATOM     45  C   UNL A   1      45.025  39.858  33.133  1.00  0.00     0.059 A 
ATOM     46  C   UNL A   1      43.728  40.310  31.134  1.00  0.00     0.059 A 
ATOM     47  F   UNL A   1      43.323  38.587  29.594  1.00  0.00    -0.206 F 
ATOM     48  C   UNL A   1      44.297  40.739  32.332  1.00  0.00     0.060 A 
BRANCH  48  49
ATOM     49  S   UNL A   1      44.126  42.451  32.879  1.00  0.00     0.124 S 
ATOM     50  O   UNL A   1      45.412  43.017  32.480  1.00  0.00    -0.237 OA
ATOM     51  O   UNL A   1      42.970  42.907  32.114  1.00  0.00    -0.237 OA
ATOM     52  O   UNL A   1      43.915  42.332  34.318  1.00  0.00    -0.744 OA
ENDBRANCH  48  49
ENDBRANCH  27  41
BRANCH  28  53
ATOM     53  C   UNL A   1      45.869  28.564  28.379  1.00  0.00     0.058 A 
ATOM     54  C   UNL A   1      45.231  28.107  27.217  1.00  0.00     0.135 A 
ATOM     55  C   UNL A   1      46.744  27.684  29.034  1.00  0.00     0.135 A 
ATOM     56  F   UNL A   1      44.394  28.917  26.550  1.00  0.00    -0.206 F 
ATOM     57  C   UNL A   1      45.450  26.827  26.722  1.00  0.00     0.059 A 
ATOM     58  C   UNL A   1      46.996  26.406  28.545  1.00  0.00     0.059 A 
ATOM     59  F   UNL A   1      47.407  28.086  30.131  1.00  0.00    -0.206 F 
ATOM     60  C   UNL A   1      46.342  25.986  27.388  1.00  0.00     0.060 A 
BRANCH  60  61
ATOM     61  S   UNL A   1      46.671  24.353  26.689  1.00  0.00     0.124 S 
ATOM     62  O   UNL A   1      46.423  24.585  25.271  1.00  0.00    -0.237 OA
ATOM     63  O   UNL A   1      48.064  24.135  27.067  1.00  0.00    -0.237 OA
ATOM     64  O   UNL A   1      45.704  23.495  27.366  1.00  0.00    -0.744 OA
ENDBRANCH  60  61
ENDBRANCH  28  53
BRANCH  40  65
ATOM     65  C   UNL A   1      49.110  34.608  27.033  1.00  0.00     0.058 A 
ATOM     66  C   UNL A   1      50.433  34.532  27.496  1.00  0.00     0.135 A 
ATOM     67  C   UNL A   1      48.899  34.973  25.695  1.00  0.00     0.135 A 
ATOM     68  F   UNL A   1      50.684  34.198  28.771  1.00  0.00    -0.206 F 
ATOM     69  C   UNL A   1      51.507  34.830  26.667  1.00  0.00     0.059 A 
ATOM     70  C   UNL A   1      49.960  35.247  24.839  1.00  0.00     0.059 A 
ATOM     71  F   UNL A   1      47.651  35.053  25.203  1.00  0.00    -0.206 F 
ATOM     72  C   UNL A   1      51.260  35.183  25.339  1.00  0.00     0.060 A 
BRANCH  72  73
ATOM     73  S   UNL A   1      52.670  35.534  24.269  1.00  0.00     0.124 S 
ATOM     74  O   UNL A   1      52.607  34.420  23.327  1.00  0.00    -0.237 OA
ATOM     75  O   UNL A   1      52.328  36.844  23.726  1.00  0.00    -0.237 OA
ATOM     76  O   UNL A   1      53.806  35.517  25.185  1.00  0.00    -0.744 OA
ENDBRANCH  72  73
ENDBRANCH  40  65
ENDBRANCH  14  15
ENDBRANCH   7   9
ENDBRANCH   6   7
ENDBRANCH   5   6
ENDBRANCH   4   5
ENDBRANCH   3   4
ENDBRANCH   2   3
ENDBRANCH   1   2
BRANCH   1  77
ATOM     77  O   UNL A   1      35.190  34.436  31.405  1.00  0.00    -0.377 OA
BRANCH  77  78
ATOM     78  C   UNL A   1      34.518  33.383  30.724  1.00  0.00     0.188 C 
BRANCH  78  79
ATOM     79  C   UNL A   1      35.339  32.357  29.913  1.00  0.00     0.188 C 
BRANCH  79  80
ATOM     80  O   UNL A   1      34.999  32.300  28.539  1.00  0.00    -0.376 OA
BRANCH  80  81
ATOM     81  C   UNL A   1      34.204  33.374  28.052  1.00  0.00     0.202 C 
BRANCH  81  82
ATOM     82  C   UNL A   1      32.803  33.022  27.524  1.00  0.00     0.261 C 
BRANCH  82  83
ATOM     83  O   UNL A   1      32.559  31.630  27.256  1.00  0.00    -0.460 OA
BRANCH  83  84
ATOM     84  C   UNL A   1      31.677  31.297  26.287  1.00  0.00     0.341 C 
ATOM     85  O   UNL A   1      30.883  32.036  25.730  1.00  0.00    -0.246 OA
BRANCH  84  86
ATOM     86  C   UNL A   1      32.019  29.934  25.808  1.00  0.00     0.101 A 
ATOM     87  C   UNL A   1      31.007  29.169  25.198  1.00  0.00     0.022 A 
ATOM     88  C   UNL A   1      33.320  29.430  25.862  1.00  0.00     0.132 A 
ATOM     89  C   UNL A   1      31.293  27.911  24.650  1.00  0.00     0.028 A 
ATOM     90  C   UNL A   1      33.599  28.154  25.362  1.00  0.00     0.073 A 
ATOM     91  C   UNL A   1      32.580  27.380  24.781  1.00  0.00     0.054 A 
BRANCH  88  92
ATOM     92  O   UNL A   1      34.315  30.160  26.445  1.00  0.00    -0.507 OA
ATOM     93  H   UNL A   1      34.927  30.629  25.911  1.00  0.00     0.293 HD
ENDBRANCH  88  92
BRANCH  91  94
ATOM     94  N   UNL A   1      32.801  25.996  24.546  1.00  0.00    -0.261 N 
ATOM     95  C   UNL A   1      32.845  25.074  25.587  1.00  0.00     0.270 C 
ATOM     96  C   UNL A   1      33.048  25.513  23.268  1.00  0.00     0.152 C 
ATOM     97  O   UNL A   1      32.709  25.291  26.784  1.00  0.00    -0.268 OA
ATOM     98  C   UNL A   1      33.065  23.699  25.031  1.00  0.00     0.081 C 
ATOM     99  S   UNL A   1      33.220  23.771  23.318  1.00  0.00    -0.054 SA
ATOM    100  S   UNL A   1      33.234  26.351  21.832  1.00  0.00    -0.051 S 
ATOM    101  C   UNL A   1      33.100  22.578  25.769  1.00  0.00     0.027 C 
BRANCH 101 102
ATOM    102  C   UNL A   1      33.301  21.243  25.242  1.00  0.00    -0.016 C 
ATOM    103  C   UNL A   1      34.461  20.609  25.082  1.00  0.00     0.005 A 
ATOM    104  C   UNL A   1      32.156  20.342  24.861  1.00  0.00     0.179 C 
ATOM    105  C   UNL A   1      35.840  20.937  25.271  1.00  0.00     0.011 A 
ATOM    106  C   UNL A   1      34.042  19.267  24.638  1.00  0.00     0.065 A 
ATOM    107  N   UNL A   1      32.774  19.045  24.481  1.00  0.00    -0.280 NA
ATOM    108  C   UNL A   1      36.766  19.990  25.041  1.00  0.00     0.001 A 
ATOM    109  C   UNL A   1      35.120  18.275  24.426  1.00  0.00     0.028 A 
ATOM    110  C   UNL A   1      36.394  18.647  24.628  1.00  0.00     0.002 A 
ENDBRANCH 101 102
ENDBRANCH  91  94
ENDBRANCH  84  86
ENDBRANCH  83  84
ENDBRANCH  82  83
ENDBRANCH  81  82
ENDBRANCH  80  81
ENDBRANCH  79  80
ENDBRANCH  78  79
ENDBRANCH  77  78
ENDBRANCH   1  77
TORSDOF 26
ENDMDL
MODEL 2
REMARK VINA RESULT:      -8.3      5.548     14.245
REMARK SMILES O=C(OCCOCCOCCOCCOC(=O)c1ccc(N2C(=O)/C(=C/C3=c4ccccc4=NC3)SC2=S)cc1O)c1ccc(-c2c3nc(c(-c4c(F)cc(S(=O)(=O)[O-])cc4F)c4ccc([nH]4)c(-c4c(F)cc(S(=O)(=O)[O-])cc4F)c4nc(c(-c5c(F)cc(S(=O)(=O)[O-])cc5F)c5ccc2[nH]5)C=C4)C=C3)cc1
REMARK SMILES IDX 8 1 7 2 6 3 5 4 4 5 3 6 2 7 1 8 42 9 43 10 107 11 44 12
REMARK SMILES IDX 106 13 45 14 46 15 47 16 100 17 48 18 105 19 99 20 101 21
REMARK SMILES IDX 49 22 104 23 98 24 97 25 50 27 84 28 63 29 83 30 64 31 67 32
REMARK SMILES IDX 82 33 102 34 65 35 66 36 81 38 103 39 68 40 51 41 52 42
REMARK SMILES IDX 61 43 53 44 54 45 60 46 62 47 55 48 56 49 57 50 58 51 59 52
REMARK SMILES IDX 85 53 86 54 95 55 87 56 88 57 94 58 96 59 89 60 90 61 91 62
REMARK SMILES IDX 92 63 93 64 69 65 70 66 79 67 71 68 72 69 78 70 80 71 73 72
REMARK SMILES IDX 74 73 75 74 76 75 77 76 9 77 10 78 11 79 12 80 13 81 14 82
REMARK SMILES IDX 15 83 16 84 17 85 18 86 19 87 40 88 20 89 39 90 21 91 41 92
REMARK SMILES IDX 22 94 23 95 37 96 24 97 25 98 36 99 38 100 26 101 27 102
REMARK SMILES IDX 28 103 35 104 29 105 33 106 34 107 30 108 32 109 31 110
REMARK H PARENT 101 26 67 37 41 93
REMARK Flexibility Score: inf
ROOT
ATOM      1  C   UNL A   1      43.986  40.843  28.582  1.00  0.00     0.188 C 
ENDROOT
BRANCH   1   2
ATOM      2  C   UNL A   1      45.510  40.830  28.476  1.00  0.00     0.188 C 
BRANCH   2   3
ATOM      3  O   UNL A   1      45.995  39.646  27.834  1.00  0.00    -0.376 OA
BRANCH   3   4
ATOM      4  C   UNL A   1      46.212  38.534  28.701  1.00  0.00     0.202 C 
BRANCH   4   5
ATOM      5  C   UNL A   1      47.374  38.693  29.680  1.00  0.00     0.261 C 
BRANCH   5   6
ATOM      6  O   UNL A   1      48.109  37.485  29.904  1.00  0.00    -0.460 OA
BRANCH   6   7
ATOM      7  C   UNL A   1      48.458  36.520  29.019  1.00  0.00     0.338 C 
ATOM      8  O   UNL A   1      49.322  36.814  28.191  1.00  0.00    -0.246 OA
BRANCH   7   9
ATOM      9  C   UNL A   1      47.839  35.149  28.923  1.00  0.00     0.060 A 
ATOM     10  C   UNL A   1      47.135  34.872  27.733  1.00  0.00     0.016 A 
ATOM     11  C   UNL A   1      47.868  34.142  29.893  1.00  0.00     0.016 A 
ATOM     12  C   UNL A   1      46.504  33.642  27.523  1.00  0.00     0.010 A 
ATOM     13  C   UNL A   1      47.222  32.921  29.706  1.00  0.00     0.010 A 
ATOM     14  C   UNL A   1      46.561  32.654  28.510  1.00  0.00    -0.014 A 
BRANCH  14  15
ATOM     15  C   UNL A   1      46.171  31.261  28.230  1.00  0.00     0.031 A 
ATOM     16  C   UNL A   1      47.117  30.289  27.605  1.00  0.00     0.074 A 
ATOM     17  C   UNL A   1      44.877  30.958  28.442  1.00  0.00     0.049 A 
ATOM     18  N   UNL A   1      46.919  29.029  27.319  1.00  0.00    -0.248 NA
ATOM     19  C   UNL A   1      48.448  30.792  27.229  1.00  0.00     0.031 C 
ATOM     20  C   UNL A   1      43.871  31.903  28.943  1.00  0.00     0.029 A 
ATOM     21  N   UNL A   1      44.175  29.803  28.244  1.00  0.00    -0.354 N 
ATOM     22  C   UNL A   1      48.107  28.575  26.758  1.00  0.00     0.074 A 
ATOM     23  C   UNL A   1      49.001  29.712  26.688  1.00  0.00     0.031 C 
ATOM     24  C   UNL A   1      42.685  31.287  29.020  1.00  0.00     0.029 A 
ATOM     25  C   UNL A   1      42.846  29.909  28.574  1.00  0.00     0.049 A 
ATOM     26  H   UNL A   1      44.582  28.975  27.898  1.00  0.00     0.167 HD
ATOM     27  C   UNL A   1      48.410  27.314  26.364  1.00  0.00     0.037 A 
ATOM     28  C   UNL A   1      41.868  28.987  28.539  1.00  0.00     0.037 A 
ATOM     29  C   UNL A   1      47.467  26.222  26.421  1.00  0.00     0.049 A 
ATOM     30  C   UNL A   1      42.235  27.595  28.124  1.00  0.00     0.074 A 
ATOM     31  C   UNL A   1      47.668  24.888  26.113  1.00  0.00     0.029 A 
ATOM     32  N   UNL A   1      46.134  26.348  26.799  1.00  0.00    -0.354 N 
ATOM     33  N   UNL A   1      43.398  27.143  27.714  1.00  0.00    -0.248 NA
ATOM     34  C   UNL A   1      41.178  26.583  28.187  1.00  0.00     0.031 C 
ATOM     35  C   UNL A   1      46.447  24.218  26.259  1.00  0.00     0.029 A 
ATOM     36  C   UNL A   1      45.496  25.121  26.710  1.00  0.00     0.049 A 
ATOM     37  H   UNL A   1      45.707  27.185  27.089  1.00  0.00     0.167 HD
ATOM     38  C   UNL A   1      43.219  25.788  27.484  1.00  0.00     0.074 A 
ATOM     39  C   UNL A   1      41.838  25.492  27.822  1.00  0.00     0.031 C 
ATOM     40  C   UNL A   1      44.111  24.869  27.036  1.00  0.00     0.037 A 
BRANCH  27  41
ATOM     41  C   UNL A   1      49.808  27.035  25.872  1.00  0.00     0.058 A 
ATOM     42  C   UNL A   1      50.096  26.968  24.498  1.00  0.00     0.135 A 
ATOM     43  C   UNL A   1      50.887  26.919  26.765  1.00  0.00     0.135 A 
ATOM     44  F   UNL A   1      49.106  27.065  23.594  1.00  0.00    -0.206 F 
ATOM     45  C   UNL A   1      51.393  26.783  24.028  1.00  0.00     0.059 A 
ATOM     46  C   UNL A   1      52.199  26.759  26.316  1.00  0.00     0.059 A 
ATOM     47  F   UNL A   1      50.677  26.976  28.089  1.00  0.00    -0.206 F 
ATOM     48  C   UNL A   1      52.440  26.688  24.946  1.00  0.00     0.060 A 
BRANCH  48  49
ATOM     49  S   UNL A   1      54.118  26.485  24.309  1.00  0.00     0.124 S 
ATOM     50  O   UNL A   1      54.424  25.117  24.716  1.00  0.00    -0.237 OA
ATOM     51  O   UNL A   1      53.934  26.693  22.877  1.00  0.00    -0.237 OA
ATOM     52  O   UNL A   1      54.874  27.526  24.999  1.00  0.00    -0.744 OA
ENDBRANCH  48  49
ENDBRANCH  27  41
BRANCH  28  53
ATOM     53  C   UNL A   1      40.507  29.355  29.005  1.00  0.00     0.058 A 
ATOM     54  C   UNL A   1      40.252  29.553  30.369  1.00  0.00     0.135 A 
ATOM     55  C   UNL A   1      39.469  29.621  28.099  1.00  0.00     0.135 A 
ATOM     56  F   UNL A   1      41.217  29.322  31.272  1.00  0.00    -0.206 F 
ATOM     57  C   UNL A   1      39.015  29.999  30.821  1.00  0.00     0.059 A 
ATOM     58  C   UNL A   1      38.229  30.090  28.525  1.00  0.00     0.059 A 
ATOM     59  F   UNL A   1      39.674  29.480  26.779  1.00  0.00    -0.206 F 
ATOM     60  C   UNL A   1      38.012  30.273  29.890  1.00  0.00     0.060 A 
BRANCH  60  61
ATOM     61  S   UNL A   1      36.437  30.923  30.489  1.00  0.00     0.124 S 
ATOM     62  O   UNL A   1      36.824  32.249  30.957  1.00  0.00    -0.237 OA
ATOM     63  O   UNL A   1      35.614  30.887  29.283  1.00  0.00    -0.237 OA
ATOM     64  O   UNL A   1      36.053  29.974  31.529  1.00  0.00    -0.744 OA
ENDBRANCH  60  61
ENDBRANCH  28  53
BRANCH  40  65
ATOM     65  C   UNL A   1      43.608  23.464  26.877  1.00  0.00     0.058 A 
ATOM     66  C   UNL A   1      43.399  22.635  27.990  1.00  0.00     0.135 A 
ATOM     67  C   UNL A   1      43.288  22.960  25.608  1.00  0.00     0.135 A 
ATOM     68  F   UNL A   1      43.702  23.069  29.223  1.00  0.00    -0.206 F 
ATOM     69  C   UNL A   1      42.910  21.342  27.846  1.00  0.00     0.059 A 
ATOM     70  C   UNL A   1      42.770  21.681  25.443  1.00  0.00     0.059 A 
ATOM     71  F   UNL A   1      43.464  23.719  24.513  1.00  0.00    -0.206 F 
ATOM     72  C   UNL A   1      42.595  20.876  26.569  1.00  0.00     0.060 A 
BRANCH  72  73
ATOM     73  S   UNL A   1      41.929  19.207  26.405  1.00  0.00     0.124 S 
ATOM     74  O   UNL A   1      42.837  18.625  25.421  1.00  0.00    -0.237 OA
ATOM     75  O   UNL A   1      42.051  18.690  27.764  1.00  0.00    -0.237 OA
ATOM     76  O   UNL A   1      40.562  19.429  25.944  1.00  0.00    -0.744 OA
ENDBRANCH  72  73
ENDBRANCH  40  65
ENDBRANCH  14  15
ENDBRANCH   7   9
ENDBRANCH   6   7
ENDBRANCH   5   6
ENDBRANCH   4   5
ENDBRANCH   3   4
ENDBRANCH   2   3
ENDBRANCH   1   2
BRANCH   1  77
ATOM     77  O   UNL A   1      43.468  40.924  29.908  1.00  0.00    -0.377 OA
BRANCH  77  78
ATOM     78  C   UNL A   1      44.271  40.377  30.947  1.00  0.00     0.188 C 
BRANCH  78  79
ATOM     79  C   UNL A   1      43.605  39.538  32.059  1.00  0.00     0.188 C 
BRANCH  79  80
ATOM     80  O   UNL A   1      44.442  39.287  33.175  1.00  0.00    -0.376 OA
BRANCH  80  81
ATOM     81  C   UNL A   1      44.331  37.993  33.754  1.00  0.00     0.202 C 
BRANCH  81  82
ATOM     82  C   UNL A   1      42.930  37.553  34.214  1.00  0.00     0.261 C 
BRANCH  82  83
ATOM     83  O   UNL A   1      42.440  36.319  33.659  1.00  0.00    -0.460 OA
BRANCH  83  84
ATOM     84  C   UNL A   1      42.762  35.156  34.269  1.00  0.00     0.341 C 
ATOM     85  O   UNL A   1      43.755  34.475  34.077  1.00  0.00    -0.246 OA
BRANCH  84  86
ATOM     86  C   UNL A   1      41.841  34.974  35.419  1.00  0.00     0.101 A 
ATOM     87  C   UNL A   1      42.398  34.835  36.704  1.00  0.00     0.022 A 
ATOM     88  C   UNL A   1      40.453  35.029  35.276  1.00  0.00     0.132 A 
ATOM     89  C   UNL A   1      41.575  34.748  37.835  1.00  0.00     0.028 A 
ATOM     90  C   UNL A   1      39.627  34.892  36.396  1.00  0.00     0.073 A 
ATOM     91  C   UNL A   1      40.186  34.721  37.675  1.00  0.00     0.054 A 
BRANCH  88  92
ATOM     92  O   UNL A   1      39.895  35.169  34.038  1.00  0.00    -0.507 OA
ATOM     93  H   UNL A   1      40.022  34.506  33.389  1.00  0.00     0.293 HD
ENDBRANCH  88  92
BRANCH  91  94
ATOM     94  N   UNL A   1      39.359  34.296  38.749  1.00  0.00    -0.261 N 
ATOM     95  C   UNL A   1      38.775  33.032  38.768  1.00  0.00     0.270 C 
ATOM     96  C   UNL A   1      39.044  35.149  39.797  1.00  0.00     0.152 C 
ATOM     97  O   UNL A   1      38.875  32.150  37.925  1.00  0.00    -0.268 OA
ATOM     98  C   UNL A   1      37.986  32.863  40.031  1.00  0.00     0.081 C 
ATOM     99  S   UNL A   1      38.059  34.302  40.972  1.00  0.00    -0.054 SA
ATOM    100  S   UNL A   1      39.426  36.764  40.006  1.00  0.00    -0.051 S 
ATOM    101  C   UNL A   1      37.347  31.735  40.382  1.00  0.00     0.027 C 
BRANCH 101 102
ATOM    102  C   UNL A   1      36.590  31.556  41.604  1.00  0.00    -0.016 C 
ATOM    103  C   UNL A   1      36.954  30.860  42.680  1.00  0.00     0.005 A 
ATOM    104  C   UNL A   1      35.266  32.233  41.844  1.00  0.00     0.179 C 
ATOM    105  C   UNL A   1      38.067  30.038  43.037  1.00  0.00     0.011 A 
ATOM    106  C   UNL A   1      35.865  31.139  43.634  1.00  0.00     0.065 A 
ATOM    107  N   UNL A   1      34.883  31.887  43.237  1.00  0.00    -0.280 NA
ATOM    108  C   UNL A   1      38.115  29.518  44.275  1.00  0.00     0.001 A 
ATOM    109  C   UNL A   1      36.001  30.546  44.983  1.00  0.00     0.028 A 
ATOM    110  C   UNL A   1      37.076  29.789  45.255  1.00  0.00     0.002 A 
ENDBRANCH 101 102
ENDBRANCH  91  94
ENDBRANCH  84  86
ENDBRANCH  83  84
ENDBRANCH  82  83
ENDBRANCH  81  82
ENDBRANCH  80  81
ENDBRANCH  79  80
ENDBRANCH  78  79
ENDBRANCH  77  78
ENDBRANCH   1  77
TORSDOF 26
ENDMDL
MODEL 3
REMARK VINA RESULT:      -8.2      8.136     17.896
REMARK SMILES O=C(OCCOCCOCCOCCOC(=O)c1ccc(N2C(=O)/C(=C/C3=c4ccccc4=NC3)SC2=S)cc1O)c1ccc(-c2c3nc(c(-c4c(F)cc(S(=O)(=O)[O-])cc4F)c4ccc([nH]4)c(-c4c(F)cc(S(=O)(=O)[O-])cc4F)c4nc(c(-c5c(F)cc(S(=O)(=O)[O-])cc5F)c5ccc2[nH]5)C=C4)C=C3)cc1
REMARK SMILES IDX 8 1 7 2 6 3 5 4 4 5 3 6 2 7 1 8 42 9 43 10 107 11 44 12
REMARK SMILES IDX 106 13 45 14 46 15 47 16 100 17 48 18 105 19 99 20 101 21
REMARK SMILES IDX 49 22 104 23 98 24 97 25 50 27 84 28 63 29 83 30 64 31 67 32
REMARK SMILES IDX 82 33 102 34 65 35 66 36 81 38 103 39 68 40 51 41 52 42
REMARK SMILES IDX 61 43 53 44 54 45 60 46 62 47 55 48 56 49 57 50 58 51 59 52
REMARK SMILES IDX 85 53 86 54 95 55 87 56 88 57 94 58 96 59 89 60 90 61 91 62
REMARK SMILES IDX 92 63 93 64 69 65 70 66 79 67 71 68 72 69 78 70 80 71 73 72
REMARK SMILES IDX 74 73 75 74 76 75 77 76 9 77 10 78 11 79 12 80 13 81 14 82
REMARK SMILES IDX 15 83 16 84 17 85 18 86 19 87 40 88 20 89 39 90 21 91 41 92
REMARK SMILES IDX 22 94 23 95 37 96 24 97 25 98 36 99 38 100 26 101 27 102
REMARK SMILES IDX 28 103 35 104 29 105 33 106 34 107 30 108 32 109 31 110
REMARK H PARENT 101 26 67 37 41 93
REMARK Flexibility Score: inf
ROOT
ATOM      1  C   UNL A   1      58.993  20.762  22.190  1.00  0.00     0.188 C 
ENDROOT
BRANCH   1   2
ATOM      2  C   UNL A   1      59.487  22.162  22.553  1.00  0.00     0.188 C 
BRANCH   2   3
ATOM      3  O   UNL A   1      58.502  22.909  23.276  1.00  0.00    -0.376 OA
BRANCH   3   4
ATOM      4  C   UNL A   1      58.655  22.897  24.694  1.00  0.00     0.202 C 
BRANCH   4   5
ATOM      5  C   UNL A   1      57.519  23.557  25.474  1.00  0.00     0.261 C 
BRANCH   5   6
ATOM      6  O   UNL A   1      57.589  24.986  25.497  1.00  0.00    -0.460 OA
BRANCH   6   7
ATOM      7  C   UNL A   1      57.035  25.884  24.645  1.00  0.00     0.338 C 
ATOM      8  O   UNL A   1      57.504  25.928  23.506  1.00  0.00    -0.246 OA
BRANCH   7   9
ATOM      9  C   UNL A   1      55.948  26.869  24.990  1.00  0.00     0.060 A 
ATOM     10  C   UNL A   1      55.329  27.512  23.899  1.00  0.00     0.016 A 
ATOM     11  C   UNL A   1      55.512  27.227  26.270  1.00  0.00     0.016 A 
ATOM     12  C   UNL A   1      54.314  28.456  24.083  1.00  0.00     0.010 A 
ATOM     13  C   UNL A   1      54.519  28.185  26.467  1.00  0.00     0.010 A 
ATOM     14  C   UNL A   1      53.896  28.784  25.375  1.00  0.00    -0.014 A 
BRANCH  14  15
ATOM     15  C   UNL A   1      52.655  29.541  25.615  1.00  0.00     0.031 A 
ATOM     16  C   UNL A   1      51.332  28.861  25.755  1.00  0.00     0.074 A 
ATOM     17  C   UNL A   1      52.763  30.882  25.563  1.00  0.00     0.049 A 
ATOM     18  N   UNL A   1      50.162  29.396  25.986  1.00  0.00    -0.248 NA
ATOM     19  C   UNL A   1      51.307  27.399  25.591  1.00  0.00     0.031 C 
ATOM     20  C   UNL A   1      54.015  31.607  25.312  1.00  0.00     0.029 A 
ATOM     21  N   UNL A   1      51.828  31.870  25.685  1.00  0.00    -0.354 N 
ATOM     22  C   UNL A   1      49.262  28.338  26.029  1.00  0.00     0.074 A 
ATOM     23  C   UNL A   1      50.013  27.135  25.738  1.00  0.00     0.031 C 
ATOM     24  C   UNL A   1      53.770  32.923  25.306  1.00  0.00     0.029 A 
ATOM     25  C   UNL A   1      52.349  33.134  25.551  1.00  0.00     0.049 A 
ATOM     26  H   UNL A   1      50.873  31.693  25.852  1.00  0.00     0.167 HD
ATOM     27  C   UNL A   1      47.937  28.386  26.309  1.00  0.00     0.037 A 
ATOM     28  C   UNL A   1      51.747  34.333  25.638  1.00  0.00     0.037 A 
ATOM     29  C   UNL A   1      47.228  29.620  26.556  1.00  0.00     0.049 A 
ATOM     30  C   UNL A   1      50.287  34.359  25.973  1.00  0.00     0.074 A 
ATOM     31  C   UNL A   1      45.903  29.800  26.913  1.00  0.00     0.029 A 
ATOM     32  N   UNL A   1      47.789  30.888  26.455  1.00  0.00    -0.354 N 
ATOM     33  N   UNL A   1      49.467  33.347  26.138  1.00  0.00    -0.248 NA
ATOM     34  C   UNL A   1      49.672  35.675  26.160  1.00  0.00     0.031 C 
ATOM     35  C   UNL A   1      45.653  31.176  26.981  1.00  0.00     0.029 A 
ATOM     36  C   UNL A   1      46.833  31.856  26.719  1.00  0.00     0.049 A 
ATOM     37  H   UNL A   1      48.730  31.072  26.230  1.00  0.00     0.167 HD
ATOM     38  C   UNL A   1      48.239  33.901  26.464  1.00  0.00     0.074 A 
ATOM     39  C   UNL A   1      48.433  35.340  26.493  1.00  0.00     0.031 C 
ATOM     40  C   UNL A   1      47.059  33.282  26.718  1.00  0.00     0.037 A 
BRANCH  27  41
ATOM     41  C   UNL A   1      47.176  27.087  26.396  1.00  0.00     0.058 A 
ATOM     42  C   UNL A   1      46.521  26.552  25.274  1.00  0.00     0.135 A 
ATOM     43  C   UNL A   1      47.168  26.323  27.575  1.00  0.00     0.135 A 
ATOM     44  F   UNL A   1      46.487  27.237  24.119  1.00  0.00    -0.206 F 
ATOM     45  C   UNL A   1      45.876  25.319  25.320  1.00  0.00     0.059 A 
ATOM     46  C   UNL A   1      46.550  25.074  27.638  1.00  0.00     0.059 A 
ATOM     47  F   UNL A   1      47.777  26.780  28.680  1.00  0.00    -0.206 F 
ATOM     48  C   UNL A   1      45.903  24.582  26.505  1.00  0.00     0.060 A 
BRANCH  48  49
ATOM     49  S   UNL A   1      45.091  22.969  26.528  1.00  0.00     0.124 S 
ATOM     50  O   UNL A   1      44.818  22.797  27.952  1.00  0.00    -0.237 OA
ATOM     51  O   UNL A   1      43.923  23.198  25.684  1.00  0.00    -0.237 OA
ATOM     52  O   UNL A   1      46.097  22.071  25.971  1.00  0.00    -0.744 OA
ENDBRANCH  48  49
ENDBRANCH  27  41
BRANCH  28  53
ATOM     53  C   UNL A   1      52.563  35.565  25.501  1.00  0.00     0.058 A 
ATOM     54  C   UNL A   1      52.714  36.184  24.253  1.00  0.00     0.135 A 
ATOM     55  C   UNL A   1      53.113  36.209  26.621  1.00  0.00     0.135 A 
ATOM     56  F   UNL A   1      52.196  35.613  23.155  1.00  0.00    -0.206 F 
ATOM     57  C   UNL A   1      53.384  37.395  24.116  1.00  0.00     0.059 A 
ATOM     58  C   UNL A   1      53.769  37.432  26.513  1.00  0.00     0.059 A 
ATOM     59  F   UNL A   1      52.965  35.675  27.844  1.00  0.00    -0.206 F 
ATOM     60  C   UNL A   1      53.901  38.015  25.254  1.00  0.00     0.060 A 
BRANCH  60  61
ATOM     61  S   UNL A   1      54.703  39.623  25.068  1.00  0.00     0.124 S 
ATOM     62  O   UNL A   1      54.384  40.260  26.341  1.00  0.00    -0.237 OA
ATOM     63  O   UNL A   1      56.100  39.246  24.874  1.00  0.00    -0.237 OA
ATOM     64  O   UNL A   1      54.047  40.194  23.896  1.00  0.00    -0.744 OA
ENDBRANCH  60  61
ENDBRANCH  28  53
BRANCH  40  65
ATOM     65  C   UNL A   1      45.890  34.168  27.036  1.00  0.00     0.058 A 
ATOM     66  C   UNL A   1      44.985  34.566  26.040  1.00  0.00     0.135 A 
ATOM     67  C   UNL A   1      45.645  34.581  28.355  1.00  0.00     0.135 A 
ATOM     68  F   UNL A   1      45.184  34.206  24.762  1.00  0.00    -0.206 F 
ATOM     69  C   UNL A   1      43.888  35.366  26.337  1.00  0.00     0.059 A 
ATOM     70  C   UNL A   1      44.538  35.356  28.680  1.00  0.00     0.059 A 
ATOM     71  F   UNL A   1      46.479  34.218  29.344  1.00  0.00    -0.206 F 
ATOM     72  C   UNL A   1      43.671  35.751  27.661  1.00  0.00     0.060 A 
BRANCH  72  73
ATOM     73  S   UNL A   1      42.224  36.761  28.034  1.00  0.00     0.124 S 
ATOM     74  O   UNL A   1      41.249  35.746  28.420  1.00  0.00    -0.237 OA
ATOM     75  O   UNL A   1      42.710  37.615  29.112  1.00  0.00    -0.237 OA
ATOM     76  O   UNL A   1      41.951  37.445  26.773  1.00  0.00    -0.744 OA
ENDBRANCH  72  73
ENDBRANCH  40  65
ENDBRANCH  14  15
ENDBRANCH   7   9
ENDBRANCH   6   7
ENDBRANCH   5   6
ENDBRANCH   4   5
ENDBRANCH   3   4
ENDBRANCH   2   3
ENDBRANCH   1   2
BRANCH   1  77
ATOM     77  O   UNL A   1      57.777  20.718  21.449  1.00  0.00    -0.377 OA
BRANCH  77  78
ATOM     78  C   UNL A   1      57.873  20.359  20.075  1.00  0.00     0.188 C 
BRANCH  78  79
ATOM     79  C   UNL A   1      57.249  21.281  19.004  1.00  0.00     0.188 C 
BRANCH  79  80
ATOM     80  O   UNL A   1      56.325  20.632  18.149  1.00  0.00    -0.376 OA
BRANCH  80  81
ATOM     81  C   UNL A   1      55.021  21.198  18.102  1.00  0.00     0.202 C 
BRANCH  81  82
ATOM     82  C   UNL A   1      54.055  20.636  17.045  1.00  0.00     0.261 C 
BRANCH  82  83
ATOM     83  O   UNL A   1      53.697  21.530  15.976  1.00  0.00    -0.460 OA
BRANCH  83  84
ATOM     84  C   UNL A   1      52.432  22.003  15.916  1.00  0.00     0.341 C 
ATOM     85  O   UNL A   1      51.413  21.357  15.745  1.00  0.00    -0.246 OA
BRANCH  84  86
ATOM     86  C   UNL A   1      52.453  23.416  16.370  1.00  0.00     0.101 A 
ATOM     87  C   UNL A   1      53.653  24.141  16.238  1.00  0.00     0.022 A 
ATOM     88  C   UNL A   1      51.307  24.067  16.833  1.00  0.00     0.132 A 
ATOM     89  C   UNL A   1      53.706  25.502  16.568  1.00  0.00     0.028 A 
ATOM     90  C   UNL A   1      51.369  25.411  17.212  1.00  0.00     0.073 A 
ATOM     91  C   UNL A   1      52.577  26.124  17.108  1.00  0.00     0.054 A 
BRANCH  88  92
ATOM     92  O   UNL A   1      50.134  23.381  16.963  1.00  0.00    -0.507 OA
ATOM     93  H   UNL A   1      49.331  23.767  16.672  1.00  0.00     0.293 HD
ENDBRANCH  88  92
BRANCH  91  94
ATOM     94  N   UNL A   1      52.704  27.381  17.757  1.00  0.00    -0.261 N 
ATOM     95  C   UNL A   1      52.946  27.479  19.124  1.00  0.00     0.270 C 
ATOM     96  C   UNL A   1      52.529  28.571  17.064  1.00  0.00     0.152 C 
ATOM     97  O   UNL A   1      53.078  26.564  19.927  1.00  0.00    -0.268 OA
ATOM     98  C   UNL A   1      53.056  28.922  19.513  1.00  0.00     0.081 C 
ATOM     99  S   UNL A   1      52.808  29.927  18.138  1.00  0.00    -0.054 SA
ATOM    100  S   UNL A   1      52.067  28.818  15.475  1.00  0.00    -0.051 S 
ATOM    101  C   UNL A   1      53.343  29.356  20.751  1.00  0.00     0.027 C 
BRANCH 101 102
ATOM    102  C   UNL A   1      53.464  30.747  21.136  1.00  0.00    -0.016 C 
ATOM    103  C   UNL A   1      54.545  31.356  21.621  1.00  0.00     0.005 A 
ATOM    104  C   UNL A   1      52.344  31.738  20.955  1.00  0.00     0.179 C 
ATOM    105  C   UNL A   1      55.866  30.953  21.990  1.00  0.00     0.011 A 
ATOM    106  C   UNL A   1      54.118  32.765  21.703  1.00  0.00     0.065 A 
ATOM    107  N   UNL A   1      52.901  33.055  21.360  1.00  0.00    -0.280 NA
ATOM    108  C   UNL A   1      56.732  31.890  22.413  1.00  0.00     0.001 A 
ATOM    109  C   UNL A   1      55.135  33.738  22.159  1.00  0.00     0.028 A 
ATOM    110  C   UNL A   1      56.360  33.293  22.484  1.00  0.00     0.002 A 
ENDBRANCH 101 102
ENDBRANCH  91  94
ENDBRANCH  84  86
ENDBRANCH  83  84
ENDBRANCH  82  83
ENDBRANCH  81  82
ENDBRANCH  80  81
ENDBRANCH  79  80
ENDBRANCH  78  79
ENDBRANCH  77  78
ENDBRANCH   1  77
TORSDOF 26
ENDMDL
