MODEL 1
REMARK VINA RESULT:      -9.2      0.000      0.000
REMARK SMILES NS(=O)(=O)c1ccc(N2N=C(C(=O)OCCOCCOCCOCCOC(=O)c3ccc(-c4c5nc(c(-c6c(F)cc(S(=O)(=O)[O-])cc6F)c6ccc([nH]6)c(-c6c(F)cc(S(=O)(=O)[O-])cc6F)c6nc(c(-c7c(F)cc(S(=O)(=O)[O-])cc7F)c7ccc4[nH]7)C=C6)C=C5)cc3)C[C@H]2c2ccco2)cc1
REMARK SMILES IDX 20 1 19 2 18 3 17 4 16 5 15 6 14 7 12 8 13 9 11 10 9 11
REMARK SMILES IDX 10 12 96 13 95 14 8 15 5 16 6 17 103 18 7 19 102 20 2 21
REMARK SMILES IDX 3 22 4 23 1 24 97 27 98 28 101 29 99 30 100 31 21 32 22 33
REMARK SMILES IDX 23 34 24 35 25 36 26 37 27 38 28 39 29 40 30 41 94 42 31 43
REMARK SMILES IDX 93 44 32 45 33 46 34 47 87 48 35 49 92 50 86 51 88 52 36 53
REMARK SMILES IDX 91 54 85 55 84 56 37 58 71 59 50 60 70 61 51 62 54 63 69 64
REMARK SMILES IDX 89 65 52 66 53 67 68 69 90 70 55 71 38 72 39 73 48 74 40 75
REMARK SMILES IDX 41 76 47 77 49 78 42 79 43 80 44 81 45 82 46 83 72 84 73 85
REMARK SMILES IDX 82 86 74 87 75 88 81 89 83 90 76 91 77 92 78 93 79 94 80 95
REMARK SMILES IDX 56 96 57 97 66 98 58 99 59 100 65 101 67 102 60 103 61 104
REMARK SMILES IDX 62 105 63 106 64 107
REMARK H PARENT 1 25 1 26 88 57 54 68
REMARK Flexibility Score: inf
ROOT
ATOM      1  O   UNL A   1      31.949  29.673  26.867  1.00  0.00    -0.377 OA
ENDROOT
BRANCH   1   2
ATOM      2  C   UNL A   1      31.897  29.866  25.463  1.00  0.00     0.188 C 
BRANCH   2   3
ATOM      3  C   UNL A   1      31.406  28.647  24.659  1.00  0.00     0.188 C 
BRANCH   3   4
ATOM      4  O   UNL A   1      31.327  28.873  23.265  1.00  0.00    -0.376 OA
BRANCH   4   5
ATOM      5  C   UNL A   1      30.604  28.009  22.405  1.00  0.00     0.202 C 
BRANCH   5   6
ATOM      6  C   UNL A   1      30.875  26.502  22.227  1.00  0.00     0.261 C 
BRANCH   6   7
ATOM      7  O   UNL A   1      31.970  26.142  21.391  1.00  0.00    -0.459 OA
BRANCH   7   8
ATOM      8  C   UNL A   1      33.207  26.350  21.867  1.00  0.00     0.354 C 
ATOM      9  O   UNL A   1      33.969  27.259  21.611  1.00  0.00    -0.245 OA
BRANCH   8  10
ATOM     10  C   UNL A   1      33.437  25.341  22.964  1.00  0.00     0.148 C 
ATOM     11  N   UNL A   1      33.786  23.486  23.934  1.00  0.00    -0.254 N 
ATOM     12  N   UNL A   1      33.550  24.070  22.721  1.00  0.00    -0.169 NA
ATOM     13  C   UNL A   1      33.479  24.410  25.053  1.00  0.00     0.180 C 
ATOM     14  C   UNL A   1      33.687  25.772  24.375  1.00  0.00     0.101 C 
BRANCH  11  15
ATOM     15  C   UNL A   1      33.638  22.107  24.015  1.00  0.00     0.060 A 
ATOM     16  C   UNL A   1      33.319  19.322  24.178  1.00  0.00     0.082 A 
ATOM     17  C   UNL A   1      32.377  20.087  23.486  1.00  0.00     0.024 A 
ATOM     18  C   UNL A   1      34.390  19.935  24.828  1.00  0.00     0.024 A 
ATOM     19  C   UNL A   1      32.547  21.475  23.401  1.00  0.00     0.029 A 
ATOM     20  C   UNL A   1      34.529  21.321  24.759  1.00  0.00     0.029 A 
BRANCH  16  21
ATOM     21  S   UNL A   1      33.139  17.568  24.281  1.00  0.00     0.238 S 
ATOM     22  O   UNL A   1      33.134  16.997  22.959  1.00  0.00    -0.207 OA
ATOM     23  O   UNL A   1      32.128  17.247  25.268  1.00  0.00    -0.207 OA
BRANCH  21  24
ATOM     24  N   UNL A   1      34.605  17.112  24.966  1.00  0.00    -0.225 NA
ATOM     25  H   UNL A   1      34.788  17.687  25.788  1.00  0.00     0.137 HD
ATOM     26  H   UNL A   1      35.353  17.242  24.285  1.00  0.00     0.137 HD
ENDBRANCH  21  24
ENDBRANCH  16  21
ENDBRANCH  11  15
BRANCH  13  27
ATOM     27  C   UNL A   1      32.110  24.307  25.672  1.00  0.00     0.128 A 
ATOM     28  C   UNL A   1      30.990  25.116  25.632  1.00  0.00     0.048 A 
ATOM     29  O   UNL A   1      31.848  23.215  26.451  1.00  0.00    -0.467 OA
ATOM     30  C   UNL A   1      30.013  24.497  26.449  1.00  0.00     0.042 A 
ATOM     31  C   UNL A   1      30.579  23.330  26.905  1.00  0.00     0.195 A 
ENDBRANCH  13  27
ENDBRANCH   8  10
ENDBRANCH   7   8
ENDBRANCH   6   7
ENDBRANCH   5   6
ENDBRANCH   4   5
ENDBRANCH   3   4
ENDBRANCH   2   3
ENDBRANCH   1   2
BRANCH   1  32
ATOM     32  C   UNL A   1      33.072  30.176  27.596  1.00  0.00     0.188 C 
BRANCH  32  33
ATOM     33  C   UNL A   1      33.639  31.601  27.381  1.00  0.00     0.188 C 
BRANCH  33  34
ATOM     34  O   UNL A   1      34.362  32.127  28.482  1.00  0.00    -0.376 OA
BRANCH  34  35
ATOM     35  C   UNL A   1      34.040  33.422  28.956  1.00  0.00     0.202 C 
BRANCH  35  36
ATOM     36  C   UNL A   1      35.116  34.169  29.755  1.00  0.00     0.261 C 
BRANCH  36  37
ATOM     37  O   UNL A   1      34.936  34.210  31.178  1.00  0.00    -0.460 OA
BRANCH  37  38
ATOM     38  C   UNL A   1      35.051  33.041  31.846  1.00  0.00     0.338 C 
ATOM     39  O   UNL A   1      34.145  32.351  32.275  1.00  0.00    -0.246 OA
BRANCH  38  40
ATOM     40  C   UNL A   1      36.475  32.647  31.812  1.00  0.00     0.060 A 
ATOM     41  C   UNL A   1      37.346  33.144  32.791  1.00  0.00     0.016 A 
ATOM     42  C   UNL A   1      36.946  31.789  30.816  1.00  0.00     0.016 A 
ATOM     43  C   UNL A   1      38.702  32.816  32.750  1.00  0.00     0.010 A 
ATOM     44  C   UNL A   1      38.305  31.476  30.767  1.00  0.00     0.010 A 
ATOM     45  C   UNL A   1      39.197  32.017  31.711  1.00  0.00    -0.014 A 
BRANCH  45  46
ATOM     46  C   UNL A   1      40.660  31.915  31.481  1.00  0.00     0.031 A 
ATOM     47  C   UNL A   1      41.341  33.035  30.738  1.00  0.00     0.074 A 
ATOM     48  C   UNL A   1      41.371  30.863  31.923  1.00  0.00     0.049 A 
ATOM     49  N   UNL A   1      42.581  33.135  30.340  1.00  0.00    -0.248 NA
ATOM     50  C   UNL A   1      40.502  34.195  30.394  1.00  0.00     0.031 C 
ATOM     51  C   UNL A   1      40.837  29.742  32.694  1.00  0.00     0.029 A 
ATOM     52  N   UNL A   1      42.703  30.562  31.772  1.00  0.00    -0.354 N 
ATOM     53  C   UNL A   1      42.671  34.361  29.692  1.00  0.00     0.074 A 
ATOM     54  C   UNL A   1      41.352  34.954  29.718  1.00  0.00     0.031 C 
ATOM     55  C   UNL A   1      41.830  28.867  32.936  1.00  0.00     0.029 A 
ATOM     56  C   UNL A   1      43.059  29.347  32.305  1.00  0.00     0.049 A 
ATOM     57  H   UNL A   1      43.343  31.163  31.324  1.00  0.00     0.167 HD
ATOM     58  C   UNL A   1      43.757  34.946  29.133  1.00  0.00     0.037 A 
ATOM     59  C   UNL A   1      44.234  28.685  32.262  1.00  0.00     0.037 A 
ATOM     60  C   UNL A   1      45.066  34.349  29.108  1.00  0.00     0.049 A 
ATOM     61  C   UNL A   1      45.411  29.319  31.559  1.00  0.00     0.074 A 
ATOM     62  C   UNL A   1      46.235  34.861  28.572  1.00  0.00     0.029 A 
ATOM     63  N   UNL A   1      45.381  33.105  29.635  1.00  0.00    -0.354 N 
ATOM     64  N   UNL A   1      45.488  30.485  30.960  1.00  0.00    -0.248 NA
ATOM     65  C   UNL A   1      46.663  28.548  31.528  1.00  0.00     0.031 C 
ATOM     66  C   UNL A   1      47.241  33.902  28.723  1.00  0.00     0.029 A 
ATOM     67  C   UNL A   1      46.718  32.822  29.415  1.00  0.00     0.049 A 
ATOM     68  H   UNL A   1      44.746  32.511  30.097  1.00  0.00     0.167 HD
ATOM     69  C   UNL A   1      46.803  30.603  30.518  1.00  0.00     0.074 A 
ATOM     70  C   UNL A   1      47.488  29.394  30.924  1.00  0.00     0.031 C 
ATOM     71  C   UNL A   1      47.392  31.620  29.843  1.00  0.00     0.037 A 
BRANCH  58  72
ATOM     72  C   UNL A   1      43.571  36.290  28.481  1.00  0.00     0.058 A 
ATOM     73  C   UNL A   1      44.046  37.472  29.072  1.00  0.00     0.135 A 
ATOM     74  C   UNL A   1      42.942  36.391  27.229  1.00  0.00     0.135 A 
ATOM     75  F   UNL A   1      44.636  37.437  30.278  1.00  0.00    -0.206 F 
ATOM     76  C   UNL A   1      43.886  38.708  28.454  1.00  0.00     0.059 A 
ATOM     77  C   UNL A   1      42.799  37.613  26.579  1.00  0.00     0.059 A 
ATOM     78  F   UNL A   1      42.463  35.293  26.622  1.00  0.00    -0.206 F 
ATOM     79  C   UNL A   1      43.264  38.769  27.206  1.00  0.00     0.060 A 
BRANCH  79  80
ATOM     80  S   UNL A   1      43.080  40.379  26.412  1.00  0.00     0.124 S 
ATOM     81  O   UNL A   1      44.304  40.456  25.622  1.00  0.00    -0.237 OA
ATOM     82  O   UNL A   1      41.845  40.210  25.653  1.00  0.00    -0.237 OA
ATOM     83  O   UNL A   1      43.001  41.306  27.536  1.00  0.00    -0.744 OA
ENDBRANCH  79  80
ENDBRANCH  58  72
BRANCH  59  84
ATOM     84  C   UNL A   1      44.363  27.339  32.885  1.00  0.00     0.058 A 
ATOM     85  C   UNL A   1      44.623  27.196  34.256  1.00  0.00     0.135 A 
ATOM     86  C   UNL A   1      44.252  26.168  32.119  1.00  0.00     0.135 A 
ATOM     87  F   UNL A   1      44.751  28.283  35.031  1.00  0.00    -0.206 F 
ATOM     88  C   UNL A   1      44.790  25.945  34.842  1.00  0.00     0.059 A 
ATOM     89  C   UNL A   1      44.385  24.904  32.687  1.00  0.00     0.059 A 
ATOM     90  F   UNL A   1      43.998  26.245  30.803  1.00  0.00    -0.206 F 
ATOM     91  C   UNL A   1      44.667  24.803  34.048  1.00  0.00     0.060 A 
BRANCH  91  92
ATOM     92  S   UNL A   1      44.849  23.184  34.827  1.00  0.00     0.124 S 
ATOM     93  O   UNL A   1      44.365  23.449  36.175  1.00  0.00    -0.237 OA
ATOM     94  O   UNL A   1      43.992  22.347  33.992  1.00  0.00    -0.237 OA
ATOM     95  O   UNL A   1      46.280  22.915  34.711  1.00  0.00    -0.744 OA
ENDBRANCH  91  92
ENDBRANCH  59  84
BRANCH  71  96
ATOM     96  C   UNL A   1      48.865  31.507  29.545  1.00  0.00     0.058 A 
ATOM     97  C   UNL A   1      49.845  31.931  30.455  1.00  0.00     0.135 A 
ATOM     98  C   UNL A   1      49.299  30.900  28.353  1.00  0.00     0.135 A 
ATOM     99  F   UNL A   1      49.488  32.521  31.607  1.00  0.00    -0.206 F 
ATOM    100  C   UNL A   1      51.202  31.783  30.183  1.00  0.00     0.059 A 
ATOM    101  C   UNL A   1      50.649  30.711  28.076  1.00  0.00     0.059 A 
ATOM    102  F   UNL A   1      48.404  30.463  27.452  1.00  0.00    -0.206 F 
ATOM    103  C   UNL A   1      51.594  31.168  28.993  1.00  0.00     0.060 A 
BRANCH 103 104
ATOM    104  S   UNL A   1      53.357  30.949  28.672  1.00  0.00     0.124 S 
ATOM    105  O   UNL A   1      53.948  31.474  29.898  1.00  0.00    -0.237 OA
ATOM    106  O   UNL A   1      53.461  29.505  28.484  1.00  0.00    -0.237 OA
ATOM    107  O   UNL A   1      53.587  31.749  27.473  1.00  0.00    -0.744 OA
ENDBRANCH 103 104
ENDBRANCH  71  96
ENDBRANCH  45  46
ENDBRANCH  38  40
ENDBRANCH  37  38
ENDBRANCH  36  37
ENDBRANCH  35  36
ENDBRANCH  34  35
ENDBRANCH  33  34
ENDBRANCH  32  33
ENDBRANCH   1  32
TORSDOF 27
ENDMDL
MODEL 2
REMARK VINA RESULT:      -8.6      6.130     14.022
REMARK SMILES NS(=O)(=O)c1ccc(N2N=C(C(=O)OCCOCCOCCOCCOC(=O)c3ccc(-c4c5nc(c(-c6c(F)cc(S(=O)(=O)[O-])cc6F)c6ccc([nH]6)c(-c6c(F)cc(S(=O)(=O)[O-])cc6F)c6nc(c(-c7c(F)cc(S(=O)(=O)[O-])cc7F)c7ccc4[nH]7)C=C6)C=C5)cc3)C[C@H]2c2ccco2)cc1
REMARK SMILES IDX 20 1 19 2 18 3 17 4 16 5 15 6 14 7 12 8 13 9 11 10 9 11
REMARK SMILES IDX 10 12 96 13 95 14 8 15 5 16 6 17 103 18 7 19 102 20 2 21
REMARK SMILES IDX 3 22 4 23 1 24 97 27 98 28 101 29 99 30 100 31 21 32 22 33
REMARK SMILES IDX 23 34 24 35 25 36 26 37 27 38 28 39 29 40 30 41 94 42 31 43
REMARK SMILES IDX 93 44 32 45 33 46 34 47 87 48 35 49 92 50 86 51 88 52 36 53
REMARK SMILES IDX 91 54 85 55 84 56 37 58 71 59 50 60 70 61 51 62 54 63 69 64
REMARK SMILES IDX 89 65 52 66 53 67 68 69 90 70 55 71 38 72 39 73 48 74 40 75
REMARK SMILES IDX 41 76 47 77 49 78 42 79 43 80 44 81 45 82 46 83 72 84 73 85
REMARK SMILES IDX 82 86 74 87 75 88 81 89 83 90 76 91 77 92 78 93 79 94 80 95
REMARK SMILES IDX 56 96 57 97 66 98 58 99 59 100 65 101 67 102 60 103 61 104
REMARK SMILES IDX 62 105 63 106 64 107
REMARK H PARENT 1 25 1 26 88 57 54 68
REMARK Flexibility Score: inf
ROOT
ATOM      1  O   UNL A   1      45.041  21.890  24.023  1.00  0.00    -0.377 OA
ENDROOT
BRANCH   1   2
ATOM      2  C   UNL A   1      46.212  22.404  24.636  1.00  0.00     0.188 C 
BRANCH   2   3
ATOM      3  C   UNL A   1      46.017  23.732  25.391  1.00  0.00     0.188 C 
BRANCH   3   4
ATOM      4  O   UNL A   1      45.410  24.749  24.616  1.00  0.00    -0.376 OA
BRANCH   4   5
ATOM      5  C   UNL A   1      44.932  25.950  25.198  1.00  0.00     0.202 C 
BRANCH   5   6
ATOM      6  C   UNL A   1      45.812  27.139  25.631  1.00  0.00     0.261 C 
BRANCH   6   7
ATOM      7  O   UNL A   1      45.699  27.559  26.986  1.00  0.00    -0.459 OA
BRANCH   7   8
ATOM      8  C   UNL A   1      46.442  28.607  27.373  1.00  0.00     0.354 C 
ATOM      9  O   UNL A   1      47.644  28.658  27.539  1.00  0.00    -0.245 OA
BRANCH   8  10
ATOM     10  C   UNL A   1      45.538  29.814  27.381  1.00  0.00     0.148 C 
ATOM     11  N   UNL A   1      44.861  31.807  27.115  1.00  0.00    -0.254 N 
ATOM     12  N   UNL A   1      45.951  30.988  27.012  1.00  0.00    -0.169 NA
ATOM     13  C   UNL A   1      43.778  31.177  27.908  1.00  0.00     0.180 C 
ATOM     14  C   UNL A   1      44.078  29.687  27.683  1.00  0.00     0.101 C 
BRANCH  11  15
ATOM     15  C   UNL A   1      45.090  33.178  27.083  1.00  0.00     0.060 A 
ATOM     16  C   UNL A   1      45.566  35.944  27.031  1.00  0.00     0.082 A 
ATOM     17  C   UNL A   1      46.593  35.071  27.397  1.00  0.00     0.024 A 
ATOM     18  C   UNL A   1      44.294  35.455  26.736  1.00  0.00     0.024 A 
ATOM     19  C   UNL A   1      46.352  33.692  27.412  1.00  0.00     0.029 A 
ATOM     20  C   UNL A   1      44.061  34.081  26.784  1.00  0.00     0.029 A 
BRANCH  16  21
ATOM     21  S   UNL A   1      45.853  37.686  26.982  1.00  0.00     0.238 S 
ATOM     22  O   UNL A   1      44.597  38.391  26.991  1.00  0.00    -0.207 OA
ATOM     23  O   UNL A   1      46.897  37.973  26.020  1.00  0.00    -0.207 OA
BRANCH  21  24
ATOM     24  N   UNL A   1      46.537  37.964  28.492  1.00  0.00    -0.225 NA
ATOM     25  H   UNL A   1      46.010  38.691  28.976  1.00  0.00     0.137 HD
ATOM     26  H   UNL A   1      47.505  38.264  28.377  1.00  0.00     0.137 HD
ENDBRANCH  21  24
ENDBRANCH  16  21
ENDBRANCH  11  15
BRANCH  13  27
ATOM     27  C   UNL A   1      43.719  31.509  29.375  1.00  0.00     0.128 A 
ATOM     28  C   UNL A   1      43.082  32.501  30.097  1.00  0.00     0.048 A 
ATOM     29  O   UNL A   1      44.421  30.709  30.234  1.00  0.00    -0.467 OA
ATOM     30  C   UNL A   1      43.438  32.308  31.454  1.00  0.00     0.042 A 
ATOM     31  C   UNL A   1      44.235  31.190  31.486  1.00  0.00     0.195 A 
ENDBRANCH  13  27
ENDBRANCH   8  10
ENDBRANCH   7   8
ENDBRANCH   6   7
ENDBRANCH   5   6
ENDBRANCH   4   5
ENDBRANCH   3   4
ENDBRANCH   2   3
ENDBRANCH   1   2
BRANCH   1  32
ATOM     32  C   UNL A   1      43.925  21.538  24.844  1.00  0.00     0.188 C 
BRANCH  32  33
ATOM     33  C   UNL A   1      43.806  20.166  25.553  1.00  0.00     0.188 C 
BRANCH  33  34
ATOM     34  O   UNL A   1      42.660  20.017  26.376  1.00  0.00    -0.376 OA
BRANCH  34  35
ATOM     35  C   UNL A   1      41.610  20.959  26.261  1.00  0.00     0.202 C 
BRANCH  35  36
ATOM     36  C   UNL A   1      41.139  21.650  27.548  1.00  0.00     0.261 C 
BRANCH  36  37
ATOM     37  O   UNL A   1      40.678  23.002  27.410  1.00  0.00    -0.460 OA
BRANCH  37  38
ATOM     38  C   UNL A   1      41.587  23.927  27.031  1.00  0.00     0.338 C 
ATOM     39  O   UNL A   1      42.384  23.839  26.116  1.00  0.00    -0.246 OA
BRANCH  38  40
ATOM     40  C   UNL A   1      41.326  25.154  27.813  1.00  0.00     0.060 A 
ATOM     41  C   UNL A   1      42.347  26.101  27.962  1.00  0.00     0.016 A 
ATOM     42  C   UNL A   1      40.074  25.365  28.396  1.00  0.00     0.016 A 
ATOM     43  C   UNL A   1      42.132  27.245  28.732  1.00  0.00     0.010 A 
ATOM     44  C   UNL A   1      39.866  26.501  29.180  1.00  0.00     0.010 A 
ATOM     45  C   UNL A   1      40.904  27.428  29.383  1.00  0.00    -0.014 A 
BRANCH  45  46
ATOM     46  C   UNL A   1      40.767  28.465  30.436  1.00  0.00     0.031 A 
ATOM     47  C   UNL A   1      41.664  28.372  31.643  1.00  0.00     0.074 A 
ATOM     48  C   UNL A   1      39.878  29.467  30.328  1.00  0.00     0.049 A 
ATOM     49  N   UNL A   1      41.674  29.099  32.729  1.00  0.00    -0.248 NA
ATOM     50  C   UNL A   1      42.682  27.308  31.621  1.00  0.00     0.031 C 
ATOM     51  C   UNL A   1      38.989  29.692  29.189  1.00  0.00     0.029 A 
ATOM     52  N   UNL A   1      39.567  30.481  31.201  1.00  0.00    -0.354 N 
ATOM     53  C   UNL A   1      42.690  28.577  33.522  1.00  0.00     0.074 A 
ATOM     54  C   UNL A   1      43.251  27.450  32.809  1.00  0.00     0.031 C 
ATOM     55  C   UNL A   1      38.222  30.768  29.441  1.00  0.00     0.029 A 
ATOM     56  C   UNL A   1      38.538  31.285  30.773  1.00  0.00     0.049 A 
ATOM     57  H   UNL A   1      40.039  30.619  32.055  1.00  0.00     0.167 HD
ATOM     58  C   UNL A   1      43.125  29.004  34.731  1.00  0.00     0.037 A 
ATOM     59  C   UNL A   1      37.906  32.300  31.397  1.00  0.00     0.037 A 
ATOM     60  C   UNL A   1      42.561  30.126  35.436  1.00  0.00     0.049 A 
ATOM     61  C   UNL A   1      38.351  32.705  32.782  1.00  0.00     0.074 A 
ATOM     62  C   UNL A   1      42.933  30.644  36.664  1.00  0.00     0.029 A 
ATOM     63  N   UNL A   1      41.502  30.898  34.981  1.00  0.00    -0.354 N 
ATOM     64  N   UNL A   1      39.321  32.213  33.517  1.00  0.00    -0.248 NA
ATOM     65  C   UNL A   1      37.617  33.807  33.422  1.00  0.00     0.031 C 
ATOM     66  C   UNL A   1      42.061  31.692  36.977  1.00  0.00     0.029 A 
ATOM     67  C   UNL A   1      41.192  31.872  35.914  1.00  0.00     0.049 A 
ATOM     68  H   UNL A   1      41.041  30.771  34.120  1.00  0.00     0.167 HD
ATOM     69  C   UNL A   1      39.339  32.970  34.685  1.00  0.00     0.074 A 
ATOM     70  C   UNL A   1      38.288  33.957  34.556  1.00  0.00     0.031 C 
ATOM     71  C   UNL A   1      40.153  32.862  35.764  1.00  0.00     0.037 A 
BRANCH  58  72
ATOM     72  C   UNL A   1      44.249  28.243  35.380  1.00  0.00     0.058 A 
ATOM     73  C   UNL A   1      45.594  28.595  35.183  1.00  0.00     0.135 A 
ATOM     74  C   UNL A   1      43.974  27.169  36.243  1.00  0.00     0.135 A 
ATOM     75  F   UNL A   1      45.916  29.599  34.352  1.00  0.00    -0.206 F 
ATOM     76  C   UNL A   1      46.626  27.897  35.800  1.00  0.00     0.059 A 
ATOM     77  C   UNL A   1      44.989  26.477  36.896  1.00  0.00     0.059 A 
ATOM     78  F   UNL A   1      42.706  26.786  36.463  1.00  0.00    -0.206 F 
ATOM     79  C   UNL A   1      46.314  26.841  36.659  1.00  0.00     0.060 A 
BRANCH  79  80
ATOM     80  S   UNL A   1      47.666  25.958  37.465  1.00  0.00     0.124 S 
ATOM     81  O   UNL A   1      48.069  26.915  38.490  1.00  0.00    -0.237 OA
ATOM     82  O   UNL A   1      47.001  24.752  37.949  1.00  0.00    -0.237 OA
ATOM     83  O   UNL A   1      48.629  25.751  36.388  1.00  0.00    -0.744 OA
ENDBRANCH  79  80
ENDBRANCH  58  72
BRANCH  59  84
ATOM     84  C   UNL A   1      36.771  33.000  30.734  1.00  0.00     0.058 A 
ATOM     85  C   UNL A   1      36.995  33.972  29.747  1.00  0.00     0.135 A 
ATOM     86  C   UNL A   1      35.440  32.729  31.090  1.00  0.00     0.135 A 
ATOM     87  F   UNL A   1      38.248  34.278  29.379  1.00  0.00    -0.206 F 
ATOM     88  C   UNL A   1      35.945  34.665  29.152  1.00  0.00     0.059 A 
ATOM     89  C   UNL A   1      34.371  33.387  30.487  1.00  0.00     0.059 A 
ATOM     90  F   UNL A   1      35.167  31.804  32.023  1.00  0.00    -0.206 F 
ATOM     91  C   UNL A   1      34.634  34.363  29.529  1.00  0.00     0.060 A 
BRANCH  91  92
ATOM     92  S   UNL A   1      33.279  35.243  28.723  1.00  0.00     0.124 S 
ATOM     93  O   UNL A   1      32.575  35.811  29.865  1.00  0.00    -0.237 OA
ATOM     94  O   UNL A   1      33.993  36.191  27.874  1.00  0.00    -0.237 OA
ATOM     95  O   UNL A   1      32.570  34.183  28.008  1.00  0.00    -0.744 OA
ENDBRANCH  91  92
ENDBRANCH  59  84
BRANCH  71  96
ATOM     96  C   UNL A   1      39.987  33.869  36.873  1.00  0.00     0.058 A 
ATOM     97  C   UNL A   1      40.637  35.112  36.856  1.00  0.00     0.135 A 
ATOM     98  C   UNL A   1      39.109  33.605  37.939  1.00  0.00     0.135 A 
ATOM     99  F   UNL A   1      41.490  35.415  35.865  1.00  0.00    -0.206 F 
ATOM    100  C   UNL A   1      40.443  36.048  37.868  1.00  0.00     0.059 A 
ATOM    101  C   UNL A   1      38.874  34.539  38.943  1.00  0.00     0.059 A 
ATOM    102  F   UNL A   1      38.451  32.437  37.999  1.00  0.00    -0.206 F 
ATOM    103  C   UNL A   1      39.556  35.754  38.905  1.00  0.00     0.060 A 
BRANCH 103 104
ATOM    104  S   UNL A   1      39.286  36.992  40.190  1.00  0.00     0.124 S 
ATOM    105  O   UNL A   1      40.646  37.227  40.664  1.00  0.00    -0.237 OA
ATOM    106  O   UNL A   1      38.677  38.088  39.442  1.00  0.00    -0.237 OA
ATOM    107  O   UNL A   1      38.400  36.317  41.134  1.00  0.00    -0.744 OA
ENDBRANCH 103 104
ENDBRANCH  71  96
ENDBRANCH  45  46
ENDBRANCH  38  40
ENDBRANCH  37  38
ENDBRANCH  36  37
ENDBRANCH  35  36
ENDBRANCH  34  35
ENDBRANCH  33  34
ENDBRANCH  32  33
ENDBRANCH   1  32
TORSDOF 27
ENDMDL
MODEL 3
REMARK VINA RESULT:      -8.5      6.136     10.791
REMARK SMILES NS(=O)(=O)c1ccc(N2N=C(C(=O)OCCOCCOCCOCCOC(=O)c3ccc(-c4c5nc(c(-c6c(F)cc(S(=O)(=O)[O-])cc6F)c6ccc([nH]6)c(-c6c(F)cc(S(=O)(=O)[O-])cc6F)c6nc(c(-c7c(F)cc(S(=O)(=O)[O-])cc7F)c7ccc4[nH]7)C=C6)C=C5)cc3)C[C@H]2c2ccco2)cc1
REMARK SMILES IDX 20 1 19 2 18 3 17 4 16 5 15 6 14 7 12 8 13 9 11 10 9 11
REMARK SMILES IDX 10 12 96 13 95 14 8 15 5 16 6 17 103 18 7 19 102 20 2 21
REMARK SMILES IDX 3 22 4 23 1 24 97 27 98 28 101 29 99 30 100 31 21 32 22 33
REMARK SMILES IDX 23 34 24 35 25 36 26 37 27 38 28 39 29 40 30 41 94 42 31 43
REMARK SMILES IDX 93 44 32 45 33 46 34 47 87 48 35 49 92 50 86 51 88 52 36 53
REMARK SMILES IDX 91 54 85 55 84 56 37 58 71 59 50 60 70 61 51 62 54 63 69 64
REMARK SMILES IDX 89 65 52 66 53 67 68 69 90 70 55 71 38 72 39 73 48 74 40 75
REMARK SMILES IDX 41 76 47 77 49 78 42 79 43 80 44 81 45 82 46 83 72 84 73 85
REMARK SMILES IDX 82 86 74 87 75 88 81 89 83 90 76 91 77 92 78 93 79 94 80 95
REMARK SMILES IDX 56 96 57 97 66 98 58 99 59 100 65 101 67 102 60 103 61 104
REMARK SMILES IDX 62 105 63 106 64 107
REMARK H PARENT 1 25 1 26 88 57 54 68
REMARK Flexibility Score: inf
ROOT
ATOM      1  O   UNL A   1      44.157  20.646  24.530  1.00  0.00    -0.377 OA
ENDROOT
BRANCH   1   2
ATOM      2  C   UNL A   1      43.818  19.409  25.135  1.00  0.00     0.188 C 
BRANCH   2   3
ATOM      3  C   UNL A   1      42.484  19.409  25.904  1.00  0.00     0.188 C 
BRANCH   3   4
ATOM      4  O   UNL A   1      42.369  20.450  26.855  1.00  0.00    -0.376 OA
BRANCH   4   5
ATOM      5  C   UNL A   1      41.510  21.559  26.654  1.00  0.00     0.202 C 
BRANCH   5   6
ATOM      6  C   UNL A   1      41.961  23.031  26.577  1.00  0.00     0.261 C 
BRANCH   6   7
ATOM      7  O   UNL A   1      43.175  23.364  27.241  1.00  0.00    -0.459 OA
BRANCH   7   8
ATOM      8  C   UNL A   1      43.117  23.589  28.562  1.00  0.00     0.354 C 
ATOM      9  O   UNL A   1      43.399  22.831  29.468  1.00  0.00    -0.245 OA
BRANCH   8  10
ATOM     10  C   UNL A   1      42.822  25.055  28.752  1.00  0.00     0.148 C 
ATOM     11  N   UNL A   1      41.784  26.838  29.247  1.00  0.00    -0.254 N 
ATOM     12  N   UNL A   1      41.665  25.479  29.160  1.00  0.00    -0.169 NA
ATOM     13  C   UNL A   1      42.992  27.327  28.539  1.00  0.00     0.180 C 
ATOM     14  C   UNL A   1      43.897  26.087  28.612  1.00  0.00     0.101 C 
BRANCH  11  15
ATOM     15  C   UNL A   1      40.610  27.574  29.359  1.00  0.00     0.060 A 
ATOM     16  C   UNL A   1      38.240  29.057  29.605  1.00  0.00     0.082 A 
ATOM     17  C   UNL A   1      39.152  29.029  30.663  1.00  0.00     0.024 A 
ATOM     18  C   UNL A   1      38.476  28.318  28.447  1.00  0.00     0.024 A 
ATOM     19  C   UNL A   1      40.336  28.294  30.530  1.00  0.00     0.029 A 
ATOM     20  C   UNL A   1      39.647  27.567  28.342  1.00  0.00     0.029 A 
BRANCH  16  21
ATOM     21  S   UNL A   1      36.749  29.996  29.740  1.00  0.00     0.238 S 
ATOM     22  O   UNL A   1      35.820  29.591  28.716  1.00  0.00    -0.207 OA
ATOM     23  O   UNL A   1      37.078  31.385  29.985  1.00  0.00    -0.207 OA
BRANCH  21  24
ATOM     24  N   UNL A   1      36.110  29.419  31.184  1.00  0.00    -0.225 NA
ATOM     25  H   UNL A   1      35.286  29.966  31.433  1.00  0.00     0.137 HD
ATOM     26  H   UNL A   1      36.809  29.502  31.922  1.00  0.00     0.137 HD
ENDBRANCH  21  24
ENDBRANCH  16  21
ENDBRANCH  11  15
BRANCH  13  27
ATOM     27  C   UNL A   1      42.813  27.792  27.118  1.00  0.00     0.128 A 
ATOM     28  C   UNL A   1      42.458  29.005  26.557  1.00  0.00     0.048 A 
ATOM     29  O   UNL A   1      43.024  26.880  26.122  1.00  0.00    -0.467 OA
ATOM     30  C   UNL A   1      42.427  28.808  25.155  1.00  0.00     0.042 A 
ATOM     31  C   UNL A   1      42.802  27.504  24.942  1.00  0.00     0.195 A 
ENDBRANCH  13  27
ENDBRANCH   8  10
ENDBRANCH   7   8
ENDBRANCH   6   7
ENDBRANCH   5   6
ENDBRANCH   4   5
ENDBRANCH   3   4
ENDBRANCH   2   3
ENDBRANCH   1   2
BRANCH   1  32
ATOM     32  C   UNL A   1      45.455  21.200  24.762  1.00  0.00     0.188 C 
BRANCH  32  33
ATOM     33  C   UNL A   1      45.716  22.726  24.821  1.00  0.00     0.188 C 
BRANCH  33  34
ATOM     34  O   UNL A   1      46.496  23.155  25.925  1.00  0.00    -0.376 OA
BRANCH  34  35
ATOM     35  C   UNL A   1      46.993  24.481  25.937  1.00  0.00     0.202 C 
BRANCH  35  36
ATOM     36  C   UNL A   1      46.143  25.558  25.248  1.00  0.00     0.261 C 
BRANCH  36  37
ATOM     37  O   UNL A   1      46.865  26.600  24.576  1.00  0.00    -0.460 OA
BRANCH  37  38
ATOM     38  C   UNL A   1      47.890  27.171  25.246  1.00  0.00     0.338 C 
ATOM     39  O   UNL A   1      49.077  26.957  25.088  1.00  0.00    -0.246 OA
BRANCH  38  40
ATOM     40  C   UNL A   1      47.326  28.246  26.090  1.00  0.00     0.060 A 
ATOM     41  C   UNL A   1      46.386  29.126  25.538  1.00  0.00     0.016 A 
ATOM     42  C   UNL A   1      47.725  28.380  27.421  1.00  0.00     0.016 A 
ATOM     43  C   UNL A   1      45.874  30.172  26.308  1.00  0.00     0.010 A 
ATOM     44  C   UNL A   1      47.226  29.437  28.184  1.00  0.00     0.010 A 
ATOM     45  C   UNL A   1      46.326  30.360  27.621  1.00  0.00    -0.014 A 
BRANCH  45  46
ATOM     46  C   UNL A   1      46.030  31.626  28.337  1.00  0.00     0.031 A 
ATOM     47  C   UNL A   1      46.964  32.790  28.134  1.00  0.00     0.074 A 
ATOM     48  C   UNL A   1      44.960  31.748  29.142  1.00  0.00     0.049 A 
ATOM     49  N   UNL A   1      46.969  33.963  28.711  1.00  0.00    -0.248 NA
ATOM     50  C   UNL A   1      48.042  32.600  27.148  1.00  0.00     0.031 C 
ATOM     51  C   UNL A   1      43.958  30.710  29.382  1.00  0.00     0.029 A 
ATOM     52  N   UNL A   1      44.545  32.801  29.920  1.00  0.00    -0.354 N 
ATOM     53  C   UNL A   1      48.051  34.646  28.168  1.00  0.00     0.074 A 
ATOM     54  C   UNL A   1      48.701  33.745  27.241  1.00  0.00     0.031 C 
ATOM     55  C   UNL A   1      43.052  31.175  30.261  1.00  0.00     0.029 A 
ATOM     56  C   UNL A   1      43.430  32.526  30.675  1.00  0.00     0.049 A 
ATOM     57  H   UNL A   1      45.005  33.672  29.934  1.00  0.00     0.167 HD
ATOM     58  C   UNL A   1      48.461  35.913  28.411  1.00  0.00     0.037 A 
ATOM     59  C   UNL A   1      42.806  33.269  31.612  1.00  0.00     0.037 A 
ATOM     60  C   UNL A   1      47.811  36.803  29.336  1.00  0.00     0.049 A 
ATOM     61  C   UNL A   1      43.332  34.649  31.929  1.00  0.00     0.074 A 
ATOM     62  C   UNL A   1      48.144  38.109  29.651  1.00  0.00     0.029 A 
ATOM     63  N   UNL A   1      46.700  36.479  30.101  1.00  0.00    -0.354 N 
ATOM     64  N   UNL A   1      44.349  35.289  31.400  1.00  0.00    -0.248 NA
ATOM     65  C   UNL A   1      42.624  35.409  32.970  1.00  0.00     0.031 C 
ATOM     66  C   UNL A   1      47.271  38.553  30.649  1.00  0.00     0.029 A 
ATOM     67  C   UNL A   1      46.350  37.550  30.905  1.00  0.00     0.049 A 
ATOM     68  H   UNL A   1      46.231  35.614  30.076  1.00  0.00     0.167 HD
ATOM     69  C   UNL A   1      44.376  36.539  32.014  1.00  0.00     0.074 A 
ATOM     70  C   UNL A   1      43.271  36.567  32.948  1.00  0.00     0.031 C 
ATOM     71  C   UNL A   1      45.234  37.571  31.819  1.00  0.00     0.037 A 
BRANCH  58  72
ATOM     72  C   UNL A   1      49.684  36.405  27.684  1.00  0.00     0.058 A 
ATOM     73  C   UNL A   1      50.949  36.424  28.292  1.00  0.00     0.135 A 
ATOM     74  C   UNL A   1      49.594  36.827  26.348  1.00  0.00     0.135 A 
ATOM     75  F   UNL A   1      51.091  36.052  29.574  1.00  0.00    -0.206 F 
ATOM     76  C   UNL A   1      52.078  36.865  27.608  1.00  0.00     0.059 A 
ATOM     77  C   UNL A   1      50.714  37.242  25.634  1.00  0.00     0.059 A 
ATOM     78  F   UNL A   1      48.407  36.835  25.719  1.00  0.00    -0.206 F 
ATOM     79  C   UNL A   1      51.951  37.268  26.277  1.00  0.00     0.060 A 
BRANCH  79  80
ATOM     80  S   UNL A   1      53.428  37.820  25.400  1.00  0.00     0.124 S 
ATOM     81  O   UNL A   1      54.412  36.836  25.839  1.00  0.00    -0.237 OA
ATOM     82  O   UNL A   1      53.014  37.723  24.004  1.00  0.00    -0.237 OA
ATOM     83  O   UNL A   1      53.634  39.176  25.898  1.00  0.00    -0.744 OA
ENDBRANCH  79  80
ENDBRANCH  58  72
BRANCH  59  84
ATOM     84  C   UNL A   1      41.623  32.728  32.337  1.00  0.00     0.058 A 
ATOM     85  C   UNL A   1      40.325  32.887  31.829  1.00  0.00     0.135 A 
ATOM     86  C   UNL A   1      41.764  32.059  33.563  1.00  0.00     0.135 A 
ATOM     87  F   UNL A   1      40.134  33.530  30.666  1.00  0.00    -0.206 F 
ATOM     88  C   UNL A   1      39.208  32.425  32.518  1.00  0.00     0.059 A 
ATOM     89  C   UNL A   1      40.665  31.561  34.257  1.00  0.00     0.059 A 
ATOM     90  F   UNL A   1      42.983  31.872  34.093  1.00  0.00    -0.206 F 
ATOM     91  C   UNL A   1      39.389  31.760  33.733  1.00  0.00     0.060 A 
BRANCH  91  92
ATOM     92  S   UNL A   1      37.935  31.131  34.600  1.00  0.00     0.124 S 
ATOM     93  O   UNL A   1      38.517  30.085  35.431  1.00  0.00    -0.237 OA
ATOM     94  O   UNL A   1      37.463  32.320  35.303  1.00  0.00    -0.237 OA
ATOM     95  O   UNL A   1      37.072  30.669  33.515  1.00  0.00    -0.744 OA
ENDBRANCH  91  92
ENDBRANCH  59  84
BRANCH  71  96
ATOM     96  C   UNL A   1      44.986  38.845  32.584  1.00  0.00     0.058 A 
ATOM     97  C   UNL A   1      45.610  39.111  33.812  1.00  0.00     0.135 A 
ATOM     98  C   UNL A   1      44.158  39.843  32.043  1.00  0.00     0.135 A 
ATOM     99  F   UNL A   1      46.408  38.192  34.378  1.00  0.00    -0.206 F 
ATOM    100  C   UNL A   1      45.402  40.310  34.489  1.00  0.00     0.059 A 
ATOM    101  C   UNL A   1      43.962  41.062  32.685  1.00  0.00     0.059 A 
ATOM    102  F   UNL A   1      43.545  39.648  30.864  1.00  0.00    -0.206 F 
ATOM    103  C   UNL A   1      44.581  41.281  33.914  1.00  0.00     0.060 A 
BRANCH 103 104
ATOM    104  S   UNL A   1      44.351  42.845  34.786  1.00  0.00     0.124 S 
ATOM    105  O   UNL A   1      45.275  42.698  35.906  1.00  0.00    -0.237 OA
ATOM    106  O   UNL A   1      44.733  43.824  33.771  1.00  0.00    -0.237 OA
ATOM    107  O   UNL A   1      42.934  42.836  35.136  1.00  0.00    -0.744 OA
ENDBRANCH 103 104
ENDBRANCH  71  96
ENDBRANCH  45  46
ENDBRANCH  38  40
ENDBRANCH  37  38
ENDBRANCH  36  37
ENDBRANCH  35  36
ENDBRANCH  34  35
ENDBRANCH  33  34
ENDBRANCH  32  33
ENDBRANCH   1  32
TORSDOF 27
ENDMDL
