MODEL 1
REMARK VINA RESULT:      -9.6      0.000      0.000
REMARK SMILES C[NH+]1CCC(C(=O)N2C[C@@H](C(=O)OCCOCCOCCOCCOC(=O)c3ccc(-c4c5nc(c(-c6c(F)cc(S(=O)(=O)[O-])cc6F)c6ccc([nH]6)c(-c6c(F)cc(S(=O)(=O)[O-])cc6F)c6nc(c(-c7c(F)cc(S(=O)(=O)[O-])cc7F)c7ccc4[nH]7)C=C6)C=C5)cc3)[C@H](c3ccc4c(c3)OCO4)C2)CC1
REMARK SMILES IDX 20 1 19 2 18 3 17 4 16 5 15 6 14 7 13 8 11 9 12 10 10 11
REMARK SMILES IDX 8 12 9 13 104 14 94 15 6 16 7 17 5 18 1 19 2 20 3 21 106 22
REMARK SMILES IDX 4 24 105 25 95 26 96 27 100 28 97 29 99 30 98 31 101 32
REMARK SMILES IDX 103 33 102 34 21 35 22 36 23 37 24 38 25 39 26 40 27 41
REMARK SMILES IDX 28 42 29 43 93 44 30 45 92 46 31 47 32 48 33 49 86 50 34 51
REMARK SMILES IDX 91 52 85 53 87 54 35 55 90 56 84 57 83 58 36 60 70 61 49 62
REMARK SMILES IDX 69 63 50 64 53 65 68 66 88 67 51 68 52 69 67 71 89 72 54 73
REMARK SMILES IDX 37 74 38 75 47 76 39 77 40 78 46 79 48 80 41 81 42 82 43 83
REMARK SMILES IDX 44 84 45 85 71 86 72 87 81 88 73 89 74 90 80 91 82 92 75 93
REMARK SMILES IDX 76 94 77 95 78 96 79 97 55 98 56 99 65 100 57 101 58 102
REMARK SMILES IDX 64 103 66 104 59 105 60 106 61 107 62 108 63 109
REMARK H PARENT 2 23 87 59 53 70
REMARK Flexibility Score: inf
ROOT
ATOM      1  C   UNL A   1      34.067  35.717  28.775  1.00  0.00     0.188 C 
ENDROOT
BRANCH   1   2
ATOM      2  O   UNL A   1      33.998  34.611  27.885  1.00  0.00    -0.377 OA
BRANCH   2   3
ATOM      3  C   UNL A   1      34.901  33.551  28.125  1.00  0.00     0.188 C 
BRANCH   3   4
ATOM      4  C   UNL A   1      34.257  32.152  28.011  1.00  0.00     0.188 C 
BRANCH   4   5
ATOM      5  O   UNL A   1      35.039  30.967  28.060  1.00  0.00    -0.376 OA
BRANCH   5   6
ATOM      6  C   UNL A   1      34.934  29.923  27.103  1.00  0.00     0.202 C 
BRANCH   6   7
ATOM      7  C   UNL A   1      34.124  28.635  27.304  1.00  0.00     0.261 C 
BRANCH   7   8
ATOM      8  O   UNL A   1      33.045  28.432  26.403  1.00  0.00    -0.463 OA
BRANCH   8   9
ATOM      9  C   UNL A   1      32.131  27.485  26.721  1.00  0.00     0.311 C 
ATOM     10  O   UNL A   1      31.305  27.554  27.617  1.00  0.00    -0.252 OA
BRANCH   9  11
ATOM     11  C   UNL A   1      32.285  26.334  25.765  1.00  0.00     0.128 C 
ATOM     12  N   UNL A   1      33.775  24.842  24.839  1.00  0.00    -0.341 N 
ATOM     13  C   UNL A   1      33.521  25.527  26.078  1.00  0.00     0.135 C 
ATOM     14  C   UNL A   1      33.407  25.720  23.727  1.00  0.00     0.128 C 
ATOM     15  C   UNL A   1      32.448  26.796  24.303  1.00  0.00     0.055 C 
BRANCH  12  16
ATOM     16  C   UNL A   1      34.708  23.841  24.695  1.00  0.00     0.226 C 
ATOM     17  O   UNL A   1      35.883  24.100  24.423  1.00  0.00    -0.275 OA
BRANCH  16  18
ATOM     18  C   UNL A   1      34.214  22.385  24.618  1.00  0.00     0.090 C 
ATOM     19  C   UNL A   1      32.704  18.482  25.613  1.00  0.00     0.332 C 
ATOM     20  N   UNL A   1      33.333  19.802  25.660  1.00  0.00    -0.337 N 
ATOM     21  C   UNL A   1      32.347  20.847  25.355  1.00  0.00     0.262 C 
ATOM     22  C   UNL A   1      34.484  19.880  24.750  1.00  0.00     0.262 C 
ATOM     23  H   UNL A   1      33.683  19.954  26.607  1.00  0.00     0.347 HD
ATOM     24  C   UNL A   1      32.967  22.234  25.498  1.00  0.00     0.075 C 
ATOM     25  C   UNL A   1      35.189  21.239  24.893  1.00  0.00     0.075 C 
ENDBRANCH  16  18
ENDBRANCH  12  16
BRANCH  15  26
ATOM     26  C   UNL A   1      31.041  26.985  23.731  1.00  0.00    -0.038 A 
ATOM     27  C   UNL A   1      29.896  26.340  24.243  1.00  0.00     0.008 A 
ATOM     28  C   UNL A   1      30.858  28.006  22.770  1.00  0.00     0.054 A 
ATOM     29  C   UNL A   1      28.606  26.785  23.909  1.00  0.00     0.051 A 
ATOM     30  C   UNL A   1      29.588  28.487  22.543  1.00  0.00     0.166 A 
ATOM     31  C   UNL A   1      28.490  27.899  23.110  1.00  0.00     0.165 A 
ATOM     32  O   UNL A   1      29.278  29.612  21.844  1.00  0.00    -0.454 OA
ATOM     33  O   UNL A   1      27.345  28.576  22.831  1.00  0.00    -0.454 OA
ATOM     34  C   UNL A   1      27.889  29.765  22.216  1.00  0.00     0.468 C 
ENDBRANCH  15  26
ENDBRANCH   9  11
ENDBRANCH   8   9
ENDBRANCH   7   8
ENDBRANCH   6   7
ENDBRANCH   5   6
ENDBRANCH   4   5
ENDBRANCH   3   4
ENDBRANCH   2   3
ENDBRANCH   1   2
BRANCH   1  35
ATOM     35  C   UNL A   1      32.973  35.864  29.856  1.00  0.00     0.188 C 
BRANCH  35  36
ATOM     36  O   UNL A   1      33.335  36.715  30.936  1.00  0.00    -0.376 OA
BRANCH  36  37
ATOM     37  C   UNL A   1      33.094  36.284  32.264  1.00  0.00     0.202 C 
BRANCH  37  38
ATOM     38  C   UNL A   1      34.244  36.429  33.269  1.00  0.00     0.261 C 
BRANCH  38  39
ATOM     39  O   UNL A   1      35.500  35.855  32.878  1.00  0.00    -0.460 OA
BRANCH  39  40
ATOM     40  C   UNL A   1      35.544  34.520  32.691  1.00  0.00     0.338 C 
ATOM     41  O   UNL A   1      34.870  33.868  31.910  1.00  0.00    -0.246 OA
BRANCH  40  42
ATOM     42  C   UNL A   1      36.695  34.001  33.455  1.00  0.00     0.060 A 
ATOM     43  C   UNL A   1      36.483  33.013  34.426  1.00  0.00     0.016 A 
ATOM     44  C   UNL A   1      37.984  34.477  33.201  1.00  0.00     0.016 A 
ATOM     45  C   UNL A   1      37.556  32.520  35.168  1.00  0.00     0.010 A 
ATOM     46  C   UNL A   1      39.054  34.000  33.963  1.00  0.00     0.010 A 
ATOM     47  C   UNL A   1      38.840  33.043  34.971  1.00  0.00    -0.014 A 
BRANCH  47  48
ATOM     48  C   UNL A   1      39.920  32.739  35.940  1.00  0.00     0.031 A 
ATOM     49  C   UNL A   1      40.215  33.753  37.014  1.00  0.00     0.074 A 
ATOM     50  C   UNL A   1      40.623  31.596  35.873  1.00  0.00     0.049 A 
ATOM     51  N   UNL A   1      41.161  33.755  37.915  1.00  0.00    -0.248 NA
ATOM     52  C   UNL A   1      39.324  34.925  37.073  1.00  0.00     0.031 C 
ATOM     53  C   UNL A   1      40.406  30.523  34.903  1.00  0.00     0.029 A 
ATOM     54  N   UNL A   1      41.683  31.156  36.628  1.00  0.00    -0.354 N 
ATOM     55  C   UNL A   1      40.994  34.934  38.633  1.00  0.00     0.074 A 
ATOM     56  C   UNL A   1      39.866  35.629  38.056  1.00  0.00     0.031 C 
ATOM     57  C   UNL A   1      41.322  29.561  35.104  1.00  0.00     0.029 A 
ATOM     58  C   UNL A   1      42.216  29.966  36.190  1.00  0.00     0.049 A 
ATOM     59  H   UNL A   1      42.029  31.645  37.408  1.00  0.00     0.167 HD
ATOM     60  C   UNL A   1      41.718  35.392  39.680  1.00  0.00     0.037 A 
ATOM     61  C   UNL A   1      43.319  29.302  36.594  1.00  0.00     0.037 A 
ATOM     62  C   UNL A   1      42.832  34.688  40.257  1.00  0.00     0.049 A 
ATOM     63  C   UNL A   1      44.142  29.862  37.730  1.00  0.00     0.074 A 
ATOM     64  C   UNL A   1      43.603  35.049  41.348  1.00  0.00     0.029 A 
ATOM     65  N   UNL A   1      43.346  33.489  39.783  1.00  0.00    -0.354 N 
ATOM     66  N   UNL A   1      43.948  30.956  38.429  1.00  0.00    -0.248 NA
ATOM     67  C   UNL A   1      45.330  29.097  38.135  1.00  0.00     0.031 C 
ATOM     68  C   UNL A   1      44.624  34.105  41.493  1.00  0.00     0.029 A 
ATOM     69  C   UNL A   1      44.445  33.117  40.537  1.00  0.00     0.049 A 
ATOM     70  H   UNL A   1      42.982  32.980  39.024  1.00  0.00     0.167 HD
ATOM     71  C   UNL A   1      44.971  30.991  39.374  1.00  0.00     0.074 A 
ATOM     72  C   UNL A   1      45.771  29.803  39.166  1.00  0.00     0.031 C 
ATOM     73  C   UNL A   1      45.227  31.923  40.327  1.00  0.00     0.037 A 
BRANCH  60  74
ATOM     74  C   UNL A   1      41.359  36.734  40.256  1.00  0.00     0.058 A 
ATOM     75  C   UNL A   1      41.887  37.930  39.748  1.00  0.00     0.135 A 
ATOM     76  C   UNL A   1      40.413  36.823  41.292  1.00  0.00     0.135 A 
ATOM     77  F   UNL A   1      42.812  37.902  38.774  1.00  0.00    -0.206 F 
ATOM     78  C   UNL A   1      41.495  39.168  40.248  1.00  0.00     0.059 A 
ATOM     79  C   UNL A   1      39.984  38.049  41.787  1.00  0.00     0.059 A 
ATOM     80  F   UNL A   1      39.884  35.708  41.820  1.00  0.00    -0.206 F 
ATOM     81  C   UNL A   1      40.536  39.217  41.263  1.00  0.00     0.060 A 
BRANCH  81  82
ATOM     82  S   UNL A   1      40.005  40.832  41.869  1.00  0.00     0.124 S 
ATOM     83  O   UNL A   1      39.465  41.436  40.655  1.00  0.00    -0.237 OA
ATOM     84  O   UNL A   1      39.025  40.473  42.888  1.00  0.00    -0.237 OA
ATOM     85  O   UNL A   1      41.239  41.431  42.370  1.00  0.00    -0.744 OA
ENDBRANCH  81  82
ENDBRANCH  60  74
BRANCH  61  86
ATOM     86  C   UNL A   1      43.743  28.056  35.897  1.00  0.00     0.058 A 
ATOM     87  C   UNL A   1      44.648  28.088  34.825  1.00  0.00     0.135 A 
ATOM     88  C   UNL A   1      43.222  26.806  36.271  1.00  0.00     0.135 A 
ATOM     89  F   UNL A   1      45.166  29.257  34.420  1.00  0.00    -0.206 F 
ATOM     90  C   UNL A   1      45.000  26.933  34.132  1.00  0.00     0.059 A 
ATOM     91  C   UNL A   1      43.583  25.635  35.615  1.00  0.00     0.059 A 
ATOM     92  F   UNL A   1      42.361  26.715  37.297  1.00  0.00    -0.206 F 
ATOM     93  C   UNL A   1      44.462  25.710  34.536  1.00  0.00     0.060 A 
BRANCH  93  94
ATOM     94  S   UNL A   1      44.948  24.215  33.649  1.00  0.00     0.124 S 
ATOM     95  O   UNL A   1      46.383  24.421  33.491  1.00  0.00    -0.237 OA
ATOM     96  O   UNL A   1      44.550  23.166  34.582  1.00  0.00    -0.237 OA
ATOM     97  O   UNL A   1      44.160  24.284  32.422  1.00  0.00    -0.744 OA
ENDBRANCH  93  94
ENDBRANCH  61  86
BRANCH  73  98
ATOM     98  C   UNL A   1      46.390  31.680  41.252  1.00  0.00     0.058 A 
ATOM     99  C   UNL A   1      47.673  32.180  40.980  1.00  0.00     0.135 A 
ATOM    100  C   UNL A   1      46.201  30.988  42.460  1.00  0.00     0.135 A 
ATOM    101  F   UNL A   1      47.911  32.846  39.840  1.00  0.00    -0.206 F 
ATOM    102  C   UNL A   1      48.733  31.979  41.859  1.00  0.00     0.059 A 
ATOM    103  C   UNL A   1      47.238  30.804  43.369  1.00  0.00     0.059 A 
ATOM    104  F   UNL A   1      44.992  30.499  42.778  1.00  0.00    -0.206 F 
ATOM    105  C   UNL A   1      48.504  31.292  43.054  1.00  0.00     0.060 A 
BRANCH 105 106
ATOM    106  S   UNL A   1      49.881  31.066  44.199  1.00  0.00     0.124 S 
ATOM    107  O   UNL A   1      50.375  32.432  44.339  1.00  0.00    -0.237 OA
ATOM    108  O   UNL A   1      49.220  30.508  45.375  1.00  0.00    -0.237 OA
ATOM    109  O   UNL A   1      50.767  30.148  43.490  1.00  0.00    -0.744 OA
ENDBRANCH 105 106
ENDBRANCH  73  98
ENDBRANCH  47  48
ENDBRANCH  40  42
ENDBRANCH  39  40
ENDBRANCH  38  39
ENDBRANCH  37  38
ENDBRANCH  36  37
ENDBRANCH  35  36
ENDBRANCH   1  35
TORSDOF 26
ENDMDL
MODEL 2
REMARK VINA RESULT:      -9.5      5.975     11.148
REMARK SMILES C[NH+]1CCC(C(=O)N2C[C@@H](C(=O)OCCOCCOCCOCCOC(=O)c3ccc(-c4c5nc(c(-c6c(F)cc(S(=O)(=O)[O-])cc6F)c6ccc([nH]6)c(-c6c(F)cc(S(=O)(=O)[O-])cc6F)c6nc(c(-c7c(F)cc(S(=O)(=O)[O-])cc7F)c7ccc4[nH]7)C=C6)C=C5)cc3)[C@H](c3ccc4c(c3)OCO4)C2)CC1
REMARK SMILES IDX 20 1 19 2 18 3 17 4 16 5 15 6 14 7 13 8 11 9 12 10 10 11
REMARK SMILES IDX 8 12 9 13 104 14 94 15 6 16 7 17 5 18 1 19 2 20 3 21 106 22
REMARK SMILES IDX 4 24 105 25 95 26 96 27 100 28 97 29 99 30 98 31 101 32
REMARK SMILES IDX 103 33 102 34 21 35 22 36 23 37 24 38 25 39 26 40 27 41
REMARK SMILES IDX 28 42 29 43 93 44 30 45 92 46 31 47 32 48 33 49 86 50 34 51
REMARK SMILES IDX 91 52 85 53 87 54 35 55 90 56 84 57 83 58 36 60 70 61 49 62
REMARK SMILES IDX 69 63 50 64 53 65 68 66 88 67 51 68 52 69 67 71 89 72 54 73
REMARK SMILES IDX 37 74 38 75 47 76 39 77 40 78 46 79 48 80 41 81 42 82 43 83
REMARK SMILES IDX 44 84 45 85 71 86 72 87 81 88 73 89 74 90 80 91 82 92 75 93
REMARK SMILES IDX 76 94 77 95 78 96 79 97 55 98 56 99 65 100 57 101 58 102
REMARK SMILES IDX 64 103 66 104 59 105 60 106 61 107 62 108 63 109
REMARK H PARENT 2 23 87 59 53 70
REMARK Flexibility Score: inf
ROOT
ATOM      1  C   UNL A   1      33.894  35.290  31.151  1.00  0.00     0.188 C 
ENDROOT
BRANCH   1   2
ATOM      2  O   UNL A   1      33.663  34.904  32.500  1.00  0.00    -0.377 OA
BRANCH   2   3
ATOM      3  C   UNL A   1      34.466  35.528  33.480  1.00  0.00     0.188 C 
BRANCH   3   4
ATOM      4  C   UNL A   1      35.746  34.735  33.827  1.00  0.00     0.188 C 
BRANCH   4   5
ATOM      5  O   UNL A   1      36.184  33.645  33.029  1.00  0.00    -0.376 OA
BRANCH   5   6
ATOM      6  C   UNL A   1      35.787  32.301  33.258  1.00  0.00     0.202 C 
BRANCH   6   7
ATOM      7  C   UNL A   1      36.192  31.111  32.377  1.00  0.00     0.261 C 
BRANCH   7   8
ATOM      8  O   UNL A   1      37.584  30.840  32.299  1.00  0.00    -0.463 OA
BRANCH   8   9
ATOM      9  C   UNL A   1      38.036  29.702  32.879  1.00  0.00     0.311 C 
ATOM     10  O   UNL A   1      37.403  28.669  33.025  1.00  0.00    -0.252 OA
BRANCH   9  11
ATOM     11  C   UNL A   1      39.466  29.915  33.295  1.00  0.00     0.128 C 
ATOM     12  N   UNL A   1      41.453  28.870  33.807  1.00  0.00    -0.341 N 
ATOM     13  C   UNL A   1      40.323  28.727  32.930  1.00  0.00     0.135 C 
ATOM     14  C   UNL A   1      40.996  29.420  35.085  1.00  0.00     0.128 C 
ATOM     15  C   UNL A   1      39.619  30.087  34.819  1.00  0.00     0.055 C 
BRANCH  12  16
ATOM     16  C   UNL A   1      42.597  28.111  33.712  1.00  0.00     0.226 C 
ATOM     17  O   UNL A   1      42.916  27.572  32.650  1.00  0.00    -0.275 OA
BRANCH  16  18
ATOM     18  C   UNL A   1      43.331  27.728  35.009  1.00  0.00     0.090 C 
ATOM     19  C   UNL A   1      46.361  26.709  37.889  1.00  0.00     0.332 C 
ATOM     20  N   UNL A   1      45.605  26.910  36.652  1.00  0.00    -0.337 N 
ATOM     21  C   UNL A   1      45.311  28.336  36.460  1.00  0.00     0.262 C 
ATOM     22  C   UNL A   1      44.371  26.111  36.644  1.00  0.00     0.262 C 
ATOM     23  H   UNL A   1      46.179  26.590  35.872  1.00  0.00     0.347 HD
ATOM     24  C   UNL A   1      44.609  28.569  35.126  1.00  0.00     0.075 C 
ATOM     25  C   UNL A   1      43.646  26.259  35.295  1.00  0.00     0.075 C 
ENDBRANCH  16  18
ENDBRANCH  12  16
BRANCH  15  26
ATOM     26  C   UNL A   1      39.387  31.567  35.131  1.00  0.00    -0.038 A 
ATOM     27  C   UNL A   1      38.266  32.051  35.837  1.00  0.00     0.008 A 
ATOM     28  C   UNL A   1      40.448  32.464  34.867  1.00  0.00     0.054 A 
ATOM     29  C   UNL A   1      38.257  33.346  36.378  1.00  0.00     0.051 A 
ATOM     30  C   UNL A   1      40.455  33.689  35.496  1.00  0.00     0.166 A 
ATOM     31  C   UNL A   1      39.391  34.114  36.245  1.00  0.00     0.165 A 
ATOM     32  O   UNL A   1      41.504  34.553  35.539  1.00  0.00    -0.454 OA
ATOM     33  O   UNL A   1      39.633  35.308  36.848  1.00  0.00    -0.454 OA
ATOM     34  C   UNL A   1      41.043  35.461  36.566  1.00  0.00     0.468 C 
ENDBRANCH  15  26
ENDBRANCH   9  11
ENDBRANCH   8   9
ENDBRANCH   7   8
ENDBRANCH   6   7
ENDBRANCH   5   6
ENDBRANCH   4   5
ENDBRANCH   3   4
ENDBRANCH   2   3
ENDBRANCH   1   2
BRANCH   1  35
ATOM     35  C   UNL A   1      32.755  35.994  30.380  1.00  0.00     0.188 C 
BRANCH  35  36
ATOM     36  O   UNL A   1      32.535  35.478  29.073  1.00  0.00    -0.376 OA
BRANCH  36  37
ATOM     37  C   UNL A   1      33.571  34.751  28.435  1.00  0.00     0.202 C 
BRANCH  37  38
ATOM     38  C   UNL A   1      33.210  33.377  27.854  1.00  0.00     0.261 C 
BRANCH  38  39
ATOM     39  O   UNL A   1      34.313  32.548  27.461  1.00  0.00    -0.460 OA
BRANCH  39  40
ATOM     40  C   UNL A   1      34.274  31.248  27.820  1.00  0.00     0.338 C 
ATOM     41  O   UNL A   1      33.361  30.461  27.625  1.00  0.00    -0.246 OA
BRANCH  40  42
ATOM     42  C   UNL A   1      35.615  30.883  28.318  1.00  0.00     0.060 A 
ATOM     43  C   UNL A   1      36.550  31.897  28.571  1.00  0.00     0.016 A 
ATOM     44  C   UNL A   1      35.942  29.545  28.549  1.00  0.00     0.016 A 
ATOM     45  C   UNL A   1      37.827  31.571  29.027  1.00  0.00     0.010 A 
ATOM     46  C   UNL A   1      37.230  29.219  28.982  1.00  0.00     0.010 A 
ATOM     47  C   UNL A   1      38.188  30.228  29.193  1.00  0.00    -0.014 A 
BRANCH  47  48
ATOM     48  C   UNL A   1      39.610  29.863  29.395  1.00  0.00     0.031 A 
ATOM     49  C   UNL A   1      40.551  30.925  29.897  1.00  0.00     0.074 A 
ATOM     50  C   UNL A   1      40.060  28.621  29.140  1.00  0.00     0.049 A 
ATOM     51  N   UNL A   1      41.846  30.874  30.068  1.00  0.00    -0.248 NA
ATOM     52  C   UNL A   1      39.948  32.223  30.249  1.00  0.00     0.031 C 
ATOM     53  C   UNL A   1      39.239  27.500  28.686  1.00  0.00     0.029 A 
ATOM     54  N   UNL A   1      41.330  28.103  29.208  1.00  0.00    -0.354 N 
ATOM     55  C   UNL A   1      42.215  32.134  30.525  1.00  0.00     0.074 A 
ATOM     56  C   UNL A   1      41.012  32.933  30.592  1.00  0.00     0.031 C 
ATOM     57  C   UNL A   1      40.031  26.431  28.489  1.00  0.00     0.029 A 
ATOM     58  C   UNL A   1      41.419  26.804  28.765  1.00  0.00     0.049 A 
ATOM     59  H   UNL A   1      42.103  28.612  29.542  1.00  0.00     0.167 HD
ATOM     60  C   UNL A   1      43.448  32.582  30.858  1.00  0.00     0.037 A 
ATOM     61  C   UNL A   1      42.501  26.021  28.568  1.00  0.00     0.037 A 
ATOM     62  C   UNL A   1      44.638  31.775  30.799  1.00  0.00     0.049 A 
ATOM     63  C   UNL A   1      43.872  26.562  28.897  1.00  0.00     0.074 A 
ATOM     64  C   UNL A   1      45.928  32.124  31.158  1.00  0.00     0.029 A 
ATOM     65  N   UNL A   1      44.690  30.467  30.341  1.00  0.00    -0.354 N 
ATOM     66  N   UNL A   1      44.204  27.741  29.369  1.00  0.00    -0.248 NA
ATOM     67  C   UNL A   1      45.016  25.666  28.670  1.00  0.00     0.031 C 
ATOM     68  C   UNL A   1      46.771  31.052  30.853  1.00  0.00     0.029 A 
ATOM     69  C   UNL A   1      45.996  30.008  30.373  1.00  0.00     0.049 A 
ATOM     70  H   UNL A   1      43.914  29.944  30.038  1.00  0.00     0.167 HD
ATOM     71  C   UNL A   1      45.587  27.715  29.524  1.00  0.00     0.074 A 
ATOM     72  C   UNL A   1      46.028  26.400  29.109  1.00  0.00     0.031 C 
ATOM     73  C   UNL A   1      46.419  28.690  29.968  1.00  0.00     0.037 A 
BRANCH  60  74
ATOM     74  C   UNL A   1      43.589  34.017  31.283  1.00  0.00     0.058 A 
ATOM     75  C   UNL A   1      43.630  34.395  32.633  1.00  0.00     0.135 A 
ATOM     76  C   UNL A   1      43.755  35.023  30.315  1.00  0.00     0.135 A 
ATOM     77  F   UNL A   1      43.452  33.478  33.599  1.00  0.00    -0.206 F 
ATOM     78  C   UNL A   1      43.827  35.719  33.011  1.00  0.00     0.059 A 
ATOM     79  C   UNL A   1      43.982  36.348  30.670  1.00  0.00     0.059 A 
ATOM     80  F   UNL A   1      43.714  34.716  29.009  1.00  0.00    -0.206 F 
ATOM     81  C   UNL A   1      44.010  36.687  32.021  1.00  0.00     0.060 A 
BRANCH  81  82
ATOM     82  S   UNL A   1      44.309  38.393  32.529  1.00  0.00     0.124 S 
ATOM     83  O   UNL A   1      45.486  38.242  33.378  1.00  0.00    -0.237 OA
ATOM     84  O   UNL A   1      44.531  39.063  31.252  1.00  0.00    -0.237 OA
ATOM     85  O   UNL A   1      43.079  38.763  33.224  1.00  0.00    -0.744 OA
ENDBRANCH  81  82
ENDBRANCH  60  74
BRANCH  61  86
ATOM     86  C   UNL A   1      42.345  24.657  27.992  1.00  0.00     0.058 A 
ATOM     87  C   UNL A   1      42.494  23.507  28.783  1.00  0.00     0.135 A 
ATOM     88  C   UNL A   1      42.075  24.475  26.626  1.00  0.00     0.135 A 
ATOM     89  F   UNL A   1      42.763  23.623  30.091  1.00  0.00    -0.206 F 
ATOM     90  C   UNL A   1      42.408  22.229  28.236  1.00  0.00     0.059 A 
ATOM     91  C   UNL A   1      41.953  23.210  26.063  1.00  0.00     0.059 A 
ATOM     92  F   UNL A   1      41.911  25.541  25.825  1.00  0.00    -0.206 F 
ATOM     93  C   UNL A   1      42.137  22.092  26.874  1.00  0.00     0.060 A 
BRANCH  93  94
ATOM     94  S   UNL A   1      41.999  20.430  26.182  1.00  0.00     0.124 S 
ATOM     95  O   UNL A   1      40.727  20.511  25.474  1.00  0.00    -0.237 OA
ATOM     96  O   UNL A   1      43.193  20.350  25.347  1.00  0.00    -0.237 OA
ATOM     97  O   UNL A   1      42.011  19.575  27.365  1.00  0.00    -0.744 OA
ENDBRANCH  93  94
ENDBRANCH  61  86
BRANCH  73  98
ATOM     98  C   UNL A   1      47.886  28.367  30.076  1.00  0.00     0.058 A 
ATOM     99  C   UNL A   1      48.791  28.660  29.043  1.00  0.00     0.135 A 
ATOM    100  C   UNL A   1      48.403  27.811  31.258  1.00  0.00     0.135 A 
ATOM    101  F   UNL A   1      48.351  29.188  27.890  1.00  0.00    -0.206 F 
ATOM    102  C   UNL A   1      50.150  28.387  29.167  1.00  0.00     0.059 A 
ATOM    103  C   UNL A   1      49.762  27.562  31.418  1.00  0.00     0.059 A 
ATOM    104  F   UNL A   1      47.587  27.523  32.284  1.00  0.00    -0.206 F 
ATOM    105  C   UNL A   1      50.627  27.842  30.361  1.00  0.00     0.060 A 
BRANCH 105 106
ATOM    106  S   UNL A   1      52.397  27.524  30.520  1.00  0.00     0.124 S 
ATOM    107  O   UNL A   1      52.556  26.331  29.696  1.00  0.00    -0.237 OA
ATOM    108  O   UNL A   1      52.983  28.749  29.983  1.00  0.00    -0.237 OA
ATOM    109  O   UNL A   1      52.579  27.324  31.955  1.00  0.00    -0.744 OA
ENDBRANCH 105 106
ENDBRANCH  73  98
ENDBRANCH  47  48
ENDBRANCH  40  42
ENDBRANCH  39  40
ENDBRANCH  38  39
ENDBRANCH  37  38
ENDBRANCH  36  37
ENDBRANCH  35  36
ENDBRANCH   1  35
TORSDOF 26
ENDMDL
MODEL 3
REMARK VINA RESULT:      -9.4      7.398     14.649
REMARK SMILES C[NH+]1CCC(C(=O)N2C[C@@H](C(=O)OCCOCCOCCOCCOC(=O)c3ccc(-c4c5nc(c(-c6c(F)cc(S(=O)(=O)[O-])cc6F)c6ccc([nH]6)c(-c6c(F)cc(S(=O)(=O)[O-])cc6F)c6nc(c(-c7c(F)cc(S(=O)(=O)[O-])cc7F)c7ccc4[nH]7)C=C6)C=C5)cc3)[C@H](c3ccc4c(c3)OCO4)C2)CC1
REMARK SMILES IDX 20 1 19 2 18 3 17 4 16 5 15 6 14 7 13 8 11 9 12 10 10 11
REMARK SMILES IDX 8 12 9 13 104 14 94 15 6 16 7 17 5 18 1 19 2 20 3 21 106 22
REMARK SMILES IDX 4 24 105 25 95 26 96 27 100 28 97 29 99 30 98 31 101 32
REMARK SMILES IDX 103 33 102 34 21 35 22 36 23 37 24 38 25 39 26 40 27 41
REMARK SMILES IDX 28 42 29 43 93 44 30 45 92 46 31 47 32 48 33 49 86 50 34 51
REMARK SMILES IDX 91 52 85 53 87 54 35 55 90 56 84 57 83 58 36 60 70 61 49 62
REMARK SMILES IDX 69 63 50 64 53 65 68 66 88 67 51 68 52 69 67 71 89 72 54 73
REMARK SMILES IDX 37 74 38 75 47 76 39 77 40 78 46 79 48 80 41 81 42 82 43 83
REMARK SMILES IDX 44 84 45 85 71 86 72 87 81 88 73 89 74 90 80 91 82 92 75 93
REMARK SMILES IDX 76 94 77 95 78 96 79 97 55 98 56 99 65 100 57 101 58 102
REMARK SMILES IDX 64 103 66 104 59 105 60 106 61 107 62 108 63 109
REMARK H PARENT 2 23 87 59 53 70
REMARK Flexibility Score: inf
ROOT
ATOM      1  C   UNL A   1      37.984  32.135  33.330  1.00  0.00     0.188 C 
ENDROOT
BRANCH   1   2
ATOM      2  O   UNL A   1      37.829  32.816  34.569  1.00  0.00    -0.377 OA
BRANCH   2   3
ATOM      3  C   UNL A   1      38.827  33.760  34.897  1.00  0.00     0.188 C 
BRANCH   3   4
ATOM      4  C   UNL A   1      39.256  34.647  33.707  1.00  0.00     0.188 C 
BRANCH   4   5
ATOM      5  O   UNL A   1      40.621  34.945  33.456  1.00  0.00    -0.376 OA
BRANCH   5   6
ATOM      6  C   UNL A   1      41.324  34.482  32.312  1.00  0.00     0.202 C 
BRANCH   6   7
ATOM      7  C   UNL A   1      41.811  35.380  31.166  1.00  0.00     0.261 C 
BRANCH   7   8
ATOM      8  O   UNL A   1      41.945  34.754  29.899  1.00  0.00    -0.463 OA
BRANCH   8   9
ATOM      9  C   UNL A   1      41.586  35.467  28.805  1.00  0.00     0.311 C 
ATOM     10  O   UNL A   1      40.534  35.366  28.193  1.00  0.00    -0.252 OA
BRANCH   9  11
ATOM     11  C   UNL A   1      42.695  36.429  28.478  1.00  0.00     0.128 C 
ATOM     12  N   UNL A   1      43.188  38.563  27.768  1.00  0.00    -0.341 N 
ATOM     13  C   UNL A   1      42.220  37.859  28.564  1.00  0.00     0.135 C 
ATOM     14  C   UNL A   1      43.596  37.709  26.651  1.00  0.00     0.128 C 
ATOM     15  C   UNL A   1      43.228  36.253  27.042  1.00  0.00     0.055 C 
BRANCH  12  16
ATOM     16  C   UNL A   1      43.271  39.935  27.700  1.00  0.00     0.226 C 
ATOM     17  O   UNL A   1      43.230  40.627  28.720  1.00  0.00    -0.275 OA
BRANCH  16  18
ATOM     18  C   UNL A   1      43.151  40.609  26.321  1.00  0.00     0.090 C 
ATOM     19  C   UNL A   1      42.837  43.508  23.158  1.00  0.00     0.332 C 
ATOM     20  N   UNL A   1      42.784  42.822  24.450  1.00  0.00    -0.337 N 
ATOM     21  C   UNL A   1      44.135  42.436  24.877  1.00  0.00     0.262 C 
ATOM     22  C   UNL A   1      41.893  41.656  24.400  1.00  0.00     0.262 C 
ATOM     23  H   UNL A   1      42.400  43.470  25.139  1.00  0.00     0.347 HD
ATOM     24  C   UNL A   1      44.105  41.809  26.267  1.00  0.00     0.075 C 
ATOM     25  C   UNL A   1      41.774  41.013  25.793  1.00  0.00     0.075 C 
ENDBRANCH  16  18
ENDBRANCH  12  16
BRANCH  15  26
ATOM     26  C   UNL A   1      44.294  35.156  27.089  1.00  0.00    -0.038 A 
ATOM     27  C   UNL A   1      44.045  33.808  26.759  1.00  0.00     0.008 A 
ATOM     28  C   UNL A   1      45.636  35.557  27.286  1.00  0.00     0.054 A 
ATOM     29  C   UNL A   1      45.101  32.920  26.501  1.00  0.00     0.051 A 
ATOM     30  C   UNL A   1      46.648  34.695  26.927  1.00  0.00     0.166 A 
ATOM     31  C   UNL A   1      46.386  33.412  26.530  1.00  0.00     0.165 A 
ATOM     32  O   UNL A   1      47.966  35.016  26.826  1.00  0.00    -0.454 OA
ATOM     33  O   UNL A   1      47.511  32.757  26.138  1.00  0.00    -0.454 OA
ATOM     34  C   UNL A   1      48.457  33.850  26.127  1.00  0.00     0.468 C 
ENDBRANCH  15  26
ENDBRANCH   9  11
ENDBRANCH   8   9
ENDBRANCH   7   8
ENDBRANCH   6   7
ENDBRANCH   5   6
ENDBRANCH   4   5
ENDBRANCH   3   4
ENDBRANCH   2   3
ENDBRANCH   1   2
BRANCH   1  35
ATOM     35  C   UNL A   1      36.837  32.213  32.297  1.00  0.00     0.188 C 
BRANCH  35  36
ATOM     36  O   UNL A   1      36.919  33.332  31.424  1.00  0.00    -0.376 OA
BRANCH  36  37
ATOM     37  C   UNL A   1      36.014  33.425  30.337  1.00  0.00     0.202 C 
BRANCH  37  38
ATOM     38  C   UNL A   1      35.199  32.172  29.992  1.00  0.00     0.261 C 
BRANCH  38  39
ATOM     39  O   UNL A   1      35.154  31.810  28.604  1.00  0.00    -0.460 OA
BRANCH  39  40
ATOM     40  C   UNL A   1      35.115  30.495  28.304  1.00  0.00     0.338 C 
ATOM     41  O   UNL A   1      34.163  29.873  27.859  1.00  0.00    -0.246 OA
BRANCH  40  42
ATOM     42  C   UNL A   1      36.490  29.971  28.418  1.00  0.00     0.060 A 
ATOM     43  C   UNL A   1      36.912  29.413  29.633  1.00  0.00     0.016 A 
ATOM     44  C   UNL A   1      37.356  30.015  27.322  1.00  0.00     0.016 A 
ATOM     45  C   UNL A   1      38.212  28.926  29.765  1.00  0.00     0.010 A 
ATOM     46  C   UNL A   1      38.666  29.549  27.464  1.00  0.00     0.010 A 
ATOM     47  C   UNL A   1      39.109  29.032  28.695  1.00  0.00    -0.014 A 
BRANCH  47  48
ATOM     48  C   UNL A   1      40.555  28.787  28.913  1.00  0.00     0.031 A 
ATOM     49  C   UNL A   1      41.117  27.450  28.508  1.00  0.00     0.074 A 
ATOM     50  C   UNL A   1      41.352  29.724  29.456  1.00  0.00     0.049 A 
ATOM     51  N   UNL A   1      42.321  26.971  28.678  1.00  0.00    -0.248 NA
ATOM     52  C   UNL A   1      40.192  26.529  27.826  1.00  0.00     0.031 C 
ATOM     53  C   UNL A   1      40.932  31.067  29.853  1.00  0.00     0.029 A 
ATOM     54  N   UNL A   1      42.684  29.677  29.787  1.00  0.00    -0.354 N 
ATOM     55  C   UNL A   1      42.293  25.688  28.144  1.00  0.00     0.074 A 
ATOM     56  C   UNL A   1      40.951  25.456  27.658  1.00  0.00     0.031 C 
ATOM     57  C   UNL A   1      41.979  31.708  30.400  1.00  0.00     0.029 A 
ATOM     58  C   UNL A   1      43.133  30.808  30.428  1.00  0.00     0.049 A 
ATOM     59  H   UNL A   1      43.263  28.907  29.585  1.00  0.00     0.167 HD
ATOM     60  C   UNL A   1      43.298  24.785  28.067  1.00  0.00     0.037 A 
ATOM     61  C   UNL A   1      44.324  31.070  31.005  1.00  0.00     0.037 A 
ATOM     62  C   UNL A   1      44.635  25.028  28.543  1.00  0.00     0.049 A 
ATOM     63  C   UNL A   1      45.414  30.025  30.953  1.00  0.00     0.074 A 
ATOM     64  C   UNL A   1      45.735  24.193  28.471  1.00  0.00     0.029 A 
ATOM     65  N   UNL A   1      45.050  26.182  29.191  1.00  0.00    -0.354 N 
ATOM     66  N   UNL A   1      45.389  28.832  30.408  1.00  0.00    -0.248 NA
ATOM     67  C   UNL A   1      46.695  30.363  31.592  1.00  0.00     0.031 C 
ATOM     68  C   UNL A   1      46.798  24.813  29.135  1.00  0.00     0.029 A 
ATOM     69  C   UNL A   1      46.379  26.065  29.557  1.00  0.00     0.049 A 
ATOM     70  H   UNL A   1      44.482  26.968  29.364  1.00  0.00     0.167 HD
ATOM     71  C   UNL A   1      46.657  28.292  30.611  1.00  0.00     0.074 A 
ATOM     72  C   UNL A   1      47.427  29.295  31.315  1.00  0.00     0.031 C 
ATOM     73  C   UNL A   1      47.140  27.077  30.248  1.00  0.00     0.037 A 
BRANCH  60  74
ATOM     74  C   UNL A   1      42.994  23.434  27.480  1.00  0.00     0.058 A 
ATOM     75  C   UNL A   1      43.250  23.130  26.136  1.00  0.00     0.135 A 
ATOM     76  C   UNL A   1      42.501  22.407  28.303  1.00  0.00     0.135 A 
ATOM     77  F   UNL A   1      43.699  24.081  25.300  1.00  0.00    -0.206 F 
ATOM     78  C   UNL A   1      43.024  21.857  25.623  1.00  0.00     0.059 A 
ATOM     79  C   UNL A   1      42.295  21.120  27.820  1.00  0.00     0.059 A 
ATOM     80  F   UNL A   1      42.230  22.648  29.595  1.00  0.00    -0.206 F 
ATOM     81  C   UNL A   1      42.554  20.856  26.476  1.00  0.00     0.060 A 
BRANCH  81  82
ATOM     82  S   UNL A   1      42.309  19.198  25.806  1.00  0.00     0.124 S 
ATOM     83  O   UNL A   1      42.876  18.368  26.864  1.00  0.00    -0.237 OA
ATOM     84  O   UNL A   1      40.859  19.134  25.659  1.00  0.00    -0.237 OA
ATOM     85  O   UNL A   1      43.064  19.220  24.556  1.00  0.00    -0.744 OA
ENDBRANCH  81  82
ENDBRANCH  60  74
BRANCH  61  86
ATOM     86  C   UNL A   1      44.545  32.357  31.722  1.00  0.00     0.058 A 
ATOM     87  C   UNL A   1      45.077  33.477  31.067  1.00  0.00     0.135 A 
ATOM     88  C   UNL A   1      44.256  32.480  33.091  1.00  0.00     0.135 A 
ATOM     89  F   UNL A   1      45.381  33.410  29.763  1.00  0.00    -0.206 F 
ATOM     90  C   UNL A   1      45.341  34.663  31.747  1.00  0.00     0.059 A 
ATOM     91  C   UNL A   1      44.481  33.663  33.785  1.00  0.00     0.059 A 
ATOM     92  F   UNL A   1      43.734  31.442  33.765  1.00  0.00    -0.206 F 
ATOM     93  C   UNL A   1      45.038  34.746  33.107  1.00  0.00     0.060 A 
BRANCH  93  94
ATOM     94  S   UNL A   1      45.356  36.298  33.972  1.00  0.00     0.124 S 
ATOM     95  O   UNL A   1      46.091  37.052  32.963  1.00  0.00    -0.237 OA
ATOM     96  O   UNL A   1      44.005  36.765  34.264  1.00  0.00    -0.237 OA
ATOM     97  O   UNL A   1      46.131  35.877  35.136  1.00  0.00    -0.744 OA
ENDBRANCH  93  94
ENDBRANCH  61  86
BRANCH  73  98
ATOM     98  C   UNL A   1      48.581  26.773  30.561  1.00  0.00     0.058 A 
ATOM     99  C   UNL A   1      49.628  27.185  29.721  1.00  0.00     0.135 A 
ATOM    100  C   UNL A   1      48.922  26.113  31.753  1.00  0.00     0.135 A 
ATOM    101  F   UNL A   1      49.360  27.818  28.568  1.00  0.00    -0.206 F 
ATOM    102  C   UNL A   1      50.958  26.928  30.037  1.00  0.00     0.059 A 
ATOM    103  C   UNL A   1      50.246  25.875  32.106  1.00  0.00     0.059 A 
ATOM    104  F   UNL A   1      47.963  25.708  32.601  1.00  0.00    -0.206 F 
ATOM    105  C   UNL A   1      51.258  26.276  31.235  1.00  0.00     0.060 A 
BRANCH 105 106
ATOM    106  S   UNL A   1      52.990  25.978  31.648  1.00  0.00     0.124 S 
ATOM    107  O   UNL A   1      53.629  26.105  30.343  1.00  0.00    -0.237 OA
ATOM    108  O   UNL A   1      53.272  27.049  32.599  1.00  0.00    -0.237 OA
ATOM    109  O   UNL A   1      52.979  24.632  32.213  1.00  0.00    -0.744 OA
ENDBRANCH 105 106
ENDBRANCH  73  98
ENDBRANCH  47  48
ENDBRANCH  40  42
ENDBRANCH  39  40
ENDBRANCH  38  39
ENDBRANCH  37  38
ENDBRANCH  36  37
ENDBRANCH  35  36
ENDBRANCH   1  35
TORSDOF 26
ENDMDL
