MODEL 1
REMARK VINA RESULT:      -7.8      0.000      0.000
REMARK SMILES Nn1c(S[C@@H](C(=O)OCCOCCOCCOCCOC(=O)c2ccc(-c3c4nc(c(-c5c(F)cc(S(=O)(=O)[O-])cc5F)c5ccc([nH]5)c(-c5c(F)cc(S(=O)(=O)[O-])cc5F)c5nc(c(-c6c(F)cc(S(=O)(=O)[O-])cc6F)c6ccc3[nH]6)C=C5)C=C4)cc2)c2ccccc2)nc2ccc(Br)cc2c1=O
REMARK SMILES IDX 14 1 13 2 12 3 11 4 10 5 9 6 8 7 6 8 7 9 5 10 4 11 3 12 2 13
REMARK SMILES IDX 103 14 95 15 102 16 104 17 96 18 101 19 97 20 99 21 98 22
REMARK SMILES IDX 100 23 1 24 89 27 90 28 94 29 91 30 93 31 92 32 15 33 16 34
REMARK SMILES IDX 17 35 18 36 19 37 20 38 21 39 22 40 23 41 24 42 88 43 25 44
REMARK SMILES IDX 87 45 26 46 27 47 28 48 81 49 29 50 86 51 80 52 82 53 30 54
REMARK SMILES IDX 85 55 79 56 78 57 31 59 65 60 44 61 64 62 45 63 48 64 63 65
REMARK SMILES IDX 83 66 46 67 47 68 62 70 84 71 49 72 32 73 33 74 42 75 34 76
REMARK SMILES IDX 35 77 41 78 43 79 36 80 37 81 38 82 39 83 40 84 66 85 67 86
REMARK SMILES IDX 76 87 68 88 69 89 75 90 77 91 70 92 71 93 72 94 73 95 74 96
REMARK SMILES IDX 50 97 51 98 60 99 52 100 53 101 59 102 61 103 54 104 55 105
REMARK SMILES IDX 56 106 57 107 58 108
REMARK H PARENT 1 25 1 26 82 58 48 69
REMARK Flexibility Score: inf
ROOT
ATOM      1  O   UNL A   1      42.268  25.606  25.003  1.00  0.00    -0.377 OA
ENDROOT
BRANCH   1   2
ATOM      2  C   UNL A   1      42.047  26.344  26.191  1.00  0.00     0.188 C 
BRANCH   2   3
ATOM      3  C   UNL A   1      41.211  27.638  26.264  1.00  0.00     0.188 C 
BRANCH   3   4
ATOM      4  O   UNL A   1      41.304  28.309  27.498  1.00  0.00    -0.376 OA
BRANCH   4   5
ATOM      5  C   UNL A   1      41.108  27.562  28.684  1.00  0.00     0.202 C 
BRANCH   5   6
ATOM      6  C   UNL A   1      39.720  27.001  29.053  1.00  0.00     0.261 C 
BRANCH   6   7
ATOM      7  O   UNL A   1      38.950  27.754  30.020  1.00  0.00    -0.462 OA
BRANCH   7   8
ATOM      8  C   UNL A   1      38.305  28.877  29.630  1.00  0.00     0.324 C 
ATOM      9  O   UNL A   1      37.807  28.973  28.508  1.00  0.00    -0.251 OA
BRANCH   8  10
ATOM     10  C   UNL A   1      38.251  30.031  30.671  1.00  0.00     0.194 C 
BRANCH  10  11
ATOM     11  S   UNL A   1      37.046  29.941  32.029  1.00  0.00    -0.066 SA
BRANCH  11  12
ATOM     12  C   UNL A   1      36.347  31.424  32.687  1.00  0.00     0.191 A 
ATOM     13  N   UNL A   1      36.627  31.996  33.930  1.00  0.00    -0.202 N 
ATOM     14  C   UNL A   1      36.071  33.214  34.348  1.00  0.00     0.280 A 
ATOM     15  N   UNL A   1      35.541  32.022  31.853  1.00  0.00    -0.222 NA
ATOM     16  C   UNL A   1      35.253  33.928  33.371  1.00  0.00     0.069 A 
ATOM     17  O   UNL A   1      36.276  33.710  35.457  1.00  0.00    -0.267 OA
ATOM     18  C   UNL A   1      35.014  33.291  32.158  1.00  0.00     0.079 A 
ATOM     19  C   UNL A   1      34.826  35.242  33.626  1.00  0.00     0.031 A 
ATOM     20  C   UNL A   1      34.300  33.999  31.183  1.00  0.00     0.030 A 
ATOM     21  C   UNL A   1      34.146  35.934  32.632  1.00  0.00     0.018 A 
ATOM     22  C   UNL A   1      33.871  35.317  31.414  1.00  0.00     0.018 A 
ATOM     23  Br  UNL A   1      33.655  37.738  32.917  1.00  0.00    -0.051 Br
BRANCH  13  24
ATOM     24  N   UNL A   1      37.510  31.439  34.855  1.00  0.00    -0.334 N 
ATOM     25  H   UNL A   1      38.284  31.958  35.173  1.00  0.00     0.178 HD
ATOM     26  H   UNL A   1      37.360  30.525  35.191  1.00  0.00     0.178 HD
ENDBRANCH  13  24
ENDBRANCH  11  12
ENDBRANCH  10  11
BRANCH  10  27
ATOM     27  C   UNL A   1      38.570  31.416  30.124  1.00  0.00    -0.023 A 
ATOM     28  C   UNL A   1      37.678  32.114  29.284  1.00  0.00     0.005 A 
ATOM     29  C   UNL A   1      39.754  32.064  30.517  1.00  0.00     0.005 A 
ATOM     30  C   UNL A   1      37.907  33.447  28.947  1.00  0.00     0.000 A 
ATOM     31  C   UNL A   1      39.981  33.396  30.177  1.00  0.00     0.000 A 
ATOM     32  C   UNL A   1      39.048  34.093  29.412  1.00  0.00     0.000 A 
ENDBRANCH  10  27
ENDBRANCH   8  10
ENDBRANCH   7   8
ENDBRANCH   6   7
ENDBRANCH   5   6
ENDBRANCH   4   5
ENDBRANCH   3   4
ENDBRANCH   2   3
ENDBRANCH   1   2
BRANCH   1  33
ATOM     33  C   UNL A   1      43.298  24.647  24.989  1.00  0.00     0.188 C 
BRANCH  33  34
ATOM     34  C   UNL A   1      44.265  24.712  26.179  1.00  0.00     0.188 C 
BRANCH  34  35
ATOM     35  O   UNL A   1      45.468  23.966  25.993  1.00  0.00    -0.376 OA
BRANCH  35  36
ATOM     36  C   UNL A   1      46.682  24.620  26.353  1.00  0.00     0.202 C 
BRANCH  36  37
ATOM     37  C   UNL A   1      47.513  25.217  25.211  1.00  0.00     0.261 C 
BRANCH  37  38
ATOM     38  O   UNL A   1      46.830  26.083  24.305  1.00  0.00    -0.460 OA
BRANCH  38  39
ATOM     39  C   UNL A   1      47.268  27.347  24.170  1.00  0.00     0.338 C 
ATOM     40  O   UNL A   1      47.839  27.838  23.211  1.00  0.00    -0.246 OA
BRANCH  39  41
ATOM     41  C   UNL A   1      46.711  28.082  25.320  1.00  0.00     0.060 A 
ATOM     42  C   UNL A   1      45.327  28.133  25.518  1.00  0.00     0.016 A 
ATOM     43  C   UNL A   1      47.579  28.829  26.125  1.00  0.00     0.016 A 
ATOM     44  C   UNL A   1      44.808  28.929  26.535  1.00  0.00     0.010 A 
ATOM     45  C   UNL A   1      47.057  29.645  27.127  1.00  0.00     0.010 A 
ATOM     46  C   UNL A   1      45.673  29.677  27.351  1.00  0.00    -0.014 A 
BRANCH  46  47
ATOM     47  C   UNL A   1      45.156  30.291  28.592  1.00  0.00     0.031 A 
ATOM     48  C   UNL A   1      45.016  29.526  29.869  1.00  0.00     0.074 A 
ATOM     49  C   UNL A   1      44.782  31.581  28.505  1.00  0.00     0.049 A 
ATOM     50  N   UNL A   1      44.594  29.953  31.031  1.00  0.00    -0.248 NA
ATOM     51  C   UNL A   1      45.385  28.103  29.844  1.00  0.00     0.031 C 
ATOM     52  C   UNL A   1      44.867  32.391  27.285  1.00  0.00     0.029 A 
ATOM     53  N   UNL A   1      44.261  32.433  29.437  1.00  0.00    -0.354 N 
ATOM     54  C   UNL A   1      44.663  28.863  31.887  1.00  0.00     0.074 A 
ATOM     55  C   UNL A   1      45.129  27.740  31.097  1.00  0.00     0.031 C 
ATOM     56  C   UNL A   1      44.425  33.628  27.548  1.00  0.00     0.029 A 
ATOM     57  C   UNL A   1      44.005  33.690  28.943  1.00  0.00     0.049 A 
ATOM     58  H   UNL A   1      44.087  32.174  30.371  1.00  0.00     0.167 HD
ATOM     59  C   UNL A   1      44.376  28.820  33.211  1.00  0.00     0.037 A 
ATOM     60  C   UNL A   1      43.486  34.773  29.546  1.00  0.00     0.037 A 
ATOM     61  C   UNL A   1      43.891  29.953  33.964  1.00  0.00     0.049 A 
ATOM     62  C   UNL A   1      43.135  34.683  31.001  1.00  0.00     0.074 A 
ATOM     63  C   UNL A   1      43.599  30.027  35.316  1.00  0.00     0.029 A 
ATOM     64  N   UNL A   1      43.614  31.204  33.430  1.00  0.00    -0.354 N 
ATOM     65  N   UNL A   1      43.268  33.662  31.815  1.00  0.00    -0.248 NA
ATOM     66  C   UNL A   1      42.572  35.886  31.622  1.00  0.00     0.031 C 
ATOM     67  C   UNL A   1      43.098  31.306  35.586  1.00  0.00     0.029 A 
ATOM     68  C   UNL A   1      43.125  32.047  34.416  1.00  0.00     0.049 A 
ATOM     69  H   UNL A   1      43.746  31.456  32.487  1.00  0.00     0.167 HD
ATOM     70  C   UNL A   1      42.814  34.103  33.051  1.00  0.00     0.074 A 
ATOM     71  C   UNL A   1      42.425  35.489  32.880  1.00  0.00     0.031 C 
ATOM     72  C   UNL A   1      42.728  33.421  34.220  1.00  0.00     0.037 A 
BRANCH  59  73
ATOM     73  C   UNL A   1      44.579  27.517  33.939  1.00  0.00     0.058 A 
ATOM     74  C   UNL A   1      45.818  27.180  34.505  1.00  0.00     0.135 A 
ATOM     75  C   UNL A   1      43.509  26.628  34.139  1.00  0.00     0.135 A 
ATOM     76  F   UNL A   1      46.878  27.988  34.343  1.00  0.00    -0.206 F 
ATOM     77  C   UNL A   1      45.997  26.001  35.223  1.00  0.00     0.059 A 
ATOM     78  C   UNL A   1      43.658  25.453  34.874  1.00  0.00     0.059 A 
ATOM     79  F   UNL A   1      42.300  26.899  33.624  1.00  0.00    -0.206 F 
ATOM     80  C   UNL A   1      44.910  25.144  35.404  1.00  0.00     0.060 A 
BRANCH  80  81
ATOM     81  S   UNL A   1      45.164  23.620  36.338  1.00  0.00     0.124 S 
ATOM     82  O   UNL A   1      44.072  22.788  35.840  1.00  0.00    -0.237 OA
ATOM     83  O   UNL A   1      46.504  23.220  35.923  1.00  0.00    -0.237 OA
ATOM     84  O   UNL A   1      45.040  24.046  37.729  1.00  0.00    -0.744 OA
ENDBRANCH  80  81
ENDBRANCH  59  73
BRANCH  60  85
ATOM     85  C   UNL A   1      43.317  36.026  28.770  1.00  0.00     0.058 A 
ATOM     86  C   UNL A   1      42.174  36.234  27.988  1.00  0.00     0.135 A 
ATOM     87  C   UNL A   1      44.254  37.068  28.856  1.00  0.00     0.135 A 
ATOM     88  F   UNL A   1      41.249  35.267  27.881  1.00  0.00    -0.206 F 
ATOM     89  C   UNL A   1      41.964  37.431  27.313  1.00  0.00     0.059 A 
ATOM     90  C   UNL A   1      44.054  38.284  28.210  1.00  0.00     0.059 A 
ATOM     91  F   UNL A   1      45.352  36.926  29.614  1.00  0.00    -0.206 F 
ATOM     92  C   UNL A   1      42.906  38.454  27.437  1.00  0.00     0.060 A 
BRANCH  92  93
ATOM     93  S   UNL A   1      42.587  40.024  26.607  1.00  0.00     0.124 S 
ATOM     94  O   UNL A   1      41.329  39.745  25.925  1.00  0.00    -0.237 OA
ATOM     95  O   UNL A   1      42.511  40.952  27.732  1.00  0.00    -0.237 OA
ATOM     96  O   UNL A   1      43.751  40.192  25.742  1.00  0.00    -0.744 OA
ENDBRANCH  92  93
ENDBRANCH  60  85
BRANCH  72  97
ATOM     97  C   UNL A   1      42.184  34.167  35.407  1.00  0.00     0.058 A 
ATOM     98  C   UNL A   1      40.821  34.120  35.735  1.00  0.00     0.135 A 
ATOM     99  C   UNL A   1      43.042  34.883  36.256  1.00  0.00     0.135 A 
ATOM    100  F   UNL A   1      39.957  33.459  34.948  1.00  0.00    -0.206 F 
ATOM    101  C   UNL A   1      40.323  34.770  36.860  1.00  0.00     0.059 A 
ATOM    102  C   UNL A   1      42.571  35.517  37.402  1.00  0.00     0.059 A 
ATOM    103  F   UNL A   1      44.355  34.954  35.989  1.00  0.00    -0.206 F 
ATOM    104  C   UNL A   1      41.208  35.460  37.691  1.00  0.00     0.060 A 
BRANCH 104 105
ATOM    105  S   UNL A   1      40.552  36.253  39.173  1.00  0.00     0.124 S 
ATOM    106  O   UNL A   1      39.936  35.124  39.864  1.00  0.00    -0.237 OA
ATOM    107  O   UNL A   1      41.756  36.795  39.794  1.00  0.00    -0.237 OA
ATOM    108  O   UNL A   1      39.622  37.247  38.645  1.00  0.00    -0.744 OA
ENDBRANCH 104 105
ENDBRANCH  72  97
ENDBRANCH  46  47
ENDBRANCH  39  41
ENDBRANCH  38  39
ENDBRANCH  37  38
ENDBRANCH  36  37
ENDBRANCH  35  36
ENDBRANCH  34  35
ENDBRANCH  33  34
ENDBRANCH   1  33
TORSDOF 27
ENDMDL
MODEL 2
REMARK VINA RESULT:      -7.7      3.491      7.265
REMARK SMILES Nn1c(S[C@@H](C(=O)OCCOCCOCCOCCOC(=O)c2ccc(-c3c4nc(c(-c5c(F)cc(S(=O)(=O)[O-])cc5F)c5ccc([nH]5)c(-c5c(F)cc(S(=O)(=O)[O-])cc5F)c5nc(c(-c6c(F)cc(S(=O)(=O)[O-])cc6F)c6ccc3[nH]6)C=C5)C=C4)cc2)c2ccccc2)nc2ccc(Br)cc2c1=O
REMARK SMILES IDX 14 1 13 2 12 3 11 4 10 5 9 6 8 7 6 8 7 9 5 10 4 11 3 12 2 13
REMARK SMILES IDX 103 14 95 15 102 16 104 17 96 18 101 19 97 20 99 21 98 22
REMARK SMILES IDX 100 23 1 24 89 27 90 28 94 29 91 30 93 31 92 32 15 33 16 34
REMARK SMILES IDX 17 35 18 36 19 37 20 38 21 39 22 40 23 41 24 42 88 43 25 44
REMARK SMILES IDX 87 45 26 46 27 47 28 48 81 49 29 50 86 51 80 52 82 53 30 54
REMARK SMILES IDX 85 55 79 56 78 57 31 59 65 60 44 61 64 62 45 63 48 64 63 65
REMARK SMILES IDX 83 66 46 67 47 68 62 70 84 71 49 72 32 73 33 74 42 75 34 76
REMARK SMILES IDX 35 77 41 78 43 79 36 80 37 81 38 82 39 83 40 84 66 85 67 86
REMARK SMILES IDX 76 87 68 88 69 89 75 90 77 91 70 92 71 93 72 94 73 95 74 96
REMARK SMILES IDX 50 97 51 98 60 99 52 100 53 101 59 102 61 103 54 104 55 105
REMARK SMILES IDX 56 106 57 107 58 108
REMARK H PARENT 1 25 1 26 82 58 48 69
REMARK Flexibility Score: inf
ROOT
ATOM      1  O   UNL A   1      43.852  20.135  24.935  1.00  0.00    -0.377 OA
ENDROOT
BRANCH   1   2
ATOM      2  C   UNL A   1      44.131  21.513  25.094  1.00  0.00     0.188 C 
BRANCH   2   3
ATOM      3  C   UNL A   1      45.371  22.220  24.510  1.00  0.00     0.188 C 
BRANCH   3   4
ATOM      4  O   UNL A   1      46.338  22.566  25.473  1.00  0.00    -0.376 OA
BRANCH   4   5
ATOM      5  C   UNL A   1      46.015  23.573  26.415  1.00  0.00     0.202 C 
BRANCH   5   6
ATOM      6  C   UNL A   1      46.198  25.067  26.079  1.00  0.00     0.261 C 
BRANCH   6   7
ATOM      7  O   UNL A   1      45.505  26.014  26.927  1.00  0.00    -0.462 OA
BRANCH   7   8
ATOM      8  C   UNL A   1      46.045  27.235  27.142  1.00  0.00     0.324 C 
ATOM      9  O   UNL A   1      47.164  27.525  26.722  1.00  0.00    -0.251 OA
BRANCH   8  10
ATOM     10  C   UNL A   1      45.176  28.231  27.963  1.00  0.00     0.194 C 
BRANCH  10  11
ATOM     11  S   UNL A   1      44.366  29.613  27.105  1.00  0.00    -0.066 SA
BRANCH  11  12
ATOM     12  C   UNL A   1      45.088  31.224  27.150  1.00  0.00     0.191 A 
ATOM     13  N   UNL A   1      46.390  31.564  26.774  1.00  0.00    -0.202 N 
ATOM     14  C   UNL A   1      46.862  32.885  26.783  1.00  0.00     0.280 A 
ATOM     15  N   UNL A   1      44.249  32.149  27.528  1.00  0.00    -0.222 NA
ATOM     16  C   UNL A   1      45.888  33.925  27.107  1.00  0.00     0.069 A 
ATOM     17  O   UNL A   1      48.019  33.196  26.494  1.00  0.00    -0.267 OA
ATOM     18  C   UNL A   1      44.614  33.507  27.477  1.00  0.00     0.079 A 
ATOM     19  C   UNL A   1      46.215  35.281  26.942  1.00  0.00     0.031 A 
ATOM     20  C   UNL A   1      43.651  34.495  27.712  1.00  0.00     0.030 A 
ATOM     21  C   UNL A   1      45.234  36.241  27.151  1.00  0.00     0.018 A 
ATOM     22  C   UNL A   1      43.954  35.857  27.545  1.00  0.00     0.018 A 
ATOM     23  Br  UNL A   1      45.625  38.064  26.834  1.00  0.00    -0.051 Br
BRANCH  13  24
ATOM     24  N   UNL A   1      47.329  30.639  26.318  1.00  0.00    -0.334 N 
ATOM     25  H   UNL A   1      48.264  30.914  26.175  1.00  0.00     0.178 HD
ATOM     26  H   UNL A   1      47.057  29.709  26.140  1.00  0.00     0.178 HD
ENDBRANCH  13  24
ENDBRANCH  11  12
ENDBRANCH  10  11
BRANCH  10  27
ATOM     27  C   UNL A   1      45.651  28.488  29.387  1.00  0.00    -0.023 A 
ATOM     28  C   UNL A   1      45.037  29.446  30.220  1.00  0.00     0.005 A 
ATOM     29  C   UNL A   1      46.686  27.706  29.928  1.00  0.00     0.005 A 
ATOM     30  C   UNL A   1      45.366  29.535  31.571  1.00  0.00     0.000 A 
ATOM     31  C   UNL A   1      47.014  27.799  31.279  1.00  0.00     0.000 A 
ATOM     32  C   UNL A   1      46.339  28.696  32.104  1.00  0.00     0.000 A 
ENDBRANCH  10  27
ENDBRANCH   8  10
ENDBRANCH   7   8
ENDBRANCH   6   7
ENDBRANCH   5   6
ENDBRANCH   4   5
ENDBRANCH   3   4
ENDBRANCH   2   3
ENDBRANCH   1   2
BRANCH   1  33
ATOM     33  C   UNL A   1      42.965  19.519  25.838  1.00  0.00     0.188 C 
BRANCH  33  34
ATOM     34  C   UNL A   1      41.706  20.332  26.172  1.00  0.00     0.188 C 
BRANCH  34  35
ATOM     35  O   UNL A   1      41.607  20.715  27.543  1.00  0.00    -0.376 OA
BRANCH  35  36
ATOM     36  C   UNL A   1      41.078  22.012  27.803  1.00  0.00     0.202 C 
BRANCH  36  37
ATOM     37  C   UNL A   1      40.941  22.957  26.604  1.00  0.00     0.261 C 
BRANCH  37  38
ATOM     38  O   UNL A   1      40.187  24.151  26.810  1.00  0.00    -0.460 OA
BRANCH  38  39
ATOM     39  C   UNL A   1      40.711  25.321  26.403  1.00  0.00     0.338 C 
ATOM     40  O   UNL A   1      40.955  25.669  25.260  1.00  0.00    -0.246 OA
BRANCH  39  41
ATOM     41  C   UNL A   1      40.711  26.189  27.595  1.00  0.00     0.060 A 
ATOM     42  C   UNL A   1      41.805  27.019  27.860  1.00  0.00     0.016 A 
ATOM     43  C   UNL A   1      39.663  26.067  28.515  1.00  0.00     0.016 A 
ATOM     44  C   UNL A   1      41.846  27.742  29.050  1.00  0.00     0.010 A 
ATOM     45  C   UNL A   1      39.717  26.770  29.717  1.00  0.00     0.010 A 
ATOM     46  C   UNL A   1      40.796  27.629  29.975  1.00  0.00    -0.014 A 
BRANCH  46  47
ATOM     47  C   UNL A   1      40.700  28.594  31.091  1.00  0.00     0.031 A 
ATOM     48  C   UNL A   1      41.556  28.497  32.312  1.00  0.00     0.074 A 
ATOM     49  C   UNL A   1      39.768  29.556  30.964  1.00  0.00     0.049 A 
ATOM     50  N   UNL A   1      41.581  29.290  33.352  1.00  0.00    -0.248 NA
ATOM     51  C   UNL A   1      42.494  27.368  32.388  1.00  0.00     0.031 C 
ATOM     52  C   UNL A   1      38.876  29.703  29.808  1.00  0.00     0.029 A 
ATOM     53  N   UNL A   1      39.410  30.580  31.795  1.00  0.00    -0.354 N 
ATOM     54  C   UNL A   1      42.551  28.775  34.202  1.00  0.00     0.074 A 
ATOM     55  C   UNL A   1      43.061  27.573  33.573  1.00  0.00     0.031 C 
ATOM     56  C   UNL A   1      38.082  30.765  30.000  1.00  0.00     0.029 A 
ATOM     57  C   UNL A   1      38.391  31.356  31.297  1.00  0.00     0.049 A 
ATOM     58  H   UNL A   1      39.840  30.747  32.665  1.00  0.00     0.167 HD
ATOM     59  C   UNL A   1      42.977  29.277  35.386  1.00  0.00     0.037 A 
ATOM     60  C   UNL A   1      37.773  32.425  31.826  1.00  0.00     0.037 A 
ATOM     61  C   UNL A   1      42.429  30.466  35.997  1.00  0.00     0.049 A 
ATOM     62  C   UNL A   1      38.234  32.932  33.160  1.00  0.00     0.074 A 
ATOM     63  C   UNL A   1      42.808  31.080  37.180  1.00  0.00     0.029 A 
ATOM     64  N   UNL A   1      41.379  31.214  35.482  1.00  0.00    -0.354 N 
ATOM     65  N   UNL A   1      39.198  32.472  33.923  1.00  0.00    -0.248 NA
ATOM     66  C   UNL A   1      37.533  34.100  33.703  1.00  0.00     0.031 C 
ATOM     67  C   UNL A   1      41.954  32.166  37.403  1.00  0.00     0.029 A 
ATOM     68  C   UNL A   1      41.075  32.263  36.336  1.00  0.00     0.049 A 
ATOM     69  H   UNL A   1      40.916  31.027  34.633  1.00  0.00     0.167 HD
ATOM     70  C   UNL A   1      39.230  33.303  35.035  1.00  0.00     0.074 A 
ATOM     71  C   UNL A   1      38.200  34.305  34.832  1.00  0.00     0.031 C 
ATOM     72  C   UNL A   1      40.035  33.241  36.122  1.00  0.00     0.037 A 
BRANCH  59  73
ATOM     73  C   UNL A   1      44.087  28.556  36.105  1.00  0.00     0.058 A 
ATOM     74  C   UNL A   1      43.825  27.459  36.941  1.00  0.00     0.135 A 
ATOM     75  C   UNL A   1      45.430  28.914  35.903  1.00  0.00     0.135 A 
ATOM     76  F   UNL A   1      42.561  27.075  37.176  1.00  0.00    -0.206 F 
ATOM     77  C   UNL A   1      44.851  26.757  37.567  1.00  0.00     0.059 A 
ATOM     78  C   UNL A   1      46.475  28.211  36.500  1.00  0.00     0.059 A 
ATOM     79  F   UNL A   1      45.741  29.952  35.111  1.00  0.00    -0.206 F 
ATOM     80  C   UNL A   1      46.174  27.140  37.340  1.00  0.00     0.060 A 
BRANCH  80  81
ATOM     81  S   UNL A   1      47.489  26.215  38.161  1.00  0.00     0.124 S 
ATOM     82  O   UNL A   1      47.163  24.844  37.779  1.00  0.00    -0.237 OA
ATOM     83  O   UNL A   1      48.690  26.774  37.550  1.00  0.00    -0.237 OA
ATOM     84  O   UNL A   1      47.299  26.532  39.574  1.00  0.00    -0.744 OA
ENDBRANCH  80  81
ENDBRANCH  59  73
BRANCH  60  85
ATOM     85  C   UNL A   1      36.689  33.090  31.062  1.00  0.00     0.058 A 
ATOM     86  C   UNL A   1      36.990  33.961  30.007  1.00  0.00     0.135 A 
ATOM     87  C   UNL A   1      35.338  32.810  31.318  1.00  0.00     0.135 A 
ATOM     88  F   UNL A   1      38.269  34.255  29.723  1.00  0.00    -0.206 F 
ATOM     89  C   UNL A   1      35.990  34.537  29.232  1.00  0.00     0.059 A 
ATOM     90  C   UNL A   1      34.320  33.353  30.541  1.00  0.00     0.059 A 
ATOM     91  F   UNL A   1      35.001  31.961  32.301  1.00  0.00    -0.206 F 
ATOM     92  C   UNL A   1      34.657  34.220  29.502  1.00  0.00     0.060 A 
BRANCH  92  93
ATOM     93  S   UNL A   1      33.373  34.924  28.446  1.00  0.00     0.124 S 
ATOM     94  O   UNL A   1      34.169  35.604  27.431  1.00  0.00    -0.237 OA
ATOM     95  O   UNL A   1      32.657  33.731  28.004  1.00  0.00    -0.237 OA
ATOM     96  O   UNL A   1      32.630  35.793  29.352  1.00  0.00    -0.744 OA
ENDBRANCH  92  93
ENDBRANCH  60  85
BRANCH  72  97
ATOM     97  C   UNL A   1      39.831  34.286  37.184  1.00  0.00     0.058 A 
ATOM     98  C   UNL A   1      38.990  34.054  38.283  1.00  0.00     0.135 A 
ATOM     99  C   UNL A   1      40.528  35.504  37.134  1.00  0.00     0.135 A 
ATOM    100  F   UNL A   1      38.291  32.912  38.372  1.00  0.00    -0.206 F 
ATOM    101  C   UNL A   1      38.836  35.001  39.291  1.00  0.00     0.059 A 
ATOM    102  C   UNL A   1      40.412  36.453  38.145  1.00  0.00     0.059 A 
ATOM    103  F   UNL A   1      41.349  35.771  36.106  1.00  0.00    -0.206 F 
ATOM    104  C   UNL A   1      39.557  36.194  39.216  1.00  0.00     0.060 A 
BRANCH 104 105
ATOM    105  S   UNL A   1      39.385  37.387  40.559  1.00  0.00     0.124 S 
ATOM    106  O   UNL A   1      40.694  38.032  40.551  1.00  0.00    -0.237 OA
ATOM    107  O   UNL A   1      38.270  38.210  40.101  1.00  0.00    -0.237 OA
ATOM    108  O   UNL A   1      39.105  36.552  41.723  1.00  0.00    -0.744 OA
ENDBRANCH 104 105
ENDBRANCH  72  97
ENDBRANCH  46  47
ENDBRANCH  39  41
ENDBRANCH  38  39
ENDBRANCH  37  38
ENDBRANCH  36  37
ENDBRANCH  35  36
ENDBRANCH  34  35
ENDBRANCH  33  34
ENDBRANCH   1  33
TORSDOF 27
ENDMDL
MODEL 3
REMARK VINA RESULT:      -7.6      6.619     12.699
REMARK SMILES Nn1c(S[C@@H](C(=O)OCCOCCOCCOCCOC(=O)c2ccc(-c3c4nc(c(-c5c(F)cc(S(=O)(=O)[O-])cc5F)c5ccc([nH]5)c(-c5c(F)cc(S(=O)(=O)[O-])cc5F)c5nc(c(-c6c(F)cc(S(=O)(=O)[O-])cc6F)c6ccc3[nH]6)C=C5)C=C4)cc2)c2ccccc2)nc2ccc(Br)cc2c1=O
REMARK SMILES IDX 14 1 13 2 12 3 11 4 10 5 9 6 8 7 6 8 7 9 5 10 4 11 3 12 2 13
REMARK SMILES IDX 103 14 95 15 102 16 104 17 96 18 101 19 97 20 99 21 98 22
REMARK SMILES IDX 100 23 1 24 89 27 90 28 94 29 91 30 93 31 92 32 15 33 16 34
REMARK SMILES IDX 17 35 18 36 19 37 20 38 21 39 22 40 23 41 24 42 88 43 25 44
REMARK SMILES IDX 87 45 26 46 27 47 28 48 81 49 29 50 86 51 80 52 82 53 30 54
REMARK SMILES IDX 85 55 79 56 78 57 31 59 65 60 44 61 64 62 45 63 48 64 63 65
REMARK SMILES IDX 83 66 46 67 47 68 62 70 84 71 49 72 32 73 33 74 42 75 34 76
REMARK SMILES IDX 35 77 41 78 43 79 36 80 37 81 38 82 39 83 40 84 66 85 67 86
REMARK SMILES IDX 76 87 68 88 69 89 75 90 77 91 70 92 71 93 72 94 73 95 74 96
REMARK SMILES IDX 50 97 51 98 60 99 52 100 53 101 59 102 61 103 54 104 55 105
REMARK SMILES IDX 56 106 57 107 58 108
REMARK H PARENT 1 25 1 26 82 58 48 69
REMARK Flexibility Score: inf
ROOT
ATOM      1  O   UNL A   1      33.999  33.712  30.836  1.00  0.00    -0.377 OA
ENDROOT
BRANCH   1   2
ATOM      2  C   UNL A   1      34.911  34.283  29.916  1.00  0.00     0.188 C 
BRANCH   2   3
ATOM      3  C   UNL A   1      34.843  34.081  28.388  1.00  0.00     0.188 C 
BRANCH   3   4
ATOM      4  O   UNL A   1      35.178  32.780  27.968  1.00  0.00    -0.376 OA
BRANCH   4   5
ATOM      5  C   UNL A   1      34.136  31.834  27.817  1.00  0.00     0.202 C 
BRANCH   5   6
ATOM      6  C   UNL A   1      34.437  30.370  27.437  1.00  0.00     0.261 C 
BRANCH   6   7
ATOM      7  O   UNL A   1      33.677  29.815  26.337  1.00  0.00    -0.462 OA
BRANCH   7   8
ATOM      8  C   UNL A   1      32.506  29.186  26.586  1.00  0.00     0.324 C 
ATOM      9  O   UNL A   1      31.680  29.655  27.369  1.00  0.00    -0.251 OA
BRANCH   8  10
ATOM     10  C   UNL A   1      32.282  27.838  25.842  1.00  0.00     0.194 C 
BRANCH  10  11
ATOM     11  S   UNL A   1      33.714  26.777  25.486  1.00  0.00    -0.066 SA
BRANCH  11  12
ATOM     12  C   UNL A   1      33.467  25.143  24.864  1.00  0.00     0.191 A 
ATOM     13  N   UNL A   1      33.445  24.757  23.521  1.00  0.00    -0.202 N 
ATOM     14  C   UNL A   1      33.305  23.421  23.117  1.00  0.00     0.280 A 
ATOM     15  N   UNL A   1      33.360  24.248  25.808  1.00  0.00    -0.222 NA
ATOM     16  C   UNL A   1      33.289  22.416  24.177  1.00  0.00     0.069 A 
ATOM     17  O   UNL A   1      33.241  23.071  21.937  1.00  0.00    -0.267 OA
ATOM     18  C   UNL A   1      33.309  22.878  25.489  1.00  0.00     0.079 A 
ATOM     19  C   UNL A   1      33.358  21.049  23.862  1.00  0.00     0.031 A 
ATOM     20  C   UNL A   1      33.375  21.924  26.511  1.00  0.00     0.030 A 
ATOM     21  C   UNL A   1      33.454  20.124  24.892  1.00  0.00     0.018 A 
ATOM     22  C   UNL A   1      33.454  20.553  26.218  1.00  0.00     0.018 A 
ATOM     23  Br  UNL A   1      33.653  18.288  24.487  1.00  0.00    -0.051 Br
BRANCH  13  24
ATOM     24  N   UNL A   1      33.597  25.649  22.459  1.00  0.00    -0.334 N 
ATOM     25  H   UNL A   1      34.233  25.448  21.734  1.00  0.00     0.178 HD
ATOM     26  H   UNL A   1      33.069  26.480  22.435  1.00  0.00     0.178 HD
ENDBRANCH  13  24
ENDBRANCH  11  12
ENDBRANCH  10  11
BRANCH  10  27
ATOM     27  C   UNL A   1      31.154  27.838  24.819  1.00  0.00    -0.023 A 
ATOM     28  C   UNL A   1      30.278  26.744  24.670  1.00  0.00     0.005 A 
ATOM     29  C   UNL A   1      30.920  28.985  24.040  1.00  0.00     0.005 A 
ATOM     30  C   UNL A   1      29.146  26.837  23.861  1.00  0.00     0.000 A 
ATOM     31  C   UNL A   1      29.789  29.075  23.231  1.00  0.00     0.000 A 
ATOM     32  C   UNL A   1      28.893  28.012  23.160  1.00  0.00     0.000 A 
ENDBRANCH  10  27
ENDBRANCH   8  10
ENDBRANCH   7   8
ENDBRANCH   6   7
ENDBRANCH   5   6
ENDBRANCH   4   5
ENDBRANCH   3   4
ENDBRANCH   2   3
ENDBRANCH   1   2
BRANCH   1  33
ATOM     33  C   UNL A   1      34.505  32.900  31.869  1.00  0.00     0.188 C 
BRANCH  33  34
ATOM     34  C   UNL A   1      34.119  33.338  33.288  1.00  0.00     0.188 C 
BRANCH  34  35
ATOM     35  O   UNL A   1      35.196  33.290  34.224  1.00  0.00    -0.376 OA
BRANCH  35  36
ATOM     36  C   UNL A   1      36.415  32.715  33.761  1.00  0.00     0.202 C 
BRANCH  36  37
ATOM     37  C   UNL A   1      37.575  32.652  34.761  1.00  0.00     0.261 C 
BRANCH  37  38
ATOM     38  O   UNL A   1      38.798  32.086  34.292  1.00  0.00    -0.460 OA
BRANCH  38  39
ATOM     39  C   UNL A   1      39.035  30.783  34.522  1.00  0.00     0.338 C 
ATOM     40  O   UNL A   1      38.284  29.970  35.033  1.00  0.00    -0.246 OA
BRANCH  39  41
ATOM     41  C   UNL A   1      40.296  30.481  33.820  1.00  0.00     0.060 A 
ATOM     42  C   UNL A   1      41.275  29.697  34.438  1.00  0.00     0.016 A 
ATOM     43  C   UNL A   1      40.542  31.099  32.588  1.00  0.00     0.016 A 
ATOM     44  C   UNL A   1      42.507  29.520  33.815  1.00  0.00     0.010 A 
ATOM     45  C   UNL A   1      41.785  30.942  31.977  1.00  0.00     0.010 A 
ATOM     46  C   UNL A   1      42.761  30.132  32.576  1.00  0.00    -0.014 A 
BRANCH  46  47
ATOM     47  C   UNL A   1      43.943  29.724  31.789  1.00  0.00     0.031 A 
ATOM     48  C   UNL A   1      45.232  30.480  31.825  1.00  0.00     0.074 A 
ATOM     49  C   UNL A   1      43.788  28.642  31.004  1.00  0.00     0.049 A 
ATOM     50  N   UNL A   1      46.348  30.215  31.196  1.00  0.00    -0.248 NA
ATOM     51  C   UNL A   1      45.279  31.689  32.659  1.00  0.00     0.031 C 
ATOM     52  C   UNL A   1      42.550  27.862  30.897  1.00  0.00     0.029 A 
ATOM     53  N   UNL A   1      44.654  28.013  30.154  1.00  0.00    -0.354 N 
ATOM     54  C   UNL A   1      47.243  31.208  31.571  1.00  0.00     0.074 A 
ATOM     55  C   UNL A   1      46.524  32.108  32.450  1.00  0.00     0.031 C 
ATOM     56  C   UNL A   1      42.742  26.851  30.039  1.00  0.00     0.029 A 
ATOM     57  C   UNL A   1      44.102  26.926  29.520  1.00  0.00     0.049 A 
ATOM     58  H   UNL A   1      45.582  28.309  30.010  1.00  0.00     0.167 HD
ATOM     59  C   UNL A   1      48.545  31.336  31.218  1.00  0.00     0.037 A 
ATOM     60  C   UNL A   1      44.633  26.083  28.618  1.00  0.00     0.037 A 
ATOM     61  C   UNL A   1      49.226  30.433  30.319  1.00  0.00     0.049 A 
ATOM     62  C   UNL A   1      46.063  26.276  28.212  1.00  0.00     0.074 A 
ATOM     63  C   UNL A   1      50.552  30.453  29.918  1.00  0.00     0.029 A 
ATOM     64  N   UNL A   1      48.633  29.358  29.670  1.00  0.00    -0.354 N 
ATOM     65  N   UNL A   1      46.918  27.183  28.625  1.00  0.00    -0.248 NA
ATOM     66  C   UNL A   1      46.605  25.335  27.225  1.00  0.00     0.031 C 
ATOM     67  C   UNL A   1      50.745  29.423  28.991  1.00  0.00     0.029 A 
ATOM     68  C   UNL A   1      49.555  28.727  28.850  1.00  0.00     0.049 A 
ATOM     69  H   UNL A   1      47.693  29.084  29.778  1.00  0.00     0.167 HD
ATOM     70  C   UNL A   1      48.105  26.915  27.957  1.00  0.00     0.074 A 
ATOM     71  C   UNL A   1      47.861  25.749  27.130  1.00  0.00     0.031 C 
ATOM     72  C   UNL A   1      49.287  27.575  28.022  1.00  0.00     0.037 A 
BRANCH  59  73
ATOM     73  C   UNL A   1      49.328  32.484  31.799  1.00  0.00     0.058 A 
ATOM     74  C   UNL A   1      49.379  33.733  31.160  1.00  0.00     0.135 A 
ATOM     75  C   UNL A   1      49.974  32.362  33.041  1.00  0.00     0.135 A 
ATOM     76  F   UNL A   1      48.785  33.908  29.969  1.00  0.00    -0.206 F 
ATOM     77  C   UNL A   1      50.058  34.812  31.719  1.00  0.00     0.059 A 
ATOM     78  C   UNL A   1      50.640  33.435  33.631  1.00  0.00     0.059 A 
ATOM     79  F   UNL A   1      49.957  31.193  33.700  1.00  0.00    -0.206 F 
ATOM     80  C   UNL A   1      50.685  34.654  32.956  1.00  0.00     0.060 A 
BRANCH  80  81
ATOM     81  S   UNL A   1      51.560  36.066  33.662  1.00  0.00     0.124 S 
ATOM     82  O   UNL A   1      50.544  36.624  34.549  1.00  0.00    -0.237 OA
ATOM     83  O   UNL A   1      52.696  35.430  34.322  1.00  0.00    -0.237 OA
ATOM     84  O   UNL A   1      51.890  36.883  32.497  1.00  0.00    -0.744 OA
ENDBRANCH  80  81
ENDBRANCH  59  73
BRANCH  60  85
ATOM     85  C   UNL A   1      43.806  24.971  28.089  1.00  0.00     0.058 A 
ATOM     86  C   UNL A   1      43.880  23.692  28.657  1.00  0.00     0.135 A 
ATOM     87  C   UNL A   1      42.873  25.181  27.061  1.00  0.00     0.135 A 
ATOM     88  F   UNL A   1      44.755  23.447  29.645  1.00  0.00    -0.206 F 
ATOM     89  C   UNL A   1      43.061  22.656  28.224  1.00  0.00     0.059 A 
ATOM     90  C   UNL A   1      42.025  24.167  26.628  1.00  0.00     0.059 A 
ATOM     91  F   UNL A   1      42.747  26.395  26.504  1.00  0.00    -0.206 F 
ATOM     92  C   UNL A   1      42.130  22.906  27.213  1.00  0.00     0.060 A 
BRANCH  92  93
ATOM     93  S   UNL A   1      41.029  21.568  26.707  1.00  0.00     0.124 S 
ATOM     94  O   UNL A   1      40.855  20.841  27.959  1.00  0.00    -0.237 OA
ATOM     95  O   UNL A   1      39.862  22.302  26.226  1.00  0.00    -0.237 OA
ATOM     96  O   UNL A   1      41.793  20.874  25.676  1.00  0.00    -0.744 OA
ENDBRANCH  92  93
ENDBRANCH  60  85
BRANCH  72  97
ATOM     97  C   UNL A   1      50.409  27.053  27.169  1.00  0.00     0.058 A 
ATOM     98  C   UNL A   1      51.150  25.923  27.549  1.00  0.00     0.135 A 
ATOM     99  C   UNL A   1      50.705  27.649  25.933  1.00  0.00     0.135 A 
ATOM    100  F   UNL A   1      50.915  25.324  28.726  1.00  0.00    -0.206 F 
ATOM    101  C   UNL A   1      52.157  25.410  26.737  1.00  0.00     0.059 A 
ATOM    102  C   UNL A   1      51.689  27.136  25.092  1.00  0.00     0.059 A 
ATOM    103  F   UNL A   1      50.021  28.728  25.521  1.00  0.00    -0.206 F 
ATOM    104  C   UNL A   1      52.414  26.020  25.508  1.00  0.00     0.060 A 
BRANCH 104 105
ATOM    105  S   UNL A   1      53.688  25.309  24.446  1.00  0.00     0.124 S 
ATOM    106  O   UNL A   1      53.615  23.895  24.803  1.00  0.00    -0.237 OA
ATOM    107  O   UNL A   1      53.207  25.651  23.112  1.00  0.00    -0.237 OA
ATOM    108  O   UNL A   1      54.905  25.999  24.865  1.00  0.00    -0.744 OA
ENDBRANCH 104 105
ENDBRANCH  72  97
ENDBRANCH  46  47
ENDBRANCH  39  41
ENDBRANCH  38  39
ENDBRANCH  37  38
ENDBRANCH  36  37
ENDBRANCH  35  36
ENDBRANCH  34  35
ENDBRANCH  33  34
ENDBRANCH   1  33
TORSDOF 27
ENDMDL
