MODEL 1
REMARK VINA RESULT:     -10.2      0.000      0.000
REMARK SMILES CC(C)(C)c1cc2c(cc1Cl)C=C(C(=O)OCCOCCOCCOCCOC(=O)c1ccc(-c3c4nc(c(-c5c(F)cc(S(=O)(=O)[O-])cc5F)c5ccc([nH]5)c(-c5c(F)cc(S(=O)(=O)[O-])cc5F)c5nc(c(-c6c(F)cc(S(=O)(=O)[O-])cc6F)c6ccc3[nH]6)C=C5)C=C4)cc1)[C@@H](C(F)(F)F)O2
REMARK SMILES IDX 23 1 22 2 21 3 20 4 19 5 18 6 17 7 16 8 14 9 15 10 13 11
REMARK SMILES IDX 5 12 6 13 10 14 7 15 9 16 11 17 8 18 102 19 12 20 97 21 2 22
REMARK SMILES IDX 1 23 3 24 4 25 98 26 99 27 100 28 101 29 24 30 25 31 26 32
REMARK SMILES IDX 27 33 28 34 29 35 30 36 31 37 32 38 96 39 33 40 95 41 34 42
REMARK SMILES IDX 35 43 36 44 89 45 37 46 94 47 88 48 90 49 38 50 93 51 87 52
REMARK SMILES IDX 86 53 39 55 73 56 52 57 72 58 53 59 56 60 71 61 91 62 54 63
REMARK SMILES IDX 55 64 70 66 92 67 57 68 40 69 41 70 50 71 42 72 43 73 49 74
REMARK SMILES IDX 51 75 44 76 45 77 46 78 47 79 48 80 74 81 75 82 84 83 76 84
REMARK SMILES IDX 77 85 83 86 85 87 78 88 79 89 80 90 81 91 82 92 58 93 59 94
REMARK SMILES IDX 68 95 60 96 61 97 67 98 69 99 62 100 63 101 64 102 65 103
REMARK SMILES IDX 66 104
REMARK H PARENT 90 54 56 65
REMARK Flexibility Score: inf
ROOT
ATOM      1  C   UNL A   1      35.414  31.818  28.498  1.00  0.00     0.188 C 
ENDROOT
BRANCH   1   2
ATOM      2  O   UNL A   1      35.028  30.456  28.313  1.00  0.00    -0.377 OA
BRANCH   2   3
ATOM      3  C   UNL A   1      34.229  30.141  27.185  1.00  0.00     0.188 C 
BRANCH   3   4
ATOM      4  C   UNL A   1      33.476  28.807  27.331  1.00  0.00     0.188 C 
BRANCH   4   5
ATOM      5  O   UNL A   1      32.077  28.921  27.085  1.00  0.00    -0.376 OA
BRANCH   5   6
ATOM      6  C   UNL A   1      31.664  29.185  25.749  1.00  0.00     0.202 C 
BRANCH   6   7
ATOM      7  C   UNL A   1      31.447  27.982  24.818  1.00  0.00     0.261 C 
BRANCH   7   8
ATOM      8  O   UNL A   1      32.088  26.766  25.230  1.00  0.00    -0.460 OA
BRANCH   8   9
ATOM      9  C   UNL A   1      32.969  26.204  24.382  1.00  0.00     0.338 C 
ATOM     10  O   UNL A   1      33.828  26.773  23.732  1.00  0.00    -0.246 OA
BRANCH   9  11
ATOM     11  C   UNL A   1      32.853  24.735  24.519  1.00  0.00     0.087 C 
ATOM     12  C   UNL A   1      33.746  19.760  24.679  1.00  0.00    -0.020 A 
ATOM     13  C   UNL A   1      32.596  20.586  24.712  1.00  0.00     0.053 A 
ATOM     14  C   UNL A   1      34.987  20.428  24.813  1.00  0.00     0.045 A 
ATOM     15  C   UNL A   1      32.674  21.984  24.751  1.00  0.00     0.128 A 
ATOM     16  C   UNL A   1      35.060  21.830  24.863  1.00  0.00     0.032 A 
ATOM     17  Cl  UNL A   1      36.523  19.633  24.882  1.00  0.00    -0.084 Cl
ATOM     18  C   UNL A   1      33.909  22.609  24.776  1.00  0.00     0.019 A 
ATOM     19  O   UNL A   1      31.484  22.652  24.728  1.00  0.00    -0.475 OA
ATOM     20  C   UNL A   1      33.997  24.051  24.646  1.00  0.00     0.027 C 
ATOM     21  C   UNL A   1      31.485  24.102  24.585  1.00  0.00     0.316 C 
BRANCH  12  22
ATOM     22  C   UNL A   1      33.593  18.244  24.401  1.00  0.00    -0.012 C 
ATOM     23  C   UNL A   1      34.932  17.483  24.490  1.00  0.00     0.016 C 
ATOM     24  C   UNL A   1      32.954  18.048  23.005  1.00  0.00     0.016 C 
ATOM     25  C   UNL A   1      32.643  17.519  25.395  1.00  0.00     0.016 C 
ENDBRANCH  12  22
BRANCH  21  26
ATOM     26  C   UNL A   1      30.620  24.462  23.368  1.00  0.00     0.430 C 
ATOM     27  F   UNL A   1      29.664  25.361  23.698  1.00  0.00    -0.167 F 
ATOM     28  F   UNL A   1      31.349  25.003  22.369  1.00  0.00    -0.167 F 
ATOM     29  F   UNL A   1      29.995  23.369  22.869  1.00  0.00    -0.167 F 
ENDBRANCH  21  26
ENDBRANCH   9  11
ENDBRANCH   8   9
ENDBRANCH   7   8
ENDBRANCH   6   7
ENDBRANCH   5   6
ENDBRANCH   4   5
ENDBRANCH   3   4
ENDBRANCH   2   3
ENDBRANCH   1   2
BRANCH   1  30
ATOM     30  C   UNL A   1      34.642  32.771  29.441  1.00  0.00     0.188 C 
BRANCH  30  31
ATOM     31  O   UNL A   1      35.435  33.332  30.484  1.00  0.00    -0.376 OA
BRANCH  31  32
ATOM     32  C   UNL A   1      36.803  33.578  30.185  1.00  0.00     0.202 C 
BRANCH  32  33
ATOM     33  C   UNL A   1      37.778  32.694  30.968  1.00  0.00     0.261 C 
BRANCH  33  34
ATOM     34  O   UNL A   1      37.166  31.692  31.791  1.00  0.00    -0.460 OA
BRANCH  34  35
ATOM     35  C   UNL A   1      37.229  30.408  31.371  1.00  0.00     0.338 C 
ATOM     36  O   UNL A   1      36.303  29.624  31.260  1.00  0.00    -0.246 OA
BRANCH  35  37
ATOM     37  C   UNL A   1      38.601  30.179  30.871  1.00  0.00     0.060 A 
ATOM     38  C   UNL A   1      39.622  29.827  31.757  1.00  0.00     0.016 A 
ATOM     39  C   UNL A   1      38.871  30.360  29.509  1.00  0.00     0.016 A 
ATOM     40  C   UNL A   1      40.912  29.621  31.272  1.00  0.00     0.010 A 
ATOM     41  C   UNL A   1      40.166  30.160  29.026  1.00  0.00     0.010 A 
ATOM     42  C   UNL A   1      41.189  29.764  29.900  1.00  0.00    -0.014 A 
BRANCH  42  43
ATOM     43  C   UNL A   1      42.488  29.289  29.371  1.00  0.00     0.031 A 
ATOM     44  C   UNL A   1      42.688  27.894  28.867  1.00  0.00     0.074 A 
ATOM     45  C   UNL A   1      43.504  30.172  29.349  1.00  0.00     0.049 A 
ATOM     46  N   UNL A   1      43.739  27.381  28.281  1.00  0.00    -0.248 NA
ATOM     47  C   UNL A   1      41.574  26.953  29.045  1.00  0.00     0.031 C 
ATOM     48  C   UNL A   1      43.424  31.548  29.845  1.00  0.00     0.029 A 
ATOM     49  N   UNL A   1      44.788  30.056  28.888  1.00  0.00    -0.354 N 
ATOM     50  C   UNL A   1      43.413  26.062  27.995  1.00  0.00     0.074 A 
ATOM     51  C   UNL A   1      42.078  25.842  28.518  1.00  0.00     0.031 C 
ATOM     52  C   UNL A   1      44.598  32.157  29.635  1.00  0.00     0.029 A 
ATOM     53  C   UNL A   1      45.519  31.213  29.010  1.00  0.00     0.049 A 
ATOM     54  H   UNL A   1      45.153  29.225  28.505  1.00  0.00     0.167 HD
ATOM     55  C   UNL A   1      44.156  25.133  27.343  1.00  0.00     0.037 A 
ATOM     56  C   UNL A   1      46.787  31.490  28.651  1.00  0.00     0.037 A 
ATOM     57  C   UNL A   1      45.494  25.362  26.852  1.00  0.00     0.049 A 
ATOM     58  C   UNL A   1      47.601  30.433  27.965  1.00  0.00     0.074 A 
ATOM     59  C   UNL A   1      46.311  24.496  26.146  1.00  0.00     0.029 A 
ATOM     60  N   UNL A   1      46.221  26.532  27.031  1.00  0.00    -0.354 N 
ATOM     61  N   UNL A   1      47.251  29.214  27.632  1.00  0.00    -0.248 NA
ATOM     62  C   UNL A   1      48.977  30.790  27.598  1.00  0.00     0.031 C 
ATOM     63  C   UNL A   1      47.547  25.120  25.943  1.00  0.00     0.029 A 
ATOM     64  C   UNL A   1      47.485  26.398  26.477  1.00  0.00     0.049 A 
ATOM     65  H   UNL A   1      45.887  27.339  27.485  1.00  0.00     0.167 HD
ATOM     66  C   UNL A   1      48.359  28.660  27.003  1.00  0.00     0.074 A 
ATOM     67  C   UNL A   1      49.385  29.684  26.988  1.00  0.00     0.031 C 
ATOM     68  C   UNL A   1      48.508  27.417  26.481  1.00  0.00     0.037 A 
BRANCH  55  69
ATOM     69  C   UNL A   1      43.542  23.778  27.117  1.00  0.00     0.058 A 
ATOM     70  C   UNL A   1      43.389  22.860  28.170  1.00  0.00     0.135 A 
ATOM     71  C   UNL A   1      43.045  23.413  25.856  1.00  0.00     0.135 A 
ATOM     72  F   UNL A   1      43.850  23.155  29.396  1.00  0.00    -0.206 F 
ATOM     73  C   UNL A   1      42.790  21.619  27.973  1.00  0.00     0.059 A 
ATOM     74  C   UNL A   1      42.419  22.187  25.642  1.00  0.00     0.059 A 
ATOM     75  F   UNL A   1      43.158  24.253  24.816  1.00  0.00    -0.206 F 
ATOM     76  C   UNL A   1      42.308  21.291  26.705  1.00  0.00     0.060 A 
BRANCH  76  77
ATOM     77  S   UNL A   1      41.537  19.675  26.468  1.00  0.00     0.124 S 
ATOM     78  O   UNL A   1      42.178  19.226  25.236  1.00  0.00    -0.237 OA
ATOM     79  O   UNL A   1      41.927  18.964  27.681  1.00  0.00    -0.237 OA
ATOM     80  O   UNL A   1      40.117  19.988  26.357  1.00  0.00    -0.744 OA
ENDBRANCH  76  77
ENDBRANCH  55  69
BRANCH  56  81
ATOM     81  C   UNL A   1      47.325  32.851  28.897  1.00  0.00     0.058 A 
ATOM     82  C   UNL A   1      47.973  33.159  30.101  1.00  0.00     0.135 A 
ATOM     83  C   UNL A   1      47.275  33.841  27.905  1.00  0.00     0.135 A 
ATOM     84  F   UNL A   1      48.043  32.241  31.078  1.00  0.00    -0.206 F 
ATOM     85  C   UNL A   1      48.559  34.400  30.313  1.00  0.00     0.059 A 
ATOM     86  C   UNL A   1      47.873  35.084  28.084  1.00  0.00     0.059 A 
ATOM     87  F   UNL A   1      46.684  33.586  26.727  1.00  0.00    -0.206 F 
ATOM     88  C   UNL A   1      48.513  35.354  29.294  1.00  0.00     0.060 A 
BRANCH  88  89
ATOM     89  S   UNL A   1      49.356  36.929  29.550  1.00  0.00     0.124 S 
ATOM     90  O   UNL A   1      50.678  36.490  29.982  1.00  0.00    -0.237 OA
ATOM     91  O   UNL A   1      49.284  37.532  28.224  1.00  0.00    -0.237 OA
ATOM     92  O   UNL A   1      48.544  37.583  30.573  1.00  0.00    -0.744 OA
ENDBRANCH  88  89
ENDBRANCH  56  81
BRANCH  68  93
ATOM     93  C   UNL A   1      49.833  27.087  25.849  1.00  0.00     0.058 A 
ATOM     94  C   UNL A   1      50.062  27.285  24.479  1.00  0.00     0.135 A 
ATOM     95  C   UNL A   1      50.902  26.623  26.632  1.00  0.00     0.135 A 
ATOM     96  F   UNL A   1      49.070  27.718  23.683  1.00  0.00    -0.206 F 
ATOM     97  C   UNL A   1      51.300  27.019  23.903  1.00  0.00     0.059 A 
ATOM     98  C   UNL A   1      52.157  26.376  26.081  1.00  0.00     0.059 A 
ATOM     99  F   UNL A   1      50.739  26.422  27.949  1.00  0.00    -0.206 F 
ATOM    100  C   UNL A   1      52.344  26.570  24.714  1.00  0.00     0.060 A 
BRANCH 100 101
ATOM    101  S   UNL A   1      53.957  26.271  23.958  1.00  0.00     0.124 S 
ATOM    102  O   UNL A   1      54.316  24.978  24.533  1.00  0.00    -0.237 OA
ATOM    103  O   UNL A   1      53.636  26.264  22.535  1.00  0.00    -0.237 OA
ATOM    104  O   UNL A   1      54.759  27.403  24.409  1.00  0.00    -0.744 OA
ENDBRANCH 100 101
ENDBRANCH  68  93
ENDBRANCH  42  43
ENDBRANCH  35  37
ENDBRANCH  34  35
ENDBRANCH  33  34
ENDBRANCH  32  33
ENDBRANCH  31  32
ENDBRANCH  30  31
ENDBRANCH   1  30
TORSDOF 25
ENDMDL
MODEL 2
REMARK VINA RESULT:     -10.2      0.554      7.823
REMARK SMILES CC(C)(C)c1cc2c(cc1Cl)C=C(C(=O)OCCOCCOCCOCCOC(=O)c1ccc(-c3c4nc(c(-c5c(F)cc(S(=O)(=O)[O-])cc5F)c5ccc([nH]5)c(-c5c(F)cc(S(=O)(=O)[O-])cc5F)c5nc(c(-c6c(F)cc(S(=O)(=O)[O-])cc6F)c6ccc3[nH]6)C=C5)C=C4)cc1)[C@@H](C(F)(F)F)O2
REMARK SMILES IDX 23 1 22 2 21 3 20 4 19 5 18 6 17 7 16 8 14 9 15 10 13 11
REMARK SMILES IDX 5 12 6 13 10 14 7 15 9 16 11 17 8 18 102 19 12 20 97 21 2 22
REMARK SMILES IDX 1 23 3 24 4 25 98 26 99 27 100 28 101 29 24 30 25 31 26 32
REMARK SMILES IDX 27 33 28 34 29 35 30 36 31 37 32 38 96 39 33 40 95 41 34 42
REMARK SMILES IDX 35 43 36 44 89 45 37 46 94 47 88 48 90 49 38 50 93 51 87 52
REMARK SMILES IDX 86 53 39 55 73 56 52 57 72 58 53 59 56 60 71 61 91 62 54 63
REMARK SMILES IDX 55 64 70 66 92 67 57 68 40 69 41 70 50 71 42 72 43 73 49 74
REMARK SMILES IDX 51 75 44 76 45 77 46 78 47 79 48 80 74 81 75 82 84 83 76 84
REMARK SMILES IDX 77 85 83 86 85 87 78 88 79 89 80 90 81 91 82 92 58 93 59 94
REMARK SMILES IDX 68 95 60 96 61 97 67 98 69 99 62 100 63 101 64 102 65 103
REMARK SMILES IDX 66 104
REMARK H PARENT 90 54 56 65
REMARK Flexibility Score: inf
ROOT
ATOM      1  C   UNL A   1      35.639  31.679  28.292  1.00  0.00     0.188 C 
ENDROOT
BRANCH   1   2
ATOM      2  O   UNL A   1      35.111  30.373  28.061  1.00  0.00    -0.377 OA
BRANCH   2   3
ATOM      3  C   UNL A   1      34.180  30.212  27.004  1.00  0.00     0.188 C 
BRANCH   3   4
ATOM      4  C   UNL A   1      33.434  28.868  27.055  1.00  0.00     0.188 C 
BRANCH   4   5
ATOM      5  O   UNL A   1      32.022  29.002  26.913  1.00  0.00    -0.376 OA
BRANCH   5   6
ATOM      6  C   UNL A   1      31.512  29.231  25.604  1.00  0.00     0.202 C 
BRANCH   6   7
ATOM      7  C   UNL A   1      31.126  28.004  24.764  1.00  0.00     0.261 C 
BRANCH   7   8
ATOM      8  O   UNL A   1      31.655  26.753  25.228  1.00  0.00    -0.460 OA
BRANCH   8   9
ATOM      9  C   UNL A   1      32.708  26.236  24.571  1.00  0.00     0.338 C 
ATOM     10  O   UNL A   1      33.671  26.842  24.134  1.00  0.00    -0.246 OA
BRANCH   9  11
ATOM     11  C   UNL A   1      32.603  24.761  24.638  1.00  0.00     0.087 C 
ATOM     12  C   UNL A   1      33.551  19.794  24.671  1.00  0.00    -0.020 A 
ATOM     13  C   UNL A   1      32.391  20.605  24.641  1.00  0.00     0.053 A 
ATOM     14  C   UNL A   1      34.766  20.469  24.936  1.00  0.00     0.045 A 
ATOM     15  C   UNL A   1      32.444  22.001  24.743  1.00  0.00     0.128 A 
ATOM     16  C   UNL A   1      34.815  21.869  25.048  1.00  0.00     0.032 A 
ATOM     17  Cl  UNL A   1      36.303  19.689  25.101  1.00  0.00    -0.084 Cl
ATOM     18  C   UNL A   1      33.665  22.639  24.896  1.00  0.00     0.019 A 
ATOM     19  O   UNL A   1      31.252  22.656  24.647  1.00  0.00    -0.475 OA
ATOM     20  C   UNL A   1      33.742  24.085  24.833  1.00  0.00     0.027 C 
ATOM     21  C   UNL A   1      31.243  24.111  24.564  1.00  0.00     0.316 C 
BRANCH  12  22
ATOM     22  C   UNL A   1      33.444  18.289  24.320  1.00  0.00    -0.012 C 
ATOM     23  C   UNL A   1      34.819  17.634  24.074  1.00  0.00     0.016 C 
ATOM     24  C   UNL A   1      32.538  18.123  23.076  1.00  0.00     0.016 C 
ATOM     25  C   UNL A   1      32.776  17.434  25.433  1.00  0.00     0.016 C 
ENDBRANCH  12  22
BRANCH  21  26
ATOM     26  C   UNL A   1      30.478  24.512  23.294  1.00  0.00     0.430 C 
ATOM     27  F   UNL A   1      29.908  23.433  22.707  1.00  0.00    -0.167 F 
ATOM     28  F   UNL A   1      29.489  25.393  23.554  1.00  0.00    -0.167 F 
ATOM     29  F   UNL A   1      31.302  25.082  22.383  1.00  0.00    -0.167 F 
ENDBRANCH  21  26
ENDBRANCH   9  11
ENDBRANCH   8   9
ENDBRANCH   7   8
ENDBRANCH   6   7
ENDBRANCH   5   6
ENDBRANCH   4   5
ENDBRANCH   3   4
ENDBRANCH   2   3
ENDBRANCH   1   2
BRANCH   1  30
ATOM     30  C   UNL A   1      34.827  32.779  29.017  1.00  0.00     0.188 C 
BRANCH  30  31
ATOM     31  O   UNL A   1      35.566  33.502  29.999  1.00  0.00    -0.376 OA
BRANCH  31  32
ATOM     32  C   UNL A   1      36.906  33.841  29.668  1.00  0.00     0.202 C 
BRANCH  32  33
ATOM     33  C   UNL A   1      37.951  33.225  30.604  1.00  0.00     0.261 C 
BRANCH  33  34
ATOM     34  O   UNL A   1      37.417  32.494  31.716  1.00  0.00    -0.460 OA
BRANCH  34  35
ATOM     35  C   UNL A   1      37.246  31.161  31.570  1.00  0.00     0.338 C 
ATOM     36  O   UNL A   1      36.218  30.528  31.733  1.00  0.00    -0.246 OA
BRANCH  35  37
ATOM     37  C   UNL A   1      38.488  30.624  30.974  1.00  0.00     0.060 A 
ATOM     38  C   UNL A   1      38.572  30.416  29.595  1.00  0.00     0.016 A 
ATOM     39  C   UNL A   1      39.559  30.290  31.811  1.00  0.00     0.016 A 
ATOM     40  C   UNL A   1      39.747  29.902  29.048  1.00  0.00     0.010 A 
ATOM     41  C   UNL A   1      40.733  29.768  31.262  1.00  0.00     0.010 A 
ATOM     42  C   UNL A   1      40.843  29.597  29.874  1.00  0.00    -0.014 A 
BRANCH  42  43
ATOM     43  C   UNL A   1      42.157  29.307  29.255  1.00  0.00     0.031 A 
ATOM     44  C   UNL A   1      43.253  30.324  29.184  1.00  0.00     0.074 A 
ATOM     45  C   UNL A   1      42.343  28.071  28.754  1.00  0.00     0.049 A 
ATOM     46  N   UNL A   1      44.483  30.170  28.766  1.00  0.00    -0.248 NA
ATOM     47  C   UNL A   1      42.931  31.686  29.630  1.00  0.00     0.031 C 
ATOM     48  C   UNL A   1      41.329  27.014  28.746  1.00  0.00     0.029 A 
ATOM     49  N   UNL A   1      43.438  27.490  28.172  1.00  0.00    -0.354 N 
ATOM     50  C   UNL A   1      45.098  31.406  28.919  1.00  0.00     0.074 A 
ATOM     51  C   UNL A   1      44.085  32.312  29.425  1.00  0.00     0.031 C 
ATOM     52  C   UNL A   1      41.858  25.905  28.212  1.00  0.00     0.029 A 
ATOM     53  C   UNL A   1      43.238  26.177  27.823  1.00  0.00     0.049 A 
ATOM     54  H   UNL A   1      44.285  27.967  28.018  1.00  0.00     0.167 HD
ATOM     55  C   UNL A   1      46.389  31.740  28.674  1.00  0.00     0.037 A 
ATOM     56  C   UNL A   1      44.074  25.283  27.261  1.00  0.00     0.037 A 
ATOM     57  C   UNL A   1      47.377  30.830  28.146  1.00  0.00     0.049 A 
ATOM     58  C   UNL A   1      45.488  25.689  26.965  1.00  0.00     0.074 A 
ATOM     59  C   UNL A   1      48.719  31.065  27.901  1.00  0.00     0.029 A 
ATOM     60  N   UNL A   1      47.131  29.518  27.762  1.00  0.00    -0.354 N 
ATOM     61  N   UNL A   1      46.076  26.840  27.186  1.00  0.00    -0.248 NA
ATOM     62  C   UNL A   1      46.354  24.675  26.350  1.00  0.00     0.031 C 
ATOM     63  C   UNL A   1      49.271  29.916  27.322  1.00  0.00     0.029 A 
ATOM     64  C   UNL A   1      48.286  28.943  27.254  1.00  0.00     0.049 A 
ATOM     65  H   UNL A   1      46.262  29.062  27.840  1.00  0.00     0.167 HD
ATOM     66  C   UNL A   1      47.386  26.686  26.752  1.00  0.00     0.074 A 
ATOM     67  C   UNL A   1      47.508  25.325  26.269  1.00  0.00     0.031 C 
ATOM     68  C   UNL A   1      48.396  27.592  26.759  1.00  0.00     0.037 A 
BRANCH  55  69
ATOM     69  C   UNL A   1      46.815  33.151  28.974  1.00  0.00     0.058 A 
ATOM     70  C   UNL A   1      47.355  33.502  30.223  1.00  0.00     0.135 A 
ATOM     71  C   UNL A   1      46.744  34.151  27.990  1.00  0.00     0.135 A 
ATOM     72  F   UNL A   1      47.442  32.588  31.203  1.00  0.00    -0.206 F 
ATOM     73  C   UNL A   1      47.784  34.798  30.494  1.00  0.00     0.059 A 
ATOM     74  C   UNL A   1      47.190  35.448  28.231  1.00  0.00     0.059 A 
ATOM     75  F   UNL A   1      46.243  33.870  26.777  1.00  0.00    -0.206 F 
ATOM     76  C   UNL A   1      47.696  35.765  29.491  1.00  0.00     0.060 A 
BRANCH  76  77
ATOM     77  S   UNL A   1      48.254  37.442  29.862  1.00  0.00     0.124 S 
ATOM     78  O   UNL A   1      47.503  38.221  28.882  1.00  0.00    -0.237 OA
ATOM     79  O   UNL A   1      47.842  37.607  31.252  1.00  0.00    -0.237 OA
ATOM     80  O   UNL A   1      49.694  37.380  29.640  1.00  0.00    -0.744 OA
ENDBRANCH  76  77
ENDBRANCH  55  69
BRANCH  56  81
ATOM     81  C   UNL A   1      43.588  23.906  26.999  1.00  0.00     0.058 A 
ATOM     82  C   UNL A   1      43.643  22.924  27.997  1.00  0.00     0.135 A 
ATOM     83  C   UNL A   1      42.986  23.569  25.777  1.00  0.00     0.135 A 
ATOM     84  F   UNL A   1      44.210  23.202  29.180  1.00  0.00    -0.206 F 
ATOM     85  C   UNL A   1      43.112  21.656  27.797  1.00  0.00     0.059 A 
ATOM     86  C   UNL A   1      42.428  22.314  25.559  1.00  0.00     0.059 A 
ATOM     87  F   UNL A   1      42.892  24.483  24.798  1.00  0.00    -0.206 F 
ATOM     88  C   UNL A   1      42.496  21.363  26.578  1.00  0.00     0.060 A 
BRANCH  88  89
ATOM     89  S   UNL A   1      41.733  19.741  26.366  1.00  0.00     0.124 S 
ATOM     90  O   UNL A   1      40.338  20.099  26.139  1.00  0.00    -0.237 OA
ATOM     91  O   UNL A   1      42.453  19.215  25.212  1.00  0.00    -0.237 OA
ATOM     92  O   UNL A   1      42.014  19.068  27.632  1.00  0.00    -0.744 OA
ENDBRANCH  88  89
ENDBRANCH  56  81
BRANCH  68  93
ATOM     93  C   UNL A   1      49.729  27.144  26.223  1.00  0.00     0.058 A 
ATOM     94  C   UNL A   1      50.739  26.669  27.074  1.00  0.00     0.135 A 
ATOM     95  C   UNL A   1      49.978  27.136  24.842  1.00  0.00     0.135 A 
ATOM     96  F   UNL A   1      50.557  26.664  28.404  1.00  0.00    -0.206 F 
ATOM     97  C   UNL A   1      51.956  26.216  26.575  1.00  0.00     0.059 A 
ATOM     98  C   UNL A   1      51.179  26.663  24.318  1.00  0.00     0.059 A 
ATOM     99  F   UNL A   1      49.043  27.574  23.983  1.00  0.00    -0.206 F 
ATOM    100  C   UNL A   1      52.164  26.212  25.194  1.00  0.00     0.060 A 
BRANCH 100 101
ATOM    101  S   UNL A   1      53.733  25.580  24.560  1.00  0.00     0.124 S 
ATOM    102  O   UNL A   1      53.607  24.152  24.833  1.00  0.00    -0.237 OA
ATOM    103  O   UNL A   1      53.676  25.964  23.153  1.00  0.00    -0.237 OA
ATOM    104  O   UNL A   1      54.731  26.285  25.357  1.00  0.00    -0.744 OA
ENDBRANCH 100 101
ENDBRANCH  68  93
ENDBRANCH  42  43
ENDBRANCH  35  37
ENDBRANCH  34  35
ENDBRANCH  33  34
ENDBRANCH  32  33
ENDBRANCH  31  32
ENDBRANCH  30  31
ENDBRANCH   1  30
TORSDOF 25
ENDMDL
MODEL 3
REMARK VINA RESULT:      -9.7      6.754     12.307
REMARK SMILES CC(C)(C)c1cc2c(cc1Cl)C=C(C(=O)OCCOCCOCCOCCOC(=O)c1ccc(-c3c4nc(c(-c5c(F)cc(S(=O)(=O)[O-])cc5F)c5ccc([nH]5)c(-c5c(F)cc(S(=O)(=O)[O-])cc5F)c5nc(c(-c6c(F)cc(S(=O)(=O)[O-])cc6F)c6ccc3[nH]6)C=C5)C=C4)cc1)[C@@H](C(F)(F)F)O2
REMARK SMILES IDX 23 1 22 2 21 3 20 4 19 5 18 6 17 7 16 8 14 9 15 10 13 11
REMARK SMILES IDX 5 12 6 13 10 14 7 15 9 16 11 17 8 18 102 19 12 20 97 21 2 22
REMARK SMILES IDX 1 23 3 24 4 25 98 26 99 27 100 28 101 29 24 30 25 31 26 32
REMARK SMILES IDX 27 33 28 34 29 35 30 36 31 37 32 38 96 39 33 40 95 41 34 42
REMARK SMILES IDX 35 43 36 44 89 45 37 46 94 47 88 48 90 49 38 50 93 51 87 52
REMARK SMILES IDX 86 53 39 55 73 56 52 57 72 58 53 59 56 60 71 61 91 62 54 63
REMARK SMILES IDX 55 64 70 66 92 67 57 68 40 69 41 70 50 71 42 72 43 73 49 74
REMARK SMILES IDX 51 75 44 76 45 77 46 78 47 79 48 80 74 81 75 82 84 83 76 84
REMARK SMILES IDX 77 85 83 86 85 87 78 88 79 89 80 90 81 91 82 92 58 93 59 94
REMARK SMILES IDX 68 95 60 96 61 97 67 98 69 99 62 100 63 101 64 102 65 103
REMARK SMILES IDX 66 104
REMARK H PARENT 90 54 56 65
REMARK Flexibility Score: inf
ROOT
ATOM      1  C   UNL A   1      36.988  22.691  24.268  1.00  0.00     0.188 C 
ENDROOT
BRANCH   1   2
ATOM      2  O   UNL A   1      35.667  23.059  24.666  1.00  0.00    -0.377 OA
BRANCH   2   3
ATOM      3  C   UNL A   1      34.765  22.022  25.008  1.00  0.00     0.188 C 
BRANCH   3   4
ATOM      4  C   UNL A   1      33.523  21.977  24.101  1.00  0.00     0.188 C 
BRANCH   4   5
ATOM      5  O   UNL A   1      32.342  21.562  24.783  1.00  0.00    -0.376 OA
BRANCH   5   6
ATOM      6  C   UNL A   1      31.662  22.534  25.568  1.00  0.00     0.202 C 
BRANCH   6   7
ATOM      7  C   UNL A   1      31.226  23.835  24.876  1.00  0.00     0.261 C 
BRANCH   7   8
ATOM      8  O   UNL A   1      32.093  24.959  25.086  1.00  0.00    -0.460 OA
BRANCH   8   9
ATOM      9  C   UNL A   1      32.306  25.787  24.047  1.00  0.00     0.338 C 
ATOM     10  O   UNL A   1      32.083  25.562  22.870  1.00  0.00    -0.246 OA
BRANCH   9  11
ATOM     11  C   UNL A   1      32.679  27.110  24.594  1.00  0.00     0.087 C 
ATOM     12  C   UNL A   1      34.459  30.893  27.440  1.00  0.00    -0.020 A 
ATOM     13  C   UNL A   1      33.624  30.786  26.302  1.00  0.00     0.053 A 
ATOM     14  C   UNL A   1      35.137  29.710  27.819  1.00  0.00     0.045 A 
ATOM     15  C   UNL A   1      33.381  29.567  25.657  1.00  0.00     0.128 A 
ATOM     16  C   UNL A   1      34.899  28.490  27.163  1.00  0.00     0.032 A 
ATOM     17  Cl  UNL A   1      36.270  29.606  29.124  1.00  0.00    -0.084 Cl
ATOM     18  C   UNL A   1      33.981  28.407  26.119  1.00  0.00     0.019 A 
ATOM     19  O   UNL A   1      32.516  29.607  24.604  1.00  0.00    -0.475 OA
ATOM     20  C   UNL A   1      33.603  27.121  25.563  1.00  0.00     0.027 C 
ATOM     21  C   UNL A   1      32.074  28.357  23.997  1.00  0.00     0.316 C 
BRANCH  12  22
ATOM     22  C   UNL A   1      34.498  32.219  28.241  1.00  0.00    -0.012 C 
ATOM     23  C   UNL A   1      33.281  33.124  27.956  1.00  0.00     0.016 C 
ATOM     24  C   UNL A   1      35.813  32.967  27.916  1.00  0.00     0.016 C 
ATOM     25  C   UNL A   1      34.507  32.018  29.782  1.00  0.00     0.016 C 
ENDBRANCH  12  22
BRANCH  21  26
ATOM     26  C   UNL A   1      30.540  28.328  24.026  1.00  0.00     0.430 C 
ATOM     27  F   UNL A   1      30.036  27.930  22.834  1.00  0.00    -0.167 F 
ATOM     28  F   UNL A   1      30.065  27.480  24.963  1.00  0.00    -0.167 F 
ATOM     29  F   UNL A   1      30.030  29.555  24.292  1.00  0.00    -0.167 F 
ENDBRANCH  21  26
ENDBRANCH   9  11
ENDBRANCH   8   9
ENDBRANCH   7   8
ENDBRANCH   6   7
ENDBRANCH   5   6
ENDBRANCH   4   5
ENDBRANCH   3   4
ENDBRANCH   2   3
ENDBRANCH   1   2
BRANCH   1  30
ATOM     30  C   UNL A   1      37.709  21.454  24.854  1.00  0.00     0.188 C 
BRANCH  30  31
ATOM     31  O   UNL A   1      38.638  21.755  25.894  1.00  0.00    -0.376 OA
BRANCH  31  32
ATOM     32  C   UNL A   1      38.639  23.090  26.382  1.00  0.00     0.202 C 
BRANCH  32  33
ATOM     33  C   UNL A   1      39.973  23.524  26.998  1.00  0.00     0.261 C 
BRANCH  33  34
ATOM     34  O   UNL A   1      39.896  24.640  27.896  1.00  0.00    -0.460 OA
BRANCH  34  35
ATOM     35  C   UNL A   1      40.298  25.846  27.436  1.00  0.00     0.338 C 
ATOM     36  O   UNL A   1      40.493  26.164  26.276  1.00  0.00    -0.246 OA
BRANCH  35  37
ATOM     37  C   UNL A   1      40.265  26.782  28.580  1.00  0.00     0.060 A 
ATOM     38  C   UNL A   1      39.282  26.654  29.564  1.00  0.00     0.016 A 
ATOM     39  C   UNL A   1      41.202  27.821  28.641  1.00  0.00     0.016 A 
ATOM     40  C   UNL A   1      39.258  27.549  30.632  1.00  0.00     0.010 A 
ATOM     41  C   UNL A   1      41.172  28.721  29.708  1.00  0.00     0.010 A 
ATOM     42  C   UNL A   1      40.216  28.574  30.725  1.00  0.00    -0.014 A 
BRANCH  42  43
ATOM     43  C   UNL A   1      40.336  29.340  31.986  1.00  0.00     0.031 A 
ATOM     44  C   UNL A   1      41.421  29.079  32.984  1.00  0.00     0.074 A 
ATOM     45  C   UNL A   1      39.425  30.306  32.210  1.00  0.00     0.049 A 
ATOM     46  N   UNL A   1      41.705  29.745  34.074  1.00  0.00    -0.248 NA
ATOM     47  C   UNL A   1      42.296  27.926  32.734  1.00  0.00     0.031 C 
ATOM     48  C   UNL A   1      38.309  30.622  31.315  1.00  0.00     0.029 A 
ATOM     49  N   UNL A   1      39.296  31.202  33.237  1.00  0.00    -0.354 N 
ATOM     50  C   UNL A   1      42.806  29.111  34.634  1.00  0.00     0.074 A 
ATOM     51  C   UNL A   1      43.108  27.976  33.784  1.00  0.00     0.031 C 
ATOM     52  C   UNL A   1      37.625  31.658  31.819  1.00  0.00     0.029 A 
ATOM     53  C   UNL A   1      38.240  32.066  33.078  1.00  0.00     0.049 A 
ATOM     54  H   UNL A   1      39.900  31.224  34.015  1.00  0.00     0.167 HD
ATOM     55  C   UNL A   1      43.502  29.459  35.745  1.00  0.00     0.037 A 
ATOM     56  C   UNL A   1      37.816  33.083  33.853  1.00  0.00     0.037 A 
ATOM     57  C   UNL A   1      43.171  30.579  36.594  1.00  0.00     0.049 A 
ATOM     58  C   UNL A   1      38.582  33.424  35.097  1.00  0.00     0.074 A 
ATOM     59  C   UNL A   1      43.839  31.033  37.718  1.00  0.00     0.029 A 
ATOM     60  N   UNL A   1      42.069  31.408  36.429  1.00  0.00    -0.354 N 
ATOM     61  N   UNL A   1      39.668  32.863  35.573  1.00  0.00    -0.248 NA
ATOM     62  C   UNL A   1      38.074  34.540  35.904  1.00  0.00     0.031 C 
ATOM     63  C   UNL A   1      43.116  32.102  38.260  1.00  0.00     0.029 A 
ATOM     64  C   UNL A   1      42.023  32.350  37.445  1.00  0.00     0.049 A 
ATOM     65  H   UNL A   1      41.415  31.337  35.695  1.00  0.00     0.167 HD
ATOM     66  C   UNL A   1      39.982  33.566  36.728  1.00  0.00     0.074 A 
ATOM     67  C   UNL A   1      38.980  34.603  36.871  1.00  0.00     0.031 C 
ATOM     68  C   UNL A   1      41.012  33.369  37.590  1.00  0.00     0.037 A 
BRANCH  55  69
ATOM     69  C   UNL A   1      44.698  28.623  36.111  1.00  0.00     0.058 A 
ATOM     70  C   UNL A   1      45.991  28.967  35.681  1.00  0.00     0.135 A 
ATOM     71  C   UNL A   1      44.566  27.504  36.949  1.00  0.00     0.135 A 
ATOM     72  F   UNL A   1      46.175  30.025  34.874  1.00  0.00    -0.206 F 
ATOM     73  C   UNL A   1      47.105  28.217  36.046  1.00  0.00     0.059 A 
ATOM     74  C   UNL A   1      45.670  26.753  37.347  1.00  0.00     0.059 A 
ATOM     75  F   UNL A   1      43.356  27.132  37.395  1.00  0.00    -0.206 F 
ATOM     76  C   UNL A   1      46.934  27.110  36.880  1.00  0.00     0.060 A 
BRANCH  76  77
ATOM     77  S   UNL A   1      48.390  26.146  37.340  1.00  0.00     0.124 S 
ATOM     78  O   UNL A   1      47.828  25.221  38.318  1.00  0.00    -0.237 OA
ATOM     79  O   UNL A   1      48.789  25.558  36.066  1.00  0.00    -0.237 OA
ATOM     80  O   UNL A   1      49.305  27.147  37.879  1.00  0.00    -0.744 OA
ENDBRANCH  76  77
ENDBRANCH  55  69
BRANCH  56  81
ATOM     81  C   UNL A   1      36.632  33.870  33.427  1.00  0.00     0.058 A 
ATOM     82  C   UNL A   1      36.699  34.720  32.314  1.00  0.00     0.135 A 
ATOM     83  C   UNL A   1      35.394  33.724  34.071  1.00  0.00     0.135 A 
ATOM     84  F   UNL A   1      37.864  34.888  31.669  1.00  0.00    -0.206 F 
ATOM     85  C   UNL A   1      35.578  35.395  31.849  1.00  0.00     0.059 A 
ATOM     86  C   UNL A   1      34.253  34.373  33.612  1.00  0.00     0.059 A 
ATOM     87  F   UNL A   1      35.276  32.906  35.128  1.00  0.00    -0.206 F 
ATOM     88  C   UNL A   1      34.356  35.207  32.498  1.00  0.00     0.060 A 
BRANCH  88  89
ATOM     89  S   UNL A   1      32.891  36.022  31.829  1.00  0.00     0.124 S 
ATOM     90  O   UNL A   1      31.824  35.152  32.308  1.00  0.00    -0.237 OA
ATOM     91  O   UNL A   1      32.967  37.341  32.449  1.00  0.00    -0.237 OA
ATOM     92  O   UNL A   1      33.123  36.001  30.387  1.00  0.00    -0.744 OA
ENDBRANCH  88  89
ENDBRANCH  56  81
BRANCH  68  93
ATOM     93  C   UNL A   1      41.109  34.296  38.772  1.00  0.00     0.058 A 
ATOM     94  C   UNL A   1      41.785  35.523  38.688  1.00  0.00     0.135 A 
ATOM     95  C   UNL A   1      40.473  33.979  39.983  1.00  0.00     0.135 A 
ATOM     96  F   UNL A   1      42.420  35.870  37.557  1.00  0.00    -0.206 F 
ATOM     97  C   UNL A   1      41.840  36.397  39.768  1.00  0.00     0.059 A 
ATOM     98  C   UNL A   1      40.493  34.851  41.068  1.00  0.00     0.059 A 
ATOM     99  F   UNL A   1      39.808  32.820  40.114  1.00  0.00    -0.206 F 
ATOM    100  C   UNL A   1      41.185  36.055  40.954  1.00  0.00     0.060 A 
BRANCH 100 101
ATOM    101  S   UNL A   1      41.229  37.221  42.332  1.00  0.00     0.124 S 
ATOM    102  O   UNL A   1      42.062  38.289  41.788  1.00  0.00    -0.237 OA
ATOM    103  O   UNL A   1      39.818  37.545  42.509  1.00  0.00    -0.237 OA
ATOM    104  O   UNL A   1      41.830  36.447  43.414  1.00  0.00    -0.744 OA
ENDBRANCH 100 101
ENDBRANCH  68  93
ENDBRANCH  42  43
ENDBRANCH  35  37
ENDBRANCH  34  35
ENDBRANCH  33  34
ENDBRANCH  32  33
ENDBRANCH  31  32
ENDBRANCH  30  31
ENDBRANCH   1  30
TORSDOF 25
ENDMDL
