MODEL 1
REMARK VINA RESULT:     -10.0      0.000      0.000
REMARK SMILES Cc1cc(Br)c(C)c([C@@H]2[NH2+][C@H](C(=O)OCCOCCOCCOCCOC(=O)c3ccc(-c4c5nc(c(-c6c(F)cc(S(=O)(=O)[O-])cc6F)c6ccc([nH]6)c(-c6c(F)cc(S(=O)(=O)[O-])cc6F)c6nc(c(-c7c(F)cc(S(=O)(=O)[O-])cc7F)c7ccc4[nH]7)C=C6)C=C5)cc3)CS2)c1O
REMARK SMILES IDX 21 1 20 2 19 3 18 4 17 5 16 6 15 7 14 8 12 9 13 10 11 11
REMARK SMILES IDX 9 12 10 13 96 14 95 17 8 18 1 19 2 20 3 21 97 22 4 23 5 24
REMARK SMILES IDX 6 25 7 26 98 27 22 29 23 30 24 31 25 32 26 33 27 34 28 35
REMARK SMILES IDX 29 36 30 37 94 38 31 39 93 40 32 41 33 42 34 43 87 44 35 45
REMARK SMILES IDX 92 46 86 47 88 48 36 49 91 50 85 51 84 52 37 54 71 55 50 56
REMARK SMILES IDX 70 57 51 58 54 59 69 60 89 61 52 62 53 63 68 65 90 66 55 67
REMARK SMILES IDX 38 68 39 69 48 70 40 71 41 72 47 73 49 74 42 75 43 76 44 77
REMARK SMILES IDX 45 78 46 79 72 80 73 81 82 82 74 83 75 84 81 85 83 86 76 87
REMARK SMILES IDX 77 88 78 89 79 90 80 91 56 92 57 93 66 94 58 95 59 96 65 97
REMARK SMILES IDX 67 98 60 99 61 100 62 101 63 102 64 103
REMARK H PARENT 10 15 10 16 98 28 88 53 54 64
REMARK Flexibility Score: inf
ROOT
ATOM      1  C   UNL A   1      34.211  31.767  27.539  1.00  0.00     0.188 C 
ENDROOT
BRANCH   1   2
ATOM      2  O   UNL A   1      33.859  30.439  27.180  1.00  0.00    -0.377 OA
BRANCH   2   3
ATOM      3  C   UNL A   1      32.472  30.177  27.074  1.00  0.00     0.188 C 
BRANCH   3   4
ATOM      4  C   UNL A   1      31.976  29.962  25.630  1.00  0.00     0.188 C 
BRANCH   4   5
ATOM      5  O   UNL A   1      32.888  29.595  24.596  1.00  0.00    -0.376 OA
BRANCH   5   6
ATOM      6  C   UNL A   1      32.600  28.453  23.793  1.00  0.00     0.202 C 
BRANCH   6   7
ATOM      7  C   UNL A   1      33.747  27.540  23.343  1.00  0.00     0.261 C 
BRANCH   7   8
ATOM      8  O   UNL A   1      33.665  26.210  23.874  1.00  0.00    -0.459 OA
BRANCH   8   9
ATOM      9  C   UNL A   1      33.196  25.241  23.051  1.00  0.00     0.365 C 
ATOM     10  O   UNL A   1      33.847  24.747  22.131  1.00  0.00    -0.245 OA
BRANCH   9  11
ATOM     11  C   UNL A   1      31.820  24.684  23.447  1.00  0.00     0.304 C 
ATOM     12  C   UNL A   1      31.818  22.626  24.709  1.00  0.00     0.278 C 
ATOM     13  N   UNL A   1      31.624  23.210  23.377  1.00  0.00    -0.319 N 
ATOM     14  S   UNL A   1      31.241  23.818  25.929  1.00  0.00    -0.087 SA
ATOM     15  H   UNL A   1      30.679  23.008  23.052  1.00  0.00     0.348 HD
ATOM     16  H   UNL A   1      32.301  22.808  22.728  1.00  0.00     0.348 HD
ATOM     17  C   UNL A   1      31.382  25.226  24.803  1.00  0.00     0.153 C 
BRANCH  12  18
ATOM     18  C   UNL A   1      33.179  21.973  24.903  1.00  0.00     0.066 A 
ATOM     19  C   UNL A   1      36.796  22.991  25.809  1.00  0.00     0.048 C 
ATOM     20  C   UNL A   1      35.588  22.180  25.431  1.00  0.00    -0.008 A 
ATOM     21  C   UNL A   1      35.753  20.824  25.165  1.00  0.00     0.023 A 
ATOM     22  C   UNL A   1      34.293  22.714  25.373  1.00  0.00     0.128 A 
ATOM     23  C   UNL A   1      34.673  20.038  24.767  1.00  0.00     0.021 A 
ATOM     24  Br  UNL A   1      35.011  18.175  24.564  1.00  0.00    -0.051 Br
ATOM     25  C   UNL A   1      33.393  20.599  24.563  1.00  0.00    -0.023 A 
ATOM     26  C   UNL A   1      32.308  19.686  24.037  1.00  0.00     0.046 C 
BRANCH  22  27
ATOM     27  O   UNL A   1      34.105  24.006  25.790  1.00  0.00    -0.507 OA
ATOM     28  H   UNL A   1      33.325  24.467  25.553  1.00  0.00     0.293 HD
ENDBRANCH  22  27
ENDBRANCH  12  18
ENDBRANCH   9  11
ENDBRANCH   8   9
ENDBRANCH   7   8
ENDBRANCH   6   7
ENDBRANCH   5   6
ENDBRANCH   4   5
ENDBRANCH   3   4
ENDBRANCH   2   3
ENDBRANCH   1   2
BRANCH   1  29
ATOM     29  C   UNL A   1      35.640  31.963  28.085  1.00  0.00     0.188 C 
BRANCH  29  30
ATOM     30  O   UNL A   1      35.697  32.769  29.261  1.00  0.00    -0.376 OA
BRANCH  30  31
ATOM     31  C   UNL A   1      34.810  32.442  30.324  1.00  0.00     0.202 C 
BRANCH  31  32
ATOM     32  C   UNL A   1      35.459  32.064  31.665  1.00  0.00     0.261 C 
BRANCH  32  33
ATOM     33  O   UNL A   1      36.829  31.632  31.614  1.00  0.00    -0.460 OA
BRANCH  33  34
ATOM     34  C   UNL A   1      37.083  30.323  31.396  1.00  0.00     0.338 C 
ATOM     35  O   UNL A   1      36.303  29.396  31.521  1.00  0.00    -0.246 OA
BRANCH  34  36
ATOM     36  C   UNL A   1      38.421  30.223  30.772  1.00  0.00     0.060 A 
ATOM     37  C   UNL A   1      39.576  30.228  31.556  1.00  0.00     0.016 A 
ATOM     38  C   UNL A   1      38.516  30.132  29.376  1.00  0.00     0.016 A 
ATOM     39  C   UNL A   1      40.822  30.091  30.942  1.00  0.00     0.010 A 
ATOM     40  C   UNL A   1      39.767  30.010  28.763  1.00  0.00     0.010 A 
ATOM     41  C   UNL A   1      40.930  29.958  29.544  1.00  0.00    -0.014 A 
BRANCH  41  42
ATOM     42  C   UNL A   1      42.225  29.541  28.949  1.00  0.00     0.031 A 
ATOM     43  C   UNL A   1      43.392  30.468  28.791  1.00  0.00     0.074 A 
ATOM     44  C   UNL A   1      42.335  28.260  28.546  1.00  0.00     0.049 A 
ATOM     45  N   UNL A   1      44.636  30.173  28.505  1.00  0.00    -0.248 NA
ATOM     46  C   UNL A   1      43.141  31.902  28.974  1.00  0.00     0.031 C 
ATOM     47  C   UNL A   1      41.252  27.275  28.593  1.00  0.00     0.029 A 
ATOM     48  N   UNL A   1      43.399  27.567  28.032  1.00  0.00    -0.354 N 
ATOM     49  C   UNL A   1      45.335  31.371  28.566  1.00  0.00     0.074 A 
ATOM     50  C   UNL A   1      44.362  32.409  28.832  1.00  0.00     0.031 C 
ATOM     51  C   UNL A   1      41.715  26.096  28.151  1.00  0.00     0.029 A 
ATOM     52  C   UNL A   1      43.117  26.247  27.774  1.00  0.00     0.049 A 
ATOM     53  H   UNL A   1      44.278  27.974  27.863  1.00  0.00     0.167 HD
ATOM     54  C   UNL A   1      46.668  31.578  28.434  1.00  0.00     0.037 A 
ATOM     55  C   UNL A   1      43.900  25.262  27.298  1.00  0.00     0.037 A 
ATOM     56  C   UNL A   1      47.610  30.558  28.042  1.00  0.00     0.049 A 
ATOM     57  C   UNL A   1      45.349  25.545  27.020  1.00  0.00     0.074 A 
ATOM     58  C   UNL A   1      48.979  30.671  27.864  1.00  0.00     0.029 A 
ATOM     59  N   UNL A   1      47.275  29.252  27.717  1.00  0.00    -0.354 N 
ATOM     60  N   UNL A   1      46.022  26.652  27.216  1.00  0.00    -0.248 NA
ATOM     61  C   UNL A   1      46.146  24.443  26.465  1.00  0.00     0.031 C 
ATOM     62  C   UNL A   1      49.456  29.457  27.358  1.00  0.00     0.029 A 
ATOM     63  C   UNL A   1      48.398  28.565  27.286  1.00  0.00     0.049 A 
ATOM     64  H   UNL A   1      46.370  28.868  27.784  1.00  0.00     0.167 HD
ATOM     65  C   UNL A   1      47.329  26.374  26.833  1.00  0.00     0.074 A 
ATOM     66  C   UNL A   1      47.352  24.991  26.401  1.00  0.00     0.031 C 
ATOM     67  C   UNL A   1      48.412  27.191  26.846  1.00  0.00     0.037 A 
BRANCH  54  68
ATOM     68  C   UNL A   1      47.199  32.958  28.714  1.00  0.00     0.058 A 
ATOM     69  C   UNL A   1      47.268  33.924  27.697  1.00  0.00     0.135 A 
ATOM     70  C   UNL A   1      47.558  33.351  30.013  1.00  0.00     0.135 A 
ATOM     71  F   UNL A   1      46.943  33.601  26.434  1.00  0.00    -0.206 F 
ATOM     72  C   UNL A   1      47.685  35.226  27.955  1.00  0.00     0.059 A 
ATOM     73  C   UNL A   1      47.961  34.653  30.297  1.00  0.00     0.059 A 
ATOM     74  F   UNL A   1      47.510  32.468  31.023  1.00  0.00    -0.206 F 
ATOM     75  C   UNL A   1      48.030  35.582  29.260  1.00  0.00     0.060 A 
BRANCH  75  76
ATOM     76  S   UNL A   1      48.577  37.274  29.572  1.00  0.00     0.124 S 
ATOM     77  O   UNL A   1      49.699  37.052  30.480  1.00  0.00    -0.237 OA
ATOM     78  O   UNL A   1      48.927  37.740  28.235  1.00  0.00    -0.237 OA
ATOM     79  O   UNL A   1      47.406  37.907  30.170  1.00  0.00    -0.744 OA
ENDBRANCH  75  76
ENDBRANCH  54  68
BRANCH  55  80
ATOM     80  C   UNL A   1      43.322  23.910  27.097  1.00  0.00     0.058 A 
ATOM     81  C   UNL A   1      42.843  23.510  25.842  1.00  0.00     0.135 A 
ATOM     82  C   UNL A   1      43.288  22.973  28.142  1.00  0.00     0.135 A 
ATOM     83  F   UNL A   1      42.853  24.373  24.814  1.00  0.00    -0.206 F 
ATOM     84  C   UNL A   1      42.348  22.229  25.628  1.00  0.00     0.059 A 
ATOM     85  C   UNL A   1      42.822  21.677  27.946  1.00  0.00     0.059 A 
ATOM     86  F   UNL A   1      43.754  23.302  29.356  1.00  0.00    -0.206 F 
ATOM     87  C   UNL A   1      42.348  21.317  26.685  1.00  0.00     0.060 A 
BRANCH  87  88
ATOM     88  S   UNL A   1      41.761  19.639  26.377  1.00  0.00     0.124 S 
ATOM     89  O   UNL A   1      40.332  19.859  26.186  1.00  0.00    -0.237 OA
ATOM     90  O   UNL A   1      42.515  19.266  25.185  1.00  0.00    -0.237 OA
ATOM     91  O   UNL A   1      42.131  18.923  27.594  1.00  0.00    -0.744 OA
ENDBRANCH  87  88
ENDBRANCH  55  80
BRANCH  67  92
ATOM     92  C   UNL A   1      49.724  26.619  26.384  1.00  0.00     0.058 A 
ATOM     93  C   UNL A   1      50.187  26.805  25.072  1.00  0.00     0.135 A 
ATOM     94  C   UNL A   1      50.562  25.940  27.285  1.00  0.00     0.135 A 
ATOM     95  F   UNL A   1      49.422  27.438  24.169  1.00  0.00    -0.206 F 
ATOM     96  C   UNL A   1      51.432  26.334  24.667  1.00  0.00     0.059 A 
ATOM     97  C   UNL A   1      51.822  25.485  26.908  1.00  0.00     0.059 A 
ATOM     98  F   UNL A   1      50.171  25.740  28.553  1.00  0.00    -0.206 F 
ATOM     99  C   UNL A   1      52.245  25.681  25.595  1.00  0.00     0.060 A 
BRANCH  99 100
ATOM    100  S   UNL A   1      53.881  25.126  25.067  1.00  0.00     0.124 S 
ATOM    101  O   UNL A   1      53.651  23.702  24.845  1.00  0.00    -0.237 OA
ATOM    102  O   UNL A   1      54.107  25.926  23.868  1.00  0.00    -0.237 OA
ATOM    103  O   UNL A   1      54.737  25.454  26.203  1.00  0.00    -0.744 OA
ENDBRANCH  99 100
ENDBRANCH  67  92
ENDBRANCH  41  42
ENDBRANCH  34  36
ENDBRANCH  33  34
ENDBRANCH  32  33
ENDBRANCH  31  32
ENDBRANCH  30  31
ENDBRANCH  29  30
ENDBRANCH   1  29
TORSDOF 25
ENDMDL
MODEL 2
REMARK VINA RESULT:      -8.8      1.594      2.158
REMARK SMILES Cc1cc(Br)c(C)c([C@@H]2[NH2+][C@H](C(=O)OCCOCCOCCOCCOC(=O)c3ccc(-c4c5nc(c(-c6c(F)cc(S(=O)(=O)[O-])cc6F)c6ccc([nH]6)c(-c6c(F)cc(S(=O)(=O)[O-])cc6F)c6nc(c(-c7c(F)cc(S(=O)(=O)[O-])cc7F)c7ccc4[nH]7)C=C6)C=C5)cc3)CS2)c1O
REMARK SMILES IDX 21 1 20 2 19 3 18 4 17 5 16 6 15 7 14 8 12 9 13 10 11 11
REMARK SMILES IDX 9 12 10 13 96 14 95 17 8 18 1 19 2 20 3 21 97 22 4 23 5 24
REMARK SMILES IDX 6 25 7 26 98 27 22 29 23 30 24 31 25 32 26 33 27 34 28 35
REMARK SMILES IDX 29 36 30 37 94 38 31 39 93 40 32 41 33 42 34 43 87 44 35 45
REMARK SMILES IDX 92 46 86 47 88 48 36 49 91 50 85 51 84 52 37 54 71 55 50 56
REMARK SMILES IDX 70 57 51 58 54 59 69 60 89 61 52 62 53 63 68 65 90 66 55 67
REMARK SMILES IDX 38 68 39 69 48 70 40 71 41 72 47 73 49 74 42 75 43 76 44 77
REMARK SMILES IDX 45 78 46 79 72 80 73 81 82 82 74 83 75 84 81 85 83 86 76 87
REMARK SMILES IDX 77 88 78 89 79 90 80 91 56 92 57 93 66 94 58 95 59 96 65 97
REMARK SMILES IDX 67 98 60 99 61 100 62 101 63 102 64 103
REMARK H PARENT 10 15 10 16 98 28 88 53 54 64
REMARK Flexibility Score: inf
ROOT
ATOM      1  C   UNL A   1      36.150  30.911  28.008  1.00  0.00     0.188 C 
ENDROOT
BRANCH   1   2
ATOM      2  O   UNL A   1      34.982  31.324  28.704  1.00  0.00    -0.377 OA
BRANCH   2   3
ATOM      3  C   UNL A   1      33.958  31.889  27.908  1.00  0.00     0.188 C 
BRANCH   3   4
ATOM      4  C   UNL A   1      33.199  30.870  27.033  1.00  0.00     0.188 C 
BRANCH   4   5
ATOM      5  O   UNL A   1      32.945  29.551  27.512  1.00  0.00    -0.376 OA
BRANCH   5   6
ATOM      6  C   UNL A   1      33.455  28.440  26.779  1.00  0.00     0.202 C 
BRANCH   6   7
ATOM      7  C   UNL A   1      33.788  28.608  25.291  1.00  0.00     0.261 C 
BRANCH   7   8
ATOM      8  O   UNL A   1      33.431  27.473  24.490  1.00  0.00    -0.459 OA
BRANCH   8   9
ATOM      9  C   UNL A   1      33.161  27.697  23.182  1.00  0.00     0.365 C 
ATOM     10  O   UNL A   1      33.934  28.261  22.408  1.00  0.00    -0.245 OA
BRANCH   9  11
ATOM     11  C   UNL A   1      31.857  27.054  22.684  1.00  0.00     0.304 C 
ATOM     12  C   UNL A   1      31.504  24.742  23.282  1.00  0.00     0.278 C 
ATOM     13  N   UNL A   1      31.918  25.647  22.204  1.00  0.00    -0.319 N 
ATOM     14  S   UNL A   1      30.247  25.581  24.260  1.00  0.00    -0.087 SA
ATOM     15  H   UNL A   1      31.294  25.532  21.406  1.00  0.00     0.348 HD
ATOM     16  H   UNL A   1      32.875  25.425  21.924  1.00  0.00     0.348 HD
ATOM     17  C   UNL A   1      30.738  27.231  23.706  1.00  0.00     0.153 C 
BRANCH  12  18
ATOM     18  C   UNL A   1      32.664  24.064  23.998  1.00  0.00     0.066 A 
ATOM     19  C   UNL A   1      36.314  23.014  23.284  1.00  0.00     0.048 C 
ATOM     20  C   UNL A   1      34.994  23.229  23.968  1.00  0.00    -0.008 A 
ATOM     21  C   UNL A   1      34.813  22.711  25.247  1.00  0.00     0.023 A 
ATOM     22  C   UNL A   1      33.945  23.965  23.398  1.00  0.00     0.128 A 
ATOM     23  C   UNL A   1      33.594  22.845  25.907  1.00  0.00     0.021 A 
ATOM     24  Br  UNL A   1      33.525  22.206  27.699  1.00  0.00    -0.051 Br
ATOM     25  C   UNL A   1      32.484  23.455  25.281  1.00  0.00    -0.023 A 
ATOM     26  C   UNL A   1      31.175  23.466  26.038  1.00  0.00     0.046 C 
BRANCH  22  27
ATOM     27  O   UNL A   1      34.177  24.611  22.212  1.00  0.00    -0.507 OA
ATOM     28  H   UNL A   1      35.024  24.968  22.030  1.00  0.00     0.293 HD
ENDBRANCH  22  27
ENDBRANCH  12  18
ENDBRANCH   9  11
ENDBRANCH   8   9
ENDBRANCH   7   8
ENDBRANCH   6   7
ENDBRANCH   5   6
ENDBRANCH   4   5
ENDBRANCH   3   4
ENDBRANCH   2   3
ENDBRANCH   1   2
BRANCH   1  29
ATOM     29  C   UNL A   1      36.732  29.543  28.418  1.00  0.00     0.188 C 
BRANCH  29  30
ATOM     30  O   UNL A   1      37.610  29.608  29.540  1.00  0.00    -0.376 OA
BRANCH  30  31
ATOM     31  C   UNL A   1      37.115  29.138  30.789  1.00  0.00     0.202 C 
BRANCH  31  32
ATOM     32  C   UNL A   1      36.506  30.195  31.725  1.00  0.00     0.261 C 
BRANCH  32  33
ATOM     33  O   UNL A   1      36.987  31.541  31.570  1.00  0.00    -0.460 OA
BRANCH  33  34
ATOM     34  C   UNL A   1      37.920  31.994  32.435  1.00  0.00     0.338 C 
ATOM     35  O   UNL A   1      37.731  32.401  33.568  1.00  0.00    -0.246 OA
BRANCH  34  36
ATOM     36  C   UNL A   1      39.249  31.718  31.848  1.00  0.00     0.060 A 
ATOM     37  C   UNL A   1      40.211  31.004  32.565  1.00  0.00     0.016 A 
ATOM     38  C   UNL A   1      39.537  32.192  30.560  1.00  0.00     0.016 A 
ATOM     39  C   UNL A   1      41.442  30.723  31.969  1.00  0.00     0.010 A 
ATOM     40  C   UNL A   1      40.777  31.922  29.973  1.00  0.00     0.010 A 
ATOM     41  C   UNL A   1      41.729  31.159  30.661  1.00  0.00    -0.014 A 
BRANCH  41  42
ATOM     42  C   UNL A   1      42.920  30.616  29.957  1.00  0.00     0.031 A 
ATOM     43  C   UNL A   1      44.200  31.381  29.804  1.00  0.00     0.074 A 
ATOM     44  C   UNL A   1      42.823  29.374  29.447  1.00  0.00     0.049 A 
ATOM     45  N   UNL A   1      45.373  30.940  29.420  1.00  0.00    -0.248 NA
ATOM     46  C   UNL A   1      44.170  32.814  30.116  1.00  0.00     0.031 C 
ATOM     47  C   UNL A   1      41.612  28.551  29.480  1.00  0.00     0.029 A 
ATOM     48  N   UNL A   1      43.748  28.586  28.816  1.00  0.00    -0.354 N 
ATOM     49  C   UNL A   1      46.241  32.018  29.535  1.00  0.00     0.074 A 
ATOM     50  C   UNL A   1      45.443  33.154  29.941  1.00  0.00     0.031 C 
ATOM     51  C   UNL A   1      41.876  27.362  28.918  1.00  0.00     0.029 A 
ATOM     52  C   UNL A   1      43.265  27.347  28.470  1.00  0.00     0.049 A 
ATOM     53  H   UNL A   1      44.668  28.878  28.627  1.00  0.00     0.167 HD
ATOM     54  C   UNL A   1      47.582  32.045  29.339  1.00  0.00     0.037 A 
ATOM     55  C   UNL A   1      43.873  26.306  27.871  1.00  0.00     0.037 A 
ATOM     56  C   UNL A   1      48.345  30.942  28.811  1.00  0.00     0.049 A 
ATOM     57  C   UNL A   1      45.332  26.406  27.529  1.00  0.00     0.074 A 
ATOM     58  C   UNL A   1      49.706  30.876  28.559  1.00  0.00     0.029 A 
ATOM     59  N   UNL A   1      47.808  29.729  28.403  1.00  0.00    -0.354 N 
ATOM     60  N   UNL A   1      46.168  27.386  27.772  1.00  0.00    -0.248 NA
ATOM     61  C   UNL A   1      45.933  25.256  26.840  1.00  0.00     0.031 C 
ATOM     62  C   UNL A   1      49.976  29.656  27.930  1.00  0.00     0.029 A 
ATOM     63  C   UNL A   1      48.798  28.932  27.851  1.00  0.00     0.049 A 
ATOM     64  H   UNL A   1      46.862  29.472  28.493  1.00  0.00     0.167 HD
ATOM     65  C   UNL A   1      47.401  26.961  27.289  1.00  0.00     0.074 A 
ATOM     66  C   UNL A   1      47.201  25.633  26.747  1.00  0.00     0.031 C 
ATOM     67  C   UNL A   1      48.590  27.613  27.302  1.00  0.00     0.037 A 
BRANCH  54  68
ATOM     68  C   UNL A   1      48.320  33.307  29.697  1.00  0.00     0.058 A 
ATOM     69  C   UNL A   1      48.504  34.327  28.749  1.00  0.00     0.135 A 
ATOM     70  C   UNL A   1      48.771  33.542  31.005  1.00  0.00     0.135 A 
ATOM     71  F   UNL A   1      48.099  34.154  27.481  1.00  0.00    -0.206 F 
ATOM     72  C   UNL A   1      49.119  35.530  29.083  1.00  0.00     0.059 A 
ATOM     73  C   UNL A   1      49.372  34.745  31.366  1.00  0.00     0.059 A 
ATOM     74  F   UNL A   1      48.620  32.601  31.951  1.00  0.00    -0.206 F 
ATOM     75  C   UNL A   1      49.549  35.730  30.396  1.00  0.00     0.060 A 
BRANCH  75  76
ATOM     76  S   UNL A   1      50.352  37.295  30.807  1.00  0.00     0.124 S 
ATOM     77  O   UNL A   1      50.357  37.966  29.510  1.00  0.00    -0.237 OA
ATOM     78  O   UNL A   1      49.449  37.854  31.807  1.00  0.00    -0.237 OA
ATOM     79  O   UNL A   1      51.661  36.887  31.304  1.00  0.00    -0.744 OA
ENDBRANCH  75  76
ENDBRANCH  54  68
BRANCH  55  80
ATOM     80  C   UNL A   1      43.095  25.072  27.597  1.00  0.00     0.058 A 
ATOM     81  C   UNL A   1      42.523  24.845  26.338  1.00  0.00     0.135 A 
ATOM     82  C   UNL A   1      42.956  24.072  28.572  1.00  0.00     0.135 A 
ATOM     83  F   UNL A   1      42.628  25.775  25.375  1.00  0.00    -0.206 F 
ATOM     84  C   UNL A   1      41.838  23.670  26.053  1.00  0.00     0.059 A 
ATOM     85  C   UNL A   1      42.297  22.877  28.303  1.00  0.00     0.059 A 
ATOM     86  F   UNL A   1      43.503  24.235  29.786  1.00  0.00    -0.206 F 
ATOM     87  C   UNL A   1      41.736  22.688  27.041  1.00  0.00     0.060 A 
BRANCH  87  88
ATOM     88  S   UNL A   1      40.898  21.142  26.638  1.00  0.00     0.124 S 
ATOM     89  O   UNL A   1      41.858  20.514  25.737  1.00  0.00    -0.237 OA
ATOM     90  O   UNL A   1      40.754  20.523  27.951  1.00  0.00    -0.237 OA
ATOM     91  O   UNL A   1      39.651  21.584  26.021  1.00  0.00    -0.744 OA
ENDBRANCH  87  88
ENDBRANCH  55  80
BRANCH  67  92
ATOM     92  C   UNL A   1      49.781  26.905  26.717  1.00  0.00     0.058 A 
ATOM     93  C   UNL A   1      50.177  27.108  25.386  1.00  0.00     0.135 A 
ATOM     94  C   UNL A   1      50.579  26.072  27.519  1.00  0.00     0.135 A 
ATOM     95  F   UNL A   1      49.445  27.886  24.574  1.00  0.00    -0.206 F 
ATOM     96  C   UNL A   1      51.318  26.504  24.868  1.00  0.00     0.059 A 
ATOM     97  C   UNL A   1      51.739  25.480  27.029  1.00  0.00     0.059 A 
ATOM     98  F   UNL A   1      50.249  25.848  28.801  1.00  0.00    -0.206 F 
ATOM     99  C   UNL A   1      52.098  25.699  25.699  1.00  0.00     0.060 A 
BRANCH  99 100
ATOM    100  S   UNL A   1      53.606  24.969  25.026  1.00  0.00     0.124 S 
ATOM    101  O   UNL A   1      53.639  25.544  23.685  1.00  0.00    -0.237 OA
ATOM    102  O   UNL A   1      54.625  25.458  25.950  1.00  0.00    -0.237 OA
ATOM    103  O   UNL A   1      53.350  23.534  25.088  1.00  0.00    -0.744 OA
ENDBRANCH  99 100
ENDBRANCH  67  92
ENDBRANCH  41  42
ENDBRANCH  34  36
ENDBRANCH  33  34
ENDBRANCH  32  33
ENDBRANCH  31  32
ENDBRANCH  30  31
ENDBRANCH  29  30
ENDBRANCH   1  29
TORSDOF 25
ENDMDL
MODEL 3
REMARK VINA RESULT:      -8.4      5.624     10.703
REMARK SMILES Cc1cc(Br)c(C)c([C@@H]2[NH2+][C@H](C(=O)OCCOCCOCCOCCOC(=O)c3ccc(-c4c5nc(c(-c6c(F)cc(S(=O)(=O)[O-])cc6F)c6ccc([nH]6)c(-c6c(F)cc(S(=O)(=O)[O-])cc6F)c6nc(c(-c7c(F)cc(S(=O)(=O)[O-])cc7F)c7ccc4[nH]7)C=C6)C=C5)cc3)CS2)c1O
REMARK SMILES IDX 21 1 20 2 19 3 18 4 17 5 16 6 15 7 14 8 12 9 13 10 11 11
REMARK SMILES IDX 9 12 10 13 96 14 95 17 8 18 1 19 2 20 3 21 97 22 4 23 5 24
REMARK SMILES IDX 6 25 7 26 98 27 22 29 23 30 24 31 25 32 26 33 27 34 28 35
REMARK SMILES IDX 29 36 30 37 94 38 31 39 93 40 32 41 33 42 34 43 87 44 35 45
REMARK SMILES IDX 92 46 86 47 88 48 36 49 91 50 85 51 84 52 37 54 71 55 50 56
REMARK SMILES IDX 70 57 51 58 54 59 69 60 89 61 52 62 53 63 68 65 90 66 55 67
REMARK SMILES IDX 38 68 39 69 48 70 40 71 41 72 47 73 49 74 42 75 43 76 44 77
REMARK SMILES IDX 45 78 46 79 72 80 73 81 82 82 74 83 75 84 81 85 83 86 76 87
REMARK SMILES IDX 77 88 78 89 79 90 80 91 56 92 57 93 66 94 58 95 59 96 65 97
REMARK SMILES IDX 67 98 60 99 61 100 62 101 63 102 64 103
REMARK H PARENT 10 15 10 16 98 28 88 53 54 64
REMARK Flexibility Score: inf
ROOT
ATOM      1  C   UNL A   1      40.928  25.008  26.897  1.00  0.00     0.188 C 
ENDROOT
BRANCH   1   2
ATOM      2  O   UNL A   1      39.521  25.046  26.712  1.00  0.00    -0.377 OA
BRANCH   2   3
ATOM      3  C   UNL A   1      38.866  23.792  26.709  1.00  0.00     0.188 C 
BRANCH   3   4
ATOM      4  C   UNL A   1      37.469  23.806  26.056  1.00  0.00     0.188 C 
BRANCH   4   5
ATOM      5  O   UNL A   1      37.292  23.350  24.715  1.00  0.00    -0.376 OA
BRANCH   5   6
ATOM      6  C   UNL A   1      35.980  23.343  24.156  1.00  0.00     0.202 C 
BRANCH   6   7
ATOM      7  C   UNL A   1      35.019  24.495  24.476  1.00  0.00     0.261 C 
BRANCH   7   8
ATOM      8  O   UNL A   1      34.291  24.970  23.335  1.00  0.00    -0.459 OA
BRANCH   8   9
ATOM      9  C   UNL A   1      33.573  26.108  23.486  1.00  0.00     0.365 C 
ATOM     10  O   UNL A   1      34.023  27.144  23.974  1.00  0.00    -0.245 OA
BRANCH   9  11
ATOM     11  C   UNL A   1      32.171  26.062  22.858  1.00  0.00     0.304 C 
ATOM     12  C   UNL A   1      30.861  24.082  23.297  1.00  0.00     0.278 C 
ATOM     13  N   UNL A   1      31.702  24.762  22.306  1.00  0.00    -0.319 N 
ATOM     14  S   UNL A   1      29.968  25.340  24.225  1.00  0.00    -0.087 SA
ATOM     15  H   UNL A   1      31.160  24.929  21.458  1.00  0.00     0.348 HD
ATOM     16  H   UNL A   1      32.508  24.176  22.085  1.00  0.00     0.348 HD
ATOM     17  C   UNL A   1      31.132  26.658  23.802  1.00  0.00     0.153 C 
BRANCH  12  18
ATOM     18  C   UNL A   1      31.579  22.976  24.058  1.00  0.00     0.066 A 
ATOM     19  C   UNL A   1      32.629  19.292  23.541  1.00  0.00     0.048 C 
ATOM     20  C   UNL A   1      32.417  20.649  24.152  1.00  0.00    -0.008 A 
ATOM     21  C   UNL A   1      32.807  20.854  25.472  1.00  0.00     0.023 A 
ATOM     22  C   UNL A   1      31.883  21.735  23.443  1.00  0.00     0.128 A 
ATOM     23  C   UNL A   1      32.593  22.080  26.098  1.00  0.00     0.021 A 
ATOM     24  Br  UNL A   1      33.292  22.266  27.859  1.00  0.00    -0.051 Br
ATOM     25  C   UNL A   1      31.922  23.133  25.439  1.00  0.00    -0.023 A 
ATOM     26  C   UNL A   1      31.648  24.391  26.233  1.00  0.00     0.046 C 
BRANCH  22  27
ATOM     27  O   UNL A   1      31.650  21.581  22.101  1.00  0.00    -0.507 OA
ATOM     28  H   UNL A   1      31.901  22.255  21.501  1.00  0.00     0.293 HD
ENDBRANCH  22  27
ENDBRANCH  12  18
ENDBRANCH   9  11
ENDBRANCH   8   9
ENDBRANCH   7   8
ENDBRANCH   6   7
ENDBRANCH   5   6
ENDBRANCH   4   5
ENDBRANCH   3   4
ENDBRANCH   2   3
ENDBRANCH   1   2
BRANCH   1  29
ATOM     29  C   UNL A   1      41.695  23.982  26.039  1.00  0.00     0.188 C 
BRANCH  29  30
ATOM     30  O   UNL A   1      42.736  24.558  25.252  1.00  0.00    -0.376 OA
BRANCH  30  31
ATOM     31  C   UNL A   1      43.750  23.686  24.766  1.00  0.00     0.202 C 
BRANCH  31  32
ATOM     32  C   UNL A   1      43.871  22.321  25.462  1.00  0.00     0.261 C 
BRANCH  32  33
ATOM     33  O   UNL A   1      44.365  22.332  26.811  1.00  0.00    -0.460 OA
BRANCH  33  34
ATOM     34  C   UNL A   1      45.340  23.211  27.133  1.00  0.00     0.338 C 
ATOM     35  O   UNL A   1      46.453  23.279  26.644  1.00  0.00    -0.246 OA
BRANCH  34  36
ATOM     36  C   UNL A   1      44.752  24.222  28.039  1.00  0.00     0.060 A 
ATOM     37  C   UNL A   1      43.874  23.843  29.056  1.00  0.00     0.016 A 
ATOM     38  C   UNL A   1      45.081  25.572  27.859  1.00  0.00     0.016 A 
ATOM     39  C   UNL A   1      43.368  24.814  29.922  1.00  0.00     0.010 A 
ATOM     40  C   UNL A   1      44.560  26.544  28.718  1.00  0.00     0.010 A 
ATOM     41  C   UNL A   1      43.722  26.169  29.777  1.00  0.00    -0.014 A 
BRANCH  41  42
ATOM     42  C   UNL A   1      43.396  27.129  30.863  1.00  0.00     0.031 A 
ATOM     43  C   UNL A   1      44.220  27.269  32.107  1.00  0.00     0.074 A 
ATOM     44  C   UNL A   1      42.308  27.905  30.695  1.00  0.00     0.049 A 
ATOM     45  N   UNL A   1      44.177  28.216  33.012  1.00  0.00    -0.248 NA
ATOM     46  C   UNL A   1      45.215  26.224  32.377  1.00  0.00     0.031 C 
ATOM     47  C   UNL A   1      41.392  27.823  29.556  1.00  0.00     0.029 A 
ATOM     48  N   UNL A   1      41.794  28.912  31.468  1.00  0.00    -0.354 N 
ATOM     49  C   UNL A   1      45.200  27.933  33.908  1.00  0.00     0.074 A 
ATOM     50  C   UNL A   1      45.790  26.680  33.485  1.00  0.00     0.031 C 
ATOM     51  C   UNL A   1      40.442  28.760  29.690  1.00  0.00     0.029 A 
ATOM     52  C   UNL A   1      40.671  29.494  30.931  1.00  0.00     0.049 A 
ATOM     53  H   UNL A   1      42.189  29.191  32.325  1.00  0.00     0.167 HD
ATOM     54  C   UNL A   1      45.618  28.664  34.969  1.00  0.00     0.037 A 
ATOM     55  C   UNL A   1      39.915  30.513  31.377  1.00  0.00     0.037 A 
ATOM     56  C   UNL A   1      44.943  29.842  35.456  1.00  0.00     0.049 A 
ATOM     57  C   UNL A   1      40.313  31.225  32.638  1.00  0.00     0.074 A 
ATOM     58  C   UNL A   1      45.277  30.643  36.535  1.00  0.00     0.029 A 
ATOM     59  N   UNL A   1      43.767  30.357  34.931  1.00  0.00    -0.354 N 
ATOM     60  N   UNL A   1      41.364  31.029  33.397  1.00  0.00    -0.248 NA
ATOM     61  C   UNL A   1      39.428  32.304  33.099  1.00  0.00     0.031 C 
ATOM     62  C   UNL A   1      44.264  31.593  36.706  1.00  0.00     0.029 A 
ATOM     63  C   UNL A   1      43.332  31.427  35.694  1.00  0.00     0.049 A 
ATOM     64  H   UNL A   1      43.308  30.011  34.131  1.00  0.00     0.167 HD
ATOM     65  C   UNL A   1      41.281  31.975  34.412  1.00  0.00     0.074 A 
ATOM     66  C   UNL A   1      40.081  32.749  34.165  1.00  0.00     0.031 C 
ATOM     67  C   UNL A   1      42.129  32.187  35.449  1.00  0.00     0.037 A 
BRANCH  54  68
ATOM     68  C   UNL A   1      46.866  28.220  35.684  1.00  0.00     0.058 A 
ATOM     69  C   UNL A   1      48.125  28.721  35.315  1.00  0.00     0.135 A 
ATOM     70  C   UNL A   1      46.804  27.360  36.792  1.00  0.00     0.135 A 
ATOM     71  F   UNL A   1      48.244  29.542  34.259  1.00  0.00    -0.206 F 
ATOM     72  C   UNL A   1      49.279  28.378  36.013  1.00  0.00     0.059 A 
ATOM     73  C   UNL A   1      47.943  27.018  37.516  1.00  0.00     0.059 A 
ATOM     74  F   UNL A   1      45.626  26.853  37.188  1.00  0.00    -0.206 F 
ATOM     75  C   UNL A   1      49.178  27.525  37.114  1.00  0.00     0.060 A 
BRANCH  75  76
ATOM     76  S   UNL A   1      50.688  27.085  38.000  1.00  0.00     0.124 S 
ATOM     77  O   UNL A   1      50.831  28.220  38.908  1.00  0.00    -0.237 OA
ATOM     78  O   UNL A   1      50.325  25.817  38.623  1.00  0.00    -0.237 OA
ATOM     79  O   UNL A   1      51.692  27.000  36.945  1.00  0.00    -0.744 OA
ENDBRANCH  75  76
ENDBRANCH  54  68
BRANCH  55  80
ATOM     80  C   UNL A   1      38.727  30.932  30.592  1.00  0.00     0.058 A 
ATOM     81  C   UNL A   1      37.503  30.262  30.722  1.00  0.00     0.135 A 
ATOM     82  C   UNL A   1      38.779  32.046  29.738  1.00  0.00     0.135 A 
ATOM     83  F   UNL A   1      37.407  29.191  31.525  1.00  0.00    -0.206 F 
ATOM     84  C   UNL A   1      36.371  30.678  30.033  1.00  0.00     0.059 A 
ATOM     85  C   UNL A   1      37.653  32.496  29.057  1.00  0.00     0.059 A 
ATOM     86  F   UNL A   1      39.923  32.732  29.595  1.00  0.00    -0.206 F 
ATOM     87  C   UNL A   1      36.454  31.801  29.207  1.00  0.00     0.060 A 
BRANCH  87  88
ATOM     88  S   UNL A   1      34.961  32.367  28.366  1.00  0.00     0.124 S 
ATOM     89  O   UNL A   1      34.052  32.570  29.488  1.00  0.00    -0.237 OA
ATOM     90  O   UNL A   1      35.429  33.576  27.696  1.00  0.00    -0.237 OA
ATOM     91  O   UNL A   1      34.631  31.256  27.480  1.00  0.00    -0.744 OA
ENDBRANCH  87  88
ENDBRANCH  55  80
BRANCH  67  92
ATOM     92  C   UNL A   1      41.801  33.302  36.403  1.00  0.00     0.058 A 
ATOM     93  C   UNL A   1      42.490  34.525  36.371  1.00  0.00     0.135 A 
ATOM     94  C   UNL A   1      40.735  33.174  37.310  1.00  0.00     0.135 A 
ATOM     95  F   UNL A   1      43.523  34.696  35.530  1.00  0.00    -0.206 F 
ATOM     96  C   UNL A   1      42.140  35.579  37.208  1.00  0.00     0.059 A 
ATOM     97  C   UNL A   1      40.350  34.225  38.137  1.00  0.00     0.059 A 
ATOM     98  F   UNL A   1      40.039  32.029  37.378  1.00  0.00    -0.206 F 
ATOM     99  C   UNL A   1      41.063  35.422  38.082  1.00  0.00     0.060 A 
BRANCH  99 100
ATOM    100  S   UNL A   1      40.585  36.820  39.122  1.00  0.00     0.124 S 
ATOM    101  O   UNL A   1      39.239  37.103  38.634  1.00  0.00    -0.237 OA
ATOM    102  O   UNL A   1      40.666  36.249  40.462  1.00  0.00    -0.237 OA
ATOM    103  O   UNL A   1      41.590  37.833  38.816  1.00  0.00    -0.744 OA
ENDBRANCH  99 100
ENDBRANCH  67  92
ENDBRANCH  41  42
ENDBRANCH  34  36
ENDBRANCH  33  34
ENDBRANCH  32  33
ENDBRANCH  31  32
ENDBRANCH  30  31
ENDBRANCH  29  30
ENDBRANCH   1  29
TORSDOF 25
ENDMDL
