MODEL 1
REMARK VINA RESULT:     -11.1      0.000      0.000
REMARK SMILES Cc1nn(CC(=O)OCCOCCOCCOCCOC(=O)c2ccc(-c3c4nc(c(-c5c(F)cc(S(=O)(=O)[O-])cc5F)c5ccc([nH]5)c(-c5c(F)cc(S(=O)(=O)[O-])cc5F)c5nc(c(-c6c(F)cc(S(=O)(=O)[O-])cc6F)c6ccc3[nH]6)C=C5)C=C4)cc2)c(C)c1NC(=O)C(=O)Nc1ccc(F)cc1
REMARK SMILES IDX 13 1 12 2 11 3 10 4 9 5 8 6 6 7 7 8 5 9 4 10 1 11 2 12 3 13
REMARK SMILES IDX 91 14 89 15 90 16 92 17 93 18 94 20 95 21 96 22 97 23 98 25
REMARK SMILES IDX 99 26 104 27 100 28 103 29 101 30 102 31 14 32 15 33 16 34
REMARK SMILES IDX 17 35 18 36 19 37 20 38 21 39 22 40 23 41 24 42 88 43 25 44
REMARK SMILES IDX 87 45 26 46 27 47 28 48 81 49 29 50 86 51 80 52 82 53 30 54
REMARK SMILES IDX 85 55 79 56 78 57 31 59 65 60 44 61 64 62 45 63 48 64 63 65
REMARK SMILES IDX 83 66 46 67 47 68 62 70 84 71 49 72 32 73 33 74 42 75 34 76
REMARK SMILES IDX 35 77 41 78 43 79 36 80 37 81 38 82 39 83 40 84 66 85 67 86
REMARK SMILES IDX 76 87 68 88 69 89 75 90 77 91 70 92 71 93 72 94 73 95 74 96
REMARK SMILES IDX 50 97 51 98 60 99 52 100 53 101 59 102 61 103 54 104 55 105
REMARK SMILES IDX 56 106 57 107 58 108
REMARK H PARENT 92 19 97 24 82 58 48 69
REMARK Flexibility Score: inf
ROOT
ATOM      1  C   UNL A   1      34.467  20.124  24.944  1.00  0.00     0.188 C 
ENDROOT
BRANCH   1   2
ATOM      2  C   UNL A   1      33.027  20.543  24.593  1.00  0.00     0.188 C 
BRANCH   2   3
ATOM      3  O   UNL A   1      32.728  21.154  23.340  1.00  0.00    -0.376 OA
BRANCH   3   4
ATOM      4  C   UNL A   1      32.556  22.562  23.275  1.00  0.00     0.202 C 
BRANCH   4   5
ATOM      5  C   UNL A   1      31.121  23.114  23.338  1.00  0.00     0.261 C 
BRANCH   5   6
ATOM      6  O   UNL A   1      30.838  23.941  24.489  1.00  0.00    -0.462 OA
BRANCH   6   7
ATOM      7  C   UNL A   1      30.967  23.385  25.719  1.00  0.00     0.327 C 
ATOM      8  O   UNL A   1      30.400  22.347  26.057  1.00  0.00    -0.250 OA
BRANCH   7   9
ATOM      9  C   UNL A   1      31.964  24.058  26.635  1.00  0.00     0.267 C 
BRANCH   9  10
ATOM     10  N   UNL A   1      32.389  25.421  26.325  1.00  0.00    -0.256 N 
ATOM     11  C   UNL A   1      31.507  28.857  26.137  1.00  0.00     0.071 C 
ATOM     12  C   UNL A   1      32.111  27.505  26.001  1.00  0.00     0.083 A 
ATOM     13  N   UNL A   1      31.520  26.438  26.546  1.00  0.00    -0.175 NA
ATOM     14  C   UNL A   1      33.251  27.123  25.247  1.00  0.00     0.086 A 
ATOM     15  C   UNL A   1      33.502  25.815  25.620  1.00  0.00     0.060 A 
ATOM     16  C   UNL A   1      34.648  24.897  25.409  1.00  0.00     0.069 C 
BRANCH  14  17
ATOM     17  N   UNL A   1      33.919  27.948  24.360  1.00  0.00    -0.315 N 
ATOM     18  C   UNL A   1      33.925  27.861  22.983  1.00  0.00     0.314 C 
ATOM     19  H   UNL A   1      34.449  28.677  24.755  1.00  0.00     0.170 HD
ATOM     20  O   UNL A   1      34.401  28.765  22.303  1.00  0.00    -0.263 OA
BRANCH  18  21
ATOM     21  C   UNL A   1      33.185  26.702  22.314  1.00  0.00     0.314 C 
ATOM     22  O   UNL A   1      33.754  25.620  22.165  1.00  0.00    -0.263 OA
ATOM     23  N   UNL A   1      31.880  26.822  21.881  1.00  0.00    -0.318 N 
ATOM     24  H   UNL A   1      31.639  26.306  21.076  1.00  0.00     0.170 HD
BRANCH  23  25
ATOM     25  C   UNL A   1      30.859  27.590  22.452  1.00  0.00     0.041 A 
ATOM     26  C   UNL A   1      30.911  28.957  22.146  1.00  0.00     0.029 A 
ATOM     27  C   UNL A   1      29.787  27.087  23.188  1.00  0.00     0.029 A 
ATOM     28  C   UNL A   1      29.834  29.785  22.445  1.00  0.00     0.041 A 
ATOM     29  C   UNL A   1      28.714  27.925  23.507  1.00  0.00     0.041 A 
ATOM     30  C   UNL A   1      28.734  29.256  23.106  1.00  0.00     0.123 A 
ATOM     31  F   UNL A   1      27.678  30.041  23.349  1.00  0.00    -0.207 F 
ENDBRANCH  23  25
ENDBRANCH  18  21
ENDBRANCH  14  17
ENDBRANCH   9  10
ENDBRANCH   7   9
ENDBRANCH   6   7
ENDBRANCH   5   6
ENDBRANCH   4   5
ENDBRANCH   3   4
ENDBRANCH   2   3
ENDBRANCH   1   2
BRANCH   1  32
ATOM     32  O   UNL A   1      35.273  21.105  25.571  1.00  0.00    -0.377 OA
BRANCH  32  33
ATOM     33  C   UNL A   1      36.463  21.447  24.882  1.00  0.00     0.188 C 
BRANCH  33  34
ATOM     34  C   UNL A   1      37.636  21.920  25.762  1.00  0.00     0.188 C 
BRANCH  34  35
ATOM     35  O   UNL A   1      38.900  21.333  25.447  1.00  0.00    -0.376 OA
BRANCH  35  36
ATOM     36  C   UNL A   1      40.004  21.448  26.333  1.00  0.00     0.202 C 
BRANCH  36  37
ATOM     37  C   UNL A   1      40.953  20.253  26.450  1.00  0.00     0.261 C 
BRANCH  37  38
ATOM     38  O   UNL A   1      42.280  20.583  26.815  1.00  0.00    -0.460 OA
BRANCH  38  39
ATOM     39  C   UNL A   1      43.143  20.737  25.792  1.00  0.00     0.338 C 
ATOM     40  O   UNL A   1      43.531  19.890  25.012  1.00  0.00    -0.246 OA
BRANCH  39  41
ATOM     41  C   UNL A   1      43.657  22.103  25.825  1.00  0.00     0.060 A 
ATOM     42  C   UNL A   1      44.419  22.425  26.947  1.00  0.00     0.016 A 
ATOM     43  C   UNL A   1      43.050  23.068  25.008  1.00  0.00     0.016 A 
ATOM     44  C   UNL A   1      44.317  23.702  27.427  1.00  0.00     0.010 A 
ATOM     45  C   UNL A   1      42.931  24.338  25.502  1.00  0.00     0.010 A 
ATOM     46  C   UNL A   1      43.479  24.598  26.752  1.00  0.00    -0.014 A 
BRANCH  46  47
ATOM     47  C   UNL A   1      43.246  25.874  27.376  1.00  0.00     0.031 A 
ATOM     48  C   UNL A   1      44.326  26.830  27.086  1.00  0.00     0.074 A 
ATOM     49  C   UNL A   1      42.130  26.136  28.077  1.00  0.00     0.049 A 
ATOM     50  N   UNL A   1      45.258  27.227  27.883  1.00  0.00    -0.248 NA
ATOM     51  C   UNL A   1      44.535  27.196  25.675  1.00  0.00     0.031 C 
ATOM     52  C   UNL A   1      40.900  25.345  28.160  1.00  0.00     0.029 A 
ATOM     53  N   UNL A   1      41.833  27.244  28.798  1.00  0.00    -0.354 N 
ATOM     54  C   UNL A   1      46.022  28.106  27.128  1.00  0.00     0.074 A 
ATOM     55  C   UNL A   1      45.696  27.845  25.753  1.00  0.00     0.031 C 
ATOM     56  C   UNL A   1      39.921  26.110  28.699  1.00  0.00     0.029 A 
ATOM     57  C   UNL A   1      40.488  27.385  29.109  1.00  0.00     0.049 A 
ATOM     58  H   UNL A   1      42.516  27.896  29.078  1.00  0.00     0.167 HD
ATOM     59  C   UNL A   1      46.621  29.178  27.711  1.00  0.00     0.037 A 
ATOM     60  C   UNL A   1      39.902  28.514  29.582  1.00  0.00     0.037 A 
ATOM     61  C   UNL A   1      46.725  28.994  29.139  1.00  0.00     0.049 A 
ATOM     62  C   UNL A   1      40.988  29.365  30.147  1.00  0.00     0.074 A 
ATOM     63  C   UNL A   1      47.321  28.048  29.951  1.00  0.00     0.029 A 
ATOM     64  N   UNL A   1      45.819  29.658  29.933  1.00  0.00    -0.354 N 
ATOM     65  N   UNL A   1      41.682  29.055  31.209  1.00  0.00    -0.248 NA
ATOM     66  C   UNL A   1      41.616  30.342  29.266  1.00  0.00     0.031 C 
ATOM     67  C   UNL A   1      46.438  27.891  31.058  1.00  0.00     0.029 A 
ATOM     68  C   UNL A   1      45.380  28.788  30.898  1.00  0.00     0.049 A 
ATOM     69  H   UNL A   1      45.537  30.595  29.828  1.00  0.00     0.167 HD
ATOM     70  C   UNL A   1      42.979  29.458  30.924  1.00  0.00     0.074 A 
ATOM     71  C   UNL A   1      42.858  30.328  29.757  1.00  0.00     0.031 C 
ATOM     72  C   UNL A   1      44.053  28.823  31.480  1.00  0.00     0.037 A 
BRANCH  59  73
ATOM     73  C   UNL A   1      46.726  30.532  27.048  1.00  0.00     0.058 A 
ATOM     74  C   UNL A   1      47.976  31.182  27.033  1.00  0.00     0.135 A 
ATOM     75  C   UNL A   1      45.622  31.338  26.677  1.00  0.00     0.135 A 
ATOM     76  F   UNL A   1      49.095  30.520  27.365  1.00  0.00    -0.206 F 
ATOM     77  C   UNL A   1      48.107  32.543  26.758  1.00  0.00     0.059 A 
ATOM     78  C   UNL A   1      45.738  32.679  26.343  1.00  0.00     0.059 A 
ATOM     79  F   UNL A   1      44.358  30.904  26.708  1.00  0.00    -0.206 F 
ATOM     80  C   UNL A   1      46.977  33.286  26.431  1.00  0.00     0.060 A 
BRANCH  80  81
ATOM     81  S   UNL A   1      47.120  35.060  26.181  1.00  0.00     0.124 S 
ATOM     82  O   UNL A   1      47.839  35.114  24.913  1.00  0.00    -0.237 OA
ATOM     83  O   UNL A   1      45.721  35.472  26.146  1.00  0.00    -0.237 OA
ATOM     84  O   UNL A   1      47.870  35.503  27.353  1.00  0.00    -0.744 OA
ENDBRANCH  80  81
ENDBRANCH  59  73
BRANCH  60  85
ATOM     85  C   UNL A   1      38.554  29.052  29.256  1.00  0.00     0.058 A 
ATOM     86  C   UNL A   1      37.615  29.315  30.270  1.00  0.00     0.135 A 
ATOM     87  C   UNL A   1      38.255  29.585  27.985  1.00  0.00     0.135 A 
ATOM     88  F   UNL A   1      37.826  28.864  31.517  1.00  0.00    -0.206 F 
ATOM     89  C   UNL A   1      36.481  30.105  30.053  1.00  0.00     0.059 A 
ATOM     90  C   UNL A   1      37.124  30.364  27.742  1.00  0.00     0.059 A 
ATOM     91  F   UNL A   1      39.103  29.448  26.955  1.00  0.00    -0.206 F 
ATOM     92  C   UNL A   1      36.255  30.644  28.788  1.00  0.00     0.060 A 
BRANCH  92  93
ATOM     93  S   UNL A   1      34.898  31.814  28.547  1.00  0.00     0.124 S 
ATOM     94  O   UNL A   1      34.633  32.255  29.911  1.00  0.00    -0.237 OA
ATOM     95  O   UNL A   1      35.498  32.804  27.660  1.00  0.00    -0.237 OA
ATOM     96  O   UNL A   1      33.849  30.995  27.941  1.00  0.00    -0.744 OA
ENDBRANCH  92  93
ENDBRANCH  60  85
BRANCH  72  97
ATOM     97  C   UNL A   1      43.814  27.917  32.662  1.00  0.00     0.058 A 
ATOM     98  C   UNL A   1      43.596  28.360  33.978  1.00  0.00     0.135 A 
ATOM     99  C   UNL A   1      43.645  26.547  32.410  1.00  0.00     0.135 A 
ATOM    100  F   UNL A   1      43.637  29.665  34.284  1.00  0.00    -0.206 F 
ATOM    101  C   UNL A   1      43.261  27.473  35.005  1.00  0.00     0.059 A 
ATOM    102  C   UNL A   1      43.278  25.651  33.410  1.00  0.00     0.059 A 
ATOM    103  F   UNL A   1      43.780  26.070  31.163  1.00  0.00    -0.206 F 
ATOM    104  C   UNL A   1      43.099  26.119  34.709  1.00  0.00     0.060 A 
BRANCH 104 105
ATOM    105  S   UNL A   1      42.577  24.985  36.015  1.00  0.00     0.124 S 
ATOM    106  O   UNL A   1      41.165  24.788  35.704  1.00  0.00    -0.237 OA
ATOM    107  O   UNL A   1      43.442  23.830  35.798  1.00  0.00    -0.237 OA
ATOM    108  O   UNL A   1      42.848  25.730  37.242  1.00  0.00    -0.744 OA
ENDBRANCH 104 105
ENDBRANCH  72  97
ENDBRANCH  46  47
ENDBRANCH  39  41
ENDBRANCH  38  39
ENDBRANCH  37  38
ENDBRANCH  36  37
ENDBRANCH  35  36
ENDBRANCH  34  35
ENDBRANCH  33  34
ENDBRANCH  32  33
ENDBRANCH   1  32
TORSDOF 27
ENDMDL
MODEL 2
REMARK VINA RESULT:      -9.7      2.108      3.032
REMARK SMILES Cc1nn(CC(=O)OCCOCCOCCOCCOC(=O)c2ccc(-c3c4nc(c(-c5c(F)cc(S(=O)(=O)[O-])cc5F)c5ccc([nH]5)c(-c5c(F)cc(S(=O)(=O)[O-])cc5F)c5nc(c(-c6c(F)cc(S(=O)(=O)[O-])cc6F)c6ccc3[nH]6)C=C5)C=C4)cc2)c(C)c1NC(=O)C(=O)Nc1ccc(F)cc1
REMARK SMILES IDX 13 1 12 2 11 3 10 4 9 5 8 6 6 7 7 8 5 9 4 10 1 11 2 12 3 13
REMARK SMILES IDX 91 14 89 15 90 16 92 17 93 18 94 20 95 21 96 22 97 23 98 25
REMARK SMILES IDX 99 26 104 27 100 28 103 29 101 30 102 31 14 32 15 33 16 34
REMARK SMILES IDX 17 35 18 36 19 37 20 38 21 39 22 40 23 41 24 42 88 43 25 44
REMARK SMILES IDX 87 45 26 46 27 47 28 48 81 49 29 50 86 51 80 52 82 53 30 54
REMARK SMILES IDX 85 55 79 56 78 57 31 59 65 60 44 61 64 62 45 63 48 64 63 65
REMARK SMILES IDX 83 66 46 67 47 68 62 70 84 71 49 72 32 73 33 74 42 75 34 76
REMARK SMILES IDX 35 77 41 78 43 79 36 80 37 81 38 82 39 83 40 84 66 85 67 86
REMARK SMILES IDX 76 87 68 88 69 89 75 90 77 91 70 92 71 93 72 94 73 95 74 96
REMARK SMILES IDX 50 97 51 98 60 99 52 100 53 101 59 102 61 103 54 104 55 105
REMARK SMILES IDX 56 106 57 107 58 108
REMARK H PARENT 92 19 97 24 82 58 48 69
REMARK Flexibility Score: inf
ROOT
ATOM      1  C   UNL A   1      34.204  18.011  24.304  1.00  0.00     0.188 C 
ENDROOT
BRANCH   1   2
ATOM      2  C   UNL A   1      32.757  18.236  24.783  1.00  0.00     0.188 C 
BRANCH   2   3
ATOM      3  O   UNL A   1      31.986  19.330  24.292  1.00  0.00    -0.376 OA
BRANCH   3   4
ATOM      4  C   UNL A   1      32.637  20.552  23.974  1.00  0.00     0.202 C 
BRANCH   4   5
ATOM      5  C   UNL A   1      31.944  21.496  22.977  1.00  0.00     0.261 C 
BRANCH   5   6
ATOM      6  O   UNL A   1      32.805  22.033  21.949  1.00  0.00    -0.462 OA
BRANCH   6   7
ATOM      7  C   UNL A   1      33.169  23.337  22.040  1.00  0.00     0.327 C 
ATOM      8  O   UNL A   1      33.162  24.111  21.083  1.00  0.00    -0.250 OA
BRANCH   7   9
ATOM      9  C   UNL A   1      33.472  23.830  23.436  1.00  0.00     0.267 C 
BRANCH   9  10
ATOM     10  N   UNL A   1      32.400  24.464  24.202  1.00  0.00    -0.256 N 
ATOM     11  C   UNL A   1      29.331  26.252  24.133  1.00  0.00     0.071 C 
ATOM     12  C   UNL A   1      30.644  25.636  24.462  1.00  0.00     0.083 A 
ATOM     13  N   UNL A   1      31.338  24.974  23.531  1.00  0.00    -0.175 NA
ATOM     14  C   UNL A   1      31.378  25.725  25.674  1.00  0.00     0.086 A 
ATOM     15  C   UNL A   1      32.412  24.818  25.530  1.00  0.00     0.060 A 
ATOM     16  C   UNL A   1      33.397  24.238  26.475  1.00  0.00     0.069 C 
BRANCH  14  17
ATOM     17  N   UNL A   1      31.054  26.558  26.729  1.00  0.00    -0.315 N 
ATOM     18  C   UNL A   1      31.714  27.705  27.120  1.00  0.00     0.314 C 
ATOM     19  H   UNL A   1      30.266  26.304  27.261  1.00  0.00     0.170 HD
ATOM     20  O   UNL A   1      31.217  28.458  27.952  1.00  0.00    -0.263 OA
BRANCH  18  21
ATOM     21  C   UNL A   1      32.991  28.108  26.382  1.00  0.00     0.314 C 
ATOM     22  O   UNL A   1      34.054  27.545  26.648  1.00  0.00    -0.263 OA
ATOM     23  N   UNL A   1      32.993  29.083  25.404  1.00  0.00    -0.318 N 
ATOM     24  H   UNL A   1      33.810  29.630  25.336  1.00  0.00     0.170 HD
BRANCH  23  25
ATOM     25  C   UNL A   1      31.970  29.383  24.497  1.00  0.00     0.041 A 
ATOM     26  C   UNL A   1      32.102  28.776  23.241  1.00  0.00     0.029 A 
ATOM     27  C   UNL A   1      30.831  30.132  24.787  1.00  0.00     0.029 A 
ATOM     28  C   UNL A   1      31.044  28.794  22.338  1.00  0.00     0.041 A 
ATOM     29  C   UNL A   1      29.776  30.168  23.870  1.00  0.00     0.041 A 
ATOM     30  C   UNL A   1      29.881  29.474  22.670  1.00  0.00     0.123 A 
ATOM     31  F   UNL A   1      28.845  29.450  21.821  1.00  0.00    -0.207 F 
ENDBRANCH  23  25
ENDBRANCH  18  21
ENDBRANCH  14  17
ENDBRANCH   9  10
ENDBRANCH   7   9
ENDBRANCH   6   7
ENDBRANCH   5   6
ENDBRANCH   4   5
ENDBRANCH   3   4
ENDBRANCH   2   3
ENDBRANCH   1   2
BRANCH   1  32
ATOM     32  O   UNL A   1      35.230  18.433  25.182  1.00  0.00    -0.377 OA
BRANCH  32  33
ATOM     33  C   UNL A   1      36.234  19.248  24.601  1.00  0.00     0.188 C 
BRANCH  33  34
ATOM     34  C   UNL A   1      36.218  20.731  25.016  1.00  0.00     0.188 C 
BRANCH  34  35
ATOM     35  O   UNL A   1      37.466  21.410  24.876  1.00  0.00    -0.376 OA
BRANCH  35  36
ATOM     36  C   UNL A   1      38.033  22.136  25.957  1.00  0.00     0.202 C 
BRANCH  36  37
ATOM     37  C   UNL A   1      39.526  21.948  26.237  1.00  0.00     0.261 C 
BRANCH  37  38
ATOM     38  O   UNL A   1      40.246  23.149  26.444  1.00  0.00    -0.460 OA
BRANCH  38  39
ATOM     39  C   UNL A   1      41.554  23.106  26.123  1.00  0.00     0.338 C 
ATOM     40  O   UNL A   1      42.212  22.133  25.815  1.00  0.00    -0.246 OA
BRANCH  39  41
ATOM     41  C   UNL A   1      42.120  24.438  26.317  1.00  0.00     0.060 A 
ATOM     42  C   UNL A   1      42.860  24.604  27.487  1.00  0.00     0.016 A 
ATOM     43  C   UNL A   1      41.575  25.509  25.595  1.00  0.00     0.016 A 
ATOM     44  C   UNL A   1      42.794  25.826  28.100  1.00  0.00     0.010 A 
ATOM     45  C   UNL A   1      41.492  26.723  26.221  1.00  0.00     0.010 A 
ATOM     46  C   UNL A   1      42.012  26.824  27.505  1.00  0.00    -0.014 A 
BRANCH  46  47
ATOM     47  C   UNL A   1      41.811  28.033  28.259  1.00  0.00     0.031 A 
ATOM     48  C   UNL A   1      42.951  28.954  28.130  1.00  0.00     0.074 A 
ATOM     49  C   UNL A   1      40.674  28.279  28.932  1.00  0.00     0.049 A 
ATOM     50  N   UNL A   1      43.858  29.207  29.010  1.00  0.00    -0.248 NA
ATOM     51  C   UNL A   1      43.253  29.462  26.782  1.00  0.00     0.031 C 
ATOM     52  C   UNL A   1      39.403  27.553  28.866  1.00  0.00     0.029 A 
ATOM     53  N   UNL A   1      40.395  29.315  29.759  1.00  0.00    -0.354 N 
ATOM     54  C   UNL A   1      44.705  30.120  28.397  1.00  0.00     0.074 A 
ATOM     55  C   UNL A   1      44.440  30.032  26.987  1.00  0.00     0.031 C 
ATOM     56  C   UNL A   1      38.436  28.307  29.441  1.00  0.00     0.029 A 
ATOM     57  C   UNL A   1      39.044  29.496  30.020  1.00  0.00     0.049 A 
ATOM     58  H   UNL A   1      41.093  29.892  30.143  1.00  0.00     0.167 HD
ATOM     59  C   UNL A   1      45.325  31.086  29.126  1.00  0.00     0.037 A 
ATOM     60  C   UNL A   1      38.491  30.596  30.590  1.00  0.00     0.037 A 
ATOM     61  C   UNL A   1      45.343  30.739  30.527  1.00  0.00     0.049 A 
ATOM     62  C   UNL A   1      39.587  31.317  31.298  1.00  0.00     0.074 A 
ATOM     63  C   UNL A   1      45.847  29.677  31.253  1.00  0.00     0.029 A 
ATOM     64  N   UNL A   1      44.431  31.361  31.348  1.00  0.00    -0.354 N 
ATOM     65  N   UNL A   1      40.207  30.852  32.350  1.00  0.00    -0.248 NA
ATOM     66  C   UNL A   1      40.309  32.349  30.564  1.00  0.00     0.031 C 
ATOM     67  C   UNL A   1      44.899  29.448  32.293  1.00  0.00     0.029 A 
ATOM     68  C   UNL A   1      43.898  30.415  32.185  1.00  0.00     0.049 A 
ATOM     69  H   UNL A   1      44.203  32.318  31.336  1.00  0.00     0.167 HD
ATOM     70  C   UNL A   1      41.536  31.211  32.174  1.00  0.00     0.074 A 
ATOM     71  C   UNL A   1      41.521  32.211  31.109  1.00  0.00     0.031 C 
ATOM     72  C   UNL A   1      42.546  30.460  32.704  1.00  0.00     0.037 A 
BRANCH  59  73
ATOM     73  C   UNL A   1      45.533  32.497  28.627  1.00  0.00     0.058 A 
ATOM     74  C   UNL A   1      46.835  33.037  28.648  1.00  0.00     0.135 A 
ATOM     75  C   UNL A   1      44.496  33.432  28.391  1.00  0.00     0.135 A 
ATOM     76  F   UNL A   1      47.899  32.247  28.861  1.00  0.00    -0.206 F 
ATOM     77  C   UNL A   1      47.078  34.405  28.533  1.00  0.00     0.059 A 
ATOM     78  C   UNL A   1      44.722  34.790  28.216  1.00  0.00     0.059 A 
ATOM     79  F   UNL A   1      43.200  33.106  28.411  1.00  0.00    -0.206 F 
ATOM     80  C   UNL A   1      46.010  35.274  28.335  1.00  0.00     0.060 A 
BRANCH  80  81
ATOM     81  S   UNL A   1      46.302  37.048  28.295  1.00  0.00     0.124 S 
ATOM     82  O   UNL A   1      47.759  37.100  28.345  1.00  0.00    -0.237 OA
ATOM     83  O   UNL A   1      45.687  37.424  27.027  1.00  0.00    -0.237 OA
ATOM     84  O   UNL A   1      45.610  37.527  29.488  1.00  0.00    -0.744 OA
ENDBRANCH  80  81
ENDBRANCH  59  73
BRANCH  60  85
ATOM     85  C   UNL A   1      37.191  31.242  30.263  1.00  0.00     0.058 A 
ATOM     86  C   UNL A   1      36.343  31.715  31.281  1.00  0.00     0.135 A 
ATOM     87  C   UNL A   1      36.880  31.665  28.955  1.00  0.00     0.135 A 
ATOM     88  F   UNL A   1      36.573  31.379  32.561  1.00  0.00    -0.206 F 
ATOM     89  C   UNL A   1      35.288  32.597  31.026  1.00  0.00     0.059 A 
ATOM     90  C   UNL A   1      35.826  32.533  28.674  1.00  0.00     0.059 A 
ATOM     91  F   UNL A   1      37.650  31.325  27.910  1.00  0.00    -0.206 F 
ATOM     92  C   UNL A   1      35.050  33.019  29.719  1.00  0.00     0.060 A 
BRANCH  92  93
ATOM     93  S   UNL A   1      33.812  34.299  29.406  1.00  0.00     0.124 S 
ATOM     94  O   UNL A   1      32.786  33.556  28.683  1.00  0.00    -0.237 OA
ATOM     95  O   UNL A   1      33.461  34.725  30.756  1.00  0.00    -0.237 OA
ATOM     96  O   UNL A   1      34.541  35.288  28.614  1.00  0.00    -0.744 OA
ENDBRANCH  92  93
ENDBRANCH  60  85
BRANCH  72  97
ATOM     97  C   UNL A   1      42.199  29.443  33.763  1.00  0.00     0.058 A 
ATOM     98  C   UNL A   1      41.636  28.180  33.504  1.00  0.00     0.135 A 
ATOM     99  C   UNL A   1      42.603  29.706  35.080  1.00  0.00     0.135 A 
ATOM    100  F   UNL A   1      41.316  27.808  32.256  1.00  0.00    -0.206 F 
ATOM    101  C   UNL A   1      41.450  27.238  34.520  1.00  0.00     0.059 A 
ATOM    102  C   UNL A   1      42.460  28.770  36.100  1.00  0.00     0.059 A 
ATOM    103  F   UNL A   1      43.202  30.870  35.380  1.00  0.00    -0.206 F 
ATOM    104  C   UNL A   1      41.871  27.541  35.815  1.00  0.00     0.060 A 
BRANCH 104 105
ATOM    105  S   UNL A   1      41.716  26.291  37.110  1.00  0.00     0.124 S 
ATOM    106  O   UNL A   1      40.428  26.628  37.708  1.00  0.00    -0.237 OA
ATOM    107  O   UNL A   1      41.758  25.043  36.355  1.00  0.00    -0.237 OA
ATOM    108  O   UNL A   1      42.880  26.533  37.959  1.00  0.00    -0.744 OA
ENDBRANCH 104 105
ENDBRANCH  72  97
ENDBRANCH  46  47
ENDBRANCH  39  41
ENDBRANCH  38  39
ENDBRANCH  37  38
ENDBRANCH  36  37
ENDBRANCH  35  36
ENDBRANCH  34  35
ENDBRANCH  33  34
ENDBRANCH  32  33
ENDBRANCH   1  32
TORSDOF 27
ENDMDL
MODEL 3
REMARK VINA RESULT:      -9.3      2.604      4.318
REMARK SMILES Cc1nn(CC(=O)OCCOCCOCCOCCOC(=O)c2ccc(-c3c4nc(c(-c5c(F)cc(S(=O)(=O)[O-])cc5F)c5ccc([nH]5)c(-c5c(F)cc(S(=O)(=O)[O-])cc5F)c5nc(c(-c6c(F)cc(S(=O)(=O)[O-])cc6F)c6ccc3[nH]6)C=C5)C=C4)cc2)c(C)c1NC(=O)C(=O)Nc1ccc(F)cc1
REMARK SMILES IDX 13 1 12 2 11 3 10 4 9 5 8 6 6 7 7 8 5 9 4 10 1 11 2 12 3 13
REMARK SMILES IDX 91 14 89 15 90 16 92 17 93 18 94 20 95 21 96 22 97 23 98 25
REMARK SMILES IDX 99 26 104 27 100 28 103 29 101 30 102 31 14 32 15 33 16 34
REMARK SMILES IDX 17 35 18 36 19 37 20 38 21 39 22 40 23 41 24 42 88 43 25 44
REMARK SMILES IDX 87 45 26 46 27 47 28 48 81 49 29 50 86 51 80 52 82 53 30 54
REMARK SMILES IDX 85 55 79 56 78 57 31 59 65 60 44 61 64 62 45 63 48 64 63 65
REMARK SMILES IDX 83 66 46 67 47 68 62 70 84 71 49 72 32 73 33 74 42 75 34 76
REMARK SMILES IDX 35 77 41 78 43 79 36 80 37 81 38 82 39 83 40 84 66 85 67 86
REMARK SMILES IDX 76 87 68 88 69 89 75 90 77 91 70 92 71 93 72 94 73 95 74 96
REMARK SMILES IDX 50 97 51 98 60 99 52 100 53 101 59 102 61 103 54 104 55 105
REMARK SMILES IDX 56 106 57 107 58 108
REMARK H PARENT 92 19 97 24 82 58 48 69
REMARK Flexibility Score: inf
ROOT
ATOM      1  C   UNL A   1      41.474  25.090  28.137  1.00  0.00     0.188 C 
ENDROOT
BRANCH   1   2
ATOM      2  C   UNL A   1      39.966  25.174  27.830  1.00  0.00     0.188 C 
BRANCH   2   3
ATOM      3  O   UNL A   1      39.200  23.993  27.607  1.00  0.00    -0.376 OA
BRANCH   3   4
ATOM      4  C   UNL A   1      38.702  23.723  26.304  1.00  0.00     0.202 C 
BRANCH   4   5
ATOM      5  C   UNL A   1      37.176  23.701  26.109  1.00  0.00     0.261 C 
BRANCH   5   6
ATOM      6  O   UNL A   1      36.737  23.785  24.735  1.00  0.00    -0.462 OA
BRANCH   6   7
ATOM      7  C   UNL A   1      36.293  22.652  24.138  1.00  0.00     0.327 C 
ATOM      8  O   UNL A   1      37.020  21.695  23.876  1.00  0.00    -0.250 OA
BRANCH   7   9
ATOM      9  C   UNL A   1      34.800  22.576  23.918  1.00  0.00     0.267 C 
BRANCH   9  10
ATOM     10  N   UNL A   1      34.050  23.821  23.772  1.00  0.00    -0.256 N 
ATOM     11  C   UNL A   1      33.065  26.483  21.635  1.00  0.00     0.071 C 
ATOM     12  C   UNL A   1      33.412  25.586  22.769  1.00  0.00     0.083 A 
ATOM     13  N   UNL A   1      33.986  24.399  22.547  1.00  0.00    -0.175 NA
ATOM     14  C   UNL A   1      33.309  25.847  24.160  1.00  0.00     0.086 A 
ATOM     15  C   UNL A   1      33.561  24.631  24.769  1.00  0.00     0.060 A 
ATOM     16  C   UNL A   1      33.393  24.133  26.156  1.00  0.00     0.069 C 
BRANCH  14  17
ATOM     17  N   UNL A   1      33.007  27.080  24.708  1.00  0.00    -0.315 N 
ATOM     18  C   UNL A   1      31.773  27.521  25.141  1.00  0.00     0.314 C 
ATOM     19  H   UNL A   1      33.754  27.713  24.799  1.00  0.00     0.170 HD
ATOM     20  O   UNL A   1      31.672  28.562  25.782  1.00  0.00    -0.263 OA
BRANCH  18  21
ATOM     21  C   UNL A   1      30.558  26.611  24.953  1.00  0.00     0.314 C 
ATOM     22  O   UNL A   1      30.284  25.775  25.815  1.00  0.00    -0.263 OA
ATOM     23  N   UNL A   1      29.738  26.706  23.847  1.00  0.00    -0.318 N 
ATOM     24  H   UNL A   1      29.336  25.864  23.530  1.00  0.00     0.170 HD
BRANCH  23  25
ATOM     25  C   UNL A   1      29.411  27.859  23.124  1.00  0.00     0.041 A 
ATOM     26  C   UNL A   1      28.055  28.211  23.160  1.00  0.00     0.029 A 
ATOM     27  C   UNL A   1      30.325  28.695  22.485  1.00  0.00     0.029 A 
ATOM     28  C   UNL A   1      27.639  29.453  22.692  1.00  0.00     0.041 A 
ATOM     29  C   UNL A   1      29.902  29.935  21.995  1.00  0.00     0.041 A 
ATOM     30  C   UNL A   1      28.571  30.314  22.131  1.00  0.00     0.123 A 
ATOM     31  F   UNL A   1      28.179  31.528  21.726  1.00  0.00    -0.207 F 
ENDBRANCH  23  25
ENDBRANCH  18  21
ENDBRANCH  14  17
ENDBRANCH   9  10
ENDBRANCH   7   9
ENDBRANCH   6   7
ENDBRANCH   5   6
ENDBRANCH   4   5
ENDBRANCH   3   4
ENDBRANCH   2   3
ENDBRANCH   1   2
BRANCH   1  32
ATOM     32  O   UNL A   1      41.902  23.973  28.893  1.00  0.00    -0.377 OA
BRANCH  32  33
ATOM     33  C   UNL A   1      43.051  23.306  28.400  1.00  0.00     0.188 C 
BRANCH  33  34
ATOM     34  C   UNL A   1      42.864  21.818  28.048  1.00  0.00     0.188 C 
BRANCH  34  35
ATOM     35  O   UNL A   1      42.853  21.526  26.650  1.00  0.00    -0.376 OA
BRANCH  35  36
ATOM     36  C   UNL A   1      42.177  22.371  25.729  1.00  0.00     0.202 C 
BRANCH  36  37
ATOM     37  C   UNL A   1      43.030  23.230  24.792  1.00  0.00     0.261 C 
BRANCH  37  38
ATOM     38  O   UNL A   1      43.017  24.615  25.082  1.00  0.00    -0.460 OA
BRANCH  38  39
ATOM     39  C   UNL A   1      44.218  25.164  25.350  1.00  0.00     0.338 C 
ATOM     40  O   UNL A   1      45.277  24.592  25.514  1.00  0.00    -0.246 OA
BRANCH  39  41
ATOM     41  C   UNL A   1      44.036  26.601  25.538  1.00  0.00     0.060 A 
ATOM     42  C   UNL A   1      44.942  27.206  26.406  1.00  0.00     0.016 A 
ATOM     43  C   UNL A   1      42.799  27.169  25.202  1.00  0.00     0.016 A 
ATOM     44  C   UNL A   1      44.477  28.237  27.178  1.00  0.00     0.010 A 
ATOM     45  C   UNL A   1      42.328  28.184  25.990  1.00  0.00     0.010 A 
ATOM     46  C   UNL A   1      43.139  28.623  27.029  1.00  0.00    -0.014 A 
BRANCH  46  47
ATOM     47  C   UNL A   1      42.625  29.578  27.975  1.00  0.00     0.031 A 
ATOM     48  C   UNL A   1      43.574  30.677  28.212  1.00  0.00     0.074 A 
ATOM     49  C   UNL A   1      41.394  29.474  28.502  1.00  0.00     0.049 A 
ATOM     50  N   UNL A   1      44.311  30.867  29.253  1.00  0.00    -0.248 NA
ATOM     51  C   UNL A   1      43.922  31.523  27.059  1.00  0.00     0.031 C 
ATOM     52  C   UNL A   1      40.302  28.585  28.097  1.00  0.00     0.029 A 
ATOM     53  N   UNL A   1      40.829  30.233  29.472  1.00  0.00    -0.354 N 
ATOM     54  C   UNL A   1      45.029  32.022  28.976  1.00  0.00     0.074 A 
ATOM     55  C   UNL A   1      44.946  32.217  27.554  1.00  0.00     0.031 C 
ATOM     56  C   UNL A   1      39.150  29.020  28.661  1.00  0.00     0.029 A 
ATOM     57  C   UNL A   1      39.448  30.127  29.556  1.00  0.00     0.049 A 
ATOM     58  H   UNL A   1      41.356  30.813  30.068  1.00  0.00     0.167 HD
ATOM     59  C   UNL A   1      45.365  32.883  29.972  1.00  0.00     0.037 A 
ATOM     60  C   UNL A   1      38.633  30.961  30.249  1.00  0.00     0.037 A 
ATOM     61  C   UNL A   1      45.292  32.232  31.259  1.00  0.00     0.049 A 
ATOM     62  C   UNL A   1      39.483  31.670  31.248  1.00  0.00     0.074 A 
ATOM     63  C   UNL A   1      45.907  31.129  31.820  1.00  0.00     0.029 A 
ATOM     64  N   UNL A   1      44.191  32.492  32.041  1.00  0.00    -0.354 N 
ATOM     65  N   UNL A   1      40.058  31.085  32.264  1.00  0.00    -0.248 NA
ATOM     66  C   UNL A   1      40.070  32.946  30.859  1.00  0.00     0.031 C 
ATOM     67  C   UNL A   1      44.910  30.516  32.634  1.00  0.00     0.029 A 
ATOM     68  C   UNL A   1      43.759  31.306  32.576  1.00  0.00     0.049 A 
ATOM     69  H   UNL A   1      43.785  33.375  32.192  1.00  0.00     0.167 HD
ATOM     70  C   UNL A   1      41.305  31.687  32.369  1.00  0.00     0.074 A 
ATOM     71  C   UNL A   1      41.217  32.888  31.543  1.00  0.00     0.031 C 
ATOM     72  C   UNL A   1      42.374  31.009  32.882  1.00  0.00     0.037 A 
BRANCH  59  73
ATOM     73  C   UNL A   1      45.352  34.386  29.811  1.00  0.00     0.058 A 
ATOM     74  C   UNL A   1      44.149  35.014  29.433  1.00  0.00     0.135 A 
ATOM     75  C   UNL A   1      46.508  35.201  29.739  1.00  0.00     0.135 A 
ATOM     76  F   UNL A   1      42.988  34.342  29.462  1.00  0.00    -0.206 F 
ATOM     77  C   UNL A   1      44.111  36.318  28.939  1.00  0.00     0.059 A 
ATOM     78  C   UNL A   1      46.483  36.519  29.306  1.00  0.00     0.059 A 
ATOM     79  F   UNL A   1      47.740  34.746  29.990  1.00  0.00    -0.206 F 
ATOM     80  C   UNL A   1      45.288  37.055  28.864  1.00  0.00     0.060 A 
BRANCH  80  81
ATOM     81  S   UNL A   1      45.266  38.695  28.129  1.00  0.00     0.124 S 
ATOM     82  O   UNL A   1      43.930  39.154  28.493  1.00  0.00    -0.237 OA
ATOM     83  O   UNL A   1      46.379  39.345  28.813  1.00  0.00    -0.237 OA
ATOM     84  O   UNL A   1      45.479  38.428  26.709  1.00  0.00    -0.744 OA
ENDBRANCH  80  81
ENDBRANCH  59  73
BRANCH  60  85
ATOM     85  C   UNL A   1      37.278  31.444  29.868  1.00  0.00     0.058 A 
ATOM     86  C   UNL A   1      36.434  32.051  30.816  1.00  0.00     0.135 A 
ATOM     87  C   UNL A   1      36.890  31.580  28.519  1.00  0.00     0.135 A 
ATOM     88  F   UNL A   1      36.734  31.990  32.123  1.00  0.00    -0.206 F 
ATOM     89  C   UNL A   1      35.308  32.795  30.446  1.00  0.00     0.059 A 
ATOM     90  C   UNL A   1      35.765  32.305  28.128  1.00  0.00     0.059 A 
ATOM     91  F   UNL A   1      37.646  31.092  27.524  1.00  0.00    -0.206 F 
ATOM     92  C   UNL A   1      34.994  32.935  29.096  1.00  0.00     0.060 A 
BRANCH  92  93
ATOM     93  S   UNL A   1      33.654  34.044  28.602  1.00  0.00     0.124 S 
ATOM     94  O   UNL A   1      33.081  34.417  29.891  1.00  0.00    -0.237 OA
ATOM     95  O   UNL A   1      34.372  35.097  27.893  1.00  0.00    -0.237 OA
ATOM     96  O   UNL A   1      32.806  33.199  27.763  1.00  0.00    -0.744 OA
ENDBRANCH  92  93
ENDBRANCH  60  85
BRANCH  72  97
ATOM     97  C   UNL A   1      42.113  29.734  33.644  1.00  0.00     0.058 A 
ATOM     98  C   UNL A   1      42.081  28.451  33.069  1.00  0.00     0.135 A 
ATOM     99  C   UNL A   1      42.049  29.810  35.044  1.00  0.00     0.135 A 
ATOM    100  F   UNL A   1      42.239  28.281  31.749  1.00  0.00    -0.206 F 
ATOM    101  C   UNL A   1      41.953  27.299  33.851  1.00  0.00     0.059 A 
ATOM    102  C   UNL A   1      41.957  28.675  35.844  1.00  0.00     0.059 A 
ATOM    103  F   UNL A   1      42.135  31.002  35.656  1.00  0.00    -0.206 F 
ATOM    104  C   UNL A   1      41.897  27.422  35.240  1.00  0.00     0.060 A 
BRANCH 104 105
ATOM    105  S   UNL A   1      41.824  25.931  36.257  1.00  0.00     0.124 S 
ATOM    106  O   UNL A   1      42.693  25.016  35.523  1.00  0.00    -0.237 OA
ATOM    107  O   UNL A   1      42.334  26.397  37.543  1.00  0.00    -0.237 OA
ATOM    108  O   UNL A   1      40.405  25.583  36.250  1.00  0.00    -0.744 OA
ENDBRANCH 104 105
ENDBRANCH  72  97
ENDBRANCH  46  47
ENDBRANCH  39  41
ENDBRANCH  38  39
ENDBRANCH  37  38
ENDBRANCH  36  37
ENDBRANCH  35  36
ENDBRANCH  34  35
ENDBRANCH  33  34
ENDBRANCH  32  33
ENDBRANCH   1  32
TORSDOF 27
ENDMDL
