MODEL 1
REMARK VINA RESULT:     -10.6      0.000      0.000
REMARK SMILES O=C(OCCOCCOCCOCCOC(=O)c1ccc(-c2c3nc(c(-c4c(F)cc(S(=O)(=O)[O-])cc4F)c4ccc([nH]4)c(-c4c(F)cc(S(=O)(=O)[O-])cc4F)c4nc(c(-c5c(F)cc(S(=O)(=O)[O-])cc5F)c5ccc2[nH]5)C=C4)C=C3)cc1)C1=Cc2ccc(Cl)c(Cl)c2O[C@@H]1C(F)(F)F
REMARK SMILES IDX 10 1 9 2 8 3 7 4 6 5 5 6 4 7 3 8 2 9 1 10 84 11 85 12 95 13
REMARK SMILES IDX 86 14 94 15 87 16 93 17 88 18 91 19 89 20 92 21 90 22 96 23
REMARK SMILES IDX 97 24 98 25 99 26 11 27 12 28 13 29 14 30 15 31 16 32 17 33
REMARK SMILES IDX 18 34 19 35 83 36 20 37 82 38 21 39 22 40 23 41 76 42 24 43
REMARK SMILES IDX 81 44 75 45 77 46 25 47 80 48 74 49 73 50 26 52 60 53 39 54
REMARK SMILES IDX 59 55 40 56 43 57 58 58 78 59 41 60 42 61 57 63 79 64 44 65
REMARK SMILES IDX 27 66 28 67 37 68 29 69 30 70 36 71 38 72 31 73 32 74 33 75
REMARK SMILES IDX 34 76 35 77 61 78 62 79 71 80 63 81 64 82 70 83 72 84 65 85
REMARK SMILES IDX 66 86 67 87 68 88 69 89 45 90 46 91 55 92 47 93 48 94 54 95
REMARK SMILES IDX 56 96 49 97 50 98 51 99 52 100 53 101
REMARK H PARENT 77 51 43 62
REMARK Flexibility Score: inf
ROOT
ATOM      1  C   UNL A   1      33.959  26.804  22.525  1.00  0.00     0.188 C 
ENDROOT
BRANCH   1   2
ATOM      2  O   UNL A   1      32.982  26.668  21.518  1.00  0.00    -0.377 OA
BRANCH   2   3
ATOM      3  C   UNL A   1      31.720  26.311  22.038  1.00  0.00     0.188 C 
BRANCH   3   4
ATOM      4  C   UNL A   1      30.809  27.498  22.365  1.00  0.00     0.188 C 
BRANCH   4   5
ATOM      5  O   UNL A   1      29.840  27.499  23.452  1.00  0.00    -0.376 OA
BRANCH   5   6
ATOM      6  C   UNL A   1      29.511  26.496  24.676  1.00  0.00     0.202 C 
BRANCH   6   7
ATOM      7  C   UNL A   1      30.711  24.884  25.516  1.00  0.00     0.261 C 
BRANCH   7   8
ATOM      8  O   UNL A   1      32.223  24.952  25.845  1.00  0.00    -0.460 OA
BRANCH   8   9
ATOM      9  C   UNL A   1      32.795  23.747  25.948  1.00  0.00     0.338 C 
ATOM     10  O   UNL A   1      32.704  22.906  26.804  1.00  0.00    -0.246 OA
BRANCH   9  11
ATOM     11  C   UNL A   1      33.771  23.977  24.915  1.00  0.00     0.087 C 
ATOM     12  C   UNL A   1      35.024  24.538  25.482  1.00  0.00     0.027 C 
ATOM     13  C   UNL A   1      33.617  22.241  24.072  1.00  0.00     0.316 C 
ATOM     14  C   UNL A   1      36.570  23.602  25.612  1.00  0.00     0.019 A 
ATOM     15  O   UNL A   1      35.234  21.200  24.297  1.00  0.00    -0.474 OA
ATOM     16  C   UNL A   1      37.657  24.185  26.206  1.00  0.00     0.013 A 
ATOM     17  C   UNL A   1      36.683  21.936  25.135  1.00  0.00     0.148 A 
ATOM     18  C   UNL A   1      38.783  23.349  26.338  1.00  0.00     0.023 A 
ATOM     19  C   UNL A   1      37.815  21.185  25.351  1.00  0.00     0.102 A 
ATOM     20  C   UNL A   1      38.865  21.943  25.938  1.00  0.00     0.063 A 
ATOM     21  Cl  UNL A   1      37.931  19.516  25.019  1.00  0.00    -0.079 Cl
ATOM     22  Cl  UNL A   1      40.423  21.214  26.228  1.00  0.00    -0.083 Cl
BRANCH  13  23
ATOM     23  C   UNL A   1      32.830  22.697  22.741  1.00  0.00     0.430 C 
ATOM     24  F   UNL A   1      33.489  23.496  21.884  1.00  0.00    -0.167 F 
ATOM     25  F   UNL A   1      32.588  21.556  22.022  1.00  0.00    -0.167 F 
ATOM     26  F   UNL A   1      31.601  23.221  22.958  1.00  0.00    -0.167 F 
ENDBRANCH  13  23
ENDBRANCH   9  11
ENDBRANCH   8   9
ENDBRANCH   7   8
ENDBRANCH   6   7
ENDBRANCH   5   6
ENDBRANCH   4   5
ENDBRANCH   3   4
ENDBRANCH   2   3
ENDBRANCH   1   2
BRANCH   1  27
ATOM     27  C   UNL A   1      33.864  28.079  23.367  1.00  0.00     0.188 C 
BRANCH  27  28
ATOM     28  O   UNL A   1      33.344  28.071  24.687  1.00  0.00    -0.376 OA
BRANCH  28  29
ATOM     29  C   UNL A   1      33.042  29.282  25.366  1.00  0.00     0.202 C 
BRANCH  29  30
ATOM     30  C   UNL A   1      33.668  29.604  26.733  1.00  0.00     0.261 C 
BRANCH  30  31
ATOM     31  O   UNL A   1      34.245  30.910  26.857  1.00  0.00    -0.460 OA
BRANCH  31  32
ATOM     32  C   UNL A   1      34.676  31.244  28.093  1.00  0.00     0.338 C 
ATOM     33  O   UNL A   1      34.119  31.982  28.890  1.00  0.00    -0.246 OA
BRANCH  32  34
ATOM     34  C   UNL A   1      35.862  30.432  28.441  1.00  0.00     0.060 A 
ATOM     35  C   UNL A   1      35.890  29.797  29.694  1.00  0.00     0.016 A 
ATOM     36  C   UNL A   1      36.945  30.322  27.568  1.00  0.00     0.016 A 
ATOM     37  C   UNL A   1      37.018  29.085  30.099  1.00  0.00     0.010 A 
ATOM     38  C   UNL A   1      38.091  29.647  27.991  1.00  0.00     0.010 A 
ATOM     39  C   UNL A   1      38.146  29.071  29.274  1.00  0.00    -0.014 A 
BRANCH  39  40
ATOM     40  C   UNL A   1      39.471  28.736  29.844  1.00  0.00     0.031 A 
ATOM     41  C   UNL A   1      39.979  29.608  30.958  1.00  0.00     0.074 A 
ATOM     42  C   UNL A   1      40.218  27.729  29.366  1.00  0.00     0.049 A 
ATOM     43  N   UNL A   1      41.162  29.658  31.506  1.00  0.00    -0.248 NA
ATOM     44  C   UNL A   1      39.013  30.571  31.517  1.00  0.00     0.031 C 
ATOM     45  C   UNL A   1      39.805  26.785  28.332  1.00  0.00     0.029 A 
ATOM     46  N   UNL A   1      41.505  27.361  29.671  1.00  0.00    -0.354 N 
ATOM     47  C   UNL A   1      41.096  30.678  32.447  1.00  0.00     0.074 A 
ATOM     48  C   UNL A   1      39.761  31.231  32.385  1.00  0.00     0.031 C 
ATOM     49  C   UNL A   1      40.837  25.970  28.054  1.00  0.00     0.029 A 
ATOM     50  C   UNL A   1      41.994  26.369  28.858  1.00  0.00     0.049 A 
ATOM     51  H   UNL A   1      42.026  27.770  30.399  1.00  0.00     0.167 HD
ATOM     52  C   UNL A   1      42.064  31.118  33.284  1.00  0.00     0.037 A 
ATOM     53  C   UNL A   1      43.245  25.876  28.744  1.00  0.00     0.037 A 
ATOM     54  C   UNL A   1      43.392  30.565  33.320  1.00  0.00     0.049 A 
ATOM     55  C   UNL A   1      44.334  26.419  29.634  1.00  0.00     0.074 A 
ATOM     56  C   UNL A   1      44.449  30.917  34.137  1.00  0.00     0.029 A 
ATOM     57  N   UNL A   1      43.849  29.554  32.485  1.00  0.00    -0.354 N 
ATOM     58  N   UNL A   1      44.266  27.374  30.534  1.00  0.00    -0.248 NA
ATOM     59  C   UNL A   1      45.669  25.820  29.498  1.00  0.00     0.031 C 
ATOM     60  C   UNL A   1      45.564  30.166  33.751  1.00  0.00     0.029 A 
ATOM     61  C   UNL A   1      45.182  29.289  32.747  1.00  0.00     0.049 A 
ATOM     62  H   UNL A   1      43.305  29.093  31.805  1.00  0.00     0.167 HD
ATOM     63  C   UNL A   1      45.537  27.465  31.095  1.00  0.00     0.074 A 
ATOM     64  C   UNL A   1      46.355  26.472  30.429  1.00  0.00     0.031 C 
ATOM     65  C   UNL A   1      45.980  28.285  32.082  1.00  0.00     0.037 A 
BRANCH  52  66
ATOM     66  C   UNL A   1      41.733  32.288  34.170  1.00  0.00     0.058 A 
ATOM     67  C   UNL A   1      41.321  32.125  35.503  1.00  0.00     0.135 A 
ATOM     68  C   UNL A   1      41.803  33.597  33.666  1.00  0.00     0.135 A 
ATOM     69  F   UNL A   1      41.217  30.896  36.035  1.00  0.00    -0.206 F 
ATOM     70  C   UNL A   1      40.941  33.212  36.286  1.00  0.00     0.059 A 
ATOM     71  C   UNL A   1      41.463  34.701  34.442  1.00  0.00     0.059 A 
ATOM     72  F   UNL A   1      42.189  33.814  32.399  1.00  0.00    -0.206 F 
ATOM     73  C   UNL A   1      41.009  34.495  35.743  1.00  0.00     0.060 A 
BRANCH  73  74
ATOM     74  S   UNL A   1      40.479  35.891  36.757  1.00  0.00     0.124 S 
ATOM     75  O   UNL A   1      39.518  35.253  37.651  1.00  0.00    -0.237 OA
ATOM     76  O   UNL A   1      41.729  36.321  37.374  1.00  0.00    -0.237 OA
ATOM     77  O   UNL A   1      39.910  36.821  35.787  1.00  0.00    -0.744 OA
ENDBRANCH  73  74
ENDBRANCH  52  66
BRANCH  53  78
ATOM     78  C   UNL A   1      43.522  24.823  27.732  1.00  0.00     0.058 A 
ATOM     79  C   UNL A   1      44.013  25.150  26.461  1.00  0.00     0.135 A 
ATOM     80  C   UNL A   1      43.362  23.462  28.041  1.00  0.00     0.135 A 
ATOM     81  F   UNL A   1      44.168  26.436  26.112  1.00  0.00    -0.206 F 
ATOM     82  C   UNL A   1      44.349  24.167  25.535  1.00  0.00     0.059 A 
ATOM     83  C   UNL A   1      43.714  22.460  27.142  1.00  0.00     0.059 A 
ATOM     84  F   UNL A   1      42.899  23.095  29.246  1.00  0.00    -0.206 F 
ATOM     85  C   UNL A   1      44.210  22.824  25.891  1.00  0.00     0.060 A 
BRANCH  85  86
ATOM     86  S   UNL A   1      44.754  21.560  24.721  1.00  0.00     0.124 S 
ATOM     87  O   UNL A   1      44.587  22.246  23.444  1.00  0.00    -0.237 OA
ATOM     88  O   UNL A   1      46.131  21.327  25.145  1.00  0.00    -0.237 OA
ATOM     89  O   UNL A   1      43.834  20.453  24.967  1.00  0.00    -0.744 OA
ENDBRANCH  85  86
ENDBRANCH  53  78
BRANCH  65  90
ATOM     90  C   UNL A   1      47.398  28.117  32.559  1.00  0.00     0.058 A 
ATOM     91  C   UNL A   1      48.456  28.880  32.044  1.00  0.00     0.135 A 
ATOM     92  C   UNL A   1      47.676  27.247  33.627  1.00  0.00     0.135 A 
ATOM     93  F   UNL A   1      48.248  29.722  31.020  1.00  0.00    -0.206 F 
ATOM     94  C   UNL A   1      49.743  28.782  32.567  1.00  0.00     0.059 A 
ATOM     95  C   UNL A   1      48.948  27.155  34.185  1.00  0.00     0.059 A 
ATOM     96  F   UNL A   1      46.698  26.501  34.164  1.00  0.00    -0.206 F 
ATOM     97  C   UNL A   1      49.976  27.924  33.644  1.00  0.00     0.060 A 
BRANCH  97  98
ATOM     98  S   UNL A   1      51.634  27.855  34.355  1.00  0.00     0.124 S 
ATOM     99  O   UNL A   1      52.424  27.389  33.220  1.00  0.00    -0.237 OA
ATOM    100  O   UNL A   1      51.858  29.240  34.757  1.00  0.00    -0.237 OA
ATOM    101  O   UNL A   1      51.496  26.904  35.455  1.00  0.00    -0.744 OA
ENDBRANCH  97  98
ENDBRANCH  65  90
ENDBRANCH  39  40
ENDBRANCH  32  34
ENDBRANCH  31  32
ENDBRANCH  30  31
ENDBRANCH  29  30
ENDBRANCH  28  29
ENDBRANCH  27  28
ENDBRANCH   1  27
TORSDOF 24
ENDMDL
MODEL 2
REMARK VINA RESULT:     -10.4      3.618      4.655
REMARK SMILES O=C(OCCOCCOCCOCCOC(=O)c1ccc(-c2c3nc(c(-c4c(F)cc(S(=O)(=O)[O-])cc4F)c4ccc([nH]4)c(-c4c(F)cc(S(=O)(=O)[O-])cc4F)c4nc(c(-c5c(F)cc(S(=O)(=O)[O-])cc5F)c5ccc2[nH]5)C=C4)C=C3)cc1)C1=Cc2ccc(Cl)c(Cl)c2O[C@@H]1C(F)(F)F
REMARK SMILES IDX 10 1 9 2 8 3 7 4 6 5 5 6 4 7 3 8 2 9 1 10 84 11 85 12 95 13
REMARK SMILES IDX 86 14 94 15 87 16 93 17 88 18 91 19 89 20 92 21 90 22 96 23
REMARK SMILES IDX 97 24 98 25 99 26 11 27 12 28 13 29 14 30 15 31 16 32 17 33
REMARK SMILES IDX 18 34 19 35 83 36 20 37 82 38 21 39 22 40 23 41 76 42 24 43
REMARK SMILES IDX 81 44 75 45 77 46 25 47 80 48 74 49 73 50 26 52 60 53 39 54
REMARK SMILES IDX 59 55 40 56 43 57 58 58 78 59 41 60 42 61 57 63 79 64 44 65
REMARK SMILES IDX 27 66 28 67 37 68 29 69 30 70 36 71 38 72 31 73 32 74 33 75
REMARK SMILES IDX 34 76 35 77 61 78 62 79 71 80 63 81 64 82 70 83 72 84 65 85
REMARK SMILES IDX 66 86 67 87 68 88 69 89 45 90 46 91 55 92 47 93 48 94 54 95
REMARK SMILES IDX 56 96 49 97 50 98 51 99 52 100 53 101
REMARK H PARENT 77 51 43 62
REMARK Flexibility Score: inf
ROOT
ATOM      1  C   UNL A   1      30.447  31.174  24.904  1.00  0.00     0.188 C 
ENDROOT
BRANCH   1   2
ATOM      2  O   UNL A   1      29.332  31.534  24.120  1.00  0.00    -0.377 OA
BRANCH   2   3
ATOM      3  C   UNL A   1      29.270  30.813  22.910  1.00  0.00     0.188 C 
BRANCH   3   4
ATOM      4  C   UNL A   1      27.850  30.501  22.428  1.00  0.00     0.188 C 
BRANCH   4   5
ATOM      5  O   UNL A   1      26.951  29.574  23.101  1.00  0.00    -0.376 OA
BRANCH   5   6
ATOM      6  C   UNL A   1      27.060  28.030  23.566  1.00  0.00     0.202 C 
BRANCH   6   7
ATOM      7  C   UNL A   1      28.806  26.733  23.691  1.00  0.00     0.261 C 
BRANCH   7   8
ATOM      8  O   UNL A   1      29.755  26.600  24.908  1.00  0.00    -0.460 OA
BRANCH   8   9
ATOM      9  C   UNL A   1      30.908  27.261  24.753  1.00  0.00     0.338 C 
ATOM     10  O   UNL A   1      31.330  27.892  23.819  1.00  0.00    -0.246 OA
BRANCH   9  11
ATOM     11  C   UNL A   1      31.555  26.665  25.893  1.00  0.00     0.087 C 
ATOM     12  C   UNL A   1      31.055  25.286  26.129  1.00  0.00     0.027 C 
ATOM     13  C   UNL A   1      33.367  27.114  25.381  1.00  0.00     0.316 C 
ATOM     14  C   UNL A   1      32.038  23.798  25.809  1.00  0.00     0.019 A 
ATOM     15  O   UNL A   1      34.391  25.529  24.943  1.00  0.00    -0.474 OA
ATOM     16  C   UNL A   1      31.469  22.568  25.999  1.00  0.00     0.013 A 
ATOM     17  C   UNL A   1      33.637  23.875  25.136  1.00  0.00     0.148 A 
ATOM     18  C   UNL A   1      32.283  21.474  25.642  1.00  0.00     0.023 A 
ATOM     19  C   UNL A   1      34.335  22.747  24.772  1.00  0.00     0.102 A 
ATOM     20  C   UNL A   1      33.627  21.550  25.069  1.00  0.00     0.063 A 
ATOM     21  Cl  UNL A   1      35.851  22.775  23.990  1.00  0.00    -0.079 Cl
ATOM     22  Cl  UNL A   1      34.357  19.996  24.765  1.00  0.00    -0.083 Cl
BRANCH  13  23
ATOM     23  C   UNL A   1      33.633  28.278  26.463  1.00  0.00     0.430 C 
ATOM     24  F   UNL A   1      34.907  28.667  26.644  1.00  0.00    -0.167 F 
ATOM     25  F   UNL A   1      33.001  29.399  25.991  1.00  0.00    -0.167 F 
ATOM     26  F   UNL A   1      33.072  28.066  27.676  1.00  0.00    -0.167 F 
ENDBRANCH  13  23
ENDBRANCH   9  11
ENDBRANCH   8   9
ENDBRANCH   7   8
ENDBRANCH   6   7
ENDBRANCH   5   6
ENDBRANCH   4   5
ENDBRANCH   3   4
ENDBRANCH   2   3
ENDBRANCH   1   2
BRANCH   1  27
ATOM     27  C   UNL A   1      30.811  32.154  26.022  1.00  0.00     0.188 C 
BRANCH  27  28
ATOM     28  O   UNL A   1      31.822  31.866  26.975  1.00  0.00    -0.376 OA
BRANCH  28  29
ATOM     29  C   UNL A   1      32.673  32.888  27.475  1.00  0.00     0.202 C 
BRANCH  29  30
ATOM     30  C   UNL A   1      34.154  32.608  27.782  1.00  0.00     0.261 C 
BRANCH  30  31
ATOM     31  O   UNL A   1      34.423  31.373  28.458  1.00  0.00    -0.460 OA
BRANCH  31  32
ATOM     32  C   UNL A   1      35.195  31.467  29.563  1.00  0.00     0.338 C 
ATOM     33  O   UNL A   1      34.914  32.032  30.608  1.00  0.00    -0.246 OA
BRANCH  32  34
ATOM     34  C   UNL A   1      36.393  30.614  29.405  1.00  0.00     0.060 A 
ATOM     35  C   UNL A   1      36.902  29.965  30.542  1.00  0.00     0.016 A 
ATOM     36  C   UNL A   1      37.028  30.479  28.171  1.00  0.00     0.016 A 
ATOM     37  C   UNL A   1      38.073  29.214  30.461  1.00  0.00     0.010 A 
ATOM     38  C   UNL A   1      38.223  29.764  28.097  1.00  0.00     0.010 A 
ATOM     39  C   UNL A   1      38.772  29.173  29.251  1.00  0.00    -0.014 A 
BRANCH  39  40
ATOM     40  C   UNL A   1      40.202  28.790  29.239  1.00  0.00     0.031 A 
ATOM     41  C   UNL A   1      41.205  29.878  29.508  1.00  0.00     0.074 A 
ATOM     42  C   UNL A   1      40.604  27.541  28.957  1.00  0.00     0.049 A 
ATOM     43  N   UNL A   1      42.504  29.866  29.379  1.00  0.00    -0.248 NA
ATOM     44  C   UNL A   1      40.656  31.164  29.971  1.00  0.00     0.031 C 
ATOM     45  C   UNL A   1      39.723  26.398  28.739  1.00  0.00     0.029 A 
ATOM     46  N   UNL A   1      41.868  27.040  28.769  1.00  0.00    -0.354 N 
ATOM     47  C   UNL A   1      42.925  31.148  29.709  1.00  0.00     0.074 A 
ATOM     48  C   UNL A   1      41.741  31.916  30.029  1.00  0.00     0.031 C 
ATOM     49  C   UNL A   1      40.472  25.334  28.402  1.00  0.00     0.029 A 
ATOM     50  C   UNL A   1      41.877  25.738  28.336  1.00  0.00     0.049 A 
ATOM     51  H   UNL A   1      42.686  27.564  28.928  1.00  0.00     0.167 HD
ATOM     52  C   UNL A   1      44.184  31.642  29.737  1.00  0.00     0.037 A 
ATOM     53  C   UNL A   1      42.899  24.978  27.890  1.00  0.00     0.037 A 
ATOM     54  C   UNL A   1      45.347  30.866  29.399  1.00  0.00     0.049 A 
ATOM     55  C   UNL A   1      44.291  25.558  27.860  1.00  0.00     0.074 A 
ATOM     56  C   UNL A   1      46.673  31.254  29.408  1.00  0.00     0.029 A 
ATOM     57  N   UNL A   1      45.318  29.545  28.971  1.00  0.00    -0.354 N 
ATOM     58  N   UNL A   1      44.688  26.767  28.187  1.00  0.00    -0.248 NA
ATOM     59  C   UNL A   1      45.374  24.676  27.405  1.00  0.00     0.031 C 
ATOM     60  C   UNL A   1      47.440  30.190  28.922  1.00  0.00     0.029 A 
ATOM     61  C   UNL A   1      46.601  29.112  28.685  1.00  0.00     0.049 A 
ATOM     62  H   UNL A   1      44.504  28.998  28.883  1.00  0.00     0.167 HD
ATOM     63  C   UNL A   1      46.069  26.778  28.012  1.00  0.00     0.074 A 
ATOM     64  C   UNL A   1      46.437  25.458  27.544  1.00  0.00     0.031 C 
ATOM     65  C   UNL A   1      46.951  27.786  28.232  1.00  0.00     0.037 A 
BRANCH  52  66
ATOM     66  C   UNL A   1      44.348  33.099  30.081  1.00  0.00     0.058 A 
ATOM     67  C   UNL A   1      44.240  34.113  29.115  1.00  0.00     0.135 A 
ATOM     68  C   UNL A   1      44.647  33.483  31.398  1.00  0.00     0.135 A 
ATOM     69  F   UNL A   1      43.975  33.805  27.835  1.00  0.00    -0.206 F 
ATOM     70  C   UNL A   1      44.475  35.448  29.432  1.00  0.00     0.059 A 
ATOM     71  C   UNL A   1      44.848  34.815  31.745  1.00  0.00     0.059 A 
ATOM     72  F   UNL A   1      44.764  32.557  32.363  1.00  0.00    -0.206 F 
ATOM     73  C   UNL A   1      44.785  35.787  30.749  1.00  0.00     0.060 A 
BRANCH  73  74
ATOM     74  S   UNL A   1      45.121  37.517  31.139  1.00  0.00     0.124 S 
ATOM     75  O   UNL A   1      43.802  38.117  30.962  1.00  0.00    -0.237 OA
ATOM     76  O   UNL A   1      45.601  37.439  32.515  1.00  0.00    -0.237 OA
ATOM     77  O   UNL A   1      46.122  37.902  30.150  1.00  0.00    -0.744 OA
ENDBRANCH  73  74
ENDBRANCH  52  66
BRANCH  53  78
ATOM     78  C   UNL A   1      42.626  23.593  27.423  1.00  0.00     0.058 A 
ATOM     79  C   UNL A   1      42.574  23.286  26.057  1.00  0.00     0.135 A 
ATOM     80  C   UNL A   1      42.474  22.537  28.337  1.00  0.00     0.135 A 
ATOM     81  F   UNL A   1      42.697  24.262  25.144  1.00  0.00    -0.206 F 
ATOM     82  C   UNL A   1      42.396  21.979  25.610  1.00  0.00     0.059 A 
ATOM     83  C   UNL A   1      42.319  21.220  27.916  1.00  0.00     0.059 A 
ATOM     84  F   UNL A   1      42.519  22.777  29.657  1.00  0.00    -0.206 F 
ATOM     85  C   UNL A   1      42.285  20.952  26.548  1.00  0.00     0.060 A 
BRANCH  85  86
ATOM     86  S   UNL A   1      42.166  19.250  25.954  1.00  0.00     0.124 S 
ATOM     87  O   UNL A   1      42.644  18.498  27.108  1.00  0.00    -0.237 OA
ATOM     88  O   UNL A   1      40.740  19.131  25.661  1.00  0.00    -0.237 OA
ATOM     89  O   UNL A   1      43.041  19.238  24.786  1.00  0.00    -0.744 OA
ENDBRANCH  85  86
ENDBRANCH  53  78
BRANCH  65  90
ATOM     90  C   UNL A   1      48.417  27.500  28.034  1.00  0.00     0.058 A 
ATOM     91  C   UNL A   1      49.075  27.767  26.824  1.00  0.00     0.135 A 
ATOM     92  C   UNL A   1      49.192  27.048  29.116  1.00  0.00     0.135 A 
ATOM     93  F   UNL A   1      48.382  28.193  25.757  1.00  0.00    -0.206 F 
ATOM     94  C   UNL A   1      50.449  27.589  26.692  1.00  0.00     0.059 A 
ATOM     95  C   UNL A   1      50.570  26.893  29.015  1.00  0.00     0.059 A 
ATOM     96  F   UNL A   1      48.614  26.788  30.300  1.00  0.00    -0.206 F 
ATOM     97  C   UNL A   1      51.190  27.162  27.796  1.00  0.00     0.060 A 
BRANCH  97  98
ATOM     98  S   UNL A   1      52.980  26.999  27.630  1.00  0.00     0.124 S 
ATOM     99  O   UNL A   1      53.112  25.613  27.192  1.00  0.00    -0.237 OA
ATOM    100  O   UNL A   1      53.292  28.013  26.626  1.00  0.00    -0.237 OA
ATOM    101  O   UNL A   1      53.477  27.282  28.973  1.00  0.00    -0.744 OA
ENDBRANCH  97  98
ENDBRANCH  65  90
ENDBRANCH  39  40
ENDBRANCH  32  34
ENDBRANCH  31  32
ENDBRANCH  30  31
ENDBRANCH  29  30
ENDBRANCH  28  29
ENDBRANCH  27  28
ENDBRANCH   1  27
TORSDOF 24
ENDMDL
MODEL 3
REMARK VINA RESULT:     -10.4      2.070      8.164
REMARK SMILES O=C(OCCOCCOCCOCCOC(=O)c1ccc(-c2c3nc(c(-c4c(F)cc(S(=O)(=O)[O-])cc4F)c4ccc([nH]4)c(-c4c(F)cc(S(=O)(=O)[O-])cc4F)c4nc(c(-c5c(F)cc(S(=O)(=O)[O-])cc5F)c5ccc2[nH]5)C=C4)C=C3)cc1)C1=Cc2ccc(Cl)c(Cl)c2O[C@@H]1C(F)(F)F
REMARK SMILES IDX 10 1 9 2 8 3 7 4 6 5 5 6 4 7 3 8 2 9 1 10 84 11 85 12 95 13
REMARK SMILES IDX 86 14 94 15 87 16 93 17 88 18 91 19 89 20 92 21 90 22 96 23
REMARK SMILES IDX 97 24 98 25 99 26 11 27 12 28 13 29 14 30 15 31 16 32 17 33
REMARK SMILES IDX 18 34 19 35 83 36 20 37 82 38 21 39 22 40 23 41 76 42 24 43
REMARK SMILES IDX 81 44 75 45 77 46 25 47 80 48 74 49 73 50 26 52 60 53 39 54
REMARK SMILES IDX 59 55 40 56 43 57 58 58 78 59 41 60 42 61 57 63 79 64 44 65
REMARK SMILES IDX 27 66 28 67 37 68 29 69 30 70 36 71 38 72 31 73 32 74 33 75
REMARK SMILES IDX 34 76 35 77 61 78 62 79 71 80 63 81 64 82 70 83 72 84 65 85
REMARK SMILES IDX 66 86 67 87 68 88 69 89 45 90 46 91 55 92 47 93 48 94 54 95
REMARK SMILES IDX 56 96 49 97 50 98 51 99 52 100 53 101
REMARK H PARENT 77 51 43 62
REMARK Flexibility Score: inf
ROOT
ATOM      1  C   UNL A   1      32.398  28.825  22.745  1.00  0.00     0.188 C 
ENDROOT
BRANCH   1   2
ATOM      2  O   UNL A   1      31.268  29.634  22.976  1.00  0.00    -0.377 OA
BRANCH   2   3
ATOM      3  C   UNL A   1      30.159  29.246  22.195  1.00  0.00     0.188 C 
BRANCH   3   4
ATOM      4  C   UNL A   1      29.016  28.605  22.989  1.00  0.00     0.188 C 
BRANCH   4   5
ATOM      5  O   UNL A   1      29.176  27.428  23.832  1.00  0.00    -0.376 OA
BRANCH   5   6
ATOM      6  C   UNL A   1      30.107  26.109  23.768  1.00  0.00     0.202 C 
BRANCH   6   7
ATOM      7  C   UNL A   1      30.827  24.833  25.380  1.00  0.00     0.261 C 
BRANCH   7   8
ATOM      8  O   UNL A   1      31.070  23.306  25.292  1.00  0.00    -0.460 OA
BRANCH   8   9
ATOM      9  C   UNL A   1      32.174  22.909  25.936  1.00  0.00     0.338 C 
ATOM     10  O   UNL A   1      32.350  22.634  27.094  1.00  0.00    -0.246 OA
BRANCH   9  11
ATOM     11  C   UNL A   1      33.080  23.269  24.876  1.00  0.00     0.087 C 
ATOM     12  C   UNL A   1      34.238  24.035  25.402  1.00  0.00     0.027 C 
ATOM     13  C   UNL A   1      33.187  21.512  24.069  1.00  0.00     0.316 C 
ATOM     14  C   UNL A   1      35.916  23.359  25.514  1.00  0.00     0.019 A 
ATOM     15  O   UNL A   1      34.954  20.747  24.275  1.00  0.00    -0.474 OA
ATOM     16  C   UNL A   1      36.908  24.120  26.071  1.00  0.00     0.013 A 
ATOM     17  C   UNL A   1      36.283  21.723  25.065  1.00  0.00     0.148 A 
ATOM     18  C   UNL A   1      38.156  23.477  26.192  1.00  0.00     0.023 A 
ATOM     19  C   UNL A   1      37.525  21.167  25.268  1.00  0.00     0.102 A 
ATOM     20  C   UNL A   1      38.453  22.094  25.816  1.00  0.00     0.063 A 
ATOM     21  Cl  UNL A   1      37.899  19.530  24.964  1.00  0.00    -0.079 Cl
ATOM     22  Cl  UNL A   1      40.112  21.629  26.083  1.00  0.00    -0.083 Cl
BRANCH  13  23
ATOM     23  C   UNL A   1      32.311  21.808  22.749  1.00  0.00     0.430 C 
ATOM     24  F   UNL A   1      32.928  22.436  21.732  1.00  0.00    -0.167 F 
ATOM     25  F   UNL A   1      31.963  20.588  22.232  1.00  0.00    -0.167 F 
ATOM     26  F   UNL A   1      31.127  22.423  22.978  1.00  0.00    -0.167 F 
ENDBRANCH  13  23
ENDBRANCH   9  11
ENDBRANCH   8   9
ENDBRANCH   7   8
ENDBRANCH   6   7
ENDBRANCH   5   6
ENDBRANCH   4   5
ENDBRANCH   3   4
ENDBRANCH   2   3
ENDBRANCH   1   2
BRANCH   1  27
ATOM     27  C   UNL A   1      33.295  28.582  23.960  1.00  0.00     0.188 C 
BRANCH  27  28
ATOM     28  O   UNL A   1      32.845  27.858  25.095  1.00  0.00    -0.376 OA
BRANCH  28  29
ATOM     29  C   UNL A   1      32.471  28.526  26.292  1.00  0.00     0.202 C 
BRANCH  29  30
ATOM     30  C   UNL A   1      32.777  30.019  26.498  1.00  0.00     0.261 C 
BRANCH  30  31
ATOM     31  O   UNL A   1      33.462  30.348  27.713  1.00  0.00    -0.460 OA
BRANCH  31  32
ATOM     32  C   UNL A   1      34.259  31.438  27.659  1.00  0.00     0.338 C 
ATOM     33  O   UNL A   1      33.911  32.592  27.471  1.00  0.00    -0.246 OA
BRANCH  32  34
ATOM     34  C   UNL A   1      35.636  31.065  28.049  1.00  0.00     0.060 A 
ATOM     35  C   UNL A   1      35.914  29.710  28.298  1.00  0.00     0.016 A 
ATOM     36  C   UNL A   1      36.632  32.030  28.201  1.00  0.00     0.016 A 
ATOM     37  C   UNL A   1      37.175  29.319  28.743  1.00  0.00     0.010 A 
ATOM     38  C   UNL A   1      37.881  31.645  28.689  1.00  0.00     0.010 A 
ATOM     39  C   UNL A   1      38.137  30.298  29.007  1.00  0.00    -0.014 A 
BRANCH  39  40
ATOM     40  C   UNL A   1      39.286  29.984  29.887  1.00  0.00     0.031 A 
ATOM     41  C   UNL A   1      40.271  28.963  29.390  1.00  0.00     0.074 A 
ATOM     42  C   UNL A   1      39.429  30.545  31.098  1.00  0.00     0.049 A 
ATOM     43  N   UNL A   1      41.249  28.372  30.021  1.00  0.00    -0.248 NA
ATOM     44  C   UNL A   1      40.114  28.541  27.988  1.00  0.00     0.031 C 
ATOM     45  C   UNL A   1      38.572  31.585  31.656  1.00  0.00     0.029 A 
ATOM     46  N   UNL A   1      40.339  30.281  32.091  1.00  0.00    -0.354 N 
ATOM     47  C   UNL A   1      41.802  27.484  29.106  1.00  0.00     0.074 A 
ATOM     48  C   UNL A   1      41.039  27.602  27.883  1.00  0.00     0.031 C 
ATOM     49  C   UNL A   1      38.968  31.843  32.914  1.00  0.00     0.029 A 
ATOM     50  C   UNL A   1      40.076  30.950  33.261  1.00  0.00     0.049 A 
ATOM     51  H   UNL A   1      41.103  29.671  31.977  1.00  0.00     0.167 HD
ATOM     52  C   UNL A   1      42.846  26.641  29.273  1.00  0.00     0.037 A 
ATOM     53  C   UNL A   1      40.635  30.819  34.481  1.00  0.00     0.037 A 
ATOM     54  C   UNL A   1      43.582  26.526  30.504  1.00  0.00     0.049 A 
ATOM     55  C   UNL A   1      41.754  29.828  34.677  1.00  0.00     0.074 A 
ATOM     56  C   UNL A   1      44.669  25.720  30.785  1.00  0.00     0.029 A 
ATOM     57  N   UNL A   1      43.291  27.227  31.667  1.00  0.00    -0.354 N 
ATOM     58  N   UNL A   1      42.284  28.999  33.806  1.00  0.00    -0.248 NA
ATOM     59  C   UNL A   1      42.355  29.753  36.016  1.00  0.00     0.031 C 
ATOM     60  C   UNL A   1      44.993  25.884  32.136  1.00  0.00     0.029 A 
ATOM     61  C   UNL A   1      44.159  26.851  32.677  1.00  0.00     0.049 A 
ATOM     62  H   UNL A   1      42.571  27.893  31.759  1.00  0.00     0.167 HD
ATOM     63  C   UNL A   1      43.302  28.332  34.482  1.00  0.00     0.074 A 
ATOM     64  C   UNL A   1      43.309  28.849  35.834  1.00  0.00     0.031 C 
ATOM     65  C   UNL A   1      44.160  27.388  34.018  1.00  0.00     0.037 A 
BRANCH  52  66
ATOM     66  C   UNL A   1      43.200  25.740  28.120  1.00  0.00     0.058 A 
ATOM     67  C   UNL A   1      42.658  24.452  27.982  1.00  0.00     0.135 A 
ATOM     68  C   UNL A   1      44.121  26.166  27.150  1.00  0.00     0.135 A 
ATOM     69  F   UNL A   1      41.786  23.983  28.890  1.00  0.00    -0.206 F 
ATOM     70  C   UNL A   1      43.056  23.601  26.955  1.00  0.00     0.059 A 
ATOM     71  C   UNL A   1      44.506  25.346  26.094  1.00  0.00     0.059 A 
ATOM     72  F   UNL A   1      44.674  27.387  27.231  1.00  0.00    -0.206 F 
ATOM     73  C   UNL A   1      43.986  24.055  26.020  1.00  0.00     0.060 A 
BRANCH  73  74
ATOM     74  S   UNL A   1      44.520  22.929  24.715  1.00  0.00     0.124 S 
ATOM     75  O   UNL A   1      44.857  21.734  25.482  1.00  0.00    -0.237 OA
ATOM     76  O   UNL A   1      43.327  22.831  23.880  1.00  0.00    -0.237 OA
ATOM     77  O   UNL A   1      45.652  23.622  24.107  1.00  0.00    -0.744 OA
ENDBRANCH  73  74
ENDBRANCH  52  66
BRANCH  53  78
ATOM     78  C   UNL A   1      40.121  31.641  35.608  1.00  0.00     0.058 A 
ATOM     79  C   UNL A   1      38.907  31.333  36.237  1.00  0.00     0.135 A 
ATOM     80  C   UNL A   1      40.868  32.715  36.121  1.00  0.00     0.135 A 
ATOM     81  F   UNL A   1      38.148  30.327  35.775  1.00  0.00    -0.206 F 
ATOM     82  C   UNL A   1      38.455  32.049  37.342  1.00  0.00     0.059 A 
ATOM     83  C   UNL A   1      40.450  33.430  37.239  1.00  0.00     0.059 A 
ATOM     84  F   UNL A   1      42.039  33.049  35.558  1.00  0.00    -0.206 F 
ATOM     85  C   UNL A   1      39.243  33.086  37.845  1.00  0.00     0.060 A 
BRANCH  85  86
ATOM     86  S   UNL A   1      38.699  33.934  39.344  1.00  0.00     0.124 S 
ATOM     87  O   UNL A   1      37.387  33.337  39.563  1.00  0.00    -0.237 OA
ATOM     88  O   UNL A   1      39.738  33.558  40.299  1.00  0.00    -0.237 OA
ATOM     89  O   UNL A   1      38.696  35.341  38.955  1.00  0.00    -0.744 OA
ENDBRANCH  85  86
ENDBRANCH  53  78
BRANCH  65  90
ATOM     90  C   UNL A   1      45.230  26.884  34.951  1.00  0.00     0.058 A 
ATOM     91  C   UNL A   1      46.414  27.599  35.188  1.00  0.00     0.135 A 
ATOM     92  C   UNL A   1      45.011  25.714  35.698  1.00  0.00     0.135 A 
ATOM     93  F   UNL A   1      46.677  28.720  34.498  1.00  0.00    -0.206 F 
ATOM     94  C   UNL A   1      47.346  27.168  36.128  1.00  0.00     0.059 A 
ATOM     95  C   UNL A   1      45.914  25.281  36.663  1.00  0.00     0.059 A 
ATOM     96  F   UNL A   1      43.890  24.997  35.518  1.00  0.00    -0.206 F 
ATOM     97  C   UNL A   1      47.082  26.013  36.868  1.00  0.00     0.060 A 
BRANCH  97  98
ATOM     98  S   UNL A   1      48.267  25.502  38.130  1.00  0.00     0.124 S 
ATOM     99  O   UNL A   1      49.303  26.520  37.993  1.00  0.00    -0.237 OA
ATOM    100  O   UNL A   1      47.469  25.570  39.351  1.00  0.00    -0.237 OA
ATOM    101  O   UNL A   1      48.652  24.156  37.714  1.00  0.00    -0.744 OA
ENDBRANCH  97  98
ENDBRANCH  65  90
ENDBRANCH  39  40
ENDBRANCH  32  34
ENDBRANCH  31  32
ENDBRANCH  30  31
ENDBRANCH  29  30
ENDBRANCH  28  29
ENDBRANCH  27  28
ENDBRANCH   1  27
TORSDOF 24
ENDMDL
