MODEL 1
REMARK VINA RESULT:      -6.5      0.000      0.000
REMARK SMILES C[C@@H]([NH3+])CCC(=O)N[C@H]1C=C[C@@H](C(=O)OCCOCCOCCOCCOC(=O)c2ccc(-c3c4nc(c(-c5c(F)cc(S(=O)(=O)[O-])cc5F)c5ccc([nH]5)c(-c5c(F)cc(S(=O)(=O)[O-])cc5F)c5nc(c(-c6c(F)cc(S(=O)(=O)[O-])cc6F)c6ccc3[nH]6)C=C5)C=C4)cc2)C1
REMARK SMILES IDX 20 1 19 2 18 3 17 4 16 5 15 6 13 7 14 8 12 9 9 10 10 11
REMARK SMILES IDX 96 12 11 13 8 14 6 15 7 16 5 18 4 19 2 20 1 21 3 22 21 26
REMARK SMILES IDX 22 27 23 28 24 29 25 30 26 31 27 32 28 33 29 34 30 35 31 36
REMARK SMILES IDX 95 37 32 38 94 39 33 40 34 41 35 42 88 43 36 44 93 45 87 46
REMARK SMILES IDX 89 47 37 48 92 49 86 50 85 51 38 53 72 54 51 55 71 56 52 57
REMARK SMILES IDX 55 58 70 59 90 60 53 61 54 62 69 64 91 65 56 66 39 67 40 68
REMARK SMILES IDX 49 69 41 70 42 71 48 72 50 73 43 74 44 75 45 76 46 77 47 78
REMARK SMILES IDX 73 79 74 80 83 81 75 82 76 83 82 84 84 85 77 86 78 87 79 88
REMARK SMILES IDX 80 89 81 90 57 91 58 92 67 93 59 94 60 95 66 96 68 97 61 98
REMARK SMILES IDX 62 99 63 100 64 101 65 102
REMARK H PARENT 8 17 3 23 3 24 3 25 89 52 55 63
REMARK Flexibility Score: inf
ROOT
ATOM      1  C   UNL A   1      43.952  37.933  32.068  1.00  0.00     0.188 C 
ENDROOT
BRANCH   1   2
ATOM      2  C   UNL A   1      44.231  36.904  33.173  1.00  0.00     0.188 C 
BRANCH   2   3
ATOM      3  O   UNL A   1      43.351  36.813  34.292  1.00  0.00    -0.376 OA
BRANCH   3   4
ATOM      4  C   UNL A   1      42.103  36.154  34.138  1.00  0.00     0.202 C 
BRANCH   4   5
ATOM      5  C   UNL A   1      42.008  34.673  34.526  1.00  0.00     0.261 C 
BRANCH   5   6
ATOM      6  O   UNL A   1      43.089  33.778  34.119  1.00  0.00    -0.463 OA
BRANCH   6   7
ATOM      7  C   UNL A   1      42.702  32.504  33.837  1.00  0.00     0.312 C 
ATOM      8  O   UNL A   1      43.028  31.924  32.800  1.00  0.00    -0.252 OA
BRANCH   7   9
ATOM      9  C   UNL A   1      41.741  31.809  34.835  1.00  0.00     0.124 C 
ATOM     10  C   UNL A   1      41.181  29.543  35.717  1.00  0.00     0.106 C 
ATOM     11  C   UNL A   1      42.339  30.124  36.433  1.00  0.00    -0.006 C 
ATOM     12  C   UNL A   1      40.875  30.552  34.559  1.00  0.00     0.048 C 
ATOM     13  C   UNL A   1      42.582  31.375  36.016  1.00  0.00    -0.014 C 
BRANCH  10  14
ATOM     14  N   UNL A   1      41.160  28.069  35.601  1.00  0.00    -0.350 N 
ATOM     15  C   UNL A   1      41.655  26.940  35.046  1.00  0.00     0.220 C 
ATOM     16  O   UNL A   1      41.138  25.914  35.522  1.00  0.00    -0.275 OA
ATOM     17  H   UNL A   1      40.457  27.768  36.220  1.00  0.00     0.164 HD
BRANCH  15  18
ATOM     18  C   UNL A   1      42.753  26.730  34.011  1.00  0.00     0.106 C 
BRANCH  18  19
ATOM     19  C   UNL A   1      43.834  27.791  33.953  1.00  0.00     0.074 C 
BRANCH  19  20
ATOM     20  C   UNL A   1      44.388  27.855  32.558  1.00  0.00     0.178 C 
ATOM     21  C   UNL A   1      43.620  27.008  31.554  1.00  0.00     0.075 C 
BRANCH  20  22
ATOM     22  N   UNL A   1      44.535  29.240  32.185  1.00  0.00    -0.355 N 
ATOM     23  H   UNL A   1      43.660  29.734  32.361  1.00  0.00     0.344 HD
ATOM     24  H   UNL A   1      44.767  29.302  31.194  1.00  0.00     0.344 HD
ATOM     25  H   UNL A   1      45.282  29.663  32.735  1.00  0.00     0.344 HD
ENDBRANCH  20  22
ENDBRANCH  19  20
ENDBRANCH  18  19
ENDBRANCH  15  18
ENDBRANCH  10  14
ENDBRANCH   7   9
ENDBRANCH   6   7
ENDBRANCH   5   6
ENDBRANCH   4   5
ENDBRANCH   3   4
ENDBRANCH   2   3
ENDBRANCH   1   2
BRANCH   1  26
ATOM     26  O   UNL A   1      44.386  39.213  32.464  1.00  0.00    -0.377 OA
BRANCH  26  27
ATOM     27  C   UNL A   1      45.444  39.355  33.386  1.00  0.00     0.188 C 
BRANCH  27  28
ATOM     28  C   UNL A   1      46.780  38.829  32.864  1.00  0.00     0.188 C 
BRANCH  28  29
ATOM     29  O   UNL A   1      47.223  39.521  31.701  1.00  0.00    -0.376 OA
BRANCH  29  30
ATOM     30  C   UNL A   1      46.956  38.923  30.436  1.00  0.00     0.202 C 
BRANCH  30  31
ATOM     31  C   UNL A   1      47.157  37.402  30.288  1.00  0.00     0.261 C 
BRANCH  31  32
ATOM     32  O   UNL A   1      48.503  36.892  30.351  1.00  0.00    -0.460 OA
BRANCH  32  33
ATOM     33  C   UNL A   1      48.991  36.211  29.299  1.00  0.00     0.338 C 
ATOM     34  O   UNL A   1      50.030  36.434  28.695  1.00  0.00    -0.246 OA
BRANCH  33  35
ATOM     35  C   UNL A   1      48.144  35.025  29.080  1.00  0.00     0.060 A 
ATOM     36  C   UNL A   1      47.994  34.094  30.117  1.00  0.00     0.016 A 
ATOM     37  C   UNL A   1      47.551  34.800  27.837  1.00  0.00     0.016 A 
ATOM     38  C   UNL A   1      47.292  32.910  29.897  1.00  0.00     0.010 A 
ATOM     39  C   UNL A   1      46.863  33.604  27.612  1.00  0.00     0.010 A 
ATOM     40  C   UNL A   1      46.767  32.635  28.627  1.00  0.00    -0.014 A 
BRANCH  40  41
ATOM     41  C   UNL A   1      46.305  31.261  28.306  1.00  0.00     0.031 A 
ATOM     42  C   UNL A   1      44.858  30.921  28.550  1.00  0.00     0.074 A 
ATOM     43  C   UNL A   1      47.140  30.342  27.788  1.00  0.00     0.049 A 
ATOM     44  N   UNL A   1      44.235  29.781  28.402  1.00  0.00    -0.248 NA
ATOM     45  C   UNL A   1      43.996  32.017  29.027  1.00  0.00     0.031 C 
ATOM     46  C   UNL A   1      48.546  30.569  27.455  1.00  0.00     0.029 A 
ATOM     47  N   UNL A   1      46.924  29.028  27.457  1.00  0.00    -0.354 N 
ATOM     48  C   UNL A   1      42.918  30.016  28.786  1.00  0.00     0.074 A 
ATOM     49  C   UNL A   1      42.834  31.401  29.188  1.00  0.00     0.031 C 
ATOM     50  C   UNL A   1      49.070  29.427  26.977  1.00  0.00     0.029 A 
ATOM     51  C   UNL A   1      48.050  28.379  27.006  1.00  0.00     0.049 A 
ATOM     52  H   UNL A   1      46.046  28.590  27.536  1.00  0.00     0.167 HD
ATOM     53  C   UNL A   1      41.877  29.152  28.800  1.00  0.00     0.037 A 
ATOM     54  C   UNL A   1      48.237  27.083  26.681  1.00  0.00     0.037 A 
ATOM     55  C   UNL A   1      41.967  27.777  28.385  1.00  0.00     0.049 A 
ATOM     56  C   UNL A   1      47.075  26.124  26.778  1.00  0.00     0.074 A 
ATOM     57  C   UNL A   1      40.959  26.830  28.326  1.00  0.00     0.029 A 
ATOM     58  N   UNL A   1      43.131  27.148  27.970  1.00  0.00    -0.354 N 
ATOM     59  N   UNL A   1      45.828  26.366  27.111  1.00  0.00    -0.248 NA
ATOM     60  C   UNL A   1      47.344  24.715  26.457  1.00  0.00     0.031 C 
ATOM     61  C   UNL A   1      41.527  25.612  27.941  1.00  0.00     0.029 A 
ATOM     62  C   UNL A   1      42.875  25.816  27.691  1.00  0.00     0.049 A 
ATOM     63  H   UNL A   1      44.010  27.584  27.886  1.00  0.00     0.167 HD
ATOM     64  C   UNL A   1      45.160  25.148  27.000  1.00  0.00     0.074 A 
ATOM     65  C   UNL A   1      46.139  24.176  26.563  1.00  0.00     0.031 C 
ATOM     66  C   UNL A   1      43.856  24.862  27.238  1.00  0.00     0.037 A 
BRANCH  53  67
ATOM     67  C   UNL A   1      40.554  29.648  29.316  1.00  0.00     0.058 A 
ATOM     68  C   UNL A   1      39.457  29.871  28.469  1.00  0.00     0.135 A 
ATOM     69  C   UNL A   1      40.366  29.845  30.695  1.00  0.00     0.135 A 
ATOM     70  F   UNL A   1      39.585  29.720  27.142  1.00  0.00    -0.206 F 
ATOM     71  C   UNL A   1      38.224  30.283  28.969  1.00  0.00     0.059 A 
ATOM     72  C   UNL A   1      39.135  30.228  31.219  1.00  0.00     0.059 A 
ATOM     73  F   UNL A   1      41.384  29.653  31.549  1.00  0.00    -0.206 F 
ATOM     74  C   UNL A   1      38.072  30.452  30.347  1.00  0.00     0.060 A 
BRANCH  74  75
ATOM     75  S   UNL A   1      36.459  30.954  30.982  1.00  0.00     0.124 S 
ATOM     76  O   UNL A   1      35.676  31.040  29.753  1.00  0.00    -0.237 OA
ATOM     77  O   UNL A   1      36.120  29.850  31.874  1.00  0.00    -0.237 OA
ATOM     78  O   UNL A   1      36.731  32.228  31.641  1.00  0.00    -0.744 OA
ENDBRANCH  74  75
ENDBRANCH  53  67
BRANCH  54  79
ATOM     79  C   UNL A   1      49.578  26.598  26.249  1.00  0.00     0.058 A 
ATOM     80  C   UNL A   1      50.464  26.007  27.164  1.00  0.00     0.135 A 
ATOM     81  C   UNL A   1      50.017  26.750  24.925  1.00  0.00     0.135 A 
ATOM     82  F   UNL A   1      50.100  25.852  28.445  1.00  0.00    -0.206 F 
ATOM     83  C   UNL A   1      51.745  25.611  26.789  1.00  0.00     0.059 A 
ATOM     84  C   UNL A   1      51.281  26.332  24.518  1.00  0.00     0.059 A 
ATOM     85  F   UNL A   1      49.209  27.303  24.006  1.00  0.00    -0.206 F 
ATOM     86  C   UNL A   1      52.144  25.777  25.462  1.00  0.00     0.060 A 
BRANCH  86  87
ATOM     87  S   UNL A   1      53.799  25.238  24.981  1.00  0.00     0.124 S 
ATOM     88  O   UNL A   1      54.588  25.638  26.141  1.00  0.00    -0.237 OA
ATOM     89  O   UNL A   1      53.612  23.802  24.800  1.00  0.00    -0.237 OA
ATOM     90  O   UNL A   1      54.054  25.989  23.756  1.00  0.00    -0.744 OA
ENDBRANCH  86  87
ENDBRANCH  54  79
BRANCH  66  91
ATOM     91  C   UNL A   1      43.389  23.453  26.981  1.00  0.00     0.058 A 
ATOM     92  C   UNL A   1      43.191  22.959  25.683  1.00  0.00     0.135 A 
ATOM     93  C   UNL A   1      43.197  22.565  28.054  1.00  0.00     0.135 A 
ATOM     94  F   UNL A   1      43.355  23.764  24.621  1.00  0.00    -0.206 F 
ATOM     95  C   UNL A   1      42.794  21.644  25.457  1.00  0.00     0.059 A 
ATOM     96  C   UNL A   1      42.834  21.238  27.851  1.00  0.00     0.059 A 
ATOM     97  F   UNL A   1      43.384  22.980  29.317  1.00  0.00    -0.206 F 
ATOM     98  C   UNL A   1      42.623  20.789  26.549  1.00  0.00     0.060 A 
BRANCH  98  99
ATOM     99  S   UNL A   1      42.145  19.077  26.239  1.00  0.00     0.124 S 
ATOM    100  O   UNL A   1      40.736  19.221  25.892  1.00  0.00    -0.237 OA
ATOM    101  O   UNL A   1      43.033  18.698  25.143  1.00  0.00    -0.237 OA
ATOM    102  O   UNL A   1      42.412  18.412  27.512  1.00  0.00    -0.744 OA
ENDBRANCH  98  99
ENDBRANCH  66  91
ENDBRANCH  40  41
ENDBRANCH  33  35
ENDBRANCH  32  33
ENDBRANCH  31  32
ENDBRANCH  30  31
ENDBRANCH  29  30
ENDBRANCH  28  29
ENDBRANCH  27  28
ENDBRANCH  26  27
ENDBRANCH   1  26
TORSDOF 28
ENDMDL
MODEL 2
REMARK VINA RESULT:      -6.2      5.495     10.281
REMARK SMILES C[C@@H]([NH3+])CCC(=O)N[C@H]1C=C[C@@H](C(=O)OCCOCCOCCOCCOC(=O)c2ccc(-c3c4nc(c(-c5c(F)cc(S(=O)(=O)[O-])cc5F)c5ccc([nH]5)c(-c5c(F)cc(S(=O)(=O)[O-])cc5F)c5nc(c(-c6c(F)cc(S(=O)(=O)[O-])cc6F)c6ccc3[nH]6)C=C5)C=C4)cc2)C1
REMARK SMILES IDX 20 1 19 2 18 3 17 4 16 5 15 6 13 7 14 8 12 9 9 10 10 11
REMARK SMILES IDX 96 12 11 13 8 14 6 15 7 16 5 18 4 19 2 20 1 21 3 22 21 26
REMARK SMILES IDX 22 27 23 28 24 29 25 30 26 31 27 32 28 33 29 34 30 35 31 36
REMARK SMILES IDX 95 37 32 38 94 39 33 40 34 41 35 42 88 43 36 44 93 45 87 46
REMARK SMILES IDX 89 47 37 48 92 49 86 50 85 51 38 53 72 54 51 55 71 56 52 57
REMARK SMILES IDX 55 58 70 59 90 60 53 61 54 62 69 64 91 65 56 66 39 67 40 68
REMARK SMILES IDX 49 69 41 70 42 71 48 72 50 73 43 74 44 75 45 76 46 77 47 78
REMARK SMILES IDX 73 79 74 80 83 81 75 82 76 83 82 84 84 85 77 86 78 87 79 88
REMARK SMILES IDX 80 89 81 90 57 91 58 92 67 93 59 94 60 95 66 96 68 97 61 98
REMARK SMILES IDX 62 99 63 100 64 101 65 102
REMARK H PARENT 8 17 3 23 3 24 3 25 89 52 55 63
REMARK Flexibility Score: inf
ROOT
ATOM      1  C   UNL A   1      39.859  28.895  32.503  1.00  0.00     0.188 C 
ENDROOT
BRANCH   1   2
ATOM      2  C   UNL A   1      40.810  28.395  31.405  1.00  0.00     0.188 C 
BRANCH   2   3
ATOM      3  O   UNL A   1      40.397  28.436  30.040  1.00  0.00    -0.376 OA
BRANCH   3   4
ATOM      4  C   UNL A   1      39.075  28.852  29.731  1.00  0.00     0.202 C 
BRANCH   4   5
ATOM      5  C   UNL A   1      38.885  29.957  28.685  1.00  0.00     0.261 C 
BRANCH   5   6
ATOM      6  O   UNL A   1      38.322  31.234  29.118  1.00  0.00    -0.463 OA
BRANCH   6   7
ATOM      7  C   UNL A   1      36.968  31.245  29.256  1.00  0.00     0.312 C 
ATOM      8  O   UNL A   1      36.412  31.389  30.346  1.00  0.00    -0.252 OA
BRANCH   7   9
ATOM      9  C   UNL A   1      36.116  30.979  27.989  1.00  0.00     0.124 C 
ATOM     10  C   UNL A   1      33.904  30.042  27.310  1.00  0.00     0.106 C 
ATOM     11  C   UNL A   1      33.780  31.455  27.731  1.00  0.00    -0.006 C 
ATOM     12  C   UNL A   1      35.390  29.657  27.626  1.00  0.00     0.048 C 
ATOM     13  C   UNL A   1      34.981  31.981  28.011  1.00  0.00    -0.014 C 
BRANCH  10  14
ATOM     14  N   UNL A   1      32.724  29.184  27.552  1.00  0.00    -0.350 N 
ATOM     15  C   UNL A   1      32.010  28.078  27.248  1.00  0.00     0.220 C 
ATOM     16  O   UNL A   1      31.024  27.933  27.993  1.00  0.00    -0.275 OA
ATOM     17  H   UNL A   1      32.224  29.626  28.276  1.00  0.00     0.164 HD
BRANCH  15  18
ATOM     18  C   UNL A   1      32.248  26.984  26.214  1.00  0.00     0.106 C 
BRANCH  18  19
ATOM     19  C   UNL A   1      31.098  26.690  25.271  1.00  0.00     0.074 C 
BRANCH  19  20
ATOM     20  C   UNL A   1      31.555  26.901  23.855  1.00  0.00     0.178 C 
ATOM     21  C   UNL A   1      31.217  28.278  23.301  1.00  0.00     0.075 C 
BRANCH  20  22
ATOM     22  N   UNL A   1      32.950  26.546  23.765  1.00  0.00    -0.355 N 
ATOM     23  H   UNL A   1      33.419  26.787  24.638  1.00  0.00     0.344 HD
ATOM     24  H   UNL A   1      33.381  27.056  22.995  1.00  0.00     0.344 HD
ATOM     25  H   UNL A   1      33.035  25.543  23.598  1.00  0.00     0.344 HD
ENDBRANCH  20  22
ENDBRANCH  19  20
ENDBRANCH  18  19
ENDBRANCH  15  18
ENDBRANCH  10  14
ENDBRANCH   7   9
ENDBRANCH   6   7
ENDBRANCH   5   6
ENDBRANCH   4   5
ENDBRANCH   3   4
ENDBRANCH   2   3
ENDBRANCH   1   2
BRANCH   1  26
ATOM     26  O   UNL A   1      40.268  28.422  33.764  1.00  0.00    -0.377 OA
BRANCH  26  27
ATOM     27  C   UNL A   1      41.475  27.704  33.901  1.00  0.00     0.188 C 
BRANCH  27  28
ATOM     28  C   UNL A   1      41.618  27.009  35.255  1.00  0.00     0.188 C 
BRANCH  28  29
ATOM     29  O   UNL A   1      41.576  25.590  35.148  1.00  0.00    -0.376 OA
BRANCH  29  30
ATOM     30  C   UNL A   1      41.913  24.831  36.306  1.00  0.00     0.202 C 
BRANCH  30  31
ATOM     31  C   UNL A   1      43.389  24.440  36.521  1.00  0.00     0.261 C 
BRANCH  31  32
ATOM     32  O   UNL A   1      44.114  25.108  37.571  1.00  0.00    -0.460 OA
BRANCH  32  33
ATOM     33  C   UNL A   1      45.293  24.601  37.974  1.00  0.00     0.338 C 
ATOM     34  O   UNL A   1      45.504  23.930  38.974  1.00  0.00    -0.246 OA
BRANCH  33  35
ATOM     35  C   UNL A   1      46.289  24.843  36.915  1.00  0.00     0.060 A 
ATOM     36  C   UNL A   1      46.579  26.162  36.541  1.00  0.00     0.016 A 
ATOM     37  C   UNL A   1      46.888  23.772  36.250  1.00  0.00     0.016 A 
ATOM     38  C   UNL A   1      47.432  26.413  35.466  1.00  0.00     0.010 A 
ATOM     39  C   UNL A   1      47.728  24.024  35.161  1.00  0.00     0.010 A 
ATOM     40  C   UNL A   1      47.969  25.344  34.738  1.00  0.00    -0.014 A 
BRANCH  40  41
ATOM     41  C   UNL A   1      48.607  25.600  33.422  1.00  0.00     0.031 A 
ATOM     42  C   UNL A   1      47.726  25.647  32.200  1.00  0.00     0.074 A 
ATOM     43  C   UNL A   1      49.932  25.808  33.312  1.00  0.00     0.049 A 
ATOM     44  N   UNL A   1      48.054  25.798  30.944  1.00  0.00    -0.248 NA
ATOM     45  C   UNL A   1      46.278  25.505  32.428  1.00  0.00     0.031 C 
ATOM     46  C   UNL A   1      50.878  25.842  34.426  1.00  0.00     0.029 A 
ATOM     47  N   UNL A   1      50.711  26.025  32.203  1.00  0.00    -0.354 N 
ATOM     48  C   UNL A   1      46.860  25.747  30.231  1.00  0.00     0.074 A 
ATOM     49  C   UNL A   1      45.801  25.537  31.192  1.00  0.00     0.031 C 
ATOM     50  C   UNL A   1      52.113  26.057  33.942  1.00  0.00     0.029 A 
ATOM     51  C   UNL A   1      52.053  26.135  32.483  1.00  0.00     0.049 A 
ATOM     52  H   UNL A   1      50.344  26.094  31.292  1.00  0.00     0.167 HD
ATOM     53  C   UNL A   1      46.668  25.867  28.897  1.00  0.00     0.037 A 
ATOM     54  C   UNL A   1      53.108  26.258  31.652  1.00  0.00     0.037 A 
ATOM     55  C   UNL A   1      47.728  26.090  27.949  1.00  0.00     0.049 A 
ATOM     56  C   UNL A   1      52.871  26.314  30.162  1.00  0.00     0.074 A 
ATOM     57  C   UNL A   1      47.631  26.262  26.579  1.00  0.00     0.029 A 
ATOM     58  N   UNL A   1      49.075  26.159  28.267  1.00  0.00    -0.354 N 
ATOM     59  N   UNL A   1      51.735  26.298  29.504  1.00  0.00    -0.248 NA
ATOM     60  C   UNL A   1      54.059  26.401  29.300  1.00  0.00     0.031 C 
ATOM     61  C   UNL A   1      48.925  26.368  26.061  1.00  0.00     0.029 A 
ATOM     62  C   UNL A   1      49.824  26.332  27.115  1.00  0.00     0.049 A 
ATOM     63  H   UNL A   1      49.445  26.094  29.177  1.00  0.00     0.167 HD
ATOM     64  C   UNL A   1      52.072  26.414  28.157  1.00  0.00     0.074 A 
ATOM     65  C   UNL A   1      53.515  26.506  28.096  1.00  0.00     0.031 C 
ATOM     66  C   UNL A   1      51.261  26.442  27.071  1.00  0.00     0.037 A 
BRANCH  53  67
ATOM     67  C   UNL A   1      45.267  25.720  28.369  1.00  0.00     0.058 A 
ATOM     68  C   UNL A   1      44.736  24.476  27.994  1.00  0.00     0.135 A 
ATOM     69  C   UNL A   1      44.421  26.840  28.298  1.00  0.00     0.135 A 
ATOM     70  F   UNL A   1      45.504  23.376  28.022  1.00  0.00    -0.206 F 
ATOM     71  C   UNL A   1      43.421  24.349  27.555  1.00  0.00     0.059 A 
ATOM     72  C   UNL A   1      43.095  26.732  27.890  1.00  0.00     0.059 A 
ATOM     73  F   UNL A   1      44.880  28.054  28.638  1.00  0.00    -0.206 F 
ATOM     74  C   UNL A   1      42.607  25.483  27.512  1.00  0.00     0.060 A 
BRANCH  74  75
ATOM     75  S   UNL A   1      40.895  25.296  26.972  1.00  0.00     0.124 S 
ATOM     76  O   UNL A   1      40.869  23.895  26.563  1.00  0.00    -0.237 OA
ATOM     77  O   UNL A   1      40.150  25.615  28.186  1.00  0.00    -0.237 OA
ATOM     78  O   UNL A   1      40.769  26.267  25.890  1.00  0.00    -0.744 OA
ENDBRANCH  74  75
ENDBRANCH  53  67
BRANCH  54  79
ATOM     79  C   UNL A   1      54.495  26.321  32.195  1.00  0.00     0.058 A 
ATOM     80  C   UNL A   1      55.231  25.151  32.437  1.00  0.00     0.135 A 
ATOM     81  C   UNL A   1      55.096  27.547  32.520  1.00  0.00     0.135 A 
ATOM     82  F   UNL A   1      54.697  23.953  32.158  1.00  0.00    -0.206 F 
ATOM     83  C   UNL A   1      56.501  25.192  33.007  1.00  0.00     0.059 A 
ATOM     84  C   UNL A   1      56.377  27.616  33.061  1.00  0.00     0.059 A 
ATOM     85  F   UNL A   1      54.440  28.698  32.304  1.00  0.00    -0.206 F 
ATOM     86  C   UNL A   1      57.066  26.430  33.314  1.00  0.00     0.060 A 
BRANCH  86  87
ATOM     87  S   UNL A   1      58.723  26.472  34.031  1.00  0.00     0.124 S 
ATOM     88  O   UNL A   1      58.857  25.113  34.543  1.00  0.00    -0.237 OA
ATOM     89  O   UNL A   1      59.548  26.803  32.874  1.00  0.00    -0.237 OA
ATOM     90  O   UNL A   1      58.625  27.520  35.043  1.00  0.00    -0.744 OA
ENDBRANCH  86  87
ENDBRANCH  54  79
BRANCH  66  91
ATOM     91  C   UNL A   1      51.903  26.632  25.721  1.00  0.00     0.058 A 
ATOM     92  C   UNL A   1      52.538  25.579  25.044  1.00  0.00     0.135 A 
ATOM     93  C   UNL A   1      51.825  27.875  25.069  1.00  0.00     0.135 A 
ATOM     94  F   UNL A   1      52.645  24.372  25.621  1.00  0.00    -0.206 F 
ATOM     95  C   UNL A   1      53.096  25.759  23.782  1.00  0.00     0.059 A 
ATOM     96  C   UNL A   1      52.345  28.068  23.794  1.00  0.00     0.059 A 
ATOM     97  F   UNL A   1      51.218  28.914  25.666  1.00  0.00    -0.206 F 
ATOM     98  C   UNL A   1      52.990  27.006  23.162  1.00  0.00     0.060 A 
BRANCH  98  99
ATOM     99  S   UNL A   1      53.685  27.213  21.510  1.00  0.00     0.124 S 
ATOM    100  O   UNL A   1      52.833  26.332  20.718  1.00  0.00    -0.237 OA
ATOM    101  O   UNL A   1      53.511  28.643  21.275  1.00  0.00    -0.237 OA
ATOM    102  O   UNL A   1      55.070  26.773  21.664  1.00  0.00    -0.744 OA
ENDBRANCH  98  99
ENDBRANCH  66  91
ENDBRANCH  40  41
ENDBRANCH  33  35
ENDBRANCH  32  33
ENDBRANCH  31  32
ENDBRANCH  30  31
ENDBRANCH  29  30
ENDBRANCH  28  29
ENDBRANCH  27  28
ENDBRANCH  26  27
ENDBRANCH   1  26
TORSDOF 28
ENDMDL
MODEL 3
REMARK VINA RESULT:      -6.1      6.675     14.803
REMARK SMILES C[C@@H]([NH3+])CCC(=O)N[C@H]1C=C[C@@H](C(=O)OCCOCCOCCOCCOC(=O)c2ccc(-c3c4nc(c(-c5c(F)cc(S(=O)(=O)[O-])cc5F)c5ccc([nH]5)c(-c5c(F)cc(S(=O)(=O)[O-])cc5F)c5nc(c(-c6c(F)cc(S(=O)(=O)[O-])cc6F)c6ccc3[nH]6)C=C5)C=C4)cc2)C1
REMARK SMILES IDX 20 1 19 2 18 3 17 4 16 5 15 6 13 7 14 8 12 9 9 10 10 11
REMARK SMILES IDX 96 12 11 13 8 14 6 15 7 16 5 18 4 19 2 20 1 21 3 22 21 26
REMARK SMILES IDX 22 27 23 28 24 29 25 30 26 31 27 32 28 33 29 34 30 35 31 36
REMARK SMILES IDX 95 37 32 38 94 39 33 40 34 41 35 42 88 43 36 44 93 45 87 46
REMARK SMILES IDX 89 47 37 48 92 49 86 50 85 51 38 53 72 54 51 55 71 56 52 57
REMARK SMILES IDX 55 58 70 59 90 60 53 61 54 62 69 64 91 65 56 66 39 67 40 68
REMARK SMILES IDX 49 69 41 70 42 71 48 72 50 73 43 74 44 75 45 76 46 77 47 78
REMARK SMILES IDX 73 79 74 80 83 81 75 82 76 83 82 84 84 85 77 86 78 87 79 88
REMARK SMILES IDX 80 89 81 90 57 91 58 92 67 93 59 94 60 95 66 96 68 97 61 98
REMARK SMILES IDX 62 99 63 100 64 101 65 102
REMARK H PARENT 8 17 3 23 3 24 3 25 89 52 55 63
REMARK Flexibility Score: inf
ROOT
ATOM      1  C   UNL A   1      37.798  29.335  29.648  1.00  0.00     0.188 C 
ENDROOT
BRANCH   1   2
ATOM      2  C   UNL A   1      36.880  29.848  28.529  1.00  0.00     0.188 C 
BRANCH   2   3
ATOM      3  O   UNL A   1      35.535  29.380  28.447  1.00  0.00    -0.376 OA
BRANCH   3   4
ATOM      4  C   UNL A   1      34.862  29.427  27.198  1.00  0.00     0.202 C 
BRANCH   4   5
ATOM      5  C   UNL A   1      33.476  28.779  27.092  1.00  0.00     0.261 C 
BRANCH   5   6
ATOM      6  O   UNL A   1      33.269  27.744  26.081  1.00  0.00    -0.463 OA
BRANCH   6   7
ATOM      7  C   UNL A   1      32.395  28.077  25.092  1.00  0.00     0.312 C 
ATOM      8  O   UNL A   1      32.397  29.182  24.548  1.00  0.00    -0.252 OA
BRANCH   7   9
ATOM      9  C   UNL A   1      31.310  27.037  24.715  1.00  0.00     0.124 C 
ATOM     10  C   UNL A   1      30.839  24.591  24.876  1.00  0.00     0.106 C 
ATOM     11  C   UNL A   1      30.475  25.289  26.130  1.00  0.00    -0.006 C 
ATOM     12  C   UNL A   1      31.539  25.682  23.997  1.00  0.00     0.048 C 
ATOM     13  C   UNL A   1      30.647  26.613  26.009  1.00  0.00    -0.014 C 
BRANCH  10  14
ATOM     14  N   UNL A   1      31.280  23.187  25.018  1.00  0.00    -0.350 N 
ATOM     15  C   UNL A   1      32.284  22.293  25.158  1.00  0.00     0.220 C 
ATOM     16  O   UNL A   1      31.865  21.129  25.294  1.00  0.00    -0.275 OA
ATOM     17  H   UNL A   1      30.454  22.651  25.006  1.00  0.00     0.164 HD
BRANCH  15  18
ATOM     18  C   UNL A   1      33.793  22.485  25.239  1.00  0.00     0.106 C 
BRANCH  18  19
ATOM     19  C   UNL A   1      34.572  21.395  25.949  1.00  0.00     0.074 C 
BRANCH  19  20
ATOM     20  C   UNL A   1      35.149  20.456  24.928  1.00  0.00     0.178 C 
ATOM     21  C   UNL A   1      36.664  20.327  24.999  1.00  0.00     0.075 C 
BRANCH  20  22
ATOM     22  N   UNL A   1      34.437  19.204  25.002  1.00  0.00    -0.355 N 
ATOM     23  H   UNL A   1      33.476  19.340  24.687  1.00  0.00     0.344 HD
ATOM     24  H   UNL A   1      34.435  18.871  25.965  1.00  0.00     0.344 HD
ATOM     25  H   UNL A   1      34.897  18.516  24.405  1.00  0.00     0.344 HD
ENDBRANCH  20  22
ENDBRANCH  19  20
ENDBRANCH  18  19
ENDBRANCH  15  18
ENDBRANCH  10  14
ENDBRANCH   7   9
ENDBRANCH   6   7
ENDBRANCH   5   6
ENDBRANCH   4   5
ENDBRANCH   3   4
ENDBRANCH   2   3
ENDBRANCH   1   2
BRANCH   1  26
ATOM     26  O   UNL A   1      38.858  28.580  29.111  1.00  0.00    -0.377 OA
BRANCH  26  27
ATOM     27  C   UNL A   1      39.283  28.789  27.782  1.00  0.00     0.188 C 
BRANCH  27  28
ATOM     28  C   UNL A   1      40.599  28.089  27.448  1.00  0.00     0.188 C 
BRANCH  28  29
ATOM     29  O   UNL A   1      40.435  27.037  26.503  1.00  0.00    -0.376 OA
BRANCH  29  30
ATOM     30  C   UNL A   1      40.861  25.733  26.886  1.00  0.00     0.202 C 
BRANCH  30  31
ATOM     31  C   UNL A   1      41.551  25.562  28.254  1.00  0.00     0.261 C 
BRANCH  31  32
ATOM     32  O   UNL A   1      42.975  25.347  28.266  1.00  0.00    -0.460 OA
BRANCH  32  33
ATOM     33  C   UNL A   1      43.795  26.400  28.091  1.00  0.00     0.338 C 
ATOM     34  O   UNL A   1      44.318  26.761  27.047  1.00  0.00    -0.246 OA
BRANCH  33  35
ATOM     35  C   UNL A   1      43.838  27.168  29.348  1.00  0.00     0.060 A 
ATOM     36  C   UNL A   1      43.343  26.583  30.522  1.00  0.00     0.016 A 
ATOM     37  C   UNL A   1      44.309  28.482  29.357  1.00  0.00     0.016 A 
ATOM     38  C   UNL A   1      43.269  27.330  31.697  1.00  0.00     0.010 A 
ATOM     39  C   UNL A   1      44.217  29.235  30.532  1.00  0.00     0.010 A 
ATOM     40  C   UNL A   1      43.657  28.676  31.695  1.00  0.00    -0.014 A 
BRANCH  40  41
ATOM     41  C   UNL A   1      43.288  29.549  32.838  1.00  0.00     0.031 A 
ATOM     42  C   UNL A   1      44.227  29.614  34.015  1.00  0.00     0.074 A 
ATOM     43  C   UNL A   1      42.162  30.283  32.826  1.00  0.00     0.049 A 
ATOM     44  N   UNL A   1      44.097  30.255  35.147  1.00  0.00    -0.248 NA
ATOM     45  C   UNL A   1      45.482  28.851  33.899  1.00  0.00     0.031 C 
ATOM     46  C   UNL A   1      41.205  30.347  31.722  1.00  0.00     0.029 A 
ATOM     47  N   UNL A   1      41.630  31.114  33.780  1.00  0.00    -0.354 N 
ATOM     48  C   UNL A   1      45.239  29.957  35.885  1.00  0.00     0.074 A 
ATOM     49  C   UNL A   1      46.043  29.067  35.080  1.00  0.00     0.031 C 
ATOM     50  C   UNL A   1      40.196  31.166  32.067  1.00  0.00     0.029 A 
ATOM     51  C   UNL A   1      40.414  31.653  33.429  1.00  0.00     0.049 A 
ATOM     52  H   UNL A   1      42.076  31.306  34.636  1.00  0.00     0.167 HD
ATOM     53  C   UNL A   1      45.582  30.390  37.120  1.00  0.00     0.037 A 
ATOM     54  C   UNL A   1      39.567  32.427  34.138  1.00  0.00     0.037 A 
ATOM     55  C   UNL A   1      44.780  31.288  37.909  1.00  0.00     0.049 A 
ATOM     56  C   UNL A   1      39.941  32.834  35.543  1.00  0.00     0.074 A 
ATOM     57  C   UNL A   1      45.059  31.815  39.158  1.00  0.00     0.029 A 
ATOM     58  N   UNL A   1      43.540  31.782  37.534  1.00  0.00    -0.354 N 
ATOM     59  N   UNL A   1      41.038  32.573  36.216  1.00  0.00    -0.248 NA
ATOM     60  C   UNL A   1      38.962  33.638  36.287  1.00  0.00     0.031 C 
ATOM     61  C   UNL A   1      43.958  32.573  39.567  1.00  0.00     0.029 A 
ATOM     62  C   UNL A   1      43.022  32.576  38.544  1.00  0.00     0.049 A 
ATOM     63  H   UNL A   1      43.093  31.595  36.677  1.00  0.00     0.167 HD
ATOM     64  C   UNL A   1      40.895  33.214  37.444  1.00  0.00     0.074 A 
ATOM     65  C   UNL A   1      39.610  33.881  37.417  1.00  0.00     0.031 C 
ATOM     66  C   UNL A   1      41.749  33.250  38.497  1.00  0.00     0.037 A 
BRANCH  53  67
ATOM     67  C   UNL A   1      46.860  29.872  37.721  1.00  0.00     0.058 A 
ATOM     68  C   UNL A   1      46.905  28.692  38.480  1.00  0.00     0.135 A 
ATOM     69  C   UNL A   1      48.073  30.539  37.476  1.00  0.00     0.135 A 
ATOM     70  F   UNL A   1      45.775  28.025  38.762  1.00  0.00    -0.206 F 
ATOM     71  C   UNL A   1      48.104  28.199  38.986  1.00  0.00     0.059 A 
ATOM     72  C   UNL A   1      49.286  30.048  37.949  1.00  0.00     0.059 A 
ATOM     73  F   UNL A   1      48.086  31.675  36.763  1.00  0.00    -0.206 F 
ATOM     74  C   UNL A   1      49.290  28.881  38.710  1.00  0.00     0.060 A 
BRANCH  74  75
ATOM     75  S   UNL A   1      50.840  28.210  39.346  1.00  0.00     0.124 S 
ATOM     76  O   UNL A   1      50.381  27.479  40.522  1.00  0.00    -0.237 OA
ATOM     77  O   UNL A   1      51.304  27.390  38.231  1.00  0.00    -0.237 OA
ATOM     78  O   UNL A   1      51.641  29.399  39.621  1.00  0.00    -0.744 OA
ENDBRANCH  74  75
ENDBRANCH  53  67
BRANCH  54  79
ATOM     79  C   UNL A   1      38.268  32.862  33.550  1.00  0.00     0.058 A 
ATOM     80  C   UNL A   1      38.122  34.134  32.977  1.00  0.00     0.135 A 
ATOM     81  C   UNL A   1      37.138  32.030  33.585  1.00  0.00     0.135 A 
ATOM     82  F   UNL A   1      39.167  34.974  32.932  1.00  0.00    -0.206 F 
ATOM     83  C   UNL A   1      36.898  34.578  32.485  1.00  0.00     0.059 A 
ATOM     84  C   UNL A   1      35.910  32.438  33.070  1.00  0.00     0.059 A 
ATOM     85  F   UNL A   1      37.221  30.800  34.115  1.00  0.00    -0.206 F 
ATOM     86  C   UNL A   1      35.797  33.721  32.536  1.00  0.00     0.060 A 
BRANCH  86  87
ATOM     87  S   UNL A   1      34.219  34.298  31.873  1.00  0.00     0.124 S 
ATOM     88  O   UNL A   1      34.181  33.631  30.577  1.00  0.00    -0.237 OA
ATOM     89  O   UNL A   1      33.272  33.811  32.871  1.00  0.00    -0.237 OA
ATOM     90  O   UNL A   1      34.383  35.748  31.831  1.00  0.00    -0.744 OA
ENDBRANCH  86  87
ENDBRANCH  54  79
BRANCH  66  91
ATOM     91  C   UNL A   1      41.354  34.076  39.693  1.00  0.00     0.058 A 
ATOM     92  C   UNL A   1      40.649  33.529  40.776  1.00  0.00     0.135 A 
ATOM     93  C   UNL A   1      41.743  35.424  39.780  1.00  0.00     0.135 A 
ATOM     94  F   UNL A   1      40.249  32.248  40.744  1.00  0.00    -0.206 F 
ATOM     95  C   UNL A   1      40.322  34.295  41.891  1.00  0.00     0.059 A 
ATOM     96  C   UNL A   1      41.457  36.199  40.899  1.00  0.00     0.059 A 
ATOM     97  F   UNL A   1      42.430  35.996  38.778  1.00  0.00    -0.206 F 
ATOM     98  C   UNL A   1      40.735  35.628  41.946  1.00  0.00     0.060 A 
BRANCH  98  99
ATOM     99  S   UNL A   1      40.335  36.597  43.415  1.00  0.00     0.124 S 
ATOM    100  O   UNL A   1      41.659  36.835  43.980  1.00  0.00    -0.237 OA
ATOM    101  O   UNL A   1      39.668  37.765  42.847  1.00  0.00    -0.237 OA
ATOM    102  O   UNL A   1      39.475  35.706  44.188  1.00  0.00    -0.744 OA
ENDBRANCH  98  99
ENDBRANCH  66  91
ENDBRANCH  40  41
ENDBRANCH  33  35
ENDBRANCH  32  33
ENDBRANCH  31  32
ENDBRANCH  30  31
ENDBRANCH  29  30
ENDBRANCH  28  29
ENDBRANCH  27  28
ENDBRANCH  26  27
ENDBRANCH   1  26
TORSDOF 28
ENDMDL
