MODEL 1
REMARK VINA RESULT:      -9.9      0.000      0.000
REMARK SMILES Cc1csc(=O)n1CCCC(=O)N1CC[C@H](C(=O)OCCOCCOCCOCCOC(=O)c2ccc(-c3c4nc(c(-c5c(F)cc(S(=O)(=O)[O-])cc5F)c5ccc([nH]5)c(-c5c(F)cc(S(=O)(=O)[O-])cc5F)c5nc(c(-c6c(F)cc(S(=O)(=O)[O-])cc6F)c6ccc3[nH]6)C=C5)C=C4)cc2)[C@@H]1C
REMARK SMILES IDX 24 1 23 2 22 3 21 4 20 5 19 6 17 7 18 8 16 9 13 10 14 11
REMARK SMILES IDX 100 12 15 13 101 14 11 15 12 16 10 17 9 18 8 19 7 20 1 21
REMARK SMILES IDX 2 22 3 23 4 24 5 25 6 26 25 27 26 28 27 29 28 30 29 31 30 32
REMARK SMILES IDX 31 33 32 34 33 35 34 36 35 37 99 38 36 39 98 40 37 41 38 42
REMARK SMILES IDX 39 43 92 44 40 45 97 46 91 47 93 48 41 49 96 50 90 51 89 52
REMARK SMILES IDX 42 54 76 55 55 56 75 57 56 58 59 59 74 60 94 61 57 62 58 63
REMARK SMILES IDX 73 65 95 66 60 67 43 68 44 69 53 70 45 71 46 72 52 73 54 74
REMARK SMILES IDX 47 75 48 76 49 77 50 78 51 79 77 80 78 81 87 82 79 83 80 84
REMARK SMILES IDX 86 85 88 86 81 87 82 88 83 89 84 90 85 91 61 92 62 93 71 94
REMARK SMILES IDX 63 95 64 96 70 97 72 98 65 99 66 100 67 101 68 102 69 103
REMARK H PARENT 93 53 59 64
REMARK Flexibility Score: inf
ROOT
ATOM      1  C   UNL A   1      33.101  19.963  25.797  1.00  0.00     0.188 C 
ENDROOT
BRANCH   1   2
ATOM      2  C   UNL A   1      32.134  20.615  24.779  1.00  0.00     0.188 C 
BRANCH   2   3
ATOM      3  O   UNL A   1      32.340  20.208  23.431  1.00  0.00    -0.376 OA
BRANCH   3   4
ATOM      4  C   UNL A   1      32.188  21.169  22.400  1.00  0.00     0.202 C 
BRANCH   4   5
ATOM      5  C   UNL A   1      32.055  22.636  22.828  1.00  0.00     0.261 C 
BRANCH   5   6
ATOM      6  O   UNL A   1      33.321  23.290  22.968  1.00  0.00    -0.463 OA
BRANCH   6   7
ATOM      7  C   UNL A   1      33.291  24.644  23.087  1.00  0.00     0.311 C 
ATOM      8  O   UNL A   1      33.368  25.419  22.149  1.00  0.00    -0.252 OA
BRANCH   7   9
ATOM      9  C   UNL A   1      33.012  24.983  24.542  1.00  0.00     0.123 C 
ATOM     10  N   UNL A   1      32.344  27.186  25.080  1.00  0.00    -0.339 N 
ATOM     11  C   UNL A   1      33.798  27.165  24.943  1.00  0.00     0.121 C 
ATOM     12  C   UNL A   1      31.797  25.863  24.858  1.00  0.00     0.096 C 
ATOM     13  C   UNL A   1      34.178  25.715  25.177  1.00  0.00     0.039 C 
ATOM     14  C   UNL A   1      30.666  25.810  23.836  1.00  0.00     0.032 C 
BRANCH  10  15
ATOM     15  C   UNL A   1      31.741  28.350  25.455  1.00  0.00     0.222 C 
ATOM     16  O   UNL A   1      31.401  28.483  26.642  1.00  0.00    -0.275 OA
BRANCH  15  17
ATOM     17  C   UNL A   1      31.282  29.443  24.483  1.00  0.00     0.102 C 
BRANCH  17  18
ATOM     18  C   UNL A   1      30.651  30.810  24.718  1.00  0.00     0.032 C 
BRANCH  18  19
ATOM     19  C   UNL A   1      29.241  31.274  24.317  1.00  0.00     0.127 C 
BRANCH  19  20
ATOM     20  N   UNL A   1      28.807  31.452  22.930  1.00  0.00    -0.303 N 
ATOM     21  C   UNL A   1      28.415  28.952  22.688  1.00  0.00     0.065 C 
ATOM     22  C   UNL A   1      28.422  30.349  22.154  1.00  0.00     0.029 A 
ATOM     23  C   UNL A   1      27.985  30.670  20.930  1.00  0.00     0.091 A 
ATOM     24  S   UNL A   1      28.001  32.373  20.660  1.00  0.00    -0.082 S 
ATOM     25  C   UNL A   1      28.521  32.670  22.324  1.00  0.00     0.307 A 
ATOM     26  O   UNL A   1      28.535  33.796  22.795  1.00  0.00    -0.257 OA
ENDBRANCH  19  20
ENDBRANCH  18  19
ENDBRANCH  17  18
ENDBRANCH  15  17
ENDBRANCH  10  15
ENDBRANCH   7   9
ENDBRANCH   6   7
ENDBRANCH   5   6
ENDBRANCH   4   5
ENDBRANCH   3   4
ENDBRANCH   2   3
ENDBRANCH   1   2
BRANCH   1  27
ATOM     27  O   UNL A   1      33.493  20.752  26.903  1.00  0.00    -0.377 OA
BRANCH  27  28
ATOM     28  C   UNL A   1      34.068  22.037  26.671  1.00  0.00     0.188 C 
BRANCH  28  29
ATOM     29  C   UNL A   1      35.328  22.270  25.788  1.00  0.00     0.188 C 
BRANCH  29  30
ATOM     30  O   UNL A   1      36.094  21.115  25.465  1.00  0.00    -0.376 OA
BRANCH  30  31
ATOM     31  C   UNL A   1      37.290  21.214  24.717  1.00  0.00     0.202 C 
BRANCH  31  32
ATOM     32  C   UNL A   1      38.595  21.248  25.505  1.00  0.00     0.261 C 
BRANCH  32  33
ATOM     33  O   UNL A   1      38.786  22.447  26.225  1.00  0.00    -0.460 OA
BRANCH  33  34
ATOM     34  C   UNL A   1      39.881  22.449  27.010  1.00  0.00     0.338 C 
ATOM     35  O   UNL A   1      40.277  21.549  27.730  1.00  0.00    -0.246 OA
BRANCH  34  36
ATOM     36  C   UNL A   1      40.495  23.768  26.919  1.00  0.00     0.060 A 
ATOM     37  C   UNL A   1      41.758  23.907  27.492  1.00  0.00     0.016 A 
ATOM     38  C   UNL A   1      39.668  24.857  26.606  1.00  0.00     0.016 A 
ATOM     39  C   UNL A   1      42.079  25.133  28.015  1.00  0.00     0.010 A 
ATOM     40  C   UNL A   1      39.978  26.070  27.151  1.00  0.00     0.010 A 
ATOM     41  C   UNL A   1      41.124  26.151  27.938  1.00  0.00    -0.014 A 
BRANCH  41  42
ATOM     42  C   UNL A   1      41.350  27.343  28.711  1.00  0.00     0.031 A 
ATOM     43  C   UNL A   1      42.497  28.127  28.223  1.00  0.00     0.074 A 
ATOM     44  C   UNL A   1      40.506  27.704  29.694  1.00  0.00     0.049 A 
ATOM     45  N   UNL A   1      43.634  28.306  28.805  1.00  0.00    -0.248 NA
ATOM     46  C   UNL A   1      42.451  28.595  26.826  1.00  0.00     0.031 C 
ATOM     47  C   UNL A   1      39.202  27.125  30.036  1.00  0.00     0.029 A 
ATOM     48  N   UNL A   1      40.595  28.761  30.537  1.00  0.00    -0.354 N 
ATOM     49  C   UNL A   1      44.351  29.130  27.948  1.00  0.00     0.074 A 
ATOM     50  C   UNL A   1      43.682  29.080  26.675  1.00  0.00     0.031 C 
ATOM     51  C   UNL A   1      38.534  27.983  30.841  1.00  0.00     0.029 A 
ATOM     52  C   UNL A   1      39.403  29.103  31.162  1.00  0.00     0.049 A 
ATOM     53  H   UNL A   1      41.437  29.245  30.694  1.00  0.00     0.167 HD
ATOM     54  C   UNL A   1      45.263  30.014  28.429  1.00  0.00     0.037 A 
ATOM     55  C   UNL A   1      39.158  30.278  31.799  1.00  0.00     0.037 A 
ATOM     56  C   UNL A   1      45.675  29.669  29.767  1.00  0.00     0.049 A 
ATOM     57  C   UNL A   1      40.484  30.892  32.101  1.00  0.00     0.074 A 
ATOM     58  C   UNL A   1      46.240  28.542  30.337  1.00  0.00     0.029 A 
ATOM     59  N   UNL A   1      45.150  30.393  30.812  1.00  0.00    -0.354 N 
ATOM     60  N   UNL A   1      41.334  30.397  32.960  1.00  0.00    -0.248 NA
ATOM     61  C   UNL A   1      41.065  31.776  31.098  1.00  0.00     0.031 C 
ATOM     62  C   UNL A   1      45.609  28.411  31.608  1.00  0.00     0.029 A 
ATOM     63  C   UNL A   1      44.747  29.496  31.770  1.00  0.00     0.049 A 
ATOM     64  H   UNL A   1      45.077  31.374  30.863  1.00  0.00     0.167 HD
ATOM     65  C   UNL A   1      42.580  30.557  32.369  1.00  0.00     0.074 A 
ATOM     66  C   UNL A   1      42.358  31.483  31.260  1.00  0.00     0.031 C 
ATOM     67  C   UNL A   1      43.612  29.705  32.644  1.00  0.00     0.037 A 
BRANCH  54  68
ATOM     68  C   UNL A   1      45.475  31.379  27.828  1.00  0.00     0.058 A 
ATOM     69  C   UNL A   1      46.760  31.746  27.391  1.00  0.00     0.135 A 
ATOM     70  C   UNL A   1      44.531  32.430  27.906  1.00  0.00     0.135 A 
ATOM     71  F   UNL A   1      47.737  30.830  27.300  1.00  0.00    -0.206 F 
ATOM     72  C   UNL A   1      47.098  33.069  27.108  1.00  0.00     0.059 A 
ATOM     73  C   UNL A   1      44.829  33.742  27.569  1.00  0.00     0.059 A 
ATOM     74  F   UNL A   1      43.302  32.260  28.410  1.00  0.00    -0.206 F 
ATOM     75  C   UNL A   1      46.126  34.061  27.213  1.00  0.00     0.060 A 
BRANCH  75  76
ATOM     76  S   UNL A   1      46.581  35.781  26.953  1.00  0.00     0.124 S 
ATOM     77  O   UNL A   1      47.914  35.819  27.540  1.00  0.00    -0.237 OA
ATOM     78  O   UNL A   1      46.515  35.894  25.499  1.00  0.00    -0.237 OA
ATOM     79  O   UNL A   1      45.548  36.514  27.680  1.00  0.00    -0.744 OA
ENDBRANCH  75  76
ENDBRANCH  54  68
BRANCH  55  80
ATOM     80  C   UNL A   1      37.892  31.060  31.830  1.00  0.00     0.058 A 
ATOM     81  C   UNL A   1      37.204  31.270  33.039  1.00  0.00     0.135 A 
ATOM     82  C   UNL A   1      37.480  31.856  30.740  1.00  0.00     0.135 A 
ATOM     83  F   UNL A   1      37.536  30.567  34.134  1.00  0.00    -0.206 F 
ATOM     84  C   UNL A   1      36.215  32.251  33.178  1.00  0.00     0.059 A 
ATOM     85  C   UNL A   1      36.488  32.830  30.852  1.00  0.00     0.059 A 
ATOM     86  F   UNL A   1      38.094  31.782  29.551  1.00  0.00    -0.206 F 
ATOM     87  C   UNL A   1      35.883  33.045  32.082  1.00  0.00     0.060 A 
BRANCH  87  88
ATOM     88  S   UNL A   1      34.759  34.444  32.303  1.00  0.00     0.124 S 
ATOM     89  O   UNL A   1      35.622  35.428  32.946  1.00  0.00    -0.237 OA
ATOM     90  O   UNL A   1      34.364  34.741  30.930  1.00  0.00    -0.237 OA
ATOM     91  O   UNL A   1      33.699  33.897  33.147  1.00  0.00    -0.744 OA
ENDBRANCH  87  88
ENDBRANCH  55  80
BRANCH  67  92
ATOM     92  C   UNL A   1      43.463  28.757  33.808  1.00  0.00     0.058 A 
ATOM     93  C   UNL A   1      42.926  27.460  33.717  1.00  0.00     0.135 A 
ATOM     94  C   UNL A   1      44.015  29.131  35.042  1.00  0.00     0.135 A 
ATOM     95  F   UNL A   1      42.485  26.977  32.547  1.00  0.00    -0.206 F 
ATOM     96  C   UNL A   1      42.886  26.599  34.816  1.00  0.00     0.059 A 
ATOM     97  C   UNL A   1      44.019  28.278  36.142  1.00  0.00     0.059 A 
ATOM     98  F   UNL A   1      44.607  30.331  35.179  1.00  0.00    -0.206 F 
ATOM     99  C   UNL A   1      43.433  27.020  36.028  1.00  0.00     0.060 A 
BRANCH  99 100
ATOM    100  S   UNL A   1      43.429  25.889  37.436  1.00  0.00     0.124 S 
ATOM    101  O   UNL A   1      43.579  26.803  38.563  1.00  0.00    -0.237 OA
ATOM    102  O   UNL A   1      42.129  25.236  37.317  1.00  0.00    -0.237 OA
ATOM    103  O   UNL A   1      44.577  25.022  37.179  1.00  0.00    -0.744 OA
ENDBRANCH  99 100
ENDBRANCH  67  92
ENDBRANCH  41  42
ENDBRANCH  34  36
ENDBRANCH  33  34
ENDBRANCH  32  33
ENDBRANCH  31  32
ENDBRANCH  30  31
ENDBRANCH  29  30
ENDBRANCH  28  29
ENDBRANCH  27  28
ENDBRANCH   1  27
TORSDOF 28
ENDMDL
MODEL 2
REMARK VINA RESULT:      -9.9      1.696      2.664
REMARK SMILES Cc1csc(=O)n1CCCC(=O)N1CC[C@H](C(=O)OCCOCCOCCOCCOC(=O)c2ccc(-c3c4nc(c(-c5c(F)cc(S(=O)(=O)[O-])cc5F)c5ccc([nH]5)c(-c5c(F)cc(S(=O)(=O)[O-])cc5F)c5nc(c(-c6c(F)cc(S(=O)(=O)[O-])cc6F)c6ccc3[nH]6)C=C5)C=C4)cc2)[C@@H]1C
REMARK SMILES IDX 24 1 23 2 22 3 21 4 20 5 19 6 17 7 18 8 16 9 13 10 14 11
REMARK SMILES IDX 100 12 15 13 101 14 11 15 12 16 10 17 9 18 8 19 7 20 1 21
REMARK SMILES IDX 2 22 3 23 4 24 5 25 6 26 25 27 26 28 27 29 28 30 29 31 30 32
REMARK SMILES IDX 31 33 32 34 33 35 34 36 35 37 99 38 36 39 98 40 37 41 38 42
REMARK SMILES IDX 39 43 92 44 40 45 97 46 91 47 93 48 41 49 96 50 90 51 89 52
REMARK SMILES IDX 42 54 76 55 55 56 75 57 56 58 59 59 74 60 94 61 57 62 58 63
REMARK SMILES IDX 73 65 95 66 60 67 43 68 44 69 53 70 45 71 46 72 52 73 54 74
REMARK SMILES IDX 47 75 48 76 49 77 50 78 51 79 77 80 78 81 87 82 79 83 80 84
REMARK SMILES IDX 86 85 88 86 81 87 82 88 83 89 84 90 85 91 61 92 62 93 71 94
REMARK SMILES IDX 63 95 64 96 70 97 72 98 65 99 66 100 67 101 68 102 69 103
REMARK H PARENT 93 53 59 64
REMARK Flexibility Score: inf
ROOT
ATOM      1  C   UNL A   1      33.126  19.580  25.509  1.00  0.00     0.188 C 
ENDROOT
BRANCH   1   2
ATOM      2  C   UNL A   1      32.137  20.276  24.542  1.00  0.00     0.188 C 
BRANCH   2   3
ATOM      3  O   UNL A   1      32.498  20.186  23.169  1.00  0.00    -0.376 OA
BRANCH   3   4
ATOM      4  C   UNL A   1      32.148  21.252  22.302  1.00  0.00     0.202 C 
BRANCH   4   5
ATOM      5  C   UNL A   1      31.735  22.576  22.959  1.00  0.00     0.261 C 
BRANCH   5   6
ATOM      6  O   UNL A   1      32.855  23.353  23.395  1.00  0.00    -0.463 OA
BRANCH   6   7
ATOM      7  C   UNL A   1      32.570  24.486  24.090  1.00  0.00     0.311 C 
ATOM      8  O   UNL A   1      33.382  25.111  24.750  1.00  0.00    -0.252 OA
BRANCH   7   9
ATOM      9  C   UNL A   1      31.135  24.880  23.781  1.00  0.00     0.123 C 
ATOM     10  N   UNL A   1      30.584  27.178  23.711  1.00  0.00    -0.339 N 
ATOM     11  C   UNL A   1      30.592  26.746  25.107  1.00  0.00     0.121 C 
ATOM     12  C   UNL A   1      30.899  26.066  22.838  1.00  0.00     0.096 C 
ATOM     13  C   UNL A   1      30.374  25.246  25.039  1.00  0.00     0.039 C 
ATOM     14  C   UNL A   1      32.020  26.344  21.840  1.00  0.00     0.032 C 
BRANCH  10  15
ATOM     15  C   UNL A   1      30.226  28.462  23.428  1.00  0.00     0.222 C 
ATOM     16  O   UNL A   1      29.714  28.702  22.322  1.00  0.00    -0.275 OA
BRANCH  15  17
ATOM     17  C   UNL A   1      30.573  29.674  24.300  1.00  0.00     0.102 C 
BRANCH  17  18
ATOM     18  C   UNL A   1      31.845  30.054  25.049  1.00  0.00     0.032 C 
BRANCH  18  19
ATOM     19  C   UNL A   1      32.030  30.207  26.568  1.00  0.00     0.127 C 
BRANCH  19  20
ATOM     20  N   UNL A   1      33.335  30.324  27.221  1.00  0.00    -0.303 N 
ATOM     21  C   UNL A   1      33.949  27.962  26.511  1.00  0.00     0.065 C 
ATOM     22  C   UNL A   1      34.243  29.256  27.201  1.00  0.00     0.029 A 
ATOM     23  C   UNL A   1      35.420  29.530  27.778  1.00  0.00     0.091 A 
ATOM     24  S   UNL A   1      35.491  31.148  28.371  1.00  0.00    -0.082 S 
ATOM     25  C   UNL A   1      33.890  31.502  27.709  1.00  0.00     0.307 A 
ATOM     26  O   UNL A   1      33.455  32.642  27.673  1.00  0.00    -0.257 OA
ENDBRANCH  19  20
ENDBRANCH  18  19
ENDBRANCH  17  18
ENDBRANCH  15  17
ENDBRANCH  10  15
ENDBRANCH   7   9
ENDBRANCH   6   7
ENDBRANCH   5   6
ENDBRANCH   4   5
ENDBRANCH   3   4
ENDBRANCH   2   3
ENDBRANCH   1   2
BRANCH   1  27
ATOM     27  O   UNL A   1      33.518  20.309  26.656  1.00  0.00    -0.377 OA
BRANCH  27  28
ATOM     28  C   UNL A   1      33.834  21.693  26.526  1.00  0.00     0.188 C 
BRANCH  28  29
ATOM     29  C   UNL A   1      35.153  22.219  25.887  1.00  0.00     0.188 C 
BRANCH  29  30
ATOM     30  O   UNL A   1      35.934  21.265  25.177  1.00  0.00    -0.376 OA
BRANCH  30  31
ATOM     31  C   UNL A   1      37.200  21.604  24.645  1.00  0.00     0.202 C 
BRANCH  31  32
ATOM     32  C   UNL A   1      38.403  21.425  25.563  1.00  0.00     0.261 C 
BRANCH  32  33
ATOM     33  O   UNL A   1      38.654  22.545  26.387  1.00  0.00    -0.460 OA
BRANCH  33  34
ATOM     34  C   UNL A   1      39.855  22.521  26.995  1.00  0.00     0.338 C 
ATOM     35  O   UNL A   1      40.359  21.594  27.604  1.00  0.00    -0.246 OA
BRANCH  34  36
ATOM     36  C   UNL A   1      40.444  23.850  26.875  1.00  0.00     0.060 A 
ATOM     37  C   UNL A   1      41.732  24.008  27.383  1.00  0.00     0.016 A 
ATOM     38  C   UNL A   1      39.586  24.927  26.604  1.00  0.00     0.016 A 
ATOM     39  C   UNL A   1      42.060  25.239  27.890  1.00  0.00     0.010 A 
ATOM     40  C   UNL A   1      39.905  26.144  27.134  1.00  0.00     0.010 A 
ATOM     41  C   UNL A   1      41.087  26.242  27.862  1.00  0.00    -0.014 A 
BRANCH  41  42
ATOM     42  C   UNL A   1      41.334  27.438  28.624  1.00  0.00     0.031 A 
ATOM     43  C   UNL A   1      42.540  28.156  28.177  1.00  0.00     0.074 A 
ATOM     44  C   UNL A   1      40.463  27.858  29.558  1.00  0.00     0.049 A 
ATOM     45  N   UNL A   1      43.655  28.293  28.811  1.00  0.00    -0.248 NA
ATOM     46  C   UNL A   1      42.583  28.597  26.772  1.00  0.00     0.031 C 
ATOM     47  C   UNL A   1      39.118  27.349  29.847  1.00  0.00     0.029 A 
ATOM     48  N   UNL A   1      40.563  28.927  30.385  1.00  0.00    -0.354 N 
ATOM     49  C   UNL A   1      44.451  29.063  27.974  1.00  0.00     0.074 A 
ATOM     50  C   UNL A   1      43.842  29.019  26.671  1.00  0.00     0.031 C 
ATOM     51  C   UNL A   1      38.455  28.255  30.603  1.00  0.00     0.029 A 
ATOM     52  C   UNL A   1      39.361  29.338  30.945  1.00  0.00     0.049 A 
ATOM     53  H   UNL A   1      41.419  29.374  30.574  1.00  0.00     0.167 HD
ATOM     54  C   UNL A   1      45.381  29.913  28.483  1.00  0.00     0.037 A 
ATOM     55  C   UNL A   1      39.143  30.536  31.548  1.00  0.00     0.037 A 
ATOM     56  C   UNL A   1      45.712  29.576  29.845  1.00  0.00     0.049 A 
ATOM     57  C   UNL A   1      40.482  31.092  31.902  1.00  0.00     0.074 A 
ATOM     58  C   UNL A   1      46.194  28.436  30.462  1.00  0.00     0.029 A 
ATOM     59  N   UNL A   1      45.174  30.346  30.850  1.00  0.00    -0.354 N 
ATOM     60  N   UNL A   1      41.264  30.575  32.811  1.00  0.00    -0.248 NA
ATOM     61  C   UNL A   1      41.151  31.927  30.913  1.00  0.00     0.031 C 
ATOM     62  C   UNL A   1      45.497  28.361  31.703  1.00  0.00     0.029 A 
ATOM     63  C   UNL A   1      44.682  29.488  31.804  1.00  0.00     0.049 A 
ATOM     64  H   UNL A   1      45.146  31.330  30.880  1.00  0.00     0.167 HD
ATOM     65  C   UNL A   1      42.544  30.664  32.278  1.00  0.00     0.074 A 
ATOM     66  C   UNL A   1      42.420  31.577  31.142  1.00  0.00     0.031 C 
ATOM     67  C   UNL A   1      43.519  29.769  32.618  1.00  0.00     0.037 A 
BRANCH  54  68
ATOM     68  C   UNL A   1      45.688  31.253  27.868  1.00  0.00     0.058 A 
ATOM     69  C   UNL A   1      47.017  31.571  27.537  1.00  0.00     0.135 A 
ATOM     70  C   UNL A   1      44.773  32.333  27.835  1.00  0.00     0.135 A 
ATOM     71  F   UNL A   1      47.970  30.625  27.558  1.00  0.00    -0.206 F 
ATOM     72  C   UNL A   1      47.419  32.876  27.252  1.00  0.00     0.059 A 
ATOM     73  C   UNL A   1      45.140  33.626  27.492  1.00  0.00     0.059 A 
ATOM     74  F   UNL A   1      43.500  32.213  28.231  1.00  0.00    -0.206 F 
ATOM     75  C   UNL A   1      46.473  33.897  27.245  1.00  0.00     0.060 A 
BRANCH  75  76
ATOM     76  S   UNL A   1      47.002  35.596  26.982  1.00  0.00     0.124 S 
ATOM     77  O   UNL A   1      46.498  35.850  25.639  1.00  0.00    -0.237 OA
ATOM     78  O   UNL A   1      46.321  36.295  28.068  1.00  0.00    -0.237 OA
ATOM     79  O   UNL A   1      48.455  35.518  27.110  1.00  0.00    -0.744 OA
ENDBRANCH  75  76
ENDBRANCH  54  68
BRANCH  55  80
ATOM     80  C   UNL A   1      37.917  31.378  31.503  1.00  0.00     0.058 A 
ATOM     81  C   UNL A   1      36.820  31.099  32.340  1.00  0.00     0.135 A 
ATOM     82  C   UNL A   1      37.895  32.632  30.858  1.00  0.00     0.135 A 
ATOM     83  F   UNL A   1      36.760  29.936  33.006  1.00  0.00    -0.206 F 
ATOM     84  C   UNL A   1      35.800  32.029  32.574  1.00  0.00     0.059 A 
ATOM     85  C   UNL A   1      36.884  33.569  31.065  1.00  0.00     0.059 A 
ATOM     86  F   UNL A   1      38.909  33.031  30.077  1.00  0.00    -0.206 F 
ATOM     87  C   UNL A   1      35.857  33.274  31.950  1.00  0.00     0.060 A 
BRANCH  87  88
ATOM     88  S   UNL A   1      34.659  34.552  32.401  1.00  0.00     0.124 S 
ATOM     89  O   UNL A   1      33.687  33.795  33.182  1.00  0.00    -0.237 OA
ATOM     90  O   UNL A   1      35.483  35.496  33.150  1.00  0.00    -0.237 OA
ATOM     91  O   UNL A   1      34.180  35.038  31.109  1.00  0.00    -0.744 OA
ENDBRANCH  87  88
ENDBRANCH  55  80
BRANCH  67  92
ATOM     92  C   UNL A   1      43.269  28.853  33.791  1.00  0.00     0.058 A 
ATOM     93  C   UNL A   1      43.662  29.127  35.114  1.00  0.00     0.135 A 
ATOM     94  C   UNL A   1      42.480  27.713  33.584  1.00  0.00     0.135 A 
ATOM     95  F   UNL A   1      44.316  30.255  35.420  1.00  0.00    -0.206 F 
ATOM     96  C   UNL A   1      43.333  28.275  36.171  1.00  0.00     0.059 A 
ATOM     97  C   UNL A   1      42.110  26.868  34.627  1.00  0.00     0.059 A 
ATOM     98  F   UNL A   1      42.014  27.431  32.355  1.00  0.00    -0.206 F 
ATOM     99  C   UNL A   1      42.559  27.144  35.916  1.00  0.00     0.060 A 
BRANCH  99 100
ATOM    100  S   UNL A   1      42.090  26.069  37.290  1.00  0.00     0.124 S 
ATOM    101  O   UNL A   1      40.674  26.380  37.452  1.00  0.00    -0.237 OA
ATOM    102  O   UNL A   1      42.393  24.738  36.772  1.00  0.00    -0.237 OA
ATOM    103  O   UNL A   1      42.955  26.514  38.380  1.00  0.00    -0.744 OA
ENDBRANCH  99 100
ENDBRANCH  67  92
ENDBRANCH  41  42
ENDBRANCH  34  36
ENDBRANCH  33  34
ENDBRANCH  32  33
ENDBRANCH  31  32
ENDBRANCH  30  31
ENDBRANCH  29  30
ENDBRANCH  28  29
ENDBRANCH  27  28
ENDBRANCH   1  27
TORSDOF 28
ENDMDL
MODEL 3
REMARK VINA RESULT:      -9.4      2.729      4.582
REMARK SMILES Cc1csc(=O)n1CCCC(=O)N1CC[C@H](C(=O)OCCOCCOCCOCCOC(=O)c2ccc(-c3c4nc(c(-c5c(F)cc(S(=O)(=O)[O-])cc5F)c5ccc([nH]5)c(-c5c(F)cc(S(=O)(=O)[O-])cc5F)c5nc(c(-c6c(F)cc(S(=O)(=O)[O-])cc6F)c6ccc3[nH]6)C=C5)C=C4)cc2)[C@@H]1C
REMARK SMILES IDX 24 1 23 2 22 3 21 4 20 5 19 6 17 7 18 8 16 9 13 10 14 11
REMARK SMILES IDX 100 12 15 13 101 14 11 15 12 16 10 17 9 18 8 19 7 20 1 21
REMARK SMILES IDX 2 22 3 23 4 24 5 25 6 26 25 27 26 28 27 29 28 30 29 31 30 32
REMARK SMILES IDX 31 33 32 34 33 35 34 36 35 37 99 38 36 39 98 40 37 41 38 42
REMARK SMILES IDX 39 43 92 44 40 45 97 46 91 47 93 48 41 49 96 50 90 51 89 52
REMARK SMILES IDX 42 54 76 55 55 56 75 57 56 58 59 59 74 60 94 61 57 62 58 63
REMARK SMILES IDX 73 65 95 66 60 67 43 68 44 69 53 70 45 71 46 72 52 73 54 74
REMARK SMILES IDX 47 75 48 76 49 77 50 78 51 79 77 80 78 81 87 82 79 83 80 84
REMARK SMILES IDX 86 85 88 86 81 87 82 88 83 89 84 90 85 91 61 92 62 93 71 94
REMARK SMILES IDX 63 95 64 96 70 97 72 98 65 99 66 100 67 101 68 102 69 103
REMARK H PARENT 93 53 59 64
REMARK Flexibility Score: inf
ROOT
ATOM      1  C   UNL A   1      41.045  21.094  26.522  1.00  0.00     0.188 C 
ENDROOT
BRANCH   1   2
ATOM      2  C   UNL A   1      40.980  22.217  27.584  1.00  0.00     0.188 C 
BRANCH   2   3
ATOM      3  O   UNL A   1      39.929  23.155  27.382  1.00  0.00    -0.376 OA
BRANCH   3   4
ATOM      4  C   UNL A   1      38.708  22.699  26.824  1.00  0.00     0.202 C 
BRANCH   4   5
ATOM      5  C   UNL A   1      38.428  23.072  25.362  1.00  0.00     0.261 C 
BRANCH   5   6
ATOM      6  O   UNL A   1      37.161  22.593  24.900  1.00  0.00    -0.463 OA
BRANCH   6   7
ATOM      7  C   UNL A   1      36.062  23.091  25.526  1.00  0.00     0.311 C 
ATOM      8  O   UNL A   1      35.859  24.278  25.716  1.00  0.00    -0.252 OA
BRANCH   7   9
ATOM      9  C   UNL A   1      35.115  21.937  25.806  1.00  0.00     0.123 C 
ATOM     10  N   UNL A   1      32.800  22.389  25.963  1.00  0.00    -0.339 N 
ATOM     11  C   UNL A   1      33.422  22.718  27.243  1.00  0.00     0.121 C 
ATOM     12  C   UNL A   1      33.790  21.887  25.034  1.00  0.00     0.096 C 
ATOM     13  C   UNL A   1      34.698  21.898  27.264  1.00  0.00     0.039 C 
ATOM     14  C   UNL A   1      33.796  22.584  23.677  1.00  0.00     0.032 C 
BRANCH  10  15
ATOM     15  C   UNL A   1      31.447  22.512  25.846  1.00  0.00     0.222 C 
ATOM     16  O   UNL A   1      30.802  21.544  25.410  1.00  0.00    -0.275 OA
BRANCH  15  17
ATOM     17  C   UNL A   1      30.673  23.821  26.038  1.00  0.00     0.102 C 
BRANCH  17  18
ATOM     18  C   UNL A   1      31.095  25.177  26.592  1.00  0.00     0.032 C 
BRANCH  18  19
ATOM     19  C   UNL A   1      31.181  26.514  25.836  1.00  0.00     0.127 C 
BRANCH  19  20
ATOM     20  N   UNL A   1      31.597  26.632  24.437  1.00  0.00    -0.303 N 
ATOM     21  C   UNL A   1      29.175  26.816  23.690  1.00  0.00     0.065 C 
ATOM     22  C   UNL A   1      30.644  26.768  23.418  1.00  0.00     0.029 A 
ATOM     23  C   UNL A   1      31.172  26.933  22.197  1.00  0.00     0.091 A 
ATOM     24  S   UNL A   1      32.895  26.954  22.233  1.00  0.00    -0.082 S 
ATOM     25  C   UNL A   1      32.899  26.841  23.997  1.00  0.00     0.307 A 
ATOM     26  O   UNL A   1      33.923  26.998  24.643  1.00  0.00    -0.257 OA
ENDBRANCH  19  20
ENDBRANCH  18  19
ENDBRANCH  17  18
ENDBRANCH  15  17
ENDBRANCH  10  15
ENDBRANCH   7   9
ENDBRANCH   6   7
ENDBRANCH   5   6
ENDBRANCH   4   5
ENDBRANCH   3   4
ENDBRANCH   2   3
ENDBRANCH   1   2
BRANCH   1  27
ATOM     27  O   UNL A   1      41.728  19.910  26.884  1.00  0.00    -0.377 OA
BRANCH  27  28
ATOM     28  C   UNL A   1      42.348  19.126  25.866  1.00  0.00     0.188 C 
BRANCH  28  29
ATOM     29  C   UNL A   1      43.624  18.267  26.098  1.00  0.00     0.188 C 
BRANCH  29  30
ATOM     30  O   UNL A   1      44.635  18.356  25.101  1.00  0.00    -0.376 OA
BRANCH  30  31
ATOM     31  C   UNL A   1      45.943  18.793  25.419  1.00  0.00     0.202 C 
BRANCH  31  32
ATOM     32  C   UNL A   1      46.348  20.175  24.920  1.00  0.00     0.261 C 
BRANCH  32  33
ATOM     33  O   UNL A   1      45.845  21.229  25.714  1.00  0.00    -0.460 OA
BRANCH  33  34
ATOM     34  C   UNL A   1      44.871  21.947  25.122  1.00  0.00     0.338 C 
ATOM     35  O   UNL A   1      43.954  21.527  24.438  1.00  0.00    -0.246 OA
BRANCH  34  36
ATOM     36  C   UNL A   1      45.140  23.358  25.371  1.00  0.00     0.060 A 
ATOM     37  C   UNL A   1      45.950  23.654  26.466  1.00  0.00     0.016 A 
ATOM     38  C   UNL A   1      44.311  24.304  24.750  1.00  0.00     0.016 A 
ATOM     39  C   UNL A   1      45.715  24.835  27.120  1.00  0.00     0.010 A 
ATOM     40  C   UNL A   1      44.060  25.468  25.418  1.00  0.00     0.010 A 
ATOM     41  C   UNL A   1      44.687  25.656  26.647  1.00  0.00    -0.014 A 
BRANCH  41  42
ATOM     42  C   UNL A   1      44.267  26.752  27.478  1.00  0.00     0.031 A 
ATOM     43  C   UNL A   1      45.220  27.875  27.460  1.00  0.00     0.074 A 
ATOM     44  C   UNL A   1      43.071  26.738  28.095  1.00  0.00     0.049 A 
ATOM     45  N   UNL A   1      45.980  28.278  28.421  1.00  0.00    -0.248 NA
ATOM     46  C   UNL A   1      45.514  28.491  26.154  1.00  0.00     0.031 C 
ATOM     47  C   UNL A   1      41.968  25.787  27.925  1.00  0.00     0.029 A 
ATOM     48  N   UNL A   1      42.546  27.660  28.938  1.00  0.00    -0.354 N 
ATOM     49  C   UNL A   1      46.664  29.370  27.904  1.00  0.00     0.074 A 
ATOM     50  C   UNL A   1      46.517  29.308  26.474  1.00  0.00     0.031 C 
ATOM     51  C   UNL A   1      40.840  26.319  28.451  1.00  0.00     0.029 A 
ATOM     52  C   UNL A   1      41.169  27.581  29.093  1.00  0.00     0.049 A 
ATOM     53  H   UNL A   1      43.097  28.330  29.402  1.00  0.00     0.167 HD
ATOM     54  C   UNL A   1      47.047  30.398  28.705  1.00  0.00     0.037 A 
ATOM     55  C   UNL A   1      40.380  28.551  29.625  1.00  0.00     0.037 A 
ATOM     56  C   UNL A   1      47.061  30.006  30.093  1.00  0.00     0.049 A 
ATOM     57  C   UNL A   1      41.275  29.457  30.404  1.00  0.00     0.074 A 
ATOM     58  C   UNL A   1      47.710  29.011  30.801  1.00  0.00     0.029 A 
ATOM     59  N   UNL A   1      46.021  30.418  30.891  1.00  0.00    -0.354 N 
ATOM     60  N   UNL A   1      41.887  29.104  31.502  1.00  0.00    -0.248 NA
ATOM     61  C   UNL A   1      41.867  30.589  29.704  1.00  0.00     0.031 C 
ATOM     62  C   UNL A   1      46.753  28.548  31.751  1.00  0.00     0.029 A 
ATOM     63  C   UNL A   1      45.604  29.327  31.615  1.00  0.00     0.049 A 
ATOM     64  H   UNL A   1      45.643  31.326  30.936  1.00  0.00     0.167 HD
ATOM     65  C   UNL A   1      43.151  29.672  31.409  1.00  0.00     0.074 A 
ATOM     66  C   UNL A   1      43.053  30.640  30.318  1.00  0.00     0.031 C 
ATOM     67  C   UNL A   1      44.232  29.104  32.020  1.00  0.00     0.037 A 
BRANCH  54  68
ATOM     68  C   UNL A   1      47.030  31.836  28.256  1.00  0.00     0.058 A 
ATOM     69  C   UNL A   1      48.172  32.632  28.453  1.00  0.00     0.135 A 
ATOM     70  C   UNL A   1      45.856  32.532  27.882  1.00  0.00     0.135 A 
ATOM     71  F   UNL A   1      49.335  32.075  28.830  1.00  0.00    -0.206 F 
ATOM     72  C   UNL A   1      48.136  34.021  28.345  1.00  0.00     0.059 A 
ATOM     73  C   UNL A   1      45.814  33.907  27.706  1.00  0.00     0.059 A 
ATOM     74  F   UNL A   1      44.666  31.929  27.767  1.00  0.00    -0.206 F 
ATOM     75  C   UNL A   1      46.948  34.649  27.983  1.00  0.00     0.060 A 
BRANCH  75  76
ATOM     76  S   UNL A   1      46.867  36.445  27.944  1.00  0.00     0.124 S 
ATOM     77  O   UNL A   1      45.837  36.709  28.941  1.00  0.00    -0.237 OA
ATOM     78  O   UNL A   1      48.229  36.816  28.315  1.00  0.00    -0.237 OA
ATOM     79  O   UNL A   1      46.500  36.735  26.561  1.00  0.00    -0.744 OA
ENDBRANCH  75  76
ENDBRANCH  54  68
BRANCH  55  80
ATOM     80  C   UNL A   1      39.007  28.949  29.212  1.00  0.00     0.058 A 
ATOM     81  C   UNL A   1      38.000  29.166  30.171  1.00  0.00     0.135 A 
ATOM     82  C   UNL A   1      38.722  29.403  27.907  1.00  0.00     0.135 A 
ATOM     83  F   UNL A   1      38.187  28.779  31.443  1.00  0.00    -0.206 F 
ATOM     84  C   UNL A   1      36.814  29.846  29.872  1.00  0.00     0.059 A 
ATOM     85  C   UNL A   1      37.543  30.072  27.582  1.00  0.00     0.059 A 
ATOM     86  F   UNL A   1      39.624  29.299  26.921  1.00  0.00    -0.206 F 
ATOM     87  C   UNL A   1      36.607  30.320  28.577  1.00  0.00     0.060 A 
BRANCH  87  88
ATOM     88  S   UNL A   1      35.178  31.373  28.231  1.00  0.00     0.124 S 
ATOM     89  O   UNL A   1      35.798  32.518  27.573  1.00  0.00    -0.237 OA
ATOM     90  O   UNL A   1      34.361  30.513  27.380  1.00  0.00    -0.237 OA
ATOM     91  O   UNL A   1      34.624  31.638  29.556  1.00  0.00    -0.744 OA
ENDBRANCH  87  88
ENDBRANCH  55  80
BRANCH  67  92
ATOM     92  C   UNL A   1      43.988  28.007  33.028  1.00  0.00     0.058 A 
ATOM     93  C   UNL A   1      43.906  26.638  32.711  1.00  0.00     0.135 A 
ATOM     94  C   UNL A   1      43.974  28.348  34.387  1.00  0.00     0.135 A 
ATOM     95  F   UNL A   1      44.031  26.214  31.447  1.00  0.00    -0.206 F 
ATOM     96  C   UNL A   1      43.756  25.661  33.699  1.00  0.00     0.059 A 
ATOM     97  C   UNL A   1      43.860  27.389  35.391  1.00  0.00     0.059 A 
ATOM     98  F   UNL A   1      44.117  29.631  34.762  1.00  0.00    -0.206 F 
ATOM     99  C   UNL A   1      43.730  26.049  35.038  1.00  0.00     0.060 A 
BRANCH  99 100
ATOM    100  S   UNL A   1      43.589  24.782  36.318  1.00  0.00     0.124 S 
ATOM    101  O   UNL A   1      44.957  24.697  36.817  1.00  0.00    -0.237 OA
ATOM    102  O   UNL A   1      42.613  25.363  37.235  1.00  0.00    -0.237 OA
ATOM    103  O   UNL A   1      43.118  23.609  35.585  1.00  0.00    -0.744 OA
ENDBRANCH  99 100
ENDBRANCH  67  92
ENDBRANCH  41  42
ENDBRANCH  34  36
ENDBRANCH  33  34
ENDBRANCH  32  33
ENDBRANCH  31  32
ENDBRANCH  30  31
ENDBRANCH  29  30
ENDBRANCH  28  29
ENDBRANCH  27  28
ENDBRANCH   1  27
TORSDOF 28
ENDMDL
