MODEL 1
REMARK VINA RESULT:      -7.6      0.000      0.000
REMARK SMILES O=C(C[C@]1(C(=O)NC2CCCCC2)CC(c2ccc([N+](=O)[O-])cc2)=NO1)OCCOCCOCCOCCOC(=O)c1ccc(-c2c3nc(c(-c4c(F)cc(S(=O)(=O)[O-])cc4F)c4ccc([nH]4)c(-c4c(F)cc(S(=O)(=O)[O-])cc4F)c4nc(c(-c5c(F)cc(S(=O)(=O)[O-])cc5F)c5ccc2[nH]5)C=C4)C=C3)cc1
REMARK SMILES IDX 33 1 32 2 31 3 30 4 29 5 28 6 27 7 2 8 1 9 3 10 4 11 14 12
REMARK SMILES IDX 26 13 15 14 25 15 5 16 6 17 7 18 8 20 9 21 13 22 10 23 12 24
REMARK SMILES IDX 11 25 16 26 17 27 24 28 18 29 23 30 19 31 20 32 21 33 22 34
REMARK SMILES IDX 34 35 35 36 36 37 37 38 38 39 39 40 40 41 41 42 42 43 43 44
REMARK SMILES IDX 107 45 44 46 106 47 45 48 46 49 47 50 100 51 48 52 105 53
REMARK SMILES IDX 99 54 101 55 49 56 104 57 98 58 97 59 50 61 84 62 63 63
REMARK SMILES IDX 83 64 64 65 67 66 82 67 102 68 65 69 66 70 81 72 103 73
REMARK SMILES IDX 68 74 51 75 52 76 61 77 53 78 54 79 60 80 62 81 55 82 56 83
REMARK SMILES IDX 57 84 58 85 59 86 85 87 86 88 95 89 87 90 88 91 94 92 96 93
REMARK SMILES IDX 89 94 90 95 91 96 92 97 93 98 69 99 70 100 79 101 71 102
REMARK SMILES IDX 72 103 78 104 80 105 73 106 74 107 75 108 76 109 77 110
REMARK H PARENT 7 19 101 60 67 71
REMARK Flexibility Score: inf
ROOT
ATOM      1  O   UNL A   1      42.952  37.882  34.180  1.00  0.00    -0.377 OA
ENDROOT
BRANCH   1   2
ATOM      2  C   UNL A   1      42.933  37.021  35.299  1.00  0.00     0.188 C 
BRANCH   2   3
ATOM      3  C   UNL A   1      41.526  36.632  35.780  1.00  0.00     0.188 C 
BRANCH   3   4
ATOM      4  O   UNL A   1      41.017  35.359  35.408  1.00  0.00    -0.376 OA
BRANCH   4   5
ATOM      5  C   UNL A   1      41.299  34.839  34.117  1.00  0.00     0.202 C 
BRANCH   5   6
ATOM      6  C   UNL A   1      40.508  33.654  33.589  1.00  0.00     0.261 C 
BRANCH   6   7
ATOM      7  O   UNL A   1      39.480  33.844  32.586  1.00  0.00    -0.463 OA
BRANCH   7   8
ATOM      8  C   UNL A   1      38.223  34.296  32.552  1.00  0.00     0.310 C 
ATOM      9  O   UNL A   1      37.791  34.898  33.536  1.00  0.00    -0.252 OA
BRANCH   8  10
ATOM     10  C   UNL A   1      37.369  34.165  31.332  1.00  0.00     0.185 C 
BRANCH  10  11
ATOM     11  C   UNL A   1      36.757  32.777  31.120  1.00  0.00     0.231 C 
ATOM     12  C   UNL A   1      37.639  31.633  30.786  1.00  0.00     0.123 C 
ATOM     13  O   UNL A   1      35.934  32.873  29.912  1.00  0.00    -0.378 OA
ATOM     14  C   UNL A   1      37.529  31.512  29.335  1.00  0.00     0.092 C 
ATOM     15  N   UNL A   1      36.603  32.228  28.807  1.00  0.00    -0.089 NA
BRANCH  11  16
ATOM     16  C   UNL A   1      35.867  32.384  32.332  1.00  0.00     0.268 C 
ATOM     17  O   UNL A   1      36.010  31.274  32.863  1.00  0.00    -0.270 OA
ATOM     18  N   UNL A   1      34.891  33.160  32.905  1.00  0.00    -0.350 N 
ATOM     19  H   UNL A   1      34.631  32.753  33.763  1.00  0.00     0.163 HD
BRANCH  18  20
ATOM     20  C   UNL A   1      34.075  34.402  32.701  1.00  0.00     0.082 C 
ATOM     21  C   UNL A   1      34.642  35.548  33.565  1.00  0.00     0.025 C 
ATOM     22  C   UNL A   1      33.875  34.949  31.293  1.00  0.00     0.025 C 
ATOM     23  C   UNL A   1      33.866  36.870  33.427  1.00  0.00     0.002 C 
ATOM     24  C   UNL A   1      32.940  36.141  31.226  1.00  0.00     0.002 C 
ATOM     25  C   UNL A   1      33.595  37.281  31.980  1.00  0.00     0.000 C 
ENDBRANCH  18  20
ENDBRANCH  11  16
BRANCH  14  26
ATOM     26  C   UNL A   1      38.482  30.555  28.762  1.00  0.00    -0.000 A 
ATOM     27  C   UNL A   1      39.802  30.573  29.218  1.00  0.00     0.017 A 
ATOM     28  C   UNL A   1      37.908  29.361  28.285  1.00  0.00     0.017 A 
ATOM     29  C   UNL A   1      40.540  29.381  29.227  1.00  0.00     0.086 A 
ATOM     30  C   UNL A   1      38.623  28.166  28.331  1.00  0.00     0.086 A 
ATOM     31  C   UNL A   1      39.935  28.181  28.815  1.00  0.00     0.269 A 
BRANCH  31  32
ATOM     32  N   UNL A   1      40.657  26.912  28.956  1.00  0.00     0.062 N 
ATOM     33  O   UNL A   1      40.082  25.881  28.584  1.00  0.00    -0.258 OA
ATOM     34  O   UNL A   1      41.795  26.953  29.444  1.00  0.00    -0.258 OA
ENDBRANCH  31  32
ENDBRANCH  14  26
ENDBRANCH  10  11
ENDBRANCH   8  10
ENDBRANCH   7   8
ENDBRANCH   6   7
ENDBRANCH   5   6
ENDBRANCH   4   5
ENDBRANCH   3   4
ENDBRANCH   2   3
ENDBRANCH   1   2
BRANCH   1  35
ATOM     35  C   UNL A   1      43.846  37.635  33.107  1.00  0.00     0.188 C 
BRANCH  35  36
ATOM     36  C   UNL A   1      44.290  38.754  32.145  1.00  0.00     0.188 C 
BRANCH  36  37
ATOM     37  O   UNL A   1      43.331  39.083  31.148  1.00  0.00    -0.376 OA
BRANCH  37  38
ATOM     38  C   UNL A   1      43.812  39.210  29.818  1.00  0.00     0.202 C 
BRANCH  38  39
ATOM     39  C   UNL A   1      42.825  38.747  28.736  1.00  0.00     0.261 C 
BRANCH  39  40
ATOM     40  O   UNL A   1      43.362  37.843  27.757  1.00  0.00    -0.460 OA
BRANCH  40  41
ATOM     41  C   UNL A   1      42.656  36.719  27.503  1.00  0.00     0.338 C 
ATOM     42  O   UNL A   1      41.455  36.648  27.303  1.00  0.00    -0.246 OA
BRANCH  41  43
ATOM     43  C   UNL A   1      43.608  35.605  27.279  1.00  0.00     0.060 A 
ATOM     44  C   UNL A   1      44.278  35.069  28.387  1.00  0.00     0.016 A 
ATOM     45  C   UNL A   1      43.809  35.059  26.005  1.00  0.00     0.016 A 
ATOM     46  C   UNL A   1      45.210  34.044  28.214  1.00  0.00     0.010 A 
ATOM     47  C   UNL A   1      44.753  34.041  25.829  1.00  0.00     0.010 A 
ATOM     48  C   UNL A   1      45.499  33.574  26.925  1.00  0.00    -0.014 A 
BRANCH  48  49
ATOM     49  C   UNL A   1      46.786  32.872  26.692  1.00  0.00     0.031 A 
ATOM     50  C   UNL A   1      46.749  31.364  26.683  1.00  0.00     0.074 A 
ATOM     51  C   UNL A   1      47.939  33.524  26.455  1.00  0.00     0.049 A 
ATOM     52  N   UNL A   1      47.714  30.506  26.481  1.00  0.00    -0.248 NA
ATOM     53  C   UNL A   1      45.437  30.743  26.938  1.00  0.00     0.031 C 
ATOM     54  C   UNL A   1      48.102  34.974  26.401  1.00  0.00     0.029 A 
ATOM     55  N   UNL A   1      49.199  33.034  26.211  1.00  0.00    -0.354 N 
ATOM     56  C   UNL A   1      47.126  29.250  26.584  1.00  0.00     0.074 A 
ATOM     57  C   UNL A   1      45.732  29.454  26.902  1.00  0.00     0.031 C 
ATOM     58  C   UNL A   1      49.392  35.258  26.140  1.00  0.00     0.029 A 
ATOM     59  C   UNL A   1      50.149  34.010  26.030  1.00  0.00     0.049 A 
ATOM     60  H   UNL A   1      49.402  32.071  26.170  1.00  0.00     0.167 HD
ATOM     61  C   UNL A   1      47.689  28.031  26.418  1.00  0.00     0.037 A 
ATOM     62  C   UNL A   1      51.475  33.902  25.807  1.00  0.00     0.037 A 
ATOM     63  C   UNL A   1      49.078  27.824  26.115  1.00  0.00     0.049 A 
ATOM     64  C   UNL A   1      52.098  32.530  25.697  1.00  0.00     0.074 A 
ATOM     65  C   UNL A   1      49.747  26.631  25.918  1.00  0.00     0.029 A 
ATOM     66  N   UNL A   1      50.012  28.839  25.978  1.00  0.00    -0.354 N 
ATOM     67  N   UNL A   1      51.523  31.352  25.760  1.00  0.00    -0.248 NA
ATOM     68  C   UNL A   1      53.552  32.476  25.480  1.00  0.00     0.031 C 
ATOM     69  C   UNL A   1      51.099  26.922  25.709  1.00  0.00     0.029 A 
ATOM     70  C   UNL A   1      51.260  28.299  25.723  1.00  0.00     0.049 A 
ATOM     71  H   UNL A   1      49.817  29.801  26.052  1.00  0.00     0.167 HD
ATOM     72  C   UNL A   1      52.538  30.420  25.554  1.00  0.00     0.074 A 
ATOM     73  C   UNL A   1      53.760  31.172  25.361  1.00  0.00     0.031 C 
ATOM     74  C   UNL A   1      52.465  29.065  25.521  1.00  0.00     0.037 A 
BRANCH  61  75
ATOM     75  C   UNL A   1      46.799  26.835  26.602  1.00  0.00     0.058 A 
ATOM     76  C   UNL A   1      46.030  26.316  25.547  1.00  0.00     0.135 A 
ATOM     77  C   UNL A   1      46.700  26.211  27.855  1.00  0.00     0.135 A 
ATOM     78  F   UNL A   1      46.066  26.893  24.336  1.00  0.00    -0.206 F 
ATOM     79  C   UNL A   1      45.168  25.241  25.738  1.00  0.00     0.059 A 
ATOM     80  C   UNL A   1      45.866  25.117  28.061  1.00  0.00     0.059 A 
ATOM     81  F   UNL A   1      47.406  26.674  28.899  1.00  0.00    -0.206 F 
ATOM     82  C   UNL A   1      45.091  24.651  27.000  1.00  0.00     0.060 A 
BRANCH  82  83
ATOM     83  S   UNL A   1      43.957  23.268  27.239  1.00  0.00     0.124 S 
ATOM     84  O   UNL A   1      44.154  22.972  28.655  1.00  0.00    -0.237 OA
ATOM     85  O   UNL A   1      42.668  23.856  26.888  1.00  0.00    -0.237 OA
ATOM     86  O   UNL A   1      44.454  22.257  26.311  1.00  0.00    -0.744 OA
ENDBRANCH  82  83
ENDBRANCH  61  75
BRANCH  62  87
ATOM     87  C   UNL A   1      52.315  35.122  25.660  1.00  0.00     0.058 A 
ATOM     88  C   UNL A   1      52.514  35.716  24.404  1.00  0.00     0.135 A 
ATOM     89  C   UNL A   1      52.949  35.708  26.766  1.00  0.00     0.135 A 
ATOM     90  F   UNL A   1      51.943  35.185  23.312  1.00  0.00    -0.206 F 
ATOM     91  C   UNL A   1      53.321  36.840  24.247  1.00  0.00     0.059 A 
ATOM     92  C   UNL A   1      53.741  36.846  26.638  1.00  0.00     0.059 A 
ATOM     93  F   UNL A   1      52.788  35.182  27.990  1.00  0.00    -0.206 F 
ATOM     94  C   UNL A   1      53.927  37.400  25.372  1.00  0.00     0.060 A 
BRANCH  94  95
ATOM     95  S   UNL A   1      54.922  38.894  25.165  1.00  0.00     0.124 S 
ATOM     96  O   UNL A   1      55.236  38.844  23.742  1.00  0.00    -0.237 OA
ATOM     97  O   UNL A   1      53.990  39.938  25.579  1.00  0.00    -0.237 OA
ATOM     98  O   UNL A   1      56.046  38.674  26.070  1.00  0.00    -0.744 OA
ENDBRANCH  94  95
ENDBRANCH  62  87
BRANCH  74  99
ATOM     99  C   UNL A   1      53.728  28.306  25.219  1.00  0.00     0.058 A 
ATOM    100  C   UNL A   1      54.222  28.177  23.912  1.00  0.00     0.135 A 
ATOM    101  C   UNL A   1      54.485  27.748  26.263  1.00  0.00     0.135 A 
ATOM    102  F   UNL A   1      53.538  28.691  22.878  1.00  0.00    -0.206 F 
ATOM    103  C   UNL A   1      55.405  27.495  23.647  1.00  0.00     0.059 A 
ATOM    104  C   UNL A   1      55.684  27.086  26.025  1.00  0.00     0.059 A 
ATOM    105  F   UNL A   1      54.066  27.857  27.534  1.00  0.00    -0.206 F 
ATOM    106  C   UNL A   1      56.129  26.952  24.710  1.00  0.00     0.060 A 
BRANCH 106 107
ATOM    107  S   UNL A   1      57.674  26.087  24.357  1.00  0.00     0.124 S 
ATOM    108  O   UNL A   1      58.664  27.071  24.781  1.00  0.00    -0.237 OA
ATOM    109  O   UNL A   1      57.566  24.895  25.193  1.00  0.00    -0.237 OA
ATOM    110  O   UNL A   1      57.606  25.844  22.920  1.00  0.00    -0.744 OA
ENDBRANCH 106 107
ENDBRANCH  74  99
ENDBRANCH  48  49
ENDBRANCH  41  43
ENDBRANCH  40  41
ENDBRANCH  39  40
ENDBRANCH  38  39
ENDBRANCH  37  38
ENDBRANCH  36  37
ENDBRANCH  35  36
ENDBRANCH   1  35
TORSDOF 28
ENDMDL
MODEL 2
REMARK VINA RESULT:      -7.5      4.766      8.807
REMARK SMILES O=C(C[C@]1(C(=O)NC2CCCCC2)CC(c2ccc([N+](=O)[O-])cc2)=NO1)OCCOCCOCCOCCOC(=O)c1ccc(-c2c3nc(c(-c4c(F)cc(S(=O)(=O)[O-])cc4F)c4ccc([nH]4)c(-c4c(F)cc(S(=O)(=O)[O-])cc4F)c4nc(c(-c5c(F)cc(S(=O)(=O)[O-])cc5F)c5ccc2[nH]5)C=C4)C=C3)cc1
REMARK SMILES IDX 33 1 32 2 31 3 30 4 29 5 28 6 27 7 2 8 1 9 3 10 4 11 14 12
REMARK SMILES IDX 26 13 15 14 25 15 5 16 6 17 7 18 8 20 9 21 13 22 10 23 12 24
REMARK SMILES IDX 11 25 16 26 17 27 24 28 18 29 23 30 19 31 20 32 21 33 22 34
REMARK SMILES IDX 34 35 35 36 36 37 37 38 38 39 39 40 40 41 41 42 42 43 43 44
REMARK SMILES IDX 107 45 44 46 106 47 45 48 46 49 47 50 100 51 48 52 105 53
REMARK SMILES IDX 99 54 101 55 49 56 104 57 98 58 97 59 50 61 84 62 63 63
REMARK SMILES IDX 83 64 64 65 67 66 82 67 102 68 65 69 66 70 81 72 103 73
REMARK SMILES IDX 68 74 51 75 52 76 61 77 53 78 54 79 60 80 62 81 55 82 56 83
REMARK SMILES IDX 57 84 58 85 59 86 85 87 86 88 95 89 87 90 88 91 94 92 96 93
REMARK SMILES IDX 89 94 90 95 91 96 92 97 93 98 69 99 70 100 79 101 71 102
REMARK SMILES IDX 72 103 78 104 80 105 73 106 74 107 75 108 76 109 77 110
REMARK H PARENT 7 19 101 60 67 71
REMARK Flexibility Score: inf
ROOT
ATOM      1  O   UNL A   1      42.185  37.562  34.523  1.00  0.00    -0.377 OA
ENDROOT
BRANCH   1   2
ATOM      2  C   UNL A   1      41.814  36.623  35.512  1.00  0.00     0.188 C 
BRANCH   2   3
ATOM      3  C   UNL A   1      40.304  36.351  35.596  1.00  0.00     0.188 C 
BRANCH   3   4
ATOM      4  O   UNL A   1      39.834  35.058  35.238  1.00  0.00    -0.376 OA
BRANCH   4   5
ATOM      5  C   UNL A   1      40.602  34.251  34.357  1.00  0.00     0.202 C 
BRANCH   5   6
ATOM      6  C   UNL A   1      40.000  32.981  33.777  1.00  0.00     0.261 C 
BRANCH   6   7
ATOM      7  O   UNL A   1      39.811  32.845  32.347  1.00  0.00    -0.463 OA
BRANCH   7   8
ATOM      8  C   UNL A   1      38.911  33.237  31.440  1.00  0.00     0.310 C 
ATOM      9  O   UNL A   1      38.204  34.211  31.702  1.00  0.00    -0.252 OA
BRANCH   8  10
ATOM     10  C   UNL A   1      38.802  32.583  30.101  1.00  0.00     0.185 C 
BRANCH  10  11
ATOM     11  C   UNL A   1      38.164  31.191  30.112  1.00  0.00     0.231 C 
ATOM     12  C   UNL A   1      39.008  29.998  29.863  1.00  0.00     0.123 C 
ATOM     13  O   UNL A   1      37.254  31.149  28.965  1.00  0.00    -0.378 OA
ATOM     14  C   UNL A   1      38.789  29.697  28.452  1.00  0.00     0.092 C 
ATOM     15  N   UNL A   1      37.832  30.357  27.905  1.00  0.00    -0.089 NA
BRANCH  11  16
ATOM     16  C   UNL A   1      37.364  30.970  31.427  1.00  0.00     0.268 C 
ATOM     17  O   UNL A   1      37.763  30.139  32.255  1.00  0.00    -0.270 OA
ATOM     18  N   UNL A   1      36.210  31.617  31.790  1.00  0.00    -0.350 N 
ATOM     19  H   UNL A   1      36.034  31.433  32.741  1.00  0.00     0.163 HD
BRANCH  18  20
ATOM     20  C   UNL A   1      35.117  32.502  31.266  1.00  0.00     0.082 C 
ATOM     21  C   UNL A   1      34.735  33.549  32.333  1.00  0.00     0.025 C 
ATOM     22  C   UNL A   1      35.315  33.243  29.950  1.00  0.00     0.025 C 
ATOM     23  C   UNL A   1      33.614  34.505  31.888  1.00  0.00     0.002 C 
ATOM     24  C   UNL A   1      34.089  34.008  29.488  1.00  0.00     0.002 C 
ATOM     25  C   UNL A   1      33.827  35.107  30.500  1.00  0.00     0.000 C 
ENDBRANCH  18  20
ENDBRANCH  11  16
BRANCH  14  26
ATOM     26  C   UNL A   1      39.687  28.658  27.936  1.00  0.00    -0.000 A 
ATOM     27  C   UNL A   1      41.047  28.952  27.814  1.00  0.00     0.017 A 
ATOM     28  C   UNL A   1      39.262  27.336  28.172  1.00  0.00     0.017 A 
ATOM     29  C   UNL A   1      41.987  27.923  27.962  1.00  0.00     0.086 A 
ATOM     30  C   UNL A   1      40.194  26.317  28.360  1.00  0.00     0.086 A 
ATOM     31  C   UNL A   1      41.556  26.620  28.266  1.00  0.00     0.269 A 
BRANCH  31  32
ATOM     32  N   UNL A   1      42.540  25.573  28.559  1.00  0.00     0.062 N 
ATOM     33  O   UNL A   1      42.115  24.488  28.975  1.00  0.00    -0.258 OA
ATOM     34  O   UNL A   1      43.735  25.845  28.376  1.00  0.00    -0.258 OA
ENDBRANCH  31  32
ENDBRANCH  14  26
ENDBRANCH  10  11
ENDBRANCH   8  10
ENDBRANCH   7   8
ENDBRANCH   6   7
ENDBRANCH   5   6
ENDBRANCH   4   5
ENDBRANCH   3   4
ENDBRANCH   2   3
ENDBRANCH   1   2
BRANCH   1  35
ATOM     35  C   UNL A   1      43.230  37.260  33.613  1.00  0.00     0.188 C 
BRANCH  35  36
ATOM     36  C   UNL A   1      44.273  38.315  33.194  1.00  0.00     0.188 C 
BRANCH  36  37
ATOM     37  O   UNL A   1      43.749  39.373  32.402  1.00  0.00    -0.376 OA
BRANCH  37  38
ATOM     38  C   UNL A   1      44.582  39.865  31.363  1.00  0.00     0.202 C 
BRANCH  38  39
ATOM     39  C   UNL A   1      43.888  40.006  30.001  1.00  0.00     0.261 C 
BRANCH  39  40
ATOM     40  O   UNL A   1      44.233  39.009  29.025  1.00  0.00    -0.460 OA
BRANCH  40  41
ATOM     41  C   UNL A   1      43.267  38.134  28.670  1.00  0.00     0.338 C 
ATOM     42  O   UNL A   1      42.235  38.396  28.075  1.00  0.00    -0.246 OA
BRANCH  41  43
ATOM     43  C   UNL A   1      43.762  36.758  28.918  1.00  0.00     0.060 A 
ATOM     44  C   UNL A   1      42.966  35.681  28.504  1.00  0.00     0.016 A 
ATOM     45  C   UNL A   1      45.011  36.525  29.506  1.00  0.00     0.016 A 
ATOM     46  C   UNL A   1      43.379  34.370  28.752  1.00  0.00     0.010 A 
ATOM     47  C   UNL A   1      45.419  35.212  29.767  1.00  0.00     0.010 A 
ATOM     48  C   UNL A   1      44.575  34.134  29.445  1.00  0.00    -0.014 A 
BRANCH  48  49
ATOM     49  C   UNL A   1      44.763  32.827  30.122  1.00  0.00     0.031 A 
ATOM     50  C   UNL A   1      45.349  31.709  29.296  1.00  0.00     0.074 A 
ATOM     51  C   UNL A   1      44.474  32.630  31.421  1.00  0.00     0.049 A 
ATOM     52  N   UNL A   1      45.640  30.481  29.637  1.00  0.00    -0.248 NA
ATOM     53  C   UNL A   1      45.646  32.026  27.887  1.00  0.00     0.031 C 
ATOM     54  C   UNL A   1      43.938  33.635  32.336  1.00  0.00     0.029 A 
ATOM     55  N   UNL A   1      44.598  31.502  32.195  1.00  0.00    -0.354 N 
ATOM     56  C   UNL A   1      46.152  29.885  28.490  1.00  0.00     0.074 A 
ATOM     57  C   UNL A   1      46.100  30.869  27.435  1.00  0.00     0.031 C 
ATOM     58  C   UNL A   1      43.779  33.076  33.550  1.00  0.00     0.029 A 
ATOM     59  C   UNL A   1      44.181  31.670  33.493  1.00  0.00     0.049 A 
ATOM     60  H   UNL A   1      44.953  30.650  31.849  1.00  0.00     0.167 HD
ATOM     61  C   UNL A   1      46.636  28.631  28.327  1.00  0.00     0.037 A 
ATOM     62  C   UNL A   1      44.127  30.786  34.511  1.00  0.00     0.037 A 
ATOM     63  C   UNL A   1      46.678  27.646  29.371  1.00  0.00     0.049 A 
ATOM     64  C   UNL A   1      44.605  29.371  34.288  1.00  0.00     0.074 A 
ATOM     65  C   UNL A   1      47.157  26.351  29.314  1.00  0.00     0.029 A 
ATOM     66  N   UNL A   1      46.210  27.846  30.660  1.00  0.00    -0.354 N 
ATOM     67  N   UNL A   1      45.121  28.831  33.208  1.00  0.00    -0.248 NA
ATOM     68  C   UNL A   1      44.497  28.446  35.426  1.00  0.00     0.031 C 
ATOM     69  C   UNL A   1      46.934  25.750  30.557  1.00  0.00     0.029 A 
ATOM     70  C   UNL A   1      46.366  26.690  31.404  1.00  0.00     0.049 A 
ATOM     71  H   UNL A   1      45.824  28.687  30.998  1.00  0.00     0.167 HD
ATOM     72  C   UNL A   1      45.433  27.517  33.549  1.00  0.00     0.074 A 
ATOM     73  C   UNL A   1      45.051  27.346  34.935  1.00  0.00     0.031 C 
ATOM     74  C   UNL A   1      45.990  26.541  32.787  1.00  0.00     0.037 A 
BRANCH  61  75
ATOM     75  C   UNL A   1      47.121  28.259  26.955  1.00  0.00     0.058 A 
ATOM     76  C   UNL A   1      46.252  27.743  25.978  1.00  0.00     0.135 A 
ATOM     77  C   UNL A   1      48.475  28.404  26.617  1.00  0.00     0.135 A 
ATOM     78  F   UNL A   1      44.953  27.558  26.259  1.00  0.00    -0.206 F 
ATOM     79  C   UNL A   1      46.717  27.352  24.727  1.00  0.00     0.059 A 
ATOM     80  C   UNL A   1      48.956  28.046  25.363  1.00  0.00     0.059 A 
ATOM     81  F   UNL A   1      49.348  28.883  27.517  1.00  0.00    -0.206 F 
ATOM     82  C   UNL A   1      48.072  27.503  24.431  1.00  0.00     0.060 A 
BRANCH  82  83
ATOM     83  S   UNL A   1      48.666  26.976  22.811  1.00  0.00     0.124 S 
ATOM     84  O   UNL A   1      50.109  27.136  22.964  1.00  0.00    -0.237 OA
ATOM     85  O   UNL A   1      48.187  25.600  22.734  1.00  0.00    -0.237 OA
ATOM     86  O   UNL A   1      48.025  27.912  21.893  1.00  0.00    -0.744 OA
ENDBRANCH  82  83
ENDBRANCH  61  75
BRANCH  62  87
ATOM     87  C   UNL A   1      43.612  31.204  35.844  1.00  0.00     0.058 A 
ATOM     88  C   UNL A   1      42.243  31.135  36.143  1.00  0.00     0.135 A 
ATOM     89  C   UNL A   1      44.472  31.697  36.836  1.00  0.00     0.135 A 
ATOM     90  F   UNL A   1      41.376  30.686  35.222  1.00  0.00    -0.206 F 
ATOM     91  C   UNL A   1      41.742  31.550  37.374  1.00  0.00     0.059 A 
ATOM     92  C   UNL A   1      43.999  32.095  38.083  1.00  0.00     0.059 A 
ATOM     93  F   UNL A   1      45.791  31.780  36.602  1.00  0.00    -0.206 F 
ATOM     94  C   UNL A   1      42.630  32.025  38.340  1.00  0.00     0.060 A 
BRANCH  94  95
ATOM     95  S   UNL A   1      41.978  32.503  39.955  1.00  0.00     0.124 S 
ATOM     96  O   UNL A   1      40.545  32.318  39.761  1.00  0.00    -0.237 OA
ATOM     97  O   UNL A   1      42.632  31.546  40.842  1.00  0.00    -0.237 OA
ATOM     98  O   UNL A   1      42.424  33.885  40.100  1.00  0.00    -0.744 OA
ENDBRANCH  94  95
ENDBRANCH  62  87
BRANCH  74  99
ATOM     99  C   UNL A   1      46.267  25.217  33.444  1.00  0.00     0.058 A 
ATOM    100  C   UNL A   1      47.510  24.922  34.027  1.00  0.00     0.135 A 
ATOM    101  C   UNL A   1      45.253  24.249  33.540  1.00  0.00     0.135 A 
ATOM    102  F   UNL A   1      48.513  25.812  33.963  1.00  0.00    -0.206 F 
ATOM    103  C   UNL A   1      47.747  23.704  34.654  1.00  0.00     0.059 A 
ATOM    104  C   UNL A   1      45.459  23.035  34.187  1.00  0.00     0.059 A 
ATOM    105  F   UNL A   1      44.041  24.486  33.014  1.00  0.00    -0.206 F 
ATOM    106  C   UNL A   1      46.715  22.766  34.728  1.00  0.00     0.060 A 
BRANCH 106 107
ATOM    107  S   UNL A   1      47.027  21.196  35.564  1.00  0.00     0.124 S 
ATOM    108  O   UNL A   1      47.384  20.333  34.444  1.00  0.00    -0.237 OA
ATOM    109  O   UNL A   1      48.116  21.536  36.476  1.00  0.00    -0.237 OA
ATOM    110  O   UNL A   1      45.752  20.895  36.208  1.00  0.00    -0.744 OA
ENDBRANCH 106 107
ENDBRANCH  74  99
ENDBRANCH  48  49
ENDBRANCH  41  43
ENDBRANCH  40  41
ENDBRANCH  39  40
ENDBRANCH  38  39
ENDBRANCH  37  38
ENDBRANCH  36  37
ENDBRANCH  35  36
ENDBRANCH   1  35
TORSDOF 28
ENDMDL
MODEL 3
REMARK VINA RESULT:      -7.4      5.576     12.154
REMARK SMILES O=C(C[C@]1(C(=O)NC2CCCCC2)CC(c2ccc([N+](=O)[O-])cc2)=NO1)OCCOCCOCCOCCOC(=O)c1ccc(-c2c3nc(c(-c4c(F)cc(S(=O)(=O)[O-])cc4F)c4ccc([nH]4)c(-c4c(F)cc(S(=O)(=O)[O-])cc4F)c4nc(c(-c5c(F)cc(S(=O)(=O)[O-])cc5F)c5ccc2[nH]5)C=C4)C=C3)cc1
REMARK SMILES IDX 33 1 32 2 31 3 30 4 29 5 28 6 27 7 2 8 1 9 3 10 4 11 14 12
REMARK SMILES IDX 26 13 15 14 25 15 5 16 6 17 7 18 8 20 9 21 13 22 10 23 12 24
REMARK SMILES IDX 11 25 16 26 17 27 24 28 18 29 23 30 19 31 20 32 21 33 22 34
REMARK SMILES IDX 34 35 35 36 36 37 37 38 38 39 39 40 40 41 41 42 42 43 43 44
REMARK SMILES IDX 107 45 44 46 106 47 45 48 46 49 47 50 100 51 48 52 105 53
REMARK SMILES IDX 99 54 101 55 49 56 104 57 98 58 97 59 50 61 84 62 63 63
REMARK SMILES IDX 83 64 64 65 67 66 82 67 102 68 65 69 66 70 81 72 103 73
REMARK SMILES IDX 68 74 51 75 52 76 61 77 53 78 54 79 60 80 62 81 55 82 56 83
REMARK SMILES IDX 57 84 58 85 59 86 85 87 86 88 95 89 87 90 88 91 94 92 96 93
REMARK SMILES IDX 89 94 90 95 91 96 92 97 93 98 69 99 70 100 79 101 71 102
REMARK SMILES IDX 72 103 78 104 80 105 73 106 74 107 75 108 76 109 77 110
REMARK H PARENT 7 19 101 60 67 71
REMARK Flexibility Score: inf
ROOT
ATOM      1  O   UNL A   1      44.386  25.440  30.865  1.00  0.00    -0.377 OA
ENDROOT
BRANCH   1   2
ATOM      2  C   UNL A   1      44.382  25.034  29.512  1.00  0.00     0.188 C 
BRANCH   2   3
ATOM      3  C   UNL A   1      45.778  24.813  28.910  1.00  0.00     0.188 C 
BRANCH   3   4
ATOM      4  O   UNL A   1      46.321  25.831  28.079  1.00  0.00    -0.376 OA
BRANCH   4   5
ATOM      5  C   UNL A   1      45.829  27.159  28.184  1.00  0.00     0.202 C 
BRANCH   5   6
ATOM      6  C   UNL A   1      45.091  27.787  27.014  1.00  0.00     0.261 C 
BRANCH   6   7
ATOM      7  O   UNL A   1      44.561  29.132  27.115  1.00  0.00    -0.463 OA
BRANCH   7   8
ATOM      8  C   UNL A   1      43.354  29.705  27.146  1.00  0.00     0.310 C 
ATOM      9  O   UNL A   1      42.760  29.874  26.081  1.00  0.00    -0.252 OA
BRANCH   8  10
ATOM     10  C   UNL A   1      42.683  30.064  28.433  1.00  0.00     0.185 C 
BRANCH  10  11
ATOM     11  C   UNL A   1      41.780  28.972  29.015  1.00  0.00     0.231 C 
ATOM     12  C   UNL A   1      41.929  27.574  28.546  1.00  0.00     0.123 C 
ATOM     13  O   UNL A   1      40.420  29.286  28.572  1.00  0.00    -0.378 OA
ATOM     14  C   UNL A   1      40.871  27.419  27.552  1.00  0.00     0.092 C 
ATOM     15  N   UNL A   1      40.026  28.386  27.513  1.00  0.00    -0.089 NA
BRANCH  11  16
ATOM     16  C   UNL A   1      41.843  28.987  30.568  1.00  0.00     0.268 C 
ATOM     17  O   UNL A   1      42.042  27.930  31.184  1.00  0.00    -0.270 OA
ATOM     18  N   UNL A   1      41.690  30.087  31.375  1.00  0.00    -0.350 N 
ATOM     19  H   UNL A   1      41.972  29.848  32.287  1.00  0.00     0.163 HD
BRANCH  18  20
ATOM     20  C   UNL A   1      41.250  31.521  31.373  1.00  0.00     0.082 C 
ATOM     21  C   UNL A   1      40.595  31.869  32.726  1.00  0.00     0.025 C 
ATOM     22  C   UNL A   1      42.259  32.618  31.059  1.00  0.00     0.025 C 
ATOM     23  C   UNL A   1      40.104  33.325  32.820  1.00  0.00     0.002 C 
ATOM     24  C   UNL A   1      41.651  34.006  30.982  1.00  0.00     0.002 C 
ATOM     25  C   UNL A   1      41.135  34.357  32.364  1.00  0.00     0.000 C 
ENDBRANCH  18  20
ENDBRANCH  11  16
BRANCH  14  26
ATOM     26  C   UNL A   1      40.957  26.158  26.808  1.00  0.00    -0.000 A 
ATOM     27  C   UNL A   1      41.863  26.067  25.749  1.00  0.00     0.017 A 
ATOM     28  C   UNL A   1      40.605  25.010  27.546  1.00  0.00     0.017 A 
ATOM     29  C   UNL A   1      42.444  24.827  25.449  1.00  0.00     0.086 A 
ATOM     30  C   UNL A   1      41.211  23.784  27.277  1.00  0.00     0.086 A 
ATOM     31  C   UNL A   1      42.140  23.702  26.235  1.00  0.00     0.269 A 
BRANCH  31  32
ATOM     32  N   UNL A   1      42.851  22.440  26.011  1.00  0.00     0.062 N 
ATOM     33  O   UNL A   1      42.230  21.524  25.454  1.00  0.00    -0.258 OA
ATOM     34  O   UNL A   1      44.025  22.369  26.399  1.00  0.00    -0.258 OA
ENDBRANCH  31  32
ENDBRANCH  14  26
ENDBRANCH  10  11
ENDBRANCH   8  10
ENDBRANCH   7   8
ENDBRANCH   6   7
ENDBRANCH   5   6
ENDBRANCH   4   5
ENDBRANCH   3   4
ENDBRANCH   2   3
ENDBRANCH   1   2
BRANCH   1  35
ATOM     35  C   UNL A   1      44.865  24.562  31.870  1.00  0.00     0.188 C 
BRANCH  35  36
ATOM     36  C   UNL A   1      45.715  25.067  33.053  1.00  0.00     0.188 C 
BRANCH  36  37
ATOM     37  O   UNL A   1      45.618  24.270  34.225  1.00  0.00    -0.376 OA
BRANCH  37  38
ATOM     38  C   UNL A   1      44.726  23.167  34.175  1.00  0.00     0.202 C 
BRANCH  38  39
ATOM     39  C   UNL A   1      43.507  23.288  35.101  1.00  0.00     0.261 C 
BRANCH  39  40
ATOM     40  O   UNL A   1      42.573  24.324  34.759  1.00  0.00    -0.460 OA
BRANCH  40  41
ATOM     41  C   UNL A   1      41.990  24.991  35.781  1.00  0.00     0.338 C 
ATOM     42  O   UNL A   1      41.468  24.495  36.765  1.00  0.00    -0.246 OA
BRANCH  41  43
ATOM     43  C   UNL A   1      42.283  26.436  35.629  1.00  0.00     0.060 A 
ATOM     44  C   UNL A   1      41.457  27.198  34.792  1.00  0.00     0.016 A 
ATOM     45  C   UNL A   1      43.326  27.049  36.334  1.00  0.00     0.016 A 
ATOM     46  C   UNL A   1      41.722  28.555  34.594  1.00  0.00     0.010 A 
ATOM     47  C   UNL A   1      43.600  28.405  36.126  1.00  0.00     0.010 A 
ATOM     48  C   UNL A   1      42.835  29.146  35.208  1.00  0.00    -0.014 A 
BRANCH  48  49
ATOM     49  C   UNL A   1      43.387  30.399  34.634  1.00  0.00     0.031 A 
ATOM     50  C   UNL A   1      42.957  31.692  35.278  1.00  0.00     0.074 A 
ATOM     51  C   UNL A   1      44.265  30.408  33.614  1.00  0.00     0.049 A 
ATOM     52  N   UNL A   1      43.301  32.921  34.998  1.00  0.00    -0.248 NA
ATOM     53  C   UNL A   1      42.004  31.577  36.398  1.00  0.00     0.031 C 
ATOM     54  C   UNL A   1      44.787  29.229  32.928  1.00  0.00     0.029 A 
ATOM     55  N   UNL A   1      44.874  31.464  32.980  1.00  0.00    -0.354 N 
ATOM     56  C   UNL A   1      42.610  33.720  35.902  1.00  0.00     0.074 A 
ATOM     57  C   UNL A   1      41.800  32.844  36.716  1.00  0.00     0.031 C 
ATOM     58  C   UNL A   1      45.640  29.628  31.966  1.00  0.00     0.029 A 
ATOM     59  C   UNL A   1      45.708  31.089  31.954  1.00  0.00     0.049 A 
ATOM     60  H   UNL A   1      44.726  32.403  33.238  1.00  0.00     0.167 HD
ATOM     61  C   UNL A   1      42.651  35.064  36.053  1.00  0.00     0.037 A 
ATOM     62  C   UNL A   1      46.434  31.844  31.105  1.00  0.00     0.037 A 
ATOM     63  C   UNL A   1      43.445  35.939  35.237  1.00  0.00     0.049 A 
ATOM     64  C   UNL A   1      46.409  33.348  31.244  1.00  0.00     0.074 A 
ATOM     65  C   UNL A   1      43.566  37.314  35.313  1.00  0.00     0.029 A 
ATOM     66  N   UNL A   1      44.245  35.522  34.184  1.00  0.00    -0.354 N 
ATOM     67  N   UNL A   1      45.781  34.088  32.127  1.00  0.00    -0.248 NA
ATOM     68  C   UNL A   1      47.200  34.119  30.273  1.00  0.00     0.031 C 
ATOM     69  C   UNL A   1      44.403  37.734  34.274  1.00  0.00     0.029 A 
ATOM     70  C   UNL A   1      44.845  36.615  33.585  1.00  0.00     0.049 A 
ATOM     71  H   UNL A   1      44.368  34.586  33.904  1.00  0.00     0.167 HD
ATOM     72  C   UNL A   1      46.129  35.405  31.840  1.00  0.00     0.074 A 
ATOM     73  C   UNL A   1      47.026  35.360  30.705  1.00  0.00     0.031 C 
ATOM     74  C   UNL A   1      45.746  36.550  32.462  1.00  0.00     0.037 A 
BRANCH  61  75
ATOM     75  C   UNL A   1      41.778  35.659  37.122  1.00  0.00     0.058 A 
ATOM     76  C   UNL A   1      40.422  35.948  36.894  1.00  0.00     0.135 A 
ATOM     77  C   UNL A   1      42.309  35.959  38.385  1.00  0.00     0.135 A 
ATOM     78  F   UNL A   1      39.871  35.706  35.694  1.00  0.00    -0.206 F 
ATOM     79  C   UNL A   1      39.633  36.546  37.871  1.00  0.00     0.059 A 
ATOM     80  C   UNL A   1      41.532  36.531  39.386  1.00  0.00     0.059 A 
ATOM     81  F   UNL A   1      43.602  35.712  38.651  1.00  0.00    -0.206 F 
ATOM     82  C   UNL A   1      40.199  36.837  39.113  1.00  0.00     0.060 A 
BRANCH  82  83
ATOM     83  S   UNL A   1      39.171  37.629  40.367  1.00  0.00     0.124 S 
ATOM     84  O   UNL A   1      38.613  36.470  41.058  1.00  0.00    -0.237 OA
ATOM     85  O   UNL A   1      40.144  38.409  41.123  1.00  0.00    -0.237 OA
ATOM     86  O   UNL A   1      38.219  38.409  39.582  1.00  0.00    -0.744 OA
ENDBRANCH  82  83
ENDBRANCH  61  75
BRANCH  62  87
ATOM     87  C   UNL A   1      47.261  31.202  30.046  1.00  0.00     0.058 A 
ATOM     88  C   UNL A   1      46.843  31.197  28.706  1.00  0.00     0.135 A 
ATOM     89  C   UNL A   1      48.473  30.565  30.353  1.00  0.00     0.135 A 
ATOM     90  F   UNL A   1      45.683  31.778  28.362  1.00  0.00    -0.206 F 
ATOM     91  C   UNL A   1      47.590  30.574  27.710  1.00  0.00     0.059 A 
ATOM     92  C   UNL A   1      49.249  29.957  29.371  1.00  0.00     0.059 A 
ATOM     93  F   UNL A   1      48.920  30.544  31.618  1.00  0.00    -0.206 F 
ATOM     94  C   UNL A   1      48.795  29.960  28.053  1.00  0.00     0.060 A 
BRANCH  94  95
ATOM     95  S   UNL A   1      49.786  29.208  26.742  1.00  0.00     0.124 S 
ATOM     96  O   UNL A   1      50.636  28.299  27.500  1.00  0.00    -0.237 OA
ATOM     97  O   UNL A   1      48.763  28.584  25.909  1.00  0.00    -0.237 OA
ATOM     98  O   UNL A   1      50.462  30.352  26.137  1.00  0.00    -0.744 OA
ENDBRANCH  94  95
ENDBRANCH  62  87
BRANCH  74  99
ATOM     99  C   UNL A   1      46.331  37.843  31.965  1.00  0.00     0.058 A 
ATOM    100  C   UNL A   1      47.557  38.335  32.440  1.00  0.00     0.135 A 
ATOM    101  C   UNL A   1      45.680  38.572  30.955  1.00  0.00     0.135 A 
ATOM    102  F   UNL A   1      48.220  37.677  33.404  1.00  0.00    -0.206 F 
ATOM    103  C   UNL A   1      48.101  39.519  31.954  1.00  0.00     0.059 A 
ATOM    104  C   UNL A   1      46.220  39.743  30.435  1.00  0.00     0.059 A 
ATOM    105  F   UNL A   1      44.513  38.137  30.454  1.00  0.00    -0.206 F 
ATOM    106  C   UNL A   1      47.424  40.217  30.952  1.00  0.00     0.060 A 
BRANCH 106 107
ATOM    107  S   UNL A   1      48.151  41.741  30.313  1.00  0.00     0.124 S 
ATOM    108  O   UNL A   1      49.024  42.134  31.415  1.00  0.00    -0.237 OA
ATOM    109  O   UNL A   1      48.825  41.285  29.101  1.00  0.00    -0.237 OA
ATOM    110  O   UNL A   1      46.993  42.602  30.092  1.00  0.00    -0.744 OA
ENDBRANCH 106 107
ENDBRANCH  74  99
ENDBRANCH  48  49
ENDBRANCH  41  43
ENDBRANCH  40  41
ENDBRANCH  39  40
ENDBRANCH  38  39
ENDBRANCH  37  38
ENDBRANCH  36  37
ENDBRANCH  35  36
ENDBRANCH   1  35
TORSDOF 28
ENDMDL
