MODEL 1
REMARK VINA RESULT:      -9.6      0.000      0.000
REMARK SMILES CC(=O)Nc1cccc(NC(=O)N[C@H](C(=O)OCCOCCOCCOCCOC(=O)c2ccc(-c3c4nc(c(-c5c(F)cc(S(=O)(=O)[O-])cc5F)c5ccc([nH]5)c(-c5c(F)cc(S(=O)(=O)[O-])cc5F)c5nc(c(-c6c(F)cc(S(=O)(=O)[O-])cc6F)c6ccc3[nH]6)C=C5)C=C4)cc2)C(C)C)c1
REMARK SMILES IDX 23 1 22 2 21 3 20 4 19 5 18 6 17 7 15 8 16 9 14 10 13 11
REMARK SMILES IDX 10 12 11 13 12 15 9 17 5 18 6 19 101 20 7 21 8 22 4 23 1 24
REMARK SMILES IDX 2 25 3 26 98 28 99 29 100 30 24 31 25 32 26 33 27 34 28 35
REMARK SMILES IDX 29 36 30 37 31 38 32 39 33 40 97 41 34 42 96 43 35 44 36 45
REMARK SMILES IDX 37 46 90 47 38 48 95 49 89 50 91 51 39 52 94 53 88 54 87 55
REMARK SMILES IDX 40 57 74 58 53 59 73 60 54 61 57 62 72 63 92 64 55 65 56 66
REMARK SMILES IDX 71 68 93 69 58 70 41 71 42 72 51 73 43 74 44 75 50 76 52 77
REMARK SMILES IDX 45 78 46 79 47 80 48 81 49 82 75 83 76 84 85 85 77 86 78 87
REMARK SMILES IDX 84 88 86 89 79 90 80 91 81 92 82 93 83 94 59 95 60 96 69 97
REMARK SMILES IDX 61 98 62 99 68 100 70 101 63 102 64 103 65 104 66 105 67 106
REMARK H PARENT 10 14 13 16 4 27 91 56 57 67
REMARK Flexibility Score: inf
ROOT
ATOM      1  O   UNL A   1      36.817  21.913  25.412  1.00  0.00    -0.377 OA
ENDROOT
BRANCH   1   2
ATOM      2  C   UNL A   1      35.710  21.802  24.551  1.00  0.00     0.188 C 
BRANCH   2   3
ATOM      3  C   UNL A   1      34.617  20.833  25.026  1.00  0.00     0.188 C 
BRANCH   3   4
ATOM      4  O   UNL A   1      33.487  20.438  24.256  1.00  0.00    -0.376 OA
BRANCH   4   5
ATOM      5  C   UNL A   1      32.338  21.203  23.915  1.00  0.00     0.202 C 
BRANCH   5   6
ATOM      6  C   UNL A   1      32.260  22.341  22.866  1.00  0.00     0.261 C 
BRANCH   6   7
ATOM      7  O   UNL A   1      32.851  23.616  23.171  1.00  0.00    -0.462 OA
BRANCH   7   8
ATOM      8  C   UNL A   1      31.889  24.543  23.316  1.00  0.00     0.329 C 
ATOM      9  O   UNL A   1      30.997  24.420  24.159  1.00  0.00    -0.250 OA
BRANCH   8  10
ATOM     10  C   UNL A   1      31.944  25.809  22.440  1.00  0.00     0.196 C 
BRANCH  10  11
ATOM     11  N   UNL A   1      30.926  26.903  22.405  1.00  0.00    -0.324 N 
ATOM     12  N   UNL A   1      31.460  28.885  23.737  1.00  0.00    -0.308 N 
ATOM     13  C   UNL A   1      31.030  28.243  22.613  1.00  0.00     0.319 C 
ATOM     14  H   UNL A   1      31.647  29.838  23.577  1.00  0.00     0.171 HD
ATOM     15  O   UNL A   1      30.623  28.980  21.703  1.00  0.00    -0.248 OA
ATOM     16  H   UNL A   1      30.014  26.599  22.193  1.00  0.00     0.166 HD
BRANCH  12  17
ATOM     17  C   UNL A   1      31.698  28.507  25.078  1.00  0.00     0.044 A 
ATOM     18  C   UNL A   1      32.971  28.658  27.135  1.00  0.00     0.043 A 
ATOM     19  C   UNL A   1      31.985  27.902  27.786  1.00  0.00     0.026 A 
ATOM     20  C   UNL A   1      32.797  28.993  25.783  1.00  0.00     0.052 A 
ATOM     21  C   UNL A   1      30.969  27.304  27.055  1.00  0.00     0.004 A 
ATOM     22  C   UNL A   1      30.899  27.520  25.679  1.00  0.00     0.026 A 
BRANCH  18  23
ATOM     23  N   UNL A   1      34.116  28.918  27.907  1.00  0.00    -0.326 N 
ATOM     24  C   UNL A   1      34.571  31.330  27.490  1.00  0.00     0.114 C 
ATOM     25  C   UNL A   1      34.966  29.976  27.991  1.00  0.00     0.221 C 
ATOM     26  O   UNL A   1      36.073  29.788  28.506  1.00  0.00    -0.275 OA
ATOM     27  H   UNL A   1      34.351  28.181  28.515  1.00  0.00     0.169 HD
ENDBRANCH  18  23
ENDBRANCH  12  17
ENDBRANCH  10  11
BRANCH  10  28
ATOM     28  C   UNL A   1      33.376  26.307  22.593  1.00  0.00     0.017 C 
ATOM     29  C   UNL A   1      33.826  27.583  21.858  1.00  0.00     0.010 C 
ATOM     30  C   UNL A   1      33.846  26.169  24.041  1.00  0.00     0.010 C 
ENDBRANCH  10  28
ENDBRANCH   8  10
ENDBRANCH   7   8
ENDBRANCH   6   7
ENDBRANCH   5   6
ENDBRANCH   4   5
ENDBRANCH   3   4
ENDBRANCH   2   3
ENDBRANCH   1   2
BRANCH   1  31
ATOM     31  C   UNL A   1      38.019  21.260  25.017  1.00  0.00     0.188 C 
BRANCH  31  32
ATOM     32  C   UNL A   1      39.155  21.059  26.052  1.00  0.00     0.188 C 
BRANCH  32  33
ATOM     33  O   UNL A   1      39.798  22.255  26.470  1.00  0.00    -0.376 OA
BRANCH  33  34
ATOM     34  C   UNL A   1      41.214  22.312  26.413  1.00  0.00     0.202 C 
BRANCH  34  35
ATOM     35  C   UNL A   1      41.834  23.659  26.008  1.00  0.00     0.261 C 
BRANCH  35  36
ATOM     36  O   UNL A   1      40.978  24.806  26.121  1.00  0.00    -0.460 OA
BRANCH  36  37
ATOM     37  C   UNL A   1      41.559  26.021  26.051  1.00  0.00     0.338 C 
ATOM     38  O   UNL A   1      41.824  26.644  25.034  1.00  0.00    -0.246 OA
BRANCH  37  39
ATOM     39  C   UNL A   1      41.622  26.591  27.411  1.00  0.00     0.060 A 
ATOM     40  C   UNL A   1      40.629  26.229  28.331  1.00  0.00     0.016 A 
ATOM     41  C   UNL A   1      42.625  27.496  27.768  1.00  0.00     0.016 A 
ATOM     42  C   UNL A   1      40.587  26.833  29.583  1.00  0.00     0.010 A 
ATOM     43  C   UNL A   1      42.565  28.125  29.015  1.00  0.00     0.010 A 
ATOM     44  C   UNL A   1      41.509  27.839  29.897  1.00  0.00    -0.014 A 
BRANCH  44  45
ATOM     45  C   UNL A   1      41.165  28.775  30.994  1.00  0.00     0.031 A 
ATOM     46  C   UNL A   1      42.013  28.732  32.240  1.00  0.00     0.074 A 
ATOM     47  C   UNL A   1      40.202  29.701  30.855  1.00  0.00     0.049 A 
ATOM     48  N   UNL A   1      41.955  29.473  33.314  1.00  0.00    -0.248 NA
ATOM     49  C   UNL A   1      43.077  27.712  32.273  1.00  0.00     0.031 C 
ATOM     50  C   UNL A   1      39.354  29.872  29.677  1.00  0.00     0.029 A 
ATOM     51  N   UNL A   1      39.783  30.681  31.719  1.00  0.00    -0.354 N 
ATOM     52  C   UNL A   1      42.967  29.009  34.147  1.00  0.00     0.074 A 
ATOM     53  C   UNL A   1      43.599  27.899  33.473  1.00  0.00     0.031 C 
ATOM     54  C   UNL A   1      38.509  30.896  29.895  1.00  0.00     0.029 A 
ATOM     55  C   UNL A   1      38.744  31.436  31.234  1.00  0.00     0.049 A 
ATOM     56  H   UNL A   1      40.190  30.829  32.604  1.00  0.00     0.167 HD
ATOM     57  C   UNL A   1      43.346  29.476  35.361  1.00  0.00     0.037 A 
ATOM     58  C   UNL A   1      38.055  32.439  31.815  1.00  0.00     0.037 A 
ATOM     59  C   UNL A   1      42.710  30.580  36.027  1.00  0.00     0.049 A 
ATOM     60  C   UNL A   1      38.456  32.903  33.193  1.00  0.00     0.074 A 
ATOM     61  C   UNL A   1      43.016  31.135  37.257  1.00  0.00     0.029 A 
ATOM     62  N   UNL A   1      41.634  31.295  35.521  1.00  0.00    -0.354 N 
ATOM     63  N   UNL A   1      39.423  32.466  33.966  1.00  0.00    -0.248 NA
ATOM     64  C   UNL A   1      37.679  34.009  33.772  1.00  0.00     0.031 C 
ATOM     65  C   UNL A   1      42.088  32.150  37.518  1.00  0.00     0.029 A 
ATOM     66  C   UNL A   1      41.248  32.271  36.423  1.00  0.00     0.049 A 
ATOM     67  H   UNL A   1      41.207  31.132  34.649  1.00  0.00     0.167 HD
ATOM     68  C   UNL A   1      39.391  33.263  35.107  1.00  0.00     0.074 A 
ATOM     69  C   UNL A   1      38.318  34.219  34.913  1.00  0.00     0.031 C 
ATOM     70  C   UNL A   1      40.176  33.215  36.214  1.00  0.00     0.037 A 
BRANCH  57  71
ATOM     71  C   UNL A   1      44.477  28.765  36.054  1.00  0.00     0.058 A 
ATOM     72  C   UNL A   1      45.814  29.168  35.905  1.00  0.00     0.135 A 
ATOM     73  C   UNL A   1      44.215  27.666  36.889  1.00  0.00     0.135 A 
ATOM     74  F   UNL A   1      46.125  30.196  35.099  1.00  0.00    -0.206 F 
ATOM     75  C   UNL A   1      46.853  28.493  36.538  1.00  0.00     0.059 A 
ATOM     76  C   UNL A   1      45.236  26.994  37.555  1.00  0.00     0.059 A 
ATOM     77  F   UNL A   1      42.957  27.231  37.060  1.00  0.00    -0.206 F 
ATOM     78  C   UNL A   1      46.553  27.406  37.363  1.00  0.00     0.060 A 
BRANCH  78  79
ATOM     79  S   UNL A   1      47.910  26.542  38.180  1.00  0.00     0.124 S 
ATOM     80  O   UNL A   1      48.893  27.612  38.322  1.00  0.00    -0.237 OA
ATOM     81  O   UNL A   1      47.287  26.085  39.418  1.00  0.00    -0.237 OA
ATOM     82  O   UNL A   1      48.263  25.489  37.233  1.00  0.00    -0.744 OA
ENDBRANCH  78  79
ENDBRANCH  57  71
BRANCH  58  83
ATOM     83  C   UNL A   1      36.917  33.074  31.096  1.00  0.00     0.058 A 
ATOM     84  C   UNL A   1      35.588  32.842  31.482  1.00  0.00     0.135 A 
ATOM     85  C   UNL A   1      37.138  33.921  30.000  1.00  0.00     0.135 A 
ATOM     86  F   UNL A   1      35.322  32.030  32.516  1.00  0.00    -0.206 F 
ATOM     87  C   UNL A   1      34.520  33.414  30.799  1.00  0.00     0.059 A 
ATOM     88  C   UNL A   1      36.089  34.528  29.318  1.00  0.00     0.059 A 
ATOM     89  F   UNL A   1      38.392  34.183  29.594  1.00  0.00    -0.206 F 
ATOM     90  C   UNL A   1      34.781  34.261  29.720  1.00  0.00     0.060 A 
BRANCH  90  91
ATOM     91  S   UNL A   1      33.390  35.042  28.874  1.00  0.00     0.124 S 
ATOM     92  O   UNL A   1      32.387  35.082  29.931  1.00  0.00    -0.237 OA
ATOM     93  O   UNL A   1      33.956  36.329  28.480  1.00  0.00    -0.237 OA
ATOM     94  O   UNL A   1      33.111  34.126  27.772  1.00  0.00    -0.744 OA
ENDBRANCH  90  91
ENDBRANCH  58  83
BRANCH  70  95
ATOM     95  C   UNL A   1      39.934  34.252  37.278  1.00  0.00     0.058 A 
ATOM     96  C   UNL A   1      40.430  35.562  37.169  1.00  0.00     0.135 A 
ATOM     97  C   UNL A   1      39.181  33.933  38.419  1.00  0.00     0.135 A 
ATOM     98  F   UNL A   1      41.155  35.923  36.097  1.00  0.00    -0.206 F 
ATOM     99  C   UNL A   1      40.235  36.500  38.178  1.00  0.00     0.059 A 
ATOM    100  C   UNL A   1      38.941  34.865  39.424  1.00  0.00     0.059 A 
ATOM    101  F   UNL A   1      38.664  32.702  38.568  1.00  0.00    -0.206 F 
ATOM    102  C   UNL A   1      39.494  36.139  39.305  1.00  0.00     0.060 A 
BRANCH 102 103
ATOM    103  S   UNL A   1      39.263  37.358  40.616  1.00  0.00     0.124 S 
ATOM    104  O   UNL A   1      38.264  38.241  40.022  1.00  0.00    -0.237 OA
ATOM    105  O   UNL A   1      38.801  36.537  41.730  1.00  0.00    -0.237 OA
ATOM    106  O   UNL A   1      40.594  37.937  40.780  1.00  0.00    -0.744 OA
ENDBRANCH 102 103
ENDBRANCH  70  95
ENDBRANCH  44  45
ENDBRANCH  37  39
ENDBRANCH  36  37
ENDBRANCH  35  36
ENDBRANCH  34  35
ENDBRANCH  33  34
ENDBRANCH  32  33
ENDBRANCH  31  32
ENDBRANCH   1  31
TORSDOF 27
ENDMDL
MODEL 2
REMARK VINA RESULT:      -9.1      6.615     14.264
REMARK SMILES CC(=O)Nc1cccc(NC(=O)N[C@H](C(=O)OCCOCCOCCOCCOC(=O)c2ccc(-c3c4nc(c(-c5c(F)cc(S(=O)(=O)[O-])cc5F)c5ccc([nH]5)c(-c5c(F)cc(S(=O)(=O)[O-])cc5F)c5nc(c(-c6c(F)cc(S(=O)(=O)[O-])cc6F)c6ccc3[nH]6)C=C5)C=C4)cc2)C(C)C)c1
REMARK SMILES IDX 23 1 22 2 21 3 20 4 19 5 18 6 17 7 15 8 16 9 14 10 13 11
REMARK SMILES IDX 10 12 11 13 12 15 9 17 5 18 6 19 101 20 7 21 8 22 4 23 1 24
REMARK SMILES IDX 2 25 3 26 98 28 99 29 100 30 24 31 25 32 26 33 27 34 28 35
REMARK SMILES IDX 29 36 30 37 31 38 32 39 33 40 97 41 34 42 96 43 35 44 36 45
REMARK SMILES IDX 37 46 90 47 38 48 95 49 89 50 91 51 39 52 94 53 88 54 87 55
REMARK SMILES IDX 40 57 74 58 53 59 73 60 54 61 57 62 72 63 92 64 55 65 56 66
REMARK SMILES IDX 71 68 93 69 58 70 41 71 42 72 51 73 43 74 44 75 50 76 52 77
REMARK SMILES IDX 45 78 46 79 47 80 48 81 49 82 75 83 76 84 85 85 77 86 78 87
REMARK SMILES IDX 84 88 86 89 79 90 80 91 81 92 82 93 83 94 59 95 60 96 69 97
REMARK SMILES IDX 61 98 62 99 68 100 70 101 63 102 64 103 65 104 66 105 67 106
REMARK H PARENT 10 14 13 16 4 27 91 56 57 67
REMARK Flexibility Score: inf
ROOT
ATOM      1  O   UNL A   1      40.561  34.775  30.387  1.00  0.00    -0.377 OA
ENDROOT
BRANCH   1   2
ATOM      2  C   UNL A   1      41.848  35.123  29.939  1.00  0.00     0.188 C 
BRANCH   2   3
ATOM      3  C   UNL A   1      42.973  34.875  30.956  1.00  0.00     0.188 C 
BRANCH   3   4
ATOM      4  O   UNL A   1      42.880  34.002  32.077  1.00  0.00    -0.376 OA
BRANCH   4   5
ATOM      5  C   UNL A   1      42.345  32.686  32.131  1.00  0.00     0.202 C 
BRANCH   5   6
ATOM      6  C   UNL A   1      43.143  31.368  32.299  1.00  0.00     0.261 C 
BRANCH   6   7
ATOM      7  O   UNL A   1      43.428  30.885  33.624  1.00  0.00    -0.462 OA
BRANCH   7   8
ATOM      8  C   UNL A   1      44.205  29.791  33.554  1.00  0.00     0.329 C 
ATOM      9  O   UNL A   1      45.415  29.872  33.328  1.00  0.00    -0.250 OA
BRANCH   8  10
ATOM     10  C   UNL A   1      43.568  28.413  33.818  1.00  0.00     0.196 C 
BRANCH  10  11
ATOM     11  N   UNL A   1      43.102  27.895  35.140  1.00  0.00    -0.324 N 
ATOM     12  N   UNL A   1      44.386  26.022  36.051  1.00  0.00    -0.308 N 
ATOM     13  C   UNL A   1      43.752  27.227  36.131  1.00  0.00     0.319 C 
ATOM     14  H   UNL A   1      44.958  25.846  36.833  1.00  0.00     0.171 HD
ATOM     15  O   UNL A   1      43.711  27.732  37.262  1.00  0.00    -0.248 OA
ATOM     16  H   UNL A   1      42.152  28.067  35.329  1.00  0.00     0.166 HD
BRANCH  12  17
ATOM     17  C   UNL A   1      44.414  24.964  35.115  1.00  0.00     0.044 A 
ATOM     18  C   UNL A   1      44.221  22.613  34.557  1.00  0.00     0.043 A 
ATOM     19  C   UNL A   1      44.254  22.947  33.195  1.00  0.00     0.026 A 
ATOM     20  C   UNL A   1      44.260  23.638  35.515  1.00  0.00     0.052 A 
ATOM     21  C   UNL A   1      44.546  24.245  32.801  1.00  0.00     0.004 A 
ATOM     22  C   UNL A   1      44.738  25.225  33.774  1.00  0.00     0.026 A 
BRANCH  18  23
ATOM     23  N   UNL A   1      44.260  21.234  34.824  1.00  0.00    -0.326 N 
ATOM     24  C   UNL A   1      46.582  20.857  35.640  1.00  0.00     0.114 C 
ATOM     25  C   UNL A   1      45.264  20.368  35.125  1.00  0.00     0.221 C 
ATOM     26  O   UNL A   1      45.051  19.161  34.974  1.00  0.00    -0.275 OA
ATOM     27  H   UNL A   1      43.374  20.805  34.786  1.00  0.00     0.169 HD
ENDBRANCH  18  23
ENDBRANCH  12  17
ENDBRANCH  10  11
BRANCH  10  28
ATOM     28  C   UNL A   1      42.542  28.257  32.701  1.00  0.00     0.017 C 
ATOM     29  C   UNL A   1      42.884  27.409  31.462  1.00  0.00     0.010 C 
ATOM     30  C   UNL A   1      41.139  28.066  33.276  1.00  0.00     0.010 C 
ENDBRANCH  10  28
ENDBRANCH   8  10
ENDBRANCH   7   8
ENDBRANCH   6   7
ENDBRANCH   5   6
ENDBRANCH   4   5
ENDBRANCH   3   4
ENDBRANCH   2   3
ENDBRANCH   1   2
BRANCH   1  31
ATOM     31  C   UNL A   1      39.511  34.783  29.425  1.00  0.00     0.188 C 
BRANCH  31  32
ATOM     32  C   UNL A   1      38.372  33.737  29.526  1.00  0.00     0.188 C 
BRANCH  32  33
ATOM     33  O   UNL A   1      37.127  34.159  28.986  1.00  0.00    -0.376 OA
BRANCH  33  34
ATOM     34  C   UNL A   1      36.118  33.184  28.785  1.00  0.00     0.202 C 
BRANCH  34  35
ATOM     35  C   UNL A   1      35.924  32.149  29.905  1.00  0.00     0.261 C 
BRANCH  35  36
ATOM     36  O   UNL A   1      35.949  30.771  29.501  1.00  0.00    -0.460 OA
BRANCH  36  37
ATOM     37  C   UNL A   1      36.701  29.925  30.233  1.00  0.00     0.338 C 
ATOM     38  O   UNL A   1      36.297  29.097  31.036  1.00  0.00    -0.246 OA
BRANCH  37  39
ATOM     39  C   UNL A   1      38.094  29.994  29.747  1.00  0.00     0.060 A 
ATOM     40  C   UNL A   1      38.327  29.845  28.373  1.00  0.00     0.016 A 
ATOM     41  C   UNL A   1      39.159  30.169  30.633  1.00  0.00     0.016 A 
ATOM     42  C   UNL A   1      39.630  29.788  27.891  1.00  0.00     0.010 A 
ATOM     43  C   UNL A   1      40.469  30.082  30.153  1.00  0.00     0.010 A 
ATOM     44  C   UNL A   1      40.703  29.827  28.790  1.00  0.00    -0.014 A 
BRANCH  44  45
ATOM     45  C   UNL A   1      42.009  29.296  28.334  1.00  0.00     0.031 A 
ATOM     46  C   UNL A   1      43.172  30.254  28.279  1.00  0.00     0.074 A 
ATOM     47  C   UNL A   1      42.187  27.990  28.072  1.00  0.00     0.049 A 
ATOM     48  N   UNL A   1      44.421  30.033  27.966  1.00  0.00    -0.248 NA
ATOM     49  C   UNL A   1      42.883  31.656  28.632  1.00  0.00     0.031 C 
ATOM     50  C   UNL A   1      41.150  26.963  28.142  1.00  0.00     0.029 A 
ATOM     51  N   UNL A   1      43.317  27.306  27.701  1.00  0.00    -0.354 N 
ATOM     52  C   UNL A   1      45.062  31.261  28.082  1.00  0.00     0.074 A 
ATOM     53  C   UNL A   1      44.060  32.232  28.456  1.00  0.00     0.031 C 
ATOM     54  C   UNL A   1      41.693  25.775  27.819  1.00  0.00     0.029 A 
ATOM     55  C   UNL A   1      43.108  25.964  27.499  1.00  0.00     0.049 A 
ATOM     56  H   UNL A   1      44.196  27.738  27.592  1.00  0.00     0.167 HD
ATOM     57  C   UNL A   1      46.373  31.553  27.907  1.00  0.00     0.037 A 
ATOM     58  C   UNL A   1      43.962  25.005  27.090  1.00  0.00     0.037 A 
ATOM     59  C   UNL A   1      47.365  30.581  27.531  1.00  0.00     0.049 A 
ATOM     60  C   UNL A   1      45.406  25.365  26.841  1.00  0.00     0.074 A 
ATOM     61  C   UNL A   1      48.720  30.769  27.329  1.00  0.00     0.029 A 
ATOM     62  N   UNL A   1      47.107  29.239  27.296  1.00  0.00    -0.354 N 
ATOM     63  N   UNL A   1      46.004  26.527  26.967  1.00  0.00    -0.248 NA
ATOM     64  C   UNL A   1      46.294  24.277  26.409  1.00  0.00     0.031 C 
ATOM     65  C   UNL A   1      49.272  29.550  26.918  1.00  0.00     0.029 A 
ATOM     66  C   UNL A   1      48.273  28.589  26.928  1.00  0.00     0.049 A 
ATOM     67  H   UNL A   1      46.224  28.810  27.379  1.00  0.00     0.167 HD
ATOM     68  C   UNL A   1      47.343  26.303  26.660  1.00  0.00     0.074 A 
ATOM     69  C   UNL A   1      47.467  24.890  26.360  1.00  0.00     0.031 C 
ATOM     70  C   UNL A   1      48.378  27.181  26.632  1.00  0.00     0.037 A 
BRANCH  57  71
ATOM     71  C   UNL A   1      46.793  32.987  28.084  1.00  0.00     0.058 A 
ATOM     72  C   UNL A   1      46.708  33.923  27.040  1.00  0.00     0.135 A 
ATOM     73  C   UNL A   1      47.281  33.433  29.323  1.00  0.00     0.135 A 
ATOM     74  F   UNL A   1      46.274  33.545  25.826  1.00  0.00    -0.206 F 
ATOM     75  C   UNL A   1      47.116  35.242  27.210  1.00  0.00     0.059 A 
ATOM     76  C   UNL A   1      47.666  34.755  29.524  1.00  0.00     0.059 A 
ATOM     77  F   UNL A   1      47.393  32.579  30.353  1.00  0.00    -0.206 F 
ATOM     78  C   UNL A   1      47.593  35.649  28.458  1.00  0.00     0.060 A 
BRANCH  78  79
ATOM     79  S   UNL A   1      48.115  37.364  28.665  1.00  0.00     0.124 S 
ATOM     80  O   UNL A   1      46.841  38.070  28.575  1.00  0.00    -0.237 OA
ATOM     81  O   UNL A   1      48.736  37.343  29.986  1.00  0.00    -0.237 OA
ATOM     82  O   UNL A   1      49.030  37.579  27.549  1.00  0.00    -0.744 OA
ENDBRANCH  78  79
ENDBRANCH  57  71
BRANCH  58  83
ATOM     83  C   UNL A   1      43.476  23.613  26.889  1.00  0.00     0.058 A 
ATOM     84  C   UNL A   1      43.276  23.086  25.604  1.00  0.00     0.135 A 
ATOM     85  C   UNL A   1      43.194  22.783  27.985  1.00  0.00     0.135 A 
ATOM     86  F   UNL A   1      43.519  23.843  24.524  1.00  0.00    -0.206 F 
ATOM     87  C   UNL A   1      42.800  21.793  25.412  1.00  0.00     0.059 A 
ATOM     88  C   UNL A   1      42.744  21.477  27.819  1.00  0.00     0.059 A 
ATOM     89  F   UNL A   1      43.376  23.235  29.236  1.00  0.00    -0.206 F 
ATOM     90  C   UNL A   1      42.541  20.993  26.527  1.00  0.00     0.060 A 
BRANCH  90  91
ATOM     91  S   UNL A   1      41.975  19.299  26.266  1.00  0.00     0.124 S 
ATOM     92  O   UNL A   1      42.497  18.627  27.450  1.00  0.00    -0.237 OA
ATOM     93  O   UNL A   1      40.526  19.467  26.213  1.00  0.00    -0.237 OA
ATOM     94  O   UNL A   1      42.602  18.928  25.001  1.00  0.00    -0.744 OA
ENDBRANCH  90  91
ENDBRANCH  58  83
BRANCH  70  95
ATOM     95  C   UNL A   1      49.742  26.630  26.309  1.00  0.00     0.058 A 
ATOM     96  C   UNL A   1      50.249  26.613  24.999  1.00  0.00     0.135 A 
ATOM     97  C   UNL A   1      50.561  26.123  27.331  1.00  0.00     0.135 A 
ATOM     98  F   UNL A   1      49.510  27.088  23.983  1.00  0.00    -0.206 F 
ATOM     99  C   UNL A   1      51.493  26.063  24.708  1.00  0.00     0.059 A 
ATOM    100  C   UNL A   1      51.824  25.601  27.069  1.00  0.00     0.059 A 
ATOM    101  F   UNL A   1      50.137  26.132  28.606  1.00  0.00    -0.206 F 
ATOM    102  C   UNL A   1      52.270  25.554  25.750  1.00  0.00     0.060 A 
BRANCH 102 103
ATOM    103  S   UNL A   1      53.875  24.826  25.357  1.00  0.00     0.124 S 
ATOM    104  O   UNL A   1      53.512  23.435  25.105  1.00  0.00    -0.237 OA
ATOM    105  O   UNL A   1      54.292  25.595  24.190  1.00  0.00    -0.237 OA
ATOM    106  O   UNL A   1      54.659  25.059  26.567  1.00  0.00    -0.744 OA
ENDBRANCH 102 103
ENDBRANCH  70  95
ENDBRANCH  44  45
ENDBRANCH  37  39
ENDBRANCH  36  37
ENDBRANCH  35  36
ENDBRANCH  34  35
ENDBRANCH  33  34
ENDBRANCH  32  33
ENDBRANCH  31  32
ENDBRANCH   1  31
TORSDOF 27
ENDMDL
MODEL 3
REMARK VINA RESULT:      -9.0      5.761     13.311
REMARK SMILES CC(=O)Nc1cccc(NC(=O)N[C@H](C(=O)OCCOCCOCCOCCOC(=O)c2ccc(-c3c4nc(c(-c5c(F)cc(S(=O)(=O)[O-])cc5F)c5ccc([nH]5)c(-c5c(F)cc(S(=O)(=O)[O-])cc5F)c5nc(c(-c6c(F)cc(S(=O)(=O)[O-])cc6F)c6ccc3[nH]6)C=C5)C=C4)cc2)C(C)C)c1
REMARK SMILES IDX 23 1 22 2 21 3 20 4 19 5 18 6 17 7 15 8 16 9 14 10 13 11
REMARK SMILES IDX 10 12 11 13 12 15 9 17 5 18 6 19 101 20 7 21 8 22 4 23 1 24
REMARK SMILES IDX 2 25 3 26 98 28 99 29 100 30 24 31 25 32 26 33 27 34 28 35
REMARK SMILES IDX 29 36 30 37 31 38 32 39 33 40 97 41 34 42 96 43 35 44 36 45
REMARK SMILES IDX 37 46 90 47 38 48 95 49 89 50 91 51 39 52 94 53 88 54 87 55
REMARK SMILES IDX 40 57 74 58 53 59 73 60 54 61 57 62 72 63 92 64 55 65 56 66
REMARK SMILES IDX 71 68 93 69 58 70 41 71 42 72 51 73 43 74 44 75 50 76 52 77
REMARK SMILES IDX 45 78 46 79 47 80 48 81 49 82 75 83 76 84 85 85 77 86 78 87
REMARK SMILES IDX 84 88 86 89 79 90 80 91 81 92 82 93 83 94 59 95 60 96 69 97
REMARK SMILES IDX 61 98 62 99 68 100 70 101 63 102 64 103 65 104 66 105 67 106
REMARK H PARENT 10 14 13 16 4 27 91 56 57 67
REMARK Flexibility Score: inf
ROOT
ATOM      1  O   UNL A   1      32.840  36.842  33.059  1.00  0.00    -0.377 OA
ENDROOT
BRANCH   1   2
ATOM      2  C   UNL A   1      34.191  36.669  33.408  1.00  0.00     0.188 C 
BRANCH   2   3
ATOM      3  C   UNL A   1      34.815  35.347  32.937  1.00  0.00     0.188 C 
BRANCH   3   4
ATOM      4  O   UNL A   1      36.142  34.921  33.231  1.00  0.00    -0.376 OA
BRANCH   4   5
ATOM      5  C   UNL A   1      37.191  34.608  32.325  1.00  0.00     0.202 C 
BRANCH   5   6
ATOM      6  C   UNL A   1      38.503  33.850  32.653  1.00  0.00     0.261 C 
BRANCH   6   7
ATOM      7  O   UNL A   1      38.936  33.759  34.022  1.00  0.00    -0.462 OA
BRANCH   7   8
ATOM      8  C   UNL A   1      40.249  34.032  34.105  1.00  0.00     0.329 C 
ATOM      9  O   UNL A   1      40.756  34.964  33.476  1.00  0.00    -0.250 OA
BRANCH   8  10
ATOM     10  C   UNL A   1      41.120  33.186  35.054  1.00  0.00     0.196 C 
BRANCH  10  11
ATOM     11  N   UNL A   1      40.667  32.526  36.315  1.00  0.00    -0.324 N 
ATOM     12  N   UNL A   1      42.314  31.080  37.402  1.00  0.00    -0.308 N 
ATOM     13  C   UNL A   1      41.356  32.050  37.387  1.00  0.00     0.319 C 
ATOM     14  H   UNL A   1      42.813  31.058  38.250  1.00  0.00     0.171 HD
ATOM     15  O   UNL A   1      41.034  32.496  38.498  1.00  0.00    -0.248 OA
ATOM     16  H   UNL A   1      39.691  32.414  36.384  1.00  0.00     0.166 HD
BRANCH  12  17
ATOM     17  C   UNL A   1      42.759  30.096  36.490  1.00  0.00     0.044 A 
ATOM     18  C   UNL A   1      42.448  28.014  35.289  1.00  0.00     0.043 A 
ATOM     19  C   UNL A   1      43.580  28.307  34.514  1.00  0.00     0.026 A 
ATOM     20  C   UNL A   1      42.018  28.940  36.252  1.00  0.00     0.052 A 
ATOM     21  C   UNL A   1      44.393  29.382  34.844  1.00  0.00     0.004 A 
ATOM     22  C   UNL A   1      44.033  30.207  35.908  1.00  0.00     0.026 A 
BRANCH  18  23
ATOM     23  N   UNL A   1      41.910  26.732  35.082  1.00  0.00    -0.326 N 
ATOM     24  C   UNL A   1      41.562  25.859  37.387  1.00  0.00     0.114 C 
ATOM     25  C   UNL A   1      41.659  25.679  35.904  1.00  0.00     0.221 C 
ATOM     26  O   UNL A   1      41.501  24.568  35.388  1.00  0.00    -0.275 OA
ATOM     27  H   UNL A   1      41.661  26.563  34.144  1.00  0.00     0.169 HD
ENDBRANCH  18  23
ENDBRANCH  12  17
ENDBRANCH  10  11
BRANCH  10  28
ATOM     28  C   UNL A   1      41.899  32.264  34.123  1.00  0.00     0.017 C 
ATOM     29  C   UNL A   1      41.140  31.300  33.192  1.00  0.00     0.010 C 
ATOM     30  C   UNL A   1      43.087  32.997  33.502  1.00  0.00     0.010 C 
ENDBRANCH  10  28
ENDBRANCH   8  10
ENDBRANCH   7   8
ENDBRANCH   6   7
ENDBRANCH   5   6
ENDBRANCH   4   5
ENDBRANCH   3   4
ENDBRANCH   2   3
ENDBRANCH   1   2
BRANCH   1  31
ATOM     31  C   UNL A   1      32.306  35.974  32.064  1.00  0.00     0.188 C 
BRANCH  31  32
ATOM     32  C   UNL A   1      32.956  35.931  30.658  1.00  0.00     0.188 C 
BRANCH  32  33
ATOM     33  O   UNL A   1      32.951  34.653  30.039  1.00  0.00    -0.376 OA
BRANCH  33  34
ATOM     34  C   UNL A   1      34.006  34.334  29.146  1.00  0.00     0.202 C 
BRANCH  34  35
ATOM     35  C   UNL A   1      34.251  32.842  28.872  1.00  0.00     0.261 C 
BRANCH  35  36
ATOM     36  O   UNL A   1      35.610  32.394  28.992  1.00  0.00    -0.460 OA
BRANCH  36  37
ATOM     37  C   UNL A   1      35.944  31.724  30.113  1.00  0.00     0.338 C 
ATOM     38  O   UNL A   1      35.269  31.615  31.126  1.00  0.00    -0.246 OA
BRANCH  37  39
ATOM     39  C   UNL A   1      37.166  30.939  29.845  1.00  0.00     0.060 A 
ATOM     40  C   UNL A   1      37.898  30.454  30.937  1.00  0.00     0.016 A 
ATOM     41  C   UNL A   1      37.605  30.712  28.539  1.00  0.00     0.016 A 
ATOM     42  C   UNL A   1      39.114  29.813  30.730  1.00  0.00     0.010 A 
ATOM     43  C   UNL A   1      38.841  30.093  28.332  1.00  0.00     0.010 A 
ATOM     44  C   UNL A   1      39.625  29.701  29.432  1.00  0.00    -0.014 A 
BRANCH  44  45
ATOM     45  C   UNL A   1      41.080  29.466  29.278  1.00  0.00     0.031 A 
ATOM     46  C   UNL A   1      41.521  28.099  28.820  1.00  0.00     0.074 A 
ATOM     47  C   UNL A   1      41.976  30.454  29.439  1.00  0.00     0.049 A 
ATOM     48  N   UNL A   1      42.722  27.653  28.561  1.00  0.00    -0.248 NA
ATOM     49  C   UNL A   1      40.457  27.098  28.624  1.00  0.00     0.031 C 
ATOM     50  C   UNL A   1      41.661  31.827  29.829  1.00  0.00     0.029 A 
ATOM     51  N   UNL A   1      43.339  30.449  29.285  1.00  0.00    -0.354 N 
ATOM     52  C   UNL A   1      42.558  26.328  28.175  1.00  0.00     0.074 A 
ATOM     53  C   UNL A   1      41.148  26.027  28.271  1.00  0.00     0.031 C 
ATOM     54  C   UNL A   1      42.804  32.534  29.887  1.00  0.00     0.029 A 
ATOM     55  C   UNL A   1      43.929  31.658  29.561  1.00  0.00     0.049 A 
ATOM     56  H   UNL A   1      43.846  29.654  29.002  1.00  0.00     0.167 HD
ATOM     57  C   UNL A   1      43.496  25.442  27.764  1.00  0.00     0.037 A 
ATOM     58  C   UNL A   1      45.231  32.008  29.562  1.00  0.00     0.037 A 
ATOM     59  C   UNL A   1      44.899  25.748  27.675  1.00  0.00     0.049 A 
ATOM     60  C   UNL A   1      46.266  30.987  29.159  1.00  0.00     0.074 A 
ATOM     61  C   UNL A   1      45.934  24.925  27.269  1.00  0.00     0.029 A 
ATOM     62  N   UNL A   1      45.464  26.971  28.002  1.00  0.00    -0.354 N 
ATOM     63  N   UNL A   1      46.097  29.740  28.783  1.00  0.00    -0.248 NA
ATOM     64  C   UNL A   1      47.668  31.427  29.166  1.00  0.00     0.031 C 
ATOM     65  C   UNL A   1      47.132  25.636  27.403  1.00  0.00     0.029 A 
ATOM     66  C   UNL A   1      46.836  26.921  27.829  1.00  0.00     0.049 A 
ATOM     67  H   UNL A   1      44.962  27.760  28.311  1.00  0.00     0.167 HD
ATOM     68  C   UNL A   1      47.368  29.257  28.480  1.00  0.00     0.074 A 
ATOM     69  C   UNL A   1      48.289  30.354  28.700  1.00  0.00     0.031 C 
ATOM     70  C   UNL A   1      47.740  28.023  28.054  1.00  0.00     0.037 A 
BRANCH  57  71
ATOM     71  C   UNL A   1      43.033  24.053  27.419  1.00  0.00     0.058 A 
ATOM     72  C   UNL A   1      42.806  23.651  26.092  1.00  0.00     0.135 A 
ATOM     73  C   UNL A   1      42.823  23.104  28.434  1.00  0.00     0.135 A 
ATOM     74  F   UNL A   1      42.966  24.523  25.084  1.00  0.00    -0.206 F 
ATOM     75  C   UNL A   1      42.362  22.369  25.785  1.00  0.00     0.059 A 
ATOM     76  C   UNL A   1      42.407  21.807  28.148  1.00  0.00     0.059 A 
ATOM     77  F   UNL A   1      43.014  23.437  29.720  1.00  0.00    -0.206 F 
ATOM     78  C   UNL A   1      42.166  21.453  26.822  1.00  0.00     0.060 A 
BRANCH  78  79
ATOM     79  S   UNL A   1      41.593  19.792  26.409  1.00  0.00     0.124 S 
ATOM     80  O   UNL A   1      40.152  19.995  26.314  1.00  0.00    -0.237 OA
ATOM     81  O   UNL A   1      42.281  19.531  25.147  1.00  0.00    -0.237 OA
ATOM     82  O   UNL A   1      42.039  18.986  27.541  1.00  0.00    -0.744 OA
ENDBRANCH  78  79
ENDBRANCH  57  71
BRANCH  58  83
ATOM     83  C   UNL A   1      45.631  33.386  29.957  1.00  0.00     0.058 A 
ATOM     84  C   UNL A   1      46.054  33.679  31.263  1.00  0.00     0.135 A 
ATOM     85  C   UNL A   1      45.588  34.442  29.034  1.00  0.00     0.135 A 
ATOM     86  F   UNL A   1      46.099  32.707  32.186  1.00  0.00    -0.206 F 
ATOM     87  C   UNL A   1      46.406  34.970  31.642  1.00  0.00     0.059 A 
ATOM     88  C   UNL A   1      45.963  35.736  29.381  1.00  0.00     0.059 A 
ATOM     89  F   UNL A   1      45.199  34.214  27.769  1.00  0.00    -0.206 F 
ATOM     90  C   UNL A   1      46.362  35.992  30.692  1.00  0.00     0.060 A 
BRANCH  90  91
ATOM     91  S   UNL A   1      46.873  37.653  31.181  1.00  0.00     0.124 S 
ATOM     92  O   UNL A   1      45.588  38.325  31.332  1.00  0.00    -0.237 OA
ATOM     93  O   UNL A   1      47.608  37.393  32.416  1.00  0.00    -0.237 OA
ATOM     94  O   UNL A   1      47.691  38.097  30.057  1.00  0.00    -0.744 OA
ENDBRANCH  90  91
ENDBRANCH  58  83
BRANCH  70  95
ATOM     95  C   UNL A   1      49.200  27.808  27.755  1.00  0.00     0.058 A 
ATOM     96  C   UNL A   1      49.723  27.939  26.458  1.00  0.00     0.135 A 
ATOM     97  C   UNL A   1      50.093  27.479  28.787  1.00  0.00     0.135 A 
ATOM     98  F   UNL A   1      48.914  28.255  25.432  1.00  0.00    -0.206 F 
ATOM     99  C   UNL A   1      51.066  27.698  26.187  1.00  0.00     0.059 A 
ATOM    100  C   UNL A   1      51.447  27.268  28.546  1.00  0.00     0.059 A 
ATOM    101  F   UNL A   1      49.654  27.360  30.051  1.00  0.00    -0.206 F 
ATOM    102  C   UNL A   1      51.919  27.356  27.238  1.00  0.00     0.060 A 
BRANCH 102 103
ATOM    103  S   UNL A   1      53.656  27.027  26.872  1.00  0.00     0.124 S 
ATOM    104  O   UNL A   1      54.211  28.376  26.851  1.00  0.00    -0.237 OA
ATOM    105  O   UNL A   1      54.061  26.191  27.996  1.00  0.00    -0.237 OA
ATOM    106  O   UNL A   1      53.608  26.349  25.579  1.00  0.00    -0.744 OA
ENDBRANCH 102 103
ENDBRANCH  70  95
ENDBRANCH  44  45
ENDBRANCH  37  39
ENDBRANCH  36  37
ENDBRANCH  35  36
ENDBRANCH  34  35
ENDBRANCH  33  34
ENDBRANCH  32  33
ENDBRANCH  31  32
ENDBRANCH   1  31
TORSDOF 27
ENDMDL
