MODEL 1
REMARK VINA RESULT:     -10.0      0.000      0.000
REMARK SMILES Cc1onc(-c2cccc(Br)c2)c1C(=O)OCCOCCOCCOCCOC(=O)c1ccc(-c2c3nc(c(-c4c(F)cc(S(=O)(=O)[O-])cc4F)c4ccc([nH]4)c(-c4c(F)cc(S(=O)(=O)[O-])cc4F)c4nc(c(-c5c(F)cc(S(=O)(=O)[O-])cc5F)c5ccc2[nH]5)C=C4)C=C3)cc1
REMARK SMILES IDX 23 1 22 2 21 3 20 4 19 5 18 6 17 7 16 8 14 9 15 10 13 11
REMARK SMILES IDX 1 12 2 13 3 14 4 15 5 16 6 17 7 18 12 19 8 20 10 21 9 22
REMARK SMILES IDX 11 23 24 24 25 25 26 26 27 27 28 28 29 29 30 30 31 31 32 32
REMARK SMILES IDX 96 33 33 34 95 35 34 36 35 37 36 38 89 39 37 40 94 41 88 42
REMARK SMILES IDX 90 43 38 44 93 45 87 46 86 47 39 49 73 50 52 51 72 52 53 53
REMARK SMILES IDX 56 54 71 55 91 56 54 57 55 58 70 60 92 61 57 62 40 63 41 64
REMARK SMILES IDX 50 65 42 66 43 67 49 68 51 69 44 70 45 71 46 72 47 73 48 74
REMARK SMILES IDX 74 75 75 76 84 77 76 78 77 79 83 80 85 81 78 82 79 83 80 84
REMARK SMILES IDX 81 85 82 86 58 87 59 88 68 89 60 90 61 91 67 92 69 93 62 94
REMARK SMILES IDX 63 95 64 96 65 97 66 98
REMARK H PARENT 90 48 56 59
REMARK Flexibility Score: inf
ROOT
ATOM      1  C   UNL A   1      41.490  19.896  26.636  1.00  0.00     0.188 C 
ENDROOT
BRANCH   1   2
ATOM      2  O   UNL A   1      40.373  20.669  27.047  1.00  0.00    -0.377 OA
BRANCH   2   3
ATOM      3  C   UNL A   1      39.312  20.902  26.140  1.00  0.00     0.188 C 
BRANCH   3   4
ATOM      4  C   UNL A   1      38.770  22.330  25.974  1.00  0.00     0.188 C 
BRANCH   4   5
ATOM      5  O   UNL A   1      37.721  22.436  25.015  1.00  0.00    -0.376 OA
BRANCH   5   6
ATOM      6  C   UNL A   1      36.969  23.644  25.073  1.00  0.00     0.202 C 
BRANCH   6   7
ATOM      7  C   UNL A   1      35.615  23.514  24.370  1.00  0.00     0.261 C 
BRANCH   7   8
ATOM      8  O   UNL A   1      34.493  23.437  25.264  1.00  0.00    -0.459 OA
BRANCH   8   9
ATOM      9  C   UNL A   1      33.929  24.602  25.675  1.00  0.00     0.344 C 
ATOM     10  O   UNL A   1      34.451  25.703  25.558  1.00  0.00    -0.246 OA
BRANCH   9  11
ATOM     11  C   UNL A   1      32.588  24.406  26.170  1.00  0.00     0.130 A 
ATOM     12  C   UNL A   1      32.795  22.434  27.919  1.00  0.00     0.092 C 
ATOM     13  C   UNL A   1      32.154  23.489  27.106  1.00  0.00     0.148 A 
ATOM     14  O   UNL A   1      30.810  23.613  27.264  1.00  0.00    -0.360 OA
ATOM     15  N   UNL A   1      30.322  24.554  26.382  1.00  0.00    -0.079 NA
ATOM     16  C   UNL A   1      31.383  25.006  25.700  1.00  0.00     0.128 A 
BRANCH  16  17
ATOM     17  C   UNL A   1      31.196  25.853  24.532  1.00  0.00     0.006 A 
ATOM     18  C   UNL A   1      31.514  25.342  23.264  1.00  0.00     0.010 A 
ATOM     19  C   UNL A   1      30.722  27.162  24.652  1.00  0.00     0.026 A 
ATOM     20  C   UNL A   1      31.387  26.138  22.125  1.00  0.00     0.002 A 
ATOM     21  C   UNL A   1      30.579  27.945  23.506  1.00  0.00     0.018 A 
ATOM     22  C   UNL A   1      30.916  27.444  22.246  1.00  0.00     0.016 A 
ATOM     23  Br  UNL A   1      29.912  29.709  23.655  1.00  0.00    -0.051 Br
ENDBRANCH  16  17
ENDBRANCH   9  11
ENDBRANCH   8   9
ENDBRANCH   7   8
ENDBRANCH   6   7
ENDBRANCH   5   6
ENDBRANCH   4   5
ENDBRANCH   3   4
ENDBRANCH   2   3
ENDBRANCH   1   2
BRANCH   1  24
ATOM     24  C   UNL A   1      42.826  20.592  26.332  1.00  0.00     0.188 C 
BRANCH  24  25
ATOM     25  O   UNL A   1      42.832  21.365  25.132  1.00  0.00    -0.376 OA
BRANCH  25  26
ATOM     26  C   UNL A   1      43.384  22.673  25.247  1.00  0.00     0.202 C 
BRANCH  26  27
ATOM     27  C   UNL A   1      42.898  23.423  26.492  1.00  0.00     0.261 C 
BRANCH  27  28
ATOM     28  O   UNL A   1      41.635  24.080  26.326  1.00  0.00    -0.460 OA
BRANCH  28  29
ATOM     29  C   UNL A   1      41.675  25.389  25.996  1.00  0.00     0.338 C 
ATOM     30  O   UNL A   1      41.605  25.872  24.880  1.00  0.00    -0.246 OA
BRANCH  29  31
ATOM     31  C   UNL A   1      41.645  26.168  27.246  1.00  0.00     0.060 A 
ATOM     32  C   UNL A   1      40.590  25.957  28.141  1.00  0.00     0.016 A 
ATOM     33  C   UNL A   1      42.651  27.096  27.527  1.00  0.00     0.016 A 
ATOM     34  C   UNL A   1      40.519  26.710  29.312  1.00  0.00     0.010 A 
ATOM     35  C   UNL A   1      42.567  27.863  28.688  1.00  0.00     0.010 A 
ATOM     36  C   UNL A   1      41.484  27.695  29.565  1.00  0.00    -0.014 A 
BRANCH  36  37
ATOM     37  C   UNL A   1      41.251  28.695  30.630  1.00  0.00     0.031 A 
ATOM     38  C   UNL A   1      42.120  28.636  31.854  1.00  0.00     0.074 A 
ATOM     39  C   UNL A   1      40.280  29.618  30.521  1.00  0.00     0.049 A 
ATOM     40  N   UNL A   1      42.091  29.378  32.928  1.00  0.00    -0.248 NA
ATOM     41  C   UNL A   1      43.162  27.595  31.867  1.00  0.00     0.031 C 
ATOM     42  C   UNL A   1      39.385  29.777  29.375  1.00  0.00     0.029 A 
ATOM     43  N   UNL A   1      39.880  30.591  31.401  1.00  0.00    -0.354 N 
ATOM     44  C   UNL A   1      43.111  28.902  33.741  1.00  0.00     0.074 A 
ATOM     45  C   UNL A   1      43.726  27.789  33.050  1.00  0.00     0.031 C 
ATOM     46  C   UNL A   1      38.526  30.780  29.632  1.00  0.00     0.029 A 
ATOM     47  C   UNL A   1      38.802  31.319  30.963  1.00  0.00     0.049 A 
ATOM     48  H   UNL A   1      40.324  30.751  32.264  1.00  0.00     0.167 HD
ATOM     49  C   UNL A   1      43.506  29.353  34.954  1.00  0.00     0.037 A 
ATOM     50  C   UNL A   1      38.112  32.300  31.578  1.00  0.00     0.037 A 
ATOM     51  C   UNL A   1      42.879  30.441  35.651  1.00  0.00     0.049 A 
ATOM     52  C   UNL A   1      38.531  32.747  32.953  1.00  0.00     0.074 A 
ATOM     53  C   UNL A   1      43.209  30.983  36.879  1.00  0.00     0.029 A 
ATOM     54  N   UNL A   1      41.782  31.147  35.181  1.00  0.00    -0.354 N 
ATOM     55  N   UNL A   1      39.524  32.316  33.694  1.00  0.00    -0.248 NA
ATOM     56  C   UNL A   1      37.736  33.815  33.578  1.00  0.00     0.031 C 
ATOM     57  C   UNL A   1      42.289  31.998  37.168  1.00  0.00     0.029 A 
ATOM     58  C   UNL A   1      41.408  32.107  36.104  1.00  0.00     0.049 A 
ATOM     59  H   UNL A   1      41.335  30.988  34.317  1.00  0.00     0.167 HD
ATOM     60  C   UNL A   1      39.488  33.074  34.860  1.00  0.00     0.074 A 
ATOM     61  C   UNL A   1      38.377  33.994  34.725  1.00  0.00     0.031 C 
ATOM     62  C   UNL A   1      40.302  33.018  35.943  1.00  0.00     0.037 A 
BRANCH  49  63
ATOM     63  C   UNL A   1      44.658  28.645  35.602  1.00  0.00     0.058 A 
ATOM     64  C   UNL A   1      45.983  29.051  35.376  1.00  0.00     0.135 A 
ATOM     65  C   UNL A   1      44.439  27.546  36.445  1.00  0.00     0.135 A 
ATOM     66  F   UNL A   1      46.244  30.082  34.557  1.00  0.00    -0.206 F 
ATOM     67  C   UNL A   1      47.055  28.374  35.947  1.00  0.00     0.059 A 
ATOM     68  C   UNL A   1      45.496  26.865  37.041  1.00  0.00     0.059 A 
ATOM     69  F   UNL A   1      43.191  27.113  36.681  1.00  0.00    -0.206 F 
ATOM     70  C   UNL A   1      46.802  27.277  36.772  1.00  0.00     0.060 A 
BRANCH  70  71
ATOM     71  S   UNL A   1      48.200  26.396  37.497  1.00  0.00     0.124 S 
ATOM     72  O   UNL A   1      49.303  27.303  37.193  1.00  0.00    -0.237 OA
ATOM     73  O   UNL A   1      47.823  26.309  38.905  1.00  0.00    -0.237 OA
ATOM     74  O   UNL A   1      48.211  25.127  36.776  1.00  0.00    -0.744 OA
ENDBRANCH  70  71
ENDBRANCH  49  63
BRANCH  50  75
ATOM     75  C   UNL A   1      36.948  32.927  30.901  1.00  0.00     0.058 A 
ATOM     76  C   UNL A   1      35.642  32.483  31.151  1.00  0.00     0.135 A 
ATOM     77  C   UNL A   1      37.119  33.981  29.991  1.00  0.00     0.135 A 
ATOM     78  F   UNL A   1      35.431  31.470  32.005  1.00  0.00    -0.206 F 
ATOM     79  C   UNL A   1      34.544  33.054  30.516  1.00  0.00     0.059 A 
ATOM     80  C   UNL A   1      36.036  34.580  29.356  1.00  0.00     0.059 A 
ATOM     81  F   UNL A   1      38.350  34.447  29.726  1.00  0.00    -0.206 F 
ATOM     82  C   UNL A   1      34.752  34.104  29.619  1.00  0.00     0.060 A 
BRANCH  82  83
ATOM     83  S   UNL A   1      33.320  34.880  28.839  1.00  0.00     0.124 S 
ATOM     84  O   UNL A   1      32.490  35.194  29.995  1.00  0.00    -0.237 OA
ATOM     85  O   UNL A   1      33.919  36.021  28.154  1.00  0.00    -0.237 OA
ATOM     86  O   UNL A   1      32.811  33.830  27.960  1.00  0.00    -0.744 OA
ENDBRANCH  82  83
ENDBRANCH  50  75
BRANCH  62  87
ATOM     87  C   UNL A   1      40.041  33.990  37.055  1.00  0.00     0.058 A 
ATOM     88  C   UNL A   1      40.541  35.300  37.016  1.00  0.00     0.135 A 
ATOM     89  C   UNL A   1      39.225  33.627  38.139  1.00  0.00     0.135 A 
ATOM     90  F   UNL A   1      41.329  35.692  36.002  1.00  0.00    -0.206 F 
ATOM     91  C   UNL A   1      40.253  36.216  38.023  1.00  0.00     0.059 A 
ATOM     92  C   UNL A   1      38.910  34.532  39.146  1.00  0.00     0.059 A 
ATOM     93  F   UNL A   1      38.714  32.388  38.214  1.00  0.00    -0.206 F 
ATOM     94  C   UNL A   1      39.436  35.822  39.084  1.00  0.00     0.060 A 
BRANCH  94  95
ATOM     95  S   UNL A   1      39.029  37.029  40.365  1.00  0.00     0.124 S 
ATOM     96  O   UNL A   1      38.438  38.105  39.575  1.00  0.00    -0.237 OA
ATOM     97  O   UNL A   1      38.105  36.287  41.218  1.00  0.00    -0.237 OA
ATOM     98  O   UNL A   1      40.324  37.328  40.969  1.00  0.00    -0.744 OA
ENDBRANCH  94  95
ENDBRANCH  62  87
ENDBRANCH  36  37
ENDBRANCH  29  31
ENDBRANCH  28  29
ENDBRANCH  27  28
ENDBRANCH  26  27
ENDBRANCH  25  26
ENDBRANCH  24  25
ENDBRANCH   1  24
TORSDOF 24
ENDMDL
MODEL 2
REMARK VINA RESULT:      -9.6      1.642      2.622
REMARK SMILES Cc1onc(-c2cccc(Br)c2)c1C(=O)OCCOCCOCCOCCOC(=O)c1ccc(-c2c3nc(c(-c4c(F)cc(S(=O)(=O)[O-])cc4F)c4ccc([nH]4)c(-c4c(F)cc(S(=O)(=O)[O-])cc4F)c4nc(c(-c5c(F)cc(S(=O)(=O)[O-])cc5F)c5ccc2[nH]5)C=C4)C=C3)cc1
REMARK SMILES IDX 23 1 22 2 21 3 20 4 19 5 18 6 17 7 16 8 14 9 15 10 13 11
REMARK SMILES IDX 1 12 2 13 3 14 4 15 5 16 6 17 7 18 12 19 8 20 10 21 9 22
REMARK SMILES IDX 11 23 24 24 25 25 26 26 27 27 28 28 29 29 30 30 31 31 32 32
REMARK SMILES IDX 96 33 33 34 95 35 34 36 35 37 36 38 89 39 37 40 94 41 88 42
REMARK SMILES IDX 90 43 38 44 93 45 87 46 86 47 39 49 73 50 52 51 72 52 53 53
REMARK SMILES IDX 56 54 71 55 91 56 54 57 55 58 70 60 92 61 57 62 40 63 41 64
REMARK SMILES IDX 50 65 42 66 43 67 49 68 51 69 44 70 45 71 46 72 47 73 48 74
REMARK SMILES IDX 74 75 75 76 84 77 76 78 77 79 83 80 85 81 78 82 79 83 80 84
REMARK SMILES IDX 81 85 82 86 58 87 59 88 68 89 60 90 61 91 67 92 69 93 62 94
REMARK SMILES IDX 63 95 64 96 65 97 66 98
REMARK H PARENT 90 48 56 59
REMARK Flexibility Score: inf
ROOT
ATOM      1  C   UNL A   1      38.904  20.886  25.747  1.00  0.00     0.188 C 
ENDROOT
BRANCH   1   2
ATOM      2  O   UNL A   1      38.165  22.054  25.425  1.00  0.00    -0.377 OA
BRANCH   2   3
ATOM      3  C   UNL A   1      36.949  21.938  24.709  1.00  0.00     0.188 C 
BRANCH   3   4
ATOM      4  C   UNL A   1      35.681  22.591  25.277  1.00  0.00     0.188 C 
BRANCH   4   5
ATOM      5  O   UNL A   1      34.524  21.763  25.193  1.00  0.00    -0.376 OA
BRANCH   5   6
ATOM      6  C   UNL A   1      33.436  22.159  26.022  1.00  0.00     0.202 C 
BRANCH   6   7
ATOM      7  C   UNL A   1      32.363  22.921  25.240  1.00  0.00     0.261 C 
BRANCH   7   8
ATOM      8  O   UNL A   1      32.410  24.347  25.414  1.00  0.00    -0.459 OA
BRANCH   8   9
ATOM      9  C   UNL A   1      31.662  25.112  24.578  1.00  0.00     0.344 C 
ATOM     10  O   UNL A   1      30.466  25.330  24.722  1.00  0.00    -0.246 OA
BRANCH   9  11
ATOM     11  C   UNL A   1      32.466  25.735  23.554  1.00  0.00     0.130 A 
ATOM     12  C   UNL A   1      33.130  23.761  21.925  1.00  0.00     0.092 C 
ATOM     13  C   UNL A   1      33.063  25.136  22.463  1.00  0.00     0.148 A 
ATOM     14  O   UNL A   1      33.758  26.072  21.764  1.00  0.00    -0.360 OA
ATOM     15  N   UNL A   1      33.700  27.283  22.421  1.00  0.00    -0.079 NA
ATOM     16  C   UNL A   1      32.953  27.074  23.515  1.00  0.00     0.128 A 
BRANCH  16  17
ATOM     17  C   UNL A   1      32.871  28.092  24.550  1.00  0.00     0.006 A 
ATOM     18  C   UNL A   1      31.722  28.897  24.621  1.00  0.00     0.010 A 
ATOM     19  C   UNL A   1      33.913  28.292  25.458  1.00  0.00     0.026 A 
ATOM     20  C   UNL A   1      31.625  29.911  25.575  1.00  0.00     0.002 A 
ATOM     21  C   UNL A   1      33.799  29.295  26.421  1.00  0.00     0.018 A 
ATOM     22  C   UNL A   1      32.666  30.110  26.479  1.00  0.00     0.016 A 
ATOM     23  Br  UNL A   1      35.193  29.555  27.673  1.00  0.00    -0.051 Br
ENDBRANCH  16  17
ENDBRANCH   9  11
ENDBRANCH   8   9
ENDBRANCH   7   8
ENDBRANCH   6   7
ENDBRANCH   5   6
ENDBRANCH   4   5
ENDBRANCH   3   4
ENDBRANCH   2   3
ENDBRANCH   1   2
BRANCH   1  24
ATOM     24  C   UNL A   1      40.192  21.007  26.578  1.00  0.00     0.188 C 
BRANCH  24  25
ATOM     25  O   UNL A   1      41.021  22.114  26.226  1.00  0.00    -0.376 OA
BRANCH  25  26
ATOM     26  C   UNL A   1      42.319  22.119  26.813  1.00  0.00     0.202 C 
BRANCH  26  27
ATOM     27  C   UNL A   1      43.296  23.062  26.104  1.00  0.00     0.261 C 
BRANCH  27  28
ATOM     28  O   UNL A   1      42.872  24.431  26.073  1.00  0.00    -0.460 OA
BRANCH  28  29
ATOM     29  C   UNL A   1      43.794  25.356  26.421  1.00  0.00     0.338 C 
ATOM     30  O   UNL A   1      44.909  25.498  25.953  1.00  0.00    -0.246 OA
BRANCH  29  31
ATOM     31  C   UNL A   1      43.157  26.293  27.361  1.00  0.00     0.060 A 
ATOM     32  C   UNL A   1      43.609  27.617  27.395  1.00  0.00     0.016 A 
ATOM     33  C   UNL A   1      42.123  25.865  28.198  1.00  0.00     0.016 A 
ATOM     34  C   UNL A   1      43.048  28.513  28.305  1.00  0.00     0.010 A 
ATOM     35  C   UNL A   1      41.578  26.756  29.121  1.00  0.00     0.010 A 
ATOM     36  C   UNL A   1      42.063  28.072  29.199  1.00  0.00    -0.014 A 
BRANCH  36  37
ATOM     37  C   UNL A   1      41.688  28.916  30.355  1.00  0.00     0.031 A 
ATOM     38  C   UNL A   1      42.484  28.770  31.621  1.00  0.00     0.074 A 
ATOM     39  C   UNL A   1      40.656  29.773  30.288  1.00  0.00     0.049 A 
ATOM     40  N   UNL A   1      42.333  29.373  32.769  1.00  0.00    -0.248 NA
ATOM     41  C   UNL A   1      43.603  27.812  31.584  1.00  0.00     0.031 C 
ATOM     42  C   UNL A   1      39.821  30.006  29.109  1.00  0.00     0.029 A 
ATOM     43  N   UNL A   1      40.129  30.601  31.245  1.00  0.00    -0.354 N 
ATOM     44  C   UNL A   1      43.337  28.875  33.589  1.00  0.00     0.074 A 
ATOM     45  C   UNL A   1      44.078  27.901  32.817  1.00  0.00     0.031 C 
ATOM     46  C   UNL A   1      38.872  30.907  29.421  1.00  0.00     0.029 A 
ATOM     47  C   UNL A   1      39.024  31.299  30.822  1.00  0.00     0.049 A 
ATOM     48  H   UNL A   1      40.505  30.687  32.150  1.00  0.00     0.167 HD
ATOM     49  C   UNL A   1      43.621  29.202  34.871  1.00  0.00     0.037 A 
ATOM     50  C   UNL A   1      38.223  32.146  31.498  1.00  0.00     0.037 A 
ATOM     51  C   UNL A   1      42.870  30.150  35.645  1.00  0.00     0.049 A 
ATOM     52  C   UNL A   1      38.523  32.451  32.941  1.00  0.00     0.074 A 
ATOM     53  C   UNL A   1      43.081  30.560  36.948  1.00  0.00     0.029 A 
ATOM     54  N   UNL A   1      41.751  30.828  35.186  1.00  0.00    -0.354 N 
ATOM     55  N   UNL A   1      39.500  32.005  33.694  1.00  0.00    -0.248 NA
ATOM     56  C   UNL A   1      37.610  33.376  33.630  1.00  0.00     0.031 C 
ATOM     57  C   UNL A   1      42.068  31.465  37.289  1.00  0.00     0.029 A 
ATOM     58  C   UNL A   1      41.247  31.640  36.187  1.00  0.00     0.049 A 
ATOM     59  H   UNL A   1      41.370  30.743  34.281  1.00  0.00     0.167 HD
ATOM     60  C   UNL A   1      39.335  32.611  34.934  1.00  0.00     0.074 A 
ATOM     61  C   UNL A   1      38.165  33.459  34.831  1.00  0.00     0.031 C 
ATOM     62  C   UNL A   1      40.084  32.482  36.057  1.00  0.00     0.037 A 
BRANCH  49  63
ATOM     63  C   UNL A   1      44.784  28.505  35.510  1.00  0.00     0.058 A 
ATOM     64  C   UNL A   1      44.619  27.293  36.199  1.00  0.00     0.135 A 
ATOM     65  C   UNL A   1      46.073  29.056  35.444  1.00  0.00     0.135 A 
ATOM     66  F   UNL A   1      43.400  26.740  36.311  1.00  0.00    -0.206 F 
ATOM     67  C   UNL A   1      45.690  26.662  36.823  1.00  0.00     0.059 A 
ATOM     68  C   UNL A   1      47.161  28.432  36.046  1.00  0.00     0.059 A 
ATOM     69  F   UNL A   1      46.279  30.219  34.807  1.00  0.00    -0.206 F 
ATOM     70  C   UNL A   1      46.956  27.244  36.747  1.00  0.00     0.060 A 
BRANCH  70  71
ATOM     71  S   UNL A   1      48.337  26.425  37.572  1.00  0.00     0.124 S 
ATOM     72  O   UNL A   1      49.480  27.041  36.903  1.00  0.00    -0.237 OA
ATOM     73  O   UNL A   1      48.142  26.806  38.968  1.00  0.00    -0.237 OA
ATOM     74  O   UNL A   1      48.120  25.013  37.276  1.00  0.00    -0.744 OA
ENDBRANCH  70  71
ENDBRANCH  49  63
BRANCH  50  75
ATOM     75  C   UNL A   1      37.057  32.766  30.819  1.00  0.00     0.058 A 
ATOM     76  C   UNL A   1      35.775  32.211  30.938  1.00  0.00     0.135 A 
ATOM     77  C   UNL A   1      37.201  33.924  30.040  1.00  0.00     0.135 A 
ATOM     78  F   UNL A   1      35.591  31.098  31.664  1.00  0.00    -0.206 F 
ATOM     79  C   UNL A   1      34.675  32.776  30.300  1.00  0.00     0.059 A 
ATOM     80  C   UNL A   1      36.114  34.517  29.406  1.00  0.00     0.059 A 
ATOM     81  F   UNL A   1      38.407  34.497  29.906  1.00  0.00    -0.206 F 
ATOM     82  C   UNL A   1      34.856  33.931  29.536  1.00  0.00     0.060 A 
BRANCH  82  83
ATOM     83  S   UNL A   1      33.416  34.692  28.754  1.00  0.00     0.124 S 
ATOM     84  O   UNL A   1      32.542  34.912  29.900  1.00  0.00    -0.237 OA
ATOM     85  O   UNL A   1      33.989  35.890  28.148  1.00  0.00    -0.237 OA
ATOM     86  O   UNL A   1      32.974  33.673  27.807  1.00  0.00    -0.744 OA
ENDBRANCH  82  83
ENDBRANCH  50  75
BRANCH  62  87
ATOM     87  C   UNL A   1      39.681  33.291  37.254  1.00  0.00     0.058 A 
ATOM     88  C   UNL A   1      38.669  32.860  38.124  1.00  0.00     0.135 A 
ATOM     89  C   UNL A   1      40.361  34.479  37.569  1.00  0.00     0.135 A 
ATOM     90  F   UNL A   1      37.987  31.733  37.862  1.00  0.00    -0.206 F 
ATOM     91  C   UNL A   1      38.333  33.587  39.262  1.00  0.00     0.059 A 
ATOM     92  C   UNL A   1      40.054  35.211  38.712  1.00  0.00     0.059 A 
ATOM     93  F   UNL A   1      41.344  34.927  36.773  1.00  0.00    -0.206 F 
ATOM     94  C   UNL A   1      39.032  34.761  39.548  1.00  0.00     0.060 A 
BRANCH  94  95
ATOM     95  S   UNL A   1      38.623  35.676  41.050  1.00  0.00     0.124 S 
ATOM     96  O   UNL A   1      37.454  34.943  41.529  1.00  0.00    -0.237 OA
ATOM     97  O   UNL A   1      39.834  35.530  41.851  1.00  0.00    -0.237 OA
ATOM     98  O   UNL A   1      38.362  37.027  40.561  1.00  0.00    -0.744 OA
ENDBRANCH  94  95
ENDBRANCH  62  87
ENDBRANCH  36  37
ENDBRANCH  29  31
ENDBRANCH  28  29
ENDBRANCH  27  28
ENDBRANCH  26  27
ENDBRANCH  25  26
ENDBRANCH  24  25
ENDBRANCH   1  24
TORSDOF 24
ENDMDL
MODEL 3
REMARK VINA RESULT:      -9.3      6.270     12.074
REMARK SMILES Cc1onc(-c2cccc(Br)c2)c1C(=O)OCCOCCOCCOCCOC(=O)c1ccc(-c2c3nc(c(-c4c(F)cc(S(=O)(=O)[O-])cc4F)c4ccc([nH]4)c(-c4c(F)cc(S(=O)(=O)[O-])cc4F)c4nc(c(-c5c(F)cc(S(=O)(=O)[O-])cc5F)c5ccc2[nH]5)C=C4)C=C3)cc1
REMARK SMILES IDX 23 1 22 2 21 3 20 4 19 5 18 6 17 7 16 8 14 9 15 10 13 11
REMARK SMILES IDX 1 12 2 13 3 14 4 15 5 16 6 17 7 18 12 19 8 20 10 21 9 22
REMARK SMILES IDX 11 23 24 24 25 25 26 26 27 27 28 28 29 29 30 30 31 31 32 32
REMARK SMILES IDX 96 33 33 34 95 35 34 36 35 37 36 38 89 39 37 40 94 41 88 42
REMARK SMILES IDX 90 43 38 44 93 45 87 46 86 47 39 49 73 50 52 51 72 52 53 53
REMARK SMILES IDX 56 54 71 55 91 56 54 57 55 58 70 60 92 61 57 62 40 63 41 64
REMARK SMILES IDX 50 65 42 66 43 67 49 68 51 69 44 70 45 71 46 72 47 73 48 74
REMARK SMILES IDX 74 75 75 76 84 77 76 78 77 79 83 80 85 81 78 82 79 83 80 84
REMARK SMILES IDX 81 85 82 86 58 87 59 88 68 89 60 90 61 91 67 92 69 93 62 94
REMARK SMILES IDX 63 95 64 96 65 97 66 98
REMARK H PARENT 90 48 56 59
REMARK Flexibility Score: inf
ROOT
ATOM      1  C   UNL A   1      35.245  33.737  29.598  1.00  0.00     0.188 C 
ENDROOT
BRANCH   1   2
ATOM      2  O   UNL A   1      35.838  32.522  29.164  1.00  0.00    -0.377 OA
BRANCH   2   3
ATOM      3  C   UNL A   1      35.264  31.810  28.084  1.00  0.00     0.188 C 
BRANCH   3   4
ATOM      4  C   UNL A   1      35.976  30.557  27.552  1.00  0.00     0.188 C 
BRANCH   4   5
ATOM      5  O   UNL A   1      35.211  29.363  27.685  1.00  0.00    -0.376 OA
BRANCH   5   6
ATOM      6  C   UNL A   1      33.851  29.468  27.274  1.00  0.00     0.202 C 
BRANCH   6   7
ATOM      7  C   UNL A   1      33.223  28.097  27.007  1.00  0.00     0.261 C 
BRANCH   7   8
ATOM      8  O   UNL A   1      33.043  27.794  25.614  1.00  0.00    -0.459 OA
BRANCH   8   9
ATOM      9  C   UNL A   1      32.139  26.835  25.286  1.00  0.00     0.344 C 
ATOM     10  O   UNL A   1      31.181  26.520  25.979  1.00  0.00    -0.246 OA
BRANCH   9  11
ATOM     11  C   UNL A   1      32.376  26.301  23.966  1.00  0.00     0.130 A 
ATOM     12  C   UNL A   1      30.687  27.600  22.400  1.00  0.00     0.092 C 
ATOM     13  C   UNL A   1      31.747  26.645  22.786  1.00  0.00     0.148 A 
ATOM     14  O   UNL A   1      32.242  25.881  21.777  1.00  0.00    -0.360 OA
ATOM     15  N   UNL A   1      33.143  24.967  22.282  1.00  0.00    -0.079 NA
ATOM     16  C   UNL A   1      33.199  25.195  23.602  1.00  0.00     0.128 A 
BRANCH  16  17
ATOM     17  C   UNL A   1      33.891  24.262  24.477  1.00  0.00     0.006 A 
ATOM     18  C   UNL A   1      33.164  23.213  25.063  1.00  0.00     0.010 A 
ATOM     19  C   UNL A   1      35.253  24.399  24.754  1.00  0.00     0.026 A 
ATOM     20  C   UNL A   1      33.785  22.323  25.940  1.00  0.00     0.002 A 
ATOM     21  C   UNL A   1      35.871  23.492  25.617  1.00  0.00     0.018 A 
ATOM     22  C   UNL A   1      35.143  22.462  26.217  1.00  0.00     0.016 A 
ATOM     23  Br  UNL A   1      37.721  23.653  25.976  1.00  0.00    -0.051 Br
ENDBRANCH  16  17
ENDBRANCH   9  11
ENDBRANCH   8   9
ENDBRANCH   7   8
ENDBRANCH   6   7
ENDBRANCH   5   6
ENDBRANCH   4   5
ENDBRANCH   3   4
ENDBRANCH   2   3
ENDBRANCH   1   2
BRANCH   1  24
ATOM     24  C   UNL A   1      35.366  34.158  31.071  1.00  0.00     0.188 C 
BRANCH  24  25
ATOM     25  O   UNL A   1      36.673  34.007  31.624  1.00  0.00    -0.376 OA
BRANCH  25  26
ATOM     26  C   UNL A   1      36.719  33.643  33.000  1.00  0.00     0.202 C 
BRANCH  26  27
ATOM     27  C   UNL A   1      36.289  32.195  33.253  1.00  0.00     0.261 C 
BRANCH  27  28
ATOM     28  O   UNL A   1      37.307  31.223  32.978  1.00  0.00    -0.460 OA
BRANCH  28  29
ATOM     29  C   UNL A   1      37.128  30.457  31.879  1.00  0.00     0.338 C 
ATOM     30  O   UNL A   1      36.072  30.069  31.415  1.00  0.00    -0.246 OA
BRANCH  29  31
ATOM     31  C   UNL A   1      38.436  30.305  31.220  1.00  0.00     0.060 A 
ATOM     32  C   UNL A   1      38.467  29.941  29.869  1.00  0.00     0.016 A 
ATOM     33  C   UNL A   1      39.619  30.521  31.933  1.00  0.00     0.016 A 
ATOM     34  C   UNL A   1      39.693  29.751  29.234  1.00  0.00     0.010 A 
ATOM     35  C   UNL A   1      40.844  30.312  31.302  1.00  0.00     0.010 A 
ATOM     36  C   UNL A   1      40.883  29.894  29.963  1.00  0.00    -0.014 A 
BRANCH  36  37
ATOM     37  C   UNL A   1      42.156  29.402  29.393  1.00  0.00     0.031 A 
ATOM     38  C   UNL A   1      43.290  30.378  29.256  1.00  0.00     0.074 A 
ATOM     39  C   UNL A   1      42.295  28.128  28.989  1.00  0.00     0.049 A 
ATOM     40  N   UNL A   1      44.486  30.197  28.762  1.00  0.00    -0.248 NA
ATOM     41  C   UNL A   1      43.038  31.747  29.740  1.00  0.00     0.031 C 
ATOM     42  C   UNL A   1      41.268  27.091  29.085  1.00  0.00     0.029 A 
ATOM     43  N   UNL A   1      43.361  27.495  28.405  1.00  0.00    -0.354 N 
ATOM     44  C   UNL A   1      45.131  31.420  28.882  1.00  0.00     0.074 A 
ATOM     45  C   UNL A   1      44.188  32.347  29.471  1.00  0.00     0.031 C 
ATOM     46  C   UNL A   1      41.751  25.952  28.558  1.00  0.00     0.029 A 
ATOM     47  C   UNL A   1      43.111  26.185  28.075  1.00  0.00     0.049 A 
ATOM     48  H   UNL A   1      44.224  27.937  28.236  1.00  0.00     0.167 HD
ATOM     49  C   UNL A   1      46.399  31.745  28.537  1.00  0.00     0.037 A 
ATOM     50  C   UNL A   1      43.892  25.287  27.443  1.00  0.00     0.037 A 
ATOM     51  C   UNL A   1      47.326  30.832  27.930  1.00  0.00     0.049 A 
ATOM     52  C   UNL A   1      45.280  25.687  27.015  1.00  0.00     0.074 A 
ATOM     53  C   UNL A   1      48.636  31.058  27.551  1.00  0.00     0.029 A 
ATOM     54  N   UNL A   1      47.032  29.518  27.601  1.00  0.00    -0.354 N 
ATOM     55  N   UNL A   1      45.893  26.836  27.171  1.00  0.00    -0.248 NA
ATOM     56  C   UNL A   1      46.082  24.667  26.323  1.00  0.00     0.031 C 
ATOM     57  C   UNL A   1      49.127  29.887  26.963  1.00  0.00     0.029 A 
ATOM     58  C   UNL A   1      48.131  28.924  27.004  1.00  0.00     0.049 A 
ATOM     59  H   UNL A   1      46.170  29.072  27.766  1.00  0.00     0.167 HD
ATOM     60  C   UNL A   1      47.159  26.671  26.620  1.00  0.00     0.074 A 
ATOM     61  C   UNL A   1      47.226  25.310  26.128  1.00  0.00     0.031 C 
ATOM     62  C   UNL A   1      48.176  27.563  26.530  1.00  0.00     0.037 A 
BRANCH  49  63
ATOM     63  C   UNL A   1      46.834  33.156  28.796  1.00  0.00     0.058 A 
ATOM     64  C   UNL A   1      46.673  34.158  27.826  1.00  0.00     0.135 A 
ATOM     65  C   UNL A   1      47.429  33.509  30.017  1.00  0.00     0.135 A 
ATOM     66  F   UNL A   1      46.133  33.863  26.632  1.00  0.00    -0.206 F 
ATOM     67  C   UNL A   1      47.109  35.459  28.049  1.00  0.00     0.059 A 
ATOM     68  C   UNL A   1      47.855  34.809  30.268  1.00  0.00     0.059 A 
ATOM     69  F   UNL A   1      47.615  32.583  30.970  1.00  0.00    -0.206 F 
ATOM     70  C   UNL A   1      47.706  35.774  29.271  1.00  0.00     0.060 A 
BRANCH  70  71
ATOM     71  S   UNL A   1      48.282  37.462  29.547  1.00  0.00     0.124 S 
ATOM     72  O   UNL A   1      47.529  37.833  30.741  1.00  0.00    -0.237 OA
ATOM     73  O   UNL A   1      49.718  37.280  29.736  1.00  0.00    -0.237 OA
ATOM     74  O   UNL A   1      47.898  38.155  28.321  1.00  0.00    -0.744 OA
ENDBRANCH  70  71
ENDBRANCH  49  63
BRANCH  50  75
ATOM     75  C   UNL A   1      43.382  23.919  27.173  1.00  0.00     0.058 A 
ATOM     76  C   UNL A   1      43.330  22.955  28.190  1.00  0.00     0.135 A 
ATOM     77  C   UNL A   1      42.936  23.550  25.895  1.00  0.00     0.135 A 
ATOM     78  F   UNL A   1      43.756  23.260  29.425  1.00  0.00    -0.206 F 
ATOM     79  C   UNL A   1      42.863  21.666  27.948  1.00  0.00     0.059 A 
ATOM     80  C   UNL A   1      42.449  22.273  25.633  1.00  0.00     0.059 A 
ATOM     81  F   UNL A   1      42.957  24.441  24.893  1.00  0.00    -0.206 F 
ATOM     82  C   UNL A   1      42.425  21.335  26.665  1.00  0.00     0.060 A 
BRANCH  82  83
ATOM     83  S   UNL A   1      41.768  19.679  26.369  1.00  0.00     0.124 S 
ATOM     84  O   UNL A   1      40.339  19.945  26.255  1.00  0.00    -0.237 OA
ATOM     85  O   UNL A   1      42.447  19.291  25.136  1.00  0.00    -0.237 OA
ATOM     86  O   UNL A   1      42.181  18.940  27.559  1.00  0.00    -0.744 OA
ENDBRANCH  82  83
ENDBRANCH  50  75
BRANCH  62  87
ATOM     87  C   UNL A   1      49.455  27.092  25.903  1.00  0.00     0.058 A 
ATOM     88  C   UNL A   1      49.738  27.326  24.550  1.00  0.00     0.135 A 
ATOM     89  C   UNL A   1      50.436  26.458  26.683  1.00  0.00     0.135 A 
ATOM     90  F   UNL A   1      48.829  27.925  23.764  1.00  0.00    -0.206 F 
ATOM     91  C   UNL A   1      50.947  26.935  23.984  1.00  0.00     0.059 A 
ATOM     92  C   UNL A   1      51.659  26.075  26.142  1.00  0.00     0.059 A 
ATOM     93  F   UNL A   1      50.215  26.222  27.986  1.00  0.00    -0.206 F 
ATOM     94  C   UNL A   1      51.902  26.310  24.789  1.00  0.00     0.060 A 
BRANCH  94  95
ATOM     95  S   UNL A   1      53.487  25.845  24.060  1.00  0.00     0.124 S 
ATOM     96  O   UNL A   1      54.359  26.905  24.556  1.00  0.00    -0.237 OA
ATOM     97  O   UNL A   1      53.718  24.518  24.622  1.00  0.00    -0.237 OA
ATOM     98  O   UNL A   1      53.218  25.871  22.625  1.00  0.00    -0.744 OA
ENDBRANCH  94  95
ENDBRANCH  62  87
ENDBRANCH  36  37
ENDBRANCH  29  31
ENDBRANCH  28  29
ENDBRANCH  27  28
ENDBRANCH  26  27
ENDBRANCH  25  26
ENDBRANCH  24  25
ENDBRANCH   1  24
TORSDOF 24
ENDMDL
