MODEL 1
REMARK VINA RESULT:      -8.7      0.000      0.000
REMARK SMILES CCC[N@@H+](C)CC[C@@H]1CCC[C@]1([NH2+]C)C(=O)OCCOCCOCCOCCOC(=O)c1ccc(-c2c3nc(c(-c4c(F)cc(S(=O)(=O)[O-])cc4F)c4ccc([nH]4)c(-c4c(F)cc(S(=O)(=O)[O-])cc4F)c4nc(c(-c5c(F)cc(S(=O)(=O)[O-])cc5F)c5ccc2[nH]5)C=C4)C=C3)cc1
REMARK SMILES IDX 22 1 21 2 20 3 19 4 18 5 17 6 15 7 16 8 12 9 8 10 9 11 10 12
REMARK SMILES IDX 11 13 7 14 6 15 4 16 5 17 3 19 2 20 1 21 13 22 14 23 23 26
REMARK SMILES IDX 24 27 25 28 26 29 27 30 28 31 29 32 30 33 31 34 32 35 33 36
REMARK SMILES IDX 97 37 34 38 96 39 35 40 36 41 37 42 90 43 38 44 95 45 89 46
REMARK SMILES IDX 91 47 39 48 94 49 88 50 87 51 40 53 74 54 53 55 73 56 54 57
REMARK SMILES IDX 57 58 72 59 92 60 55 61 56 62 71 64 93 65 58 66 41 67 42 68
REMARK SMILES IDX 51 69 43 70 44 71 50 72 52 73 45 74 46 75 47 76 48 77 49 78
REMARK SMILES IDX 75 79 76 80 85 81 77 82 78 83 84 84 86 85 79 86 80 87 81 88
REMARK SMILES IDX 82 89 83 90 59 91 60 92 69 93 61 94 62 95 68 96 70 97 63 98
REMARK SMILES IDX 64 99 65 100 66 101 67 102
REMARK H PARENT 4 18 13 24 13 25 91 52 57 63
REMARK Flexibility Score: inf
ROOT
ATOM      1  C   UNL A   1      37.707  20.896  24.898  1.00  0.00     0.188 C 
ENDROOT
BRANCH   1   2
ATOM      2  C   UNL A   1      36.257  20.947  25.413  1.00  0.00     0.188 C 
BRANCH   2   3
ATOM      3  O   UNL A   1      35.263  20.114  24.854  1.00  0.00    -0.376 OA
BRANCH   3   4
ATOM      4  C   UNL A   1      33.913  20.419  25.263  1.00  0.00     0.202 C 
BRANCH   4   5
ATOM      5  C   UNL A   1      32.776  20.415  24.172  1.00  0.00     0.261 C 
BRANCH   5   6
ATOM      6  O   UNL A   1      32.686  21.579  23.252  1.00  0.00    -0.459 OA
BRANCH   6   7
ATOM      7  C   UNL A   1      33.022  22.832  23.729  1.00  0.00     0.368 C 
ATOM      8  O   UNL A   1      34.201  23.193  23.761  1.00  0.00    -0.245 OA
BRANCH   7   9
ATOM      9  C   UNL A   1      31.819  23.762  24.390  1.00  0.00     0.197 C 
ATOM     10  C   UNL A   1      31.891  25.001  25.431  1.00  0.00     0.068 C 
ATOM     11  C   UNL A   1      31.783  24.474  26.881  1.00  0.00     0.011 C 
ATOM     12  C   UNL A   1      31.534  22.987  26.755  1.00  0.00     0.008 C 
ATOM     13  C   UNL A   1      31.004  22.790  25.337  1.00  0.00     0.081 C 
BRANCH  10  14
ATOM     14  C   UNL A   1      32.736  26.287  25.326  1.00  0.00     0.072 C 
BRANCH  14  15
ATOM     15  C   UNL A   1      32.693  27.324  26.469  1.00  0.00     0.262 C 
BRANCH  15  16
ATOM     16  N   UNL A   1      31.759  28.427  26.271  1.00  0.00    -0.337 N 
ATOM     17  C   UNL A   1      31.633  28.605  24.809  1.00  0.00     0.332 C 
ATOM     18  H   UNL A   1      30.818  28.239  26.619  1.00  0.00     0.347 HD
BRANCH  16  19
ATOM     19  C   UNL A   1      32.109  29.589  27.090  1.00  0.00     0.261 C 
BRANCH  19  20
ATOM     20  C   UNL A   1      33.226  30.552  26.682  1.00  0.00     0.058 C 
ATOM     21  C   UNL A   1      34.384  30.626  27.649  1.00  0.00     0.010 C 
ENDBRANCH  19  20
ENDBRANCH  16  19
ENDBRANCH  15  16
ENDBRANCH  14  15
ENDBRANCH  10  14
BRANCH   9  22
ATOM     22  N   UNL A   1      30.944  24.215  23.261  1.00  0.00    -0.334 N 
ATOM     23  C   UNL A   1      30.186  25.431  23.527  1.00  0.00     0.331 C 
ATOM     24  H   UNL A   1      30.281  23.467  23.054  1.00  0.00     0.347 HD
ATOM     25  H   UNL A   1      31.566  24.428  22.482  1.00  0.00     0.347 HD
ENDBRANCH   9  22
ENDBRANCH   7   9
ENDBRANCH   6   7
ENDBRANCH   5   6
ENDBRANCH   4   5
ENDBRANCH   3   4
ENDBRANCH   2   3
ENDBRANCH   1   2
BRANCH   1  26
ATOM     26  O   UNL A   1      38.334  19.650  24.698  1.00  0.00    -0.377 OA
BRANCH  26  27
ATOM     27  C   UNL A   1      39.199  19.261  25.749  1.00  0.00     0.188 C 
BRANCH  27  28
ATOM     28  C   UNL A   1      40.256  20.302  26.161  1.00  0.00     0.188 C 
BRANCH  28  29
ATOM     29  O   UNL A   1      41.605  19.890  25.914  1.00  0.00    -0.376 OA
BRANCH  29  30
ATOM     30  C   UNL A   1      42.575  20.931  26.104  1.00  0.00     0.202 C 
BRANCH  30  31
ATOM     31  C   UNL A   1      42.220  22.030  27.133  1.00  0.00     0.261 C 
BRANCH  31  32
ATOM     32  O   UNL A   1      41.664  23.237  26.586  1.00  0.00    -0.460 OA
BRANCH  32  33
ATOM     33  C   UNL A   1      42.488  24.307  26.558  1.00  0.00     0.338 C 
ATOM     34  O   UNL A   1      43.500  24.430  25.896  1.00  0.00    -0.246 OA
BRANCH  33  35
ATOM     35  C   UNL A   1      41.876  25.391  27.351  1.00  0.00     0.060 A 
ATOM     36  C   UNL A   1      42.624  26.553  27.557  1.00  0.00     0.016 A 
ATOM     37  C   UNL A   1      40.629  25.230  27.962  1.00  0.00     0.016 A 
ATOM     38  C   UNL A   1      42.141  27.556  28.388  1.00  0.00     0.010 A 
ATOM     39  C   UNL A   1      40.158  26.225  28.830  1.00  0.00     0.010 A 
ATOM     40  C   UNL A   1      40.933  27.372  29.071  1.00  0.00    -0.014 A 
BRANCH  40  41
ATOM     41  C   UNL A   1      40.663  28.273  30.216  1.00  0.00     0.031 A 
ATOM     42  C   UNL A   1      41.560  28.155  31.420  1.00  0.00     0.074 A 
ATOM     43  C   UNL A   1      39.749  29.255  30.131  1.00  0.00     0.049 A 
ATOM     44  N   UNL A   1      41.602  28.887  32.501  1.00  0.00    -0.248 NA
ATOM     45  C   UNL A   1      42.566  27.076  31.387  1.00  0.00     0.031 C 
ATOM     46  C   UNL A   1      38.882  29.508  28.980  1.00  0.00     0.029 A 
ATOM     47  N   UNL A   1      39.414  30.238  31.027  1.00  0.00    -0.354 N 
ATOM     48  C   UNL A   1      42.652  28.379  33.260  1.00  0.00     0.074 A 
ATOM     49  C   UNL A   1      43.198  27.253  32.537  1.00  0.00     0.031 C 
ATOM     50  C   UNL A   1      38.107  30.576  29.246  1.00  0.00     0.029 A 
ATOM     51  C   UNL A   1      38.411  31.070  30.587  1.00  0.00     0.049 A 
ATOM     52  H   UNL A   1      39.850  30.339  31.904  1.00  0.00     0.167 HD
ATOM     53  C   UNL A   1      43.125  28.821  34.447  1.00  0.00     0.037 A 
ATOM     54  C   UNL A   1      37.808  32.103  31.208  1.00  0.00     0.037 A 
ATOM     55  C   UNL A   1      42.557  29.923  35.174  1.00  0.00     0.049 A 
ATOM     56  C   UNL A   1      38.288  32.506  32.582  1.00  0.00     0.074 A 
ATOM     57  C   UNL A   1      42.921  30.418  36.413  1.00  0.00     0.029 A 
ATOM     58  N   UNL A   1      41.500  30.702  34.725  1.00  0.00    -0.354 N 
ATOM     59  N   UNL A   1      39.271  32.009  33.296  1.00  0.00    -0.248 NA
ATOM     60  C   UNL A   1      37.583  33.621  33.232  1.00  0.00     0.031 C 
ATOM     61  C   UNL A   1      42.058  31.473  36.731  1.00  0.00     0.029 A 
ATOM     62  C   UNL A   1      41.193  31.669  35.665  1.00  0.00     0.049 A 
ATOM     63  H   UNL A   1      41.037  30.584  33.864  1.00  0.00     0.167 HD
ATOM     64  C   UNL A   1      39.330  32.777  34.455  1.00  0.00     0.074 A 
ATOM     65  C   UNL A   1      38.290  33.778  34.342  1.00  0.00     0.031 C 
ATOM     66  C   UNL A   1      40.167  32.670  35.517  1.00  0.00     0.037 A 
BRANCH  53  67
ATOM     67  C   UNL A   1      44.300  28.097  35.041  1.00  0.00     0.058 A 
ATOM     68  C   UNL A   1      44.132  26.958  35.845  1.00  0.00     0.135 A 
ATOM     69  C   UNL A   1      45.611  28.520  34.770  1.00  0.00     0.135 A 
ATOM     70  F   UNL A   1      42.900  26.528  36.158  1.00  0.00    -0.206 F 
ATOM     71  C   UNL A   1      45.222  26.265  36.361  1.00  0.00     0.059 A 
ATOM     72  C   UNL A   1      46.717  27.829  35.256  1.00  0.00     0.059 A 
ATOM     73  F   UNL A   1      45.827  29.611  34.020  1.00  0.00    -0.206 F 
ATOM     74  C   UNL A   1      46.512  26.704  36.055  1.00  0.00     0.060 A 
BRANCH  74  75
ATOM     75  S   UNL A   1      47.916  25.771  36.700  1.00  0.00     0.124 S 
ATOM     76  O   UNL A   1      47.251  24.623  37.309  1.00  0.00    -0.237 OA
ATOM     77  O   UNL A   1      48.684  25.490  35.491  1.00  0.00    -0.237 OA
ATOM     78  O   UNL A   1      48.543  26.700  37.635  1.00  0.00    -0.744 OA
ENDBRANCH  74  75
ENDBRANCH  53  67
BRANCH  54  79
ATOM     79  C   UNL A   1      36.672  32.820  30.565  1.00  0.00     0.058 A 
ATOM     80  C   UNL A   1      36.881  33.795  29.576  1.00  0.00     0.135 A 
ATOM     81  C   UNL A   1      35.349  32.590  30.979  1.00  0.00     0.135 A 
ATOM     82  F   UNL A   1      38.125  34.062  29.150  1.00  0.00    -0.206 F 
ATOM     83  C   UNL A   1      35.830  34.544  29.054  1.00  0.00     0.059 A 
ATOM     84  C   UNL A   1      34.279  33.305  30.451  1.00  0.00     0.059 A 
ATOM     85  F   UNL A   1      35.088  31.664  31.915  1.00  0.00    -0.206 F 
ATOM     86  C   UNL A   1      34.532  34.297  29.505  1.00  0.00     0.060 A 
BRANCH  86  87
ATOM     87  S   UNL A   1      33.173  35.280  28.834  1.00  0.00     0.124 S 
ATOM     88  O   UNL A   1      33.895  36.326  28.117  1.00  0.00    -0.237 OA
ATOM     89  O   UNL A   1      32.468  34.308  28.005  1.00  0.00    -0.237 OA
ATOM     90  O   UNL A   1      32.453  35.714  30.026  1.00  0.00    -0.744 OA
ENDBRANCH  86  87
ENDBRANCH  54  79
BRANCH  66  91
ATOM     91  C   UNL A   1      40.039  33.701  36.606  1.00  0.00     0.058 A 
ATOM     92  C   UNL A   1      39.154  33.540  37.683  1.00  0.00     0.135 A 
ATOM     93  C   UNL A   1      40.839  34.856  36.581  1.00  0.00     0.135 A 
ATOM     94  F   UNL A   1      38.367  32.455  37.755  1.00  0.00    -0.206 F 
ATOM     95  C   UNL A   1      39.034  34.508  38.674  1.00  0.00     0.059 A 
ATOM     96  C   UNL A   1      40.760  35.821  37.580  1.00  0.00     0.059 A 
ATOM     97  F   UNL A   1      41.716  35.050  35.584  1.00  0.00    -0.206 F 
ATOM     98  C   UNL A   1      39.839  35.647  38.612  1.00  0.00     0.060 A 
BRANCH  98  99
ATOM     99  S   UNL A   1      39.676  36.897  39.904  1.00  0.00     0.124 S 
ATOM    100  O   UNL A   1      41.073  37.218  40.177  1.00  0.00    -0.237 OA
ATOM    101  O   UNL A   1      38.904  37.940  39.237  1.00  0.00    -0.237 OA
ATOM    102  O   UNL A   1      38.974  36.192  40.971  1.00  0.00    -0.744 OA
ENDBRANCH  98  99
ENDBRANCH  66  91
ENDBRANCH  40  41
ENDBRANCH  33  35
ENDBRANCH  32  33
ENDBRANCH  31  32
ENDBRANCH  30  31
ENDBRANCH  29  30
ENDBRANCH  28  29
ENDBRANCH  27  28
ENDBRANCH  26  27
ENDBRANCH   1  26
TORSDOF 29
ENDMDL
MODEL 2
REMARK VINA RESULT:      -7.2      6.208     10.982
REMARK SMILES CCC[N@@H+](C)CC[C@@H]1CCC[C@]1([NH2+]C)C(=O)OCCOCCOCCOCCOC(=O)c1ccc(-c2c3nc(c(-c4c(F)cc(S(=O)(=O)[O-])cc4F)c4ccc([nH]4)c(-c4c(F)cc(S(=O)(=O)[O-])cc4F)c4nc(c(-c5c(F)cc(S(=O)(=O)[O-])cc5F)c5ccc2[nH]5)C=C4)C=C3)cc1
REMARK SMILES IDX 22 1 21 2 20 3 19 4 18 5 17 6 15 7 16 8 12 9 8 10 9 11 10 12
REMARK SMILES IDX 11 13 7 14 6 15 4 16 5 17 3 19 2 20 1 21 13 22 14 23 23 26
REMARK SMILES IDX 24 27 25 28 26 29 27 30 28 31 29 32 30 33 31 34 32 35 33 36
REMARK SMILES IDX 97 37 34 38 96 39 35 40 36 41 37 42 90 43 38 44 95 45 89 46
REMARK SMILES IDX 91 47 39 48 94 49 88 50 87 51 40 53 74 54 53 55 73 56 54 57
REMARK SMILES IDX 57 58 72 59 92 60 55 61 56 62 71 64 93 65 58 66 41 67 42 68
REMARK SMILES IDX 51 69 43 70 44 71 50 72 52 73 45 74 46 75 47 76 48 77 49 78
REMARK SMILES IDX 75 79 76 80 85 81 77 82 78 83 84 84 86 85 79 86 80 87 81 88
REMARK SMILES IDX 82 89 83 90 59 91 60 92 69 93 61 94 62 95 68 96 70 97 63 98
REMARK SMILES IDX 64 99 65 100 66 101 67 102
REMARK H PARENT 4 18 13 24 13 25 91 52 57 63
REMARK Flexibility Score: inf
ROOT
ATOM      1  C   UNL A   1      37.129  21.809  25.061  1.00  0.00     0.188 C 
ENDROOT
BRANCH   1   2
ATOM      2  C   UNL A   1      35.803  21.498  25.780  1.00  0.00     0.188 C 
BRANCH   2   3
ATOM      3  O   UNL A   1      34.637  21.197  25.043  1.00  0.00    -0.376 OA
BRANCH   3   4
ATOM      4  C   UNL A   1      33.669  22.265  24.974  1.00  0.00     0.202 C 
BRANCH   4   5
ATOM      5  C   UNL A   1      34.063  23.593  24.221  1.00  0.00     0.261 C 
BRANCH   5   6
ATOM      6  O   UNL A   1      33.906  24.881  24.946  1.00  0.00    -0.459 OA
BRANCH   6   7
ATOM      7  C   UNL A   1      33.295  25.938  24.299  1.00  0.00     0.368 C 
ATOM      8  O   UNL A   1      33.846  26.489  23.343  1.00  0.00    -0.245 OA
BRANCH   7   9
ATOM      9  C   UNL A   1      31.886  26.533  24.938  1.00  0.00     0.197 C 
ATOM     10  C   UNL A   1      31.099  27.921  24.659  1.00  0.00     0.068 C 
ATOM     11  C   UNL A   1      31.582  29.005  25.652  1.00  0.00     0.011 C 
ATOM     12  C   UNL A   1      32.538  28.300  26.589  1.00  0.00     0.008 C 
ATOM     13  C   UNL A   1      32.198  26.816  26.464  1.00  0.00     0.081 C 
BRANCH  10  14
ATOM     14  C   UNL A   1      30.655  28.511  23.305  1.00  0.00     0.072 C 
BRANCH  14  15
ATOM     15  C   UNL A   1      29.229  28.234  22.782  1.00  0.00     0.262 C 
BRANCH  15  16
ATOM     16  N   UNL A   1      28.315  29.370  22.845  1.00  0.00    -0.337 N 
ATOM     17  C   UNL A   1      27.006  28.826  23.260  1.00  0.00     0.332 C 
ATOM     18  H   UNL A   1      28.571  30.068  23.544  1.00  0.00     0.347 HD
BRANCH  16  19
ATOM     19  C   UNL A   1      28.380  30.186  21.631  1.00  0.00     0.261 C 
BRANCH  19  20
ATOM     20  C   UNL A   1      28.624  31.695  21.689  1.00  0.00     0.058 C 
ATOM     21  C   UNL A   1      27.860  32.502  20.666  1.00  0.00     0.010 C 
ENDBRANCH  19  20
ENDBRANCH  16  19
ENDBRANCH  15  16
ENDBRANCH  14  15
ENDBRANCH  10  14
BRANCH   9  22
ATOM     22  N   UNL A   1      30.861  25.444  24.829  1.00  0.00    -0.334 N 
ATOM     23  C   UNL A   1      30.691  24.898  23.489  1.00  0.00     0.331 C 
ATOM     24  H   UNL A   1      29.963  25.822  25.134  1.00  0.00     0.347 HD
ATOM     25  H   UNL A   1      31.193  24.676  25.413  1.00  0.00     0.347 HD
ENDBRANCH   9  22
ENDBRANCH   7   9
ENDBRANCH   6   7
ENDBRANCH   5   6
ENDBRANCH   4   5
ENDBRANCH   3   4
ENDBRANCH   2   3
ENDBRANCH   1   2
BRANCH   1  26
ATOM     26  O   UNL A   1      37.771  20.804  24.312  1.00  0.00    -0.377 OA
BRANCH  26  27
ATOM     27  C   UNL A   1      37.896  19.566  24.988  1.00  0.00     0.188 C 
BRANCH  27  28
ATOM     28  C   UNL A   1      39.079  19.460  25.968  1.00  0.00     0.188 C 
BRANCH  28  29
ATOM     29  O   UNL A   1      40.357  19.378  25.329  1.00  0.00    -0.376 OA
BRANCH  29  30
ATOM     30  C   UNL A   1      41.446  19.836  26.145  1.00  0.00     0.202 C 
BRANCH  30  31
ATOM     31  C   UNL A   1      41.092  20.294  27.579  1.00  0.00     0.261 C 
BRANCH  31  32
ATOM     32  O   UNL A   1      41.029  21.715  27.781  1.00  0.00    -0.460 OA
BRANCH  32  33
ATOM     33  C   UNL A   1      41.354  22.478  26.715  1.00  0.00     0.338 C 
ATOM     34  O   UNL A   1      40.671  22.683  25.730  1.00  0.00    -0.246 OA
BRANCH  33  35
ATOM     35  C   UNL A   1      42.627  23.167  27.001  1.00  0.00     0.060 A 
ATOM     36  C   UNL A   1      43.755  22.380  27.252  1.00  0.00     0.016 A 
ATOM     37  C   UNL A   1      42.691  24.558  27.118  1.00  0.00     0.016 A 
ATOM     38  C   UNL A   1      44.950  22.975  27.637  1.00  0.00     0.010 A 
ATOM     39  C   UNL A   1      43.886  25.157  27.542  1.00  0.00     0.010 A 
ATOM     40  C   UNL A   1      45.005  24.360  27.837  1.00  0.00    -0.014 A 
BRANCH  40  41
ATOM     41  C   UNL A   1      46.158  24.883  28.607  1.00  0.00     0.031 A 
ATOM     42  C   UNL A   1      47.396  25.258  27.836  1.00  0.00     0.074 A 
ATOM     43  C   UNL A   1      46.056  25.151  29.920  1.00  0.00     0.049 A 
ATOM     44  N   UNL A   1      48.494  25.830  28.252  1.00  0.00    -0.248 NA
ATOM     45  C   UNL A   1      47.381  24.971  26.389  1.00  0.00     0.031 C 
ATOM     46  C   UNL A   1      44.875  24.901  30.747  1.00  0.00     0.029 A 
ATOM     47  N   UNL A   1      46.958  25.714  30.786  1.00  0.00    -0.354 N 
ATOM     48  C   UNL A   1      49.285  25.996  27.121  1.00  0.00     0.074 A 
ATOM     49  C   UNL A   1      48.561  25.433  26.005  1.00  0.00     0.031 C 
ATOM     50  C   UNL A   1      45.131  25.304  32.005  1.00  0.00     0.029 A 
ATOM     51  C   UNL A   1      46.495  25.824  32.076  1.00  0.00     0.049 A 
ATOM     52  H   UNL A   1      47.855  26.012  30.510  1.00  0.00     0.167 HD
ATOM     53  C   UNL A   1      50.501  26.580  27.020  1.00  0.00     0.037 A 
ATOM     54  C   UNL A   1      47.113  26.283  33.182  1.00  0.00     0.037 A 
ATOM     55  C   UNL A   1      51.228  27.111  28.141  1.00  0.00     0.049 A 
ATOM     56  C   UNL A   1      48.515  26.831  33.058  1.00  0.00     0.074 A 
ATOM     57  C   UNL A   1      52.493  27.671  28.162  1.00  0.00     0.029 A 
ATOM     58  N   UNL A   1      50.752  27.147  29.443  1.00  0.00    -0.354 N 
ATOM     59  N   UNL A   1      49.259  26.969  31.985  1.00  0.00    -0.248 NA
ATOM     60  C   UNL A   1      49.159  27.297  34.295  1.00  0.00     0.031 C 
ATOM     61  C   UNL A   1      52.797  28.010  29.485  1.00  0.00     0.029 A 
ATOM     62  C   UNL A   1      51.700  27.712  30.278  1.00  0.00     0.049 A 
ATOM     63  H   UNL A   1      49.869  26.818  29.732  1.00  0.00     0.167 HD
ATOM     64  C   UNL A   1      50.437  27.577  32.411  1.00  0.00     0.074 A 
ATOM     65  C   UNL A   1      50.301  27.788  33.837  1.00  0.00     0.031 C 
ATOM     66  C   UNL A   1      51.531  27.932  31.692  1.00  0.00     0.037 A 
BRANCH  53  67
ATOM     67  C   UNL A   1      51.129  26.652  25.657  1.00  0.00     0.058 A 
ATOM     68  C   UNL A   1      50.778  27.654  24.738  1.00  0.00     0.135 A 
ATOM     69  C   UNL A   1      52.125  25.737  25.279  1.00  0.00     0.135 A 
ATOM     70  F   UNL A   1      49.812  28.537  25.038  1.00  0.00    -0.206 F 
ATOM     71  C   UNL A   1      51.390  27.745  23.492  1.00  0.00     0.059 A 
ATOM     72  C   UNL A   1      52.766  25.822  24.048  1.00  0.00     0.059 A 
ATOM     73  F   UNL A   1      52.487  24.751  26.115  1.00  0.00    -0.206 F 
ATOM     74  C   UNL A   1      52.389  26.828  23.159  1.00  0.00     0.060 A 
BRANCH  74  75
ATOM     75  S   UNL A   1      53.200  26.984  21.554  1.00  0.00     0.124 S 
ATOM     76  O   UNL A   1      54.569  26.592  21.877  1.00  0.00    -0.237 OA
ATOM     77  O   UNL A   1      52.449  26.041  20.732  1.00  0.00    -0.237 OA
ATOM     78  O   UNL A   1      53.016  28.391  21.214  1.00  0.00    -0.744 OA
ENDBRANCH  74  75
ENDBRANCH  53  67
BRANCH  54  79
ATOM     79  C   UNL A   1      46.438  26.231  34.509  1.00  0.00     0.058 A 
ATOM     80  C   UNL A   1      45.681  27.310  34.993  1.00  0.00     0.135 A 
ATOM     81  C   UNL A   1      46.595  25.119  35.352  1.00  0.00     0.135 A 
ATOM     82  F   UNL A   1      45.507  28.402  34.233  1.00  0.00    -0.206 F 
ATOM     83  C   UNL A   1      45.143  27.307  36.278  1.00  0.00     0.059 A 
ATOM     84  C   UNL A   1      46.041  25.080  36.628  1.00  0.00     0.059 A 
ATOM     85  F   UNL A   1      47.301  24.055  34.938  1.00  0.00    -0.206 F 
ATOM     86  C   UNL A   1      45.336  26.189  37.091  1.00  0.00     0.060 A 
BRANCH  86  87
ATOM     87  S   UNL A   1      44.646  26.196  38.761  1.00  0.00     0.124 S 
ATOM     88  O   UNL A   1      44.941  24.838  39.204  1.00  0.00    -0.237 OA
ATOM     89  O   UNL A   1      45.409  27.259  39.406  1.00  0.00    -0.237 OA
ATOM     90  O   UNL A   1      43.235  26.494  38.538  1.00  0.00    -0.744 OA
ENDBRANCH  86  87
ENDBRANCH  54  79
BRANCH  66  91
ATOM     91  C   UNL A   1      52.636  28.646  32.422  1.00  0.00     0.058 A 
ATOM     92  C   UNL A   1      53.714  27.958  32.999  1.00  0.00     0.135 A 
ATOM     93  C   UNL A   1      52.627  30.048  32.517  1.00  0.00     0.135 A 
ATOM     94  F   UNL A   1      53.772  26.618  32.935  1.00  0.00    -0.206 F 
ATOM     95  C   UNL A   1      54.721  28.629  33.683  1.00  0.00     0.059 A 
ATOM     96  C   UNL A   1      53.640  30.743  33.169  1.00  0.00     0.059 A 
ATOM     97  F   UNL A   1      51.629  30.758  31.967  1.00  0.00    -0.206 F 
ATOM     98  C   UNL A   1      54.673  30.022  33.767  1.00  0.00     0.060 A 
BRANCH  98  99
ATOM     99  S   UNL A   1      55.985  30.884  34.657  1.00  0.00     0.124 S 
ATOM    100  O   UNL A   1      57.151  30.563  33.841  1.00  0.00    -0.237 OA
ATOM    101  O   UNL A   1      55.539  32.273  34.607  1.00  0.00    -0.237 OA
ATOM    102  O   UNL A   1      55.957  30.270  35.981  1.00  0.00    -0.744 OA
ENDBRANCH  98  99
ENDBRANCH  66  91
ENDBRANCH  40  41
ENDBRANCH  33  35
ENDBRANCH  32  33
ENDBRANCH  31  32
ENDBRANCH  30  31
ENDBRANCH  29  30
ENDBRANCH  28  29
ENDBRANCH  27  28
ENDBRANCH  26  27
ENDBRANCH   1  26
TORSDOF 29
ENDMDL
MODEL 3
REMARK VINA RESULT:      -7.2      6.025      9.698
REMARK SMILES CCC[N@@H+](C)CC[C@@H]1CCC[C@]1([NH2+]C)C(=O)OCCOCCOCCOCCOC(=O)c1ccc(-c2c3nc(c(-c4c(F)cc(S(=O)(=O)[O-])cc4F)c4ccc([nH]4)c(-c4c(F)cc(S(=O)(=O)[O-])cc4F)c4nc(c(-c5c(F)cc(S(=O)(=O)[O-])cc5F)c5ccc2[nH]5)C=C4)C=C3)cc1
REMARK SMILES IDX 22 1 21 2 20 3 19 4 18 5 17 6 15 7 16 8 12 9 8 10 9 11 10 12
REMARK SMILES IDX 11 13 7 14 6 15 4 16 5 17 3 19 2 20 1 21 13 22 14 23 23 26
REMARK SMILES IDX 24 27 25 28 26 29 27 30 28 31 29 32 30 33 31 34 32 35 33 36
REMARK SMILES IDX 97 37 34 38 96 39 35 40 36 41 37 42 90 43 38 44 95 45 89 46
REMARK SMILES IDX 91 47 39 48 94 49 88 50 87 51 40 53 74 54 53 55 73 56 54 57
REMARK SMILES IDX 57 58 72 59 92 60 55 61 56 62 71 64 93 65 58 66 41 67 42 68
REMARK SMILES IDX 51 69 43 70 44 71 50 72 52 73 45 74 46 75 47 76 48 77 49 78
REMARK SMILES IDX 75 79 76 80 85 81 77 82 78 83 84 84 86 85 79 86 80 87 81 88
REMARK SMILES IDX 82 89 83 90 59 91 60 92 69 93 61 94 62 95 68 96 70 97 63 98
REMARK SMILES IDX 64 99 65 100 66 101 67 102
REMARK H PARENT 4 18 13 24 13 25 91 52 57 63
REMARK Flexibility Score: inf
ROOT
ATOM      1  C   UNL A   1      37.131  21.458  24.871  1.00  0.00     0.188 C 
ENDROOT
BRANCH   1   2
ATOM      2  C   UNL A   1      35.805  21.130  25.581  1.00  0.00     0.188 C 
BRANCH   2   3
ATOM      3  O   UNL A   1      34.765  20.466  24.896  1.00  0.00    -0.376 OA
BRANCH   3   4
ATOM      4  C   UNL A   1      33.639  21.297  24.546  1.00  0.00     0.202 C 
BRANCH   4   5
ATOM      5  C   UNL A   1      33.846  22.438  23.478  1.00  0.00     0.261 C 
BRANCH   5   6
ATOM      6  O   UNL A   1      33.715  23.849  23.928  1.00  0.00    -0.459 OA
BRANCH   6   7
ATOM      7  C   UNL A   1      32.544  24.529  23.654  1.00  0.00     0.368 C 
ATOM      8  O   UNL A   1      32.412  25.143  22.592  1.00  0.00    -0.245 OA
BRANCH   7   9
ATOM      9  C   UNL A   1      31.398  24.619  24.848  1.00  0.00     0.197 C 
ATOM     10  C   UNL A   1      30.363  25.803  25.236  1.00  0.00     0.068 C 
ATOM     11  C   UNL A   1      31.008  26.739  26.286  1.00  0.00     0.011 C 
ATOM     12  C   UNL A   1      32.338  26.105  26.632  1.00  0.00     0.008 C 
ATOM     13  C   UNL A   1      32.205  24.643  26.209  1.00  0.00     0.081 C 
BRANCH  10  14
ATOM     14  C   UNL A   1      29.366  26.538  24.316  1.00  0.00     0.072 C 
BRANCH  14  15
ATOM     15  C   UNL A   1      29.889  27.322  23.094  1.00  0.00     0.262 C 
BRANCH  15  16
ATOM     16  N   UNL A   1      30.335  28.682  23.374  1.00  0.00    -0.337 N 
ATOM     17  C   UNL A   1      29.558  29.566  22.480  1.00  0.00     0.332 C 
ATOM     18  H   UNL A   1      30.139  28.993  24.326  1.00  0.00     0.347 HD
BRANCH  16  19
ATOM     19  C   UNL A   1      31.796  28.788  23.365  1.00  0.00     0.261 C 
BRANCH  19  20
ATOM     20  C   UNL A   1      32.565  29.384  24.545  1.00  0.00     0.058 C 
ATOM     21  C   UNL A   1      31.710  30.099  25.564  1.00  0.00     0.010 C 
ENDBRANCH  19  20
ENDBRANCH  16  19
ENDBRANCH  15  16
ENDBRANCH  14  15
ENDBRANCH  10  14
BRANCH   9  22
ATOM     22  N   UNL A   1      30.583  23.363  24.770  1.00  0.00    -0.334 N 
ATOM     23  C   UNL A   1      30.487  22.619  26.020  1.00  0.00     0.331 C 
ATOM     24  H   UNL A   1      31.007  22.752  24.070  1.00  0.00     0.347 HD
ATOM     25  H   UNL A   1      29.634  23.649  24.532  1.00  0.00     0.347 HD
ENDBRANCH   9  22
ENDBRANCH   7   9
ENDBRANCH   6   7
ENDBRANCH   5   6
ENDBRANCH   4   5
ENDBRANCH   3   4
ENDBRANCH   2   3
ENDBRANCH   1   2
BRANCH   1  26
ATOM     26  O   UNL A   1      37.866  20.428  24.251  1.00  0.00    -0.377 OA
BRANCH  26  27
ATOM     27  C   UNL A   1      38.004  19.260  25.038  1.00  0.00     0.188 C 
BRANCH  27  28
ATOM     28  C   UNL A   1      39.224  19.231  25.977  1.00  0.00     0.188 C 
BRANCH  28  29
ATOM     29  O   UNL A   1      40.478  19.404  25.308  1.00  0.00    -0.376 OA
BRANCH  29  30
ATOM     30  C   UNL A   1      41.520  19.920  26.149  1.00  0.00     0.202 C 
BRANCH  30  31
ATOM     31  C   UNL A   1      41.183  20.082  27.650  1.00  0.00     0.261 C 
BRANCH  31  32
ATOM     32  O   UNL A   1      40.678  21.370  28.038  1.00  0.00    -0.460 OA
BRANCH  32  33
ATOM     33  C   UNL A   1      40.849  22.366  27.143  1.00  0.00     0.338 C 
ATOM     34  O   UNL A   1      40.256  22.512  26.092  1.00  0.00    -0.246 OA
BRANCH  33  35
ATOM     35  C   UNL A   1      41.775  23.360  27.719  1.00  0.00     0.060 A 
ATOM     36  C   UNL A   1      43.136  23.044  27.754  1.00  0.00     0.016 A 
ATOM     37  C   UNL A   1      41.305  24.540  28.304  1.00  0.00     0.016 A 
ATOM     38  C   UNL A   1      44.035  23.894  28.386  1.00  0.00     0.010 A 
ATOM     39  C   UNL A   1      42.205  25.379  28.974  1.00  0.00     0.010 A 
ATOM     40  C   UNL A   1      43.566  25.036  29.046  1.00  0.00    -0.014 A 
BRANCH  40  41
ATOM     41  C   UNL A   1      44.486  25.680  30.013  1.00  0.00     0.031 A 
ATOM     42  C   UNL A   1      44.952  27.079  29.704  1.00  0.00     0.074 A 
ATOM     43  C   UNL A   1      44.779  25.100  31.190  1.00  0.00     0.049 A 
ATOM     44  N   UNL A   1      45.669  27.896  30.428  1.00  0.00    -0.248 NA
ATOM     45  C   UNL A   1      44.527  27.641  28.408  1.00  0.00     0.031 C 
ATOM     46  C   UNL A   1      44.315  23.782  31.623  1.00  0.00     0.029 A 
ATOM     47  N   UNL A   1      45.523  25.559  32.247  1.00  0.00    -0.354 N 
ATOM     48  C   UNL A   1      45.757  29.073  29.692  1.00  0.00     0.074 A 
ATOM     49  C   UNL A   1      45.054  28.856  28.449  1.00  0.00     0.031 C 
ATOM     50  C   UNL A   1      44.794  23.536  32.857  1.00  0.00     0.029 A 
ATOM     51  C   UNL A   1      45.608  24.669  33.292  1.00  0.00     0.049 A 
ATOM     52  H   UNL A   1      45.955  26.443  32.257  1.00  0.00     0.167 HD
ATOM     53  C   UNL A   1      46.358  30.236  30.031  1.00  0.00     0.037 A 
ATOM     54  C   UNL A   1      46.278  24.764  34.457  1.00  0.00     0.037 A 
ATOM     55  C   UNL A   1      47.082  30.434  31.258  1.00  0.00     0.049 A 
ATOM     56  C   UNL A   1      47.033  26.037  34.761  1.00  0.00     0.074 A 
ATOM     57  C   UNL A   1      47.780  31.552  31.676  1.00  0.00     0.029 A 
ATOM     58  N   UNL A   1      47.200  29.487  32.264  1.00  0.00    -0.354 N 
ATOM     59  N   UNL A   1      47.121  27.138  34.052  1.00  0.00    -0.248 NA
ATOM     60  C   UNL A   1      47.770  26.085  36.032  1.00  0.00     0.031 C 
ATOM     61  C   UNL A   1      48.353  31.267  32.920  1.00  0.00     0.029 A 
ATOM     62  C   UNL A   1      47.966  29.992  33.300  1.00  0.00     0.049 A 
ATOM     63  H   UNL A   1      46.798  28.588  32.245  1.00  0.00     0.167 HD
ATOM     64  C   UNL A   1      47.885  28.022  34.809  1.00  0.00     0.074 A 
ATOM     65  C   UNL A   1      48.225  27.330  36.034  1.00  0.00     0.031 C 
ATOM     66  C   UNL A   1      48.270  29.291  34.522  1.00  0.00     0.037 A 
BRANCH  53  67
ATOM     67  C   UNL A   1      46.279  31.373  29.052  1.00  0.00     0.058 A 
ATOM     68  C   UNL A   1      45.244  32.320  29.108  1.00  0.00     0.135 A 
ATOM     69  C   UNL A   1      47.271  31.545  28.074  1.00  0.00     0.135 A 
ATOM     70  F   UNL A   1      44.254  32.188  30.005  1.00  0.00    -0.206 F 
ATOM     71  C   UNL A   1      45.194  33.396  28.227  1.00  0.00     0.059 A 
ATOM     72  C   UNL A   1      47.255  32.625  27.198  1.00  0.00     0.059 A 
ATOM     73  F   UNL A   1      48.275  30.660  27.968  1.00  0.00    -0.206 F 
ATOM     74  C   UNL A   1      46.209  33.543  27.279  1.00  0.00     0.060 A 
BRANCH  74  75
ATOM     75  S   UNL A   1      46.151  34.966  26.170  1.00  0.00     0.124 S 
ATOM     76  O   UNL A   1      46.696  34.402  24.939  1.00  0.00    -0.237 OA
ATOM     77  O   UNL A   1      44.727  35.283  26.145  1.00  0.00    -0.237 OA
ATOM     78  O   UNL A   1      46.997  35.952  26.835  1.00  0.00    -0.744 OA
ENDBRANCH  74  75
ENDBRANCH  53  67
BRANCH  54  79
ATOM     79  C   UNL A   1      46.298  23.628  35.420  1.00  0.00     0.058 A 
ATOM     80  C   UNL A   1      45.442  23.589  36.532  1.00  0.00     0.135 A 
ATOM     81  C   UNL A   1      47.227  22.583  35.281  1.00  0.00     0.135 A 
ATOM     82  F   UNL A   1      44.541  24.566  36.719  1.00  0.00    -0.206 F 
ATOM     83  C   UNL A   1      45.534  22.585  37.492  1.00  0.00     0.059 A 
ATOM     84  C   UNL A   1      47.318  21.552  36.210  1.00  0.00     0.059 A 
ATOM     85  F   UNL A   1      48.064  22.562  34.232  1.00  0.00    -0.206 F 
ATOM     86  C   UNL A   1      46.482  21.575  37.326  1.00  0.00     0.060 A 
BRANCH  86  87
ATOM     87  S   UNL A   1      46.607  20.280  38.580  1.00  0.00     0.124 S 
ATOM     88  O   UNL A   1      48.050  20.209  38.784  1.00  0.00    -0.237 OA
ATOM     89  O   UNL A   1      45.833  20.842  39.682  1.00  0.00    -0.237 OA
ATOM     90  O   UNL A   1      46.004  19.123  37.927  1.00  0.00    -0.744 OA
ENDBRANCH  86  87
ENDBRANCH  54  79
BRANCH  66  91
ATOM     91  C   UNL A   1      49.041  30.035  35.578  1.00  0.00     0.058 A 
ATOM     92  C   UNL A   1      48.401  30.755  36.599  1.00  0.00     0.135 A 
ATOM     93  C   UNL A   1      50.446  29.999  35.582  1.00  0.00     0.135 A 
ATOM     94  F   UNL A   1      47.061  30.820  36.642  1.00  0.00    -0.206 F 
ATOM     95  C   UNL A   1      49.126  31.450  37.560  1.00  0.00     0.059 A 
ATOM     96  C   UNL A   1      51.190  30.660  36.553  1.00  0.00     0.059 A 
ATOM     97  F   UNL A   1      51.108  29.310  34.639  1.00  0.00    -0.206 F 
ATOM     98  C   UNL A   1      50.521  31.400  37.526  1.00  0.00     0.060 A 
BRANCH  98  99
ATOM     99  S   UNL A   1      51.453  32.305  38.779  1.00  0.00     0.124 S 
ATOM    100  O   UNL A   1      51.630  33.601  38.133  1.00  0.00    -0.237 OA
ATOM    101  O   UNL A   1      50.544  32.285  39.922  1.00  0.00    -0.237 OA
ATOM    102  O   UNL A   1      52.668  31.512  38.938  1.00  0.00    -0.744 OA
ENDBRANCH  98  99
ENDBRANCH  66  91
ENDBRANCH  40  41
ENDBRANCH  33  35
ENDBRANCH  32  33
ENDBRANCH  31  32
ENDBRANCH  30  31
ENDBRANCH  29  30
ENDBRANCH  28  29
ENDBRANCH  27  28
ENDBRANCH  26  27
ENDBRANCH   1  26
TORSDOF 29
ENDMDL
