MODEL 1
REMARK VINA RESULT:     -10.3      0.000      0.000
REMARK SMILES Cc1cc([N+](=O)[O-])ccc1NC(=O)[C@@H]1[C@@H](C(=O)OCCOCCOCCOCCOC(=O)c2ccc(-c3c4nc(c(-c5c(F)cc(S(=O)(=O)[O-])cc5F)c5ccc([nH]5)c(-c5c(F)cc(S(=O)(=O)[O-])cc5F)c5nc(c(-c6c(F)cc(S(=O)(=O)[O-])cc6F)c6ccc3[nH]6)C=C5)C=C4)cc2)[C@H]2C=C[C@@H]1C2
REMARK SMILES IDX 24 1 23 2 22 3 21 4 20 5 19 6 18 7 16 8 17 9 15 10 14 11
REMARK SMILES IDX 102 12 99 13 101 14 103 15 100 16 12 17 11 18 13 20 10 21
REMARK SMILES IDX 1 22 2 23 3 24 4 25 9 26 8 27 5 28 6 29 7 30 25 31 26 32
REMARK SMILES IDX 27 33 28 34 29 35 30 36 31 37 32 38 33 39 34 40 98 41 35 42
REMARK SMILES IDX 97 43 36 44 37 45 38 46 91 47 39 48 96 49 90 50 92 51 40 52
REMARK SMILES IDX 95 53 89 54 88 55 41 57 75 58 54 59 74 60 55 61 58 62 73 63
REMARK SMILES IDX 93 64 56 65 57 66 72 68 94 69 59 70 42 71 43 72 52 73 44 74
REMARK SMILES IDX 45 75 51 76 53 77 46 78 47 79 48 80 49 81 50 82 76 83 77 84
REMARK SMILES IDX 86 85 78 86 79 87 85 88 87 89 80 90 81 91 82 92 83 93 84 94
REMARK SMILES IDX 60 95 61 96 70 97 62 98 63 99 69 100 71 101 64 102 65 103
REMARK SMILES IDX 66 104 67 105 68 106
REMARK H PARENT 11 19 92 56 58 67
REMARK Flexibility Score: inf
ROOT
ATOM      1  O   UNL A   1      36.447  21.610  24.483  1.00  0.00    -0.377 OA
ENDROOT
BRANCH   1   2
ATOM      2  C   UNL A   1      36.418  22.537  23.404  1.00  0.00     0.188 C 
BRANCH   2   3
ATOM      3  C   UNL A   1      35.967  23.912  23.831  1.00  0.00     0.188 C 
BRANCH   3   4
ATOM      4  O   UNL A   1      34.639  23.752  24.298  1.00  0.00    -0.376 OA
BRANCH   4   5
ATOM      5  C   UNL A   1      34.602  24.188  25.636  1.00  0.00     0.202 C 
BRANCH   5   6
ATOM      6  C   UNL A   1      34.230  25.625  25.804  1.00  0.00     0.261 C 
BRANCH   6   7
ATOM      7  O   UNL A   1      32.894  26.000  25.653  1.00  0.00    -0.463 OA
BRANCH   7   8
ATOM      8  C   UNL A   1      32.841  27.326  25.699  1.00  0.00     0.310 C 
ATOM      9  O   UNL A   1      33.621  28.060  26.312  1.00  0.00    -0.252 OA
BRANCH   8  10
ATOM     10  C   UNL A   1      31.794  27.810  24.778  1.00  0.00     0.119 C 
ATOM     11  C   UNL A   1      31.489  26.613  23.853  1.00  0.00     0.100 C 
ATOM     12  C   UNL A   1      31.966  27.148  22.503  1.00  0.00     0.025 C 
ATOM     13  C   UNL A   1      32.413  28.873  23.852  1.00  0.00     0.027 C 
ATOM     14  C   UNL A   1      33.490  27.274  22.617  1.00  0.00    -0.027 C 
ATOM     15  C   UNL A   1      31.602  28.632  22.589  1.00  0.00     0.017 C 
ATOM     16  C   UNL A   1      33.755  28.347  23.383  1.00  0.00    -0.027 C 
BRANCH  11  17
ATOM     17  C   UNL A   1      30.088  26.053  24.016  1.00  0.00     0.228 C 
ATOM     18  N   UNL A   1      29.902  24.692  24.172  1.00  0.00    -0.326 N 
ATOM     19  H   UNL A   1      28.973  24.400  24.312  1.00  0.00     0.169 HD
ATOM     20  O   UNL A   1      29.084  26.765  23.935  1.00  0.00    -0.274 OA
BRANCH  18  21
ATOM     21  C   UNL A   1      30.871  23.665  24.157  1.00  0.00     0.044 A 
ATOM     22  C   UNL A   1      30.777  23.461  26.710  1.00  0.00     0.047 C 
ATOM     23  C   UNL A   1      31.162  22.975  25.342  1.00  0.00    -0.021 A 
ATOM     24  C   UNL A   1      31.840  21.742  25.253  1.00  0.00     0.091 A 
ATOM     25  C   UNL A   1      32.261  21.245  24.011  1.00  0.00     0.269 A 
ATOM     26  C   UNL A   1      31.492  23.258  22.966  1.00  0.00     0.033 A 
ATOM     27  C   UNL A   1      32.144  22.028  22.869  1.00  0.00     0.088 A 
BRANCH  25  28
ATOM     28  N   UNL A   1      32.772  19.873  23.911  1.00  0.00     0.062 N 
ATOM     29  O   UNL A   1      32.290  19.145  23.030  1.00  0.00    -0.258 OA
ATOM     30  O   UNL A   1      33.707  19.548  24.657  1.00  0.00    -0.258 OA
ENDBRANCH  25  28
ENDBRANCH  18  21
ENDBRANCH  11  17
ENDBRANCH   8  10
ENDBRANCH   7   8
ENDBRANCH   6   7
ENDBRANCH   5   6
ENDBRANCH   4   5
ENDBRANCH   3   4
ENDBRANCH   2   3
ENDBRANCH   1   2
BRANCH   1  31
ATOM     31  C   UNL A   1      37.731  21.152  24.851  1.00  0.00     0.188 C 
BRANCH  31  32
ATOM     32  C   UNL A   1      38.426  22.062  25.863  1.00  0.00     0.188 C 
BRANCH  32  33
ATOM     33  O   UNL A   1      37.605  22.957  26.592  1.00  0.00    -0.376 OA
BRANCH  33  34
ATOM     34  C   UNL A   1      38.256  24.207  26.899  1.00  0.00     0.202 C 
BRANCH  34  35
ATOM     35  C   UNL A   1      39.831  24.223  27.030  1.00  0.00     0.261 C 
BRANCH  35  36
ATOM     36  O   UNL A   1      40.428  25.162  26.036  1.00  0.00    -0.460 OA
BRANCH  36  37
ATOM     37  C   UNL A   1      40.877  26.457  26.119  1.00  0.00     0.338 C 
ATOM     38  O   UNL A   1      42.041  26.721  25.821  1.00  0.00    -0.246 OA
BRANCH  37  39
ATOM     39  C   UNL A   1      40.190  27.392  27.172  1.00  0.00     0.060 A 
ATOM     40  C   UNL A   1      40.396  28.758  26.962  1.00  0.00     0.016 A 
ATOM     41  C   UNL A   1      40.160  27.076  28.517  1.00  0.00     0.016 A 
ATOM     42  C   UNL A   1      41.185  29.505  27.861  1.00  0.00     0.010 A 
ATOM     43  C   UNL A   1      41.033  27.752  29.386  1.00  0.00     0.010 A 
ATOM     44  C   UNL A   1      41.805  28.809  28.894  1.00  0.00    -0.014 A 
BRANCH  44  45
ATOM     45  C   UNL A   1      43.336  28.624  28.811  1.00  0.00     0.031 A 
ATOM     46  C   UNL A   1      44.284  29.870  28.576  1.00  0.00     0.074 A 
ATOM     47  C   UNL A   1      43.647  27.345  29.246  1.00  0.00     0.049 A 
ATOM     48  N   UNL A   1      45.466  29.903  27.979  1.00  0.00    -0.248 NA
ATOM     49  C   UNL A   1      43.872  31.235  28.923  1.00  0.00     0.031 C 
ATOM     50  C   UNL A   1      44.453  26.691  30.298  1.00  0.00     0.029 A 
ATOM     51  N   UNL A   1      43.350  26.209  28.470  1.00  0.00    -0.354 N 
ATOM     52  C   UNL A   1      46.057  31.184  28.144  1.00  0.00     0.074 A 
ATOM     53  C   UNL A   1      44.939  31.975  28.596  1.00  0.00     0.031 C 
ATOM     54  C   UNL A   1      44.896  25.478  29.889  1.00  0.00     0.029 A 
ATOM     55  C   UNL A   1      44.443  25.335  28.524  1.00  0.00     0.049 A 
ATOM     56  H   UNL A   1      42.514  26.054  27.973  1.00  0.00     0.167 HD
ATOM     57  C   UNL A   1      47.416  31.471  28.005  1.00  0.00     0.037 A 
ATOM     58  C   UNL A   1      44.767  24.321  27.693  1.00  0.00     0.037 A 
ATOM     59  C   UNL A   1      48.234  30.292  27.553  1.00  0.00     0.049 A 
ATOM     60  C   UNL A   1      45.924  24.755  26.745  1.00  0.00     0.074 A 
ATOM     61  C   UNL A   1      49.427  29.751  28.010  1.00  0.00     0.029 A 
ATOM     62  N   UNL A   1      47.803  29.386  26.559  1.00  0.00    -0.354 N 
ATOM     63  N   UNL A   1      46.651  25.851  26.868  1.00  0.00    -0.248 NA
ATOM     64  C   UNL A   1      46.416  23.951  25.623  1.00  0.00     0.031 C 
ATOM     65  C   UNL A   1      49.651  28.488  27.386  1.00  0.00     0.029 A 
ATOM     66  C   UNL A   1      48.602  28.228  26.509  1.00  0.00     0.049 A 
ATOM     67  H   UNL A   1      47.032  29.545  25.968  1.00  0.00     0.167 HD
ATOM     68  C   UNL A   1      47.590  25.984  25.852  1.00  0.00     0.074 A 
ATOM     69  C   UNL A   1      47.444  24.696  25.162  1.00  0.00     0.031 C 
ATOM     70  C   UNL A   1      48.365  27.111  25.556  1.00  0.00     0.037 A 
BRANCH  57  71
ATOM     71  C   UNL A   1      48.179  32.839  28.488  1.00  0.00     0.058 A 
ATOM     72  C   UNL A   1      48.554  33.073  29.851  1.00  0.00     0.135 A 
ATOM     73  C   UNL A   1      48.532  33.959  27.687  1.00  0.00     0.135 A 
ATOM     74  F   UNL A   1      48.451  32.118  30.781  1.00  0.00    -0.206 F 
ATOM     75  C   UNL A   1      49.102  34.280  30.361  1.00  0.00     0.059 A 
ATOM     76  C   UNL A   1      49.130  35.158  28.163  1.00  0.00     0.059 A 
ATOM     77  F   UNL A   1      48.336  33.990  26.370  1.00  0.00    -0.206 F 
ATOM     78  C   UNL A   1      49.385  35.330  29.509  1.00  0.00     0.060 A 
BRANCH  78  79
ATOM     79  S   UNL A   1      50.113  36.864  30.145  1.00  0.00     0.124 S 
ATOM     80  O   UNL A   1      48.941  37.569  30.658  1.00  0.00    -0.237 OA
ATOM     81  O   UNL A   1      51.054  36.382  31.150  1.00  0.00    -0.237 OA
ATOM     82  O   UNL A   1      50.728  37.467  28.964  1.00  0.00    -0.744 OA
ENDBRANCH  78  79
ENDBRANCH  57  71
BRANCH  58  83
ATOM     83  C   UNL A   1      43.496  23.524  27.496  1.00  0.00     0.058 A 
ATOM     84  C   UNL A   1      43.178  23.260  26.131  1.00  0.00     0.135 A 
ATOM     85  C   UNL A   1      43.135  22.519  28.411  1.00  0.00     0.135 A 
ATOM     86  F   UNL A   1      43.492  24.171  25.193  1.00  0.00    -0.206 F 
ATOM     87  C   UNL A   1      42.724  22.009  25.685  1.00  0.00     0.059 A 
ATOM     88  C   UNL A   1      42.680  21.256  27.979  1.00  0.00     0.059 A 
ATOM     89  F   UNL A   1      43.449  22.661  29.707  1.00  0.00    -0.206 F 
ATOM     90  C   UNL A   1      42.515  20.993  26.613  1.00  0.00     0.060 A 
BRANCH  90  91
ATOM     91  S   UNL A   1      42.141  19.304  26.019  1.00  0.00     0.124 S 
ATOM     92  O   UNL A   1      42.610  18.482  27.126  1.00  0.00    -0.237 OA
ATOM     93  O   UNL A   1      40.697  19.312  25.813  1.00  0.00    -0.237 OA
ATOM     94  O   UNL A   1      42.923  19.203  24.788  1.00  0.00    -0.744 OA
ENDBRANCH  90  91
ENDBRANCH  58  83
BRANCH  70  95
ATOM     95  C   UNL A   1      49.066  27.324  24.217  1.00  0.00     0.058 A 
ATOM     96  C   UNL A   1      50.391  26.935  23.986  1.00  0.00     0.135 A 
ATOM     97  C   UNL A   1      48.347  27.721  23.052  1.00  0.00     0.135 A 
ATOM     98  F   UNL A   1      51.133  26.356  24.939  1.00  0.00    -0.206 F 
ATOM     99  C   UNL A   1      50.997  27.047  22.739  1.00  0.00     0.059 A 
ATOM    100  C   UNL A   1      48.907  27.750  21.783  1.00  0.00     0.059 A 
ATOM    101  F   UNL A   1      47.055  28.069  23.077  1.00  0.00    -0.206 F 
ATOM    102  C   UNL A   1      50.248  27.457  21.643  1.00  0.00     0.060 A 
BRANCH 102 103
ATOM    103  S   UNL A   1      51.024  27.555  20.029  1.00  0.00     0.124 S 
ATOM    104  O   UNL A   1      50.059  26.831  19.208  1.00  0.00    -0.237 OA
ATOM    105  O   UNL A   1      51.097  28.995  19.799  1.00  0.00    -0.237 OA
ATOM    106  O   UNL A   1      52.309  26.893  20.229  1.00  0.00    -0.744 OA
ENDBRANCH 102 103
ENDBRANCH  70  95
ENDBRANCH  44  45
ENDBRANCH  37  39
ENDBRANCH  36  37
ENDBRANCH  35  36
ENDBRANCH  34  35
ENDBRANCH  33  34
ENDBRANCH  32  33
ENDBRANCH  31  32
ENDBRANCH   1  31
TORSDOF 26
ENDMDL
MODEL 2
REMARK VINA RESULT:      -9.1      3.019      4.477
REMARK SMILES Cc1cc([N+](=O)[O-])ccc1NC(=O)[C@@H]1[C@@H](C(=O)OCCOCCOCCOCCOC(=O)c2ccc(-c3c4nc(c(-c5c(F)cc(S(=O)(=O)[O-])cc5F)c5ccc([nH]5)c(-c5c(F)cc(S(=O)(=O)[O-])cc5F)c5nc(c(-c6c(F)cc(S(=O)(=O)[O-])cc6F)c6ccc3[nH]6)C=C5)C=C4)cc2)[C@H]2C=C[C@@H]1C2
REMARK SMILES IDX 24 1 23 2 22 3 21 4 20 5 19 6 18 7 16 8 17 9 15 10 14 11
REMARK SMILES IDX 102 12 99 13 101 14 103 15 100 16 12 17 11 18 13 20 10 21
REMARK SMILES IDX 1 22 2 23 3 24 4 25 9 26 8 27 5 28 6 29 7 30 25 31 26 32
REMARK SMILES IDX 27 33 28 34 29 35 30 36 31 37 32 38 33 39 34 40 98 41 35 42
REMARK SMILES IDX 97 43 36 44 37 45 38 46 91 47 39 48 96 49 90 50 92 51 40 52
REMARK SMILES IDX 95 53 89 54 88 55 41 57 75 58 54 59 74 60 55 61 58 62 73 63
REMARK SMILES IDX 93 64 56 65 57 66 72 68 94 69 59 70 42 71 43 72 52 73 44 74
REMARK SMILES IDX 45 75 51 76 53 77 46 78 47 79 48 80 49 81 50 82 76 83 77 84
REMARK SMILES IDX 86 85 78 86 79 87 85 88 87 89 80 90 81 91 82 92 83 93 84 94
REMARK SMILES IDX 60 95 61 96 70 97 62 98 63 99 69 100 71 101 64 102 65 103
REMARK SMILES IDX 66 104 67 105 68 106
REMARK H PARENT 11 19 92 56 58 67
REMARK Flexibility Score: inf
ROOT
ATOM      1  O   UNL A   1      37.401  21.458  25.501  1.00  0.00    -0.377 OA
ENDROOT
BRANCH   1   2
ATOM      2  C   UNL A   1      36.944  21.918  24.235  1.00  0.00     0.188 C 
BRANCH   2   3
ATOM      3  C   UNL A   1      35.892  22.994  24.353  1.00  0.00     0.188 C 
BRANCH   3   4
ATOM      4  O   UNL A   1      35.055  22.596  25.425  1.00  0.00    -0.376 OA
BRANCH   4   5
ATOM      5  C   UNL A   1      34.756  23.745  26.182  1.00  0.00     0.202 C 
BRANCH   5   6
ATOM      6  C   UNL A   1      34.487  24.966  25.365  1.00  0.00     0.261 C 
BRANCH   6   7
ATOM      7  O   UNL A   1      33.181  25.449  25.281  1.00  0.00    -0.463 OA
BRANCH   7   8
ATOM      8  C   UNL A   1      33.219  26.756  25.518  1.00  0.00     0.310 C 
ATOM      9  O   UNL A   1      34.108  27.354  26.132  1.00  0.00    -0.252 OA
BRANCH   8  10
ATOM     10  C   UNL A   1      32.112  27.420  24.803  1.00  0.00     0.119 C 
ATOM     11  C   UNL A   1      31.649  26.397  23.744  1.00  0.00     0.100 C 
ATOM     12  C   UNL A   1      32.014  27.121  22.448  1.00  0.00     0.025 C 
ATOM     13  C   UNL A   1      32.692  28.591  23.989  1.00  0.00     0.027 C 
ATOM     14  C   UNL A   1      33.547  27.168  22.412  1.00  0.00    -0.027 C 
ATOM     15  C   UNL A   1      31.744  28.585  22.800  1.00  0.00     0.017 C 
ATOM     16  C   UNL A   1      33.948  28.095  23.301  1.00  0.00    -0.027 C 
BRANCH  11  17
ATOM     17  C   UNL A   1      30.243  25.873  23.972  1.00  0.00     0.228 C 
ATOM     18  N   UNL A   1      30.037  24.524  24.194  1.00  0.00    -0.326 N 
ATOM     19  H   UNL A   1      29.106  24.258  24.373  1.00  0.00     0.169 HD
ATOM     20  O   UNL A   1      29.251  26.601  23.888  1.00  0.00    -0.274 OA
BRANCH  18  21
ATOM     21  C   UNL A   1      30.985  23.479  24.198  1.00  0.00     0.044 A 
ATOM     22  C   UNL A   1      30.700  23.154  26.724  1.00  0.00     0.047 C 
ATOM     23  C   UNL A   1      31.176  22.726  25.366  1.00  0.00    -0.021 A 
ATOM     24  C   UNL A   1      31.836  21.485  25.264  1.00  0.00     0.091 A 
ATOM     25  C   UNL A   1      32.338  21.039  24.033  1.00  0.00     0.269 A 
ATOM     26  C   UNL A   1      31.685  23.116  23.037  1.00  0.00     0.033 A 
ATOM     27  C   UNL A   1      32.319  21.879  22.926  1.00  0.00     0.088 A 
BRANCH  25  28
ATOM     28  N   UNL A   1      32.830  19.663  23.902  1.00  0.00     0.062 N 
ATOM     29  O   UNL A   1      32.283  18.937  23.057  1.00  0.00    -0.258 OA
ATOM     30  O   UNL A   1      33.811  19.332  24.583  1.00  0.00    -0.258 OA
ENDBRANCH  25  28
ENDBRANCH  18  21
ENDBRANCH  11  17
ENDBRANCH   8  10
ENDBRANCH   7   8
ENDBRANCH   6   7
ENDBRANCH   5   6
ENDBRANCH   4   5
ENDBRANCH   3   4
ENDBRANCH   2   3
ENDBRANCH   1   2
BRANCH   1  31
ATOM     31  C   UNL A   1      38.803  21.464  25.675  1.00  0.00     0.188 C 
BRANCH  31  32
ATOM     32  C   UNL A   1      39.299  22.641  26.513  1.00  0.00     0.188 C 
BRANCH  32  33
ATOM     33  O   UNL A   1      38.396  23.714  26.711  1.00  0.00    -0.376 OA
BRANCH  33  34
ATOM     34  C   UNL A   1      39.040  24.925  27.159  1.00  0.00     0.202 C 
BRANCH  34  35
ATOM     35  C   UNL A   1      40.443  25.305  26.539  1.00  0.00     0.261 C 
BRANCH  35  36
ATOM     36  O   UNL A   1      40.499  26.763  26.227  1.00  0.00    -0.460 OA
BRANCH  36  37
ATOM     37  C   UNL A   1      40.558  27.888  27.011  1.00  0.00     0.338 C 
ATOM     38  O   UNL A   1      41.650  28.372  27.305  1.00  0.00    -0.246 OA
BRANCH  37  39
ATOM     39  C   UNL A   1      39.387  28.123  28.026  1.00  0.00     0.060 A 
ATOM     40  C   UNL A   1      39.077  29.466  28.259  1.00  0.00     0.016 A 
ATOM     41  C   UNL A   1      39.247  27.356  29.167  1.00  0.00     0.016 A 
ATOM     42  C   UNL A   1      39.340  30.049  29.515  1.00  0.00     0.010 A 
ATOM     43  C   UNL A   1      39.620  27.914  30.401  1.00  0.00     0.010 A 
ATOM     44  C   UNL A   1      39.991  29.260  30.460  1.00  0.00    -0.014 A 
BRANCH  44  45
ATOM     45  C   UNL A   1      41.462  29.603  30.784  1.00  0.00     0.031 A 
ATOM     46  C   UNL A   1      41.879  31.085  31.154  1.00  0.00     0.074 A 
ATOM     47  C   UNL A   1      42.160  28.419  30.958  1.00  0.00     0.049 A 
ATOM     48  N   UNL A   1      43.042  31.686  30.955  1.00  0.00    -0.248 NA
ATOM     49  C   UNL A   1      40.914  32.050  31.693  1.00  0.00     0.031 C 
ATOM     50  C   UNL A   1      42.952  27.734  32.002  1.00  0.00     0.029 A 
ATOM     51  N   UNL A   1      42.473  27.579  29.871  1.00  0.00    -0.354 N 
ATOM     52  C   UNL A   1      43.050  32.952  31.599  1.00  0.00     0.074 A 
ATOM     53  C   UNL A   1      41.650  33.152  31.887  1.00  0.00     0.031 C 
ATOM     54  C   UNL A   1      43.896  26.934  31.452  1.00  0.00     0.029 A 
ATOM     55  C   UNL A   1      43.790  27.127  30.023  1.00  0.00     0.049 A 
ATOM     56  H   UNL A   1      41.867  27.349  29.131  1.00  0.00     0.167 HD
ATOM     57  C   UNL A   1      44.192  33.680  31.939  1.00  0.00     0.037 A 
ATOM     58  C   UNL A   1      44.626  26.609  29.098  1.00  0.00     0.037 A 
ATOM     59  C   UNL A   1      45.470  33.042  31.467  1.00  0.00     0.049 A 
ATOM     60  C   UNL A   1      45.676  27.678  28.668  1.00  0.00     0.074 A 
ATOM     61  C   UNL A   1      46.676  32.780  32.102  1.00  0.00     0.029 A 
ATOM     62  N   UNL A   1      45.612  32.439  30.197  1.00  0.00    -0.354 N 
ATOM     63  N   UNL A   1      45.885  28.836  29.266  1.00  0.00    -0.248 NA
ATOM     64  C   UNL A   1      46.635  27.498  27.575  1.00  0.00     0.031 C 
ATOM     65  C   UNL A   1      47.481  31.941  31.277  1.00  0.00     0.029 A 
ATOM     66  C   UNL A   1      46.792  31.678  30.096  1.00  0.00     0.049 A 
ATOM     67  H   UNL A   1      44.961  32.539  29.466  1.00  0.00     0.167 HD
ATOM     68  C   UNL A   1      46.866  29.592  28.635  1.00  0.00     0.074 A 
ATOM     69  C   UNL A   1      47.359  28.636  27.636  1.00  0.00     0.031 C 
ATOM     70  C   UNL A   1      47.184  30.935  28.869  1.00  0.00     0.037 A 
BRANCH  57  71
ATOM     71  C   UNL A   1      44.264  34.969  32.948  1.00  0.00     0.058 A 
ATOM     72  C   UNL A   1      43.937  36.298  32.525  1.00  0.00     0.135 A 
ATOM     73  C   UNL A   1      44.676  34.978  34.308  1.00  0.00     0.135 A 
ATOM     74  F   UNL A   1      43.396  36.541  31.327  1.00  0.00    -0.206 F 
ATOM     75  C   UNL A   1      44.095  37.475  33.305  1.00  0.00     0.059 A 
ATOM     76  C   UNL A   1      44.792  36.135  35.127  1.00  0.00     0.059 A 
ATOM     77  F   UNL A   1      44.995  33.867  34.969  1.00  0.00    -0.206 F 
ATOM     78  C   UNL A   1      44.532  37.390  34.612  1.00  0.00     0.060 A 
BRANCH  78  79
ATOM     79  S   UNL A   1      44.708  38.883  35.626  1.00  0.00     0.124 S 
ATOM     80  O   UNL A   1      43.998  39.879  34.829  1.00  0.00    -0.237 OA
ATOM     81  O   UNL A   1      44.068  38.499  36.880  1.00  0.00    -0.237 OA
ATOM     82  O   UNL A   1      46.155  39.074  35.706  1.00  0.00    -0.744 OA
ENDBRANCH  78  79
ENDBRANCH  57  71
BRANCH  58  83
ATOM     83  C   UNL A   1      43.822  25.572  28.346  1.00  0.00     0.058 A 
ATOM     84  C   UNL A   1      43.840  25.732  26.930  1.00  0.00     0.135 A 
ATOM     85  C   UNL A   1      43.761  24.244  28.809  1.00  0.00     0.135 A 
ATOM     86  F   UNL A   1      43.899  26.969  26.407  1.00  0.00    -0.206 F 
ATOM     87  C   UNL A   1      43.993  24.653  26.044  1.00  0.00     0.059 A 
ATOM     88  C   UNL A   1      43.916  23.150  27.933  1.00  0.00     0.059 A 
ATOM     89  F   UNL A   1      43.799  24.001  30.127  1.00  0.00    -0.206 F 
ATOM     90  C   UNL A   1      44.072  23.362  26.557  1.00  0.00     0.060 A 
BRANCH  90  91
ATOM     91  S   UNL A   1      44.494  21.980  25.435  1.00  0.00     0.124 S 
ATOM     92  O   UNL A   1      45.907  21.775  25.723  1.00  0.00    -0.237 OA
ATOM     93  O   UNL A   1      43.607  20.900  25.853  1.00  0.00    -0.237 OA
ATOM     94  O   UNL A   1      44.198  22.524  24.111  1.00  0.00    -0.744 OA
ENDBRANCH  90  91
ENDBRANCH  58  83
BRANCH  70  95
ATOM     95  C   UNL A   1      47.977  31.796  27.890  1.00  0.00     0.058 A 
ATOM     96  C   UNL A   1      47.377  32.769  27.081  1.00  0.00     0.135 A 
ATOM     97  C   UNL A   1      49.402  31.824  27.903  1.00  0.00     0.135 A 
ATOM     98  F   UNL A   1      46.058  32.997  27.112  1.00  0.00    -0.206 F 
ATOM     99  C   UNL A   1      48.114  33.614  26.256  1.00  0.00     0.059 A 
ATOM    100  C   UNL A   1      50.155  32.721  27.159  1.00  0.00     0.059 A 
ATOM    101  F   UNL A   1      50.139  31.005  28.664  1.00  0.00    -0.206 F 
ATOM    102  C   UNL A   1      49.502  33.582  26.300  1.00  0.00     0.060 A 
BRANCH 102 103
ATOM    103  S   UNL A   1      50.445  34.706  25.269  1.00  0.00     0.124 S 
ATOM    104  O   UNL A   1      51.123  33.770  24.378  1.00  0.00    -0.237 OA
ATOM    105  O   UNL A   1      49.403  35.523  24.655  1.00  0.00    -0.237 OA
ATOM    106  O   UNL A   1      51.300  35.406  26.223  1.00  0.00    -0.744 OA
ENDBRANCH 102 103
ENDBRANCH  70  95
ENDBRANCH  44  45
ENDBRANCH  37  39
ENDBRANCH  36  37
ENDBRANCH  35  36
ENDBRANCH  34  35
ENDBRANCH  33  34
ENDBRANCH  32  33
ENDBRANCH  31  32
ENDBRANCH   1  31
TORSDOF 26
ENDMDL
MODEL 3
REMARK VINA RESULT:      -9.0      7.329     14.933
REMARK SMILES Cc1cc([N+](=O)[O-])ccc1NC(=O)[C@@H]1[C@@H](C(=O)OCCOCCOCCOCCOC(=O)c2ccc(-c3c4nc(c(-c5c(F)cc(S(=O)(=O)[O-])cc5F)c5ccc([nH]5)c(-c5c(F)cc(S(=O)(=O)[O-])cc5F)c5nc(c(-c6c(F)cc(S(=O)(=O)[O-])cc6F)c6ccc3[nH]6)C=C5)C=C4)cc2)[C@H]2C=C[C@@H]1C2
REMARK SMILES IDX 24 1 23 2 22 3 21 4 20 5 19 6 18 7 16 8 17 9 15 10 14 11
REMARK SMILES IDX 102 12 99 13 101 14 103 15 100 16 12 17 11 18 13 20 10 21
REMARK SMILES IDX 1 22 2 23 3 24 4 25 9 26 8 27 5 28 6 29 7 30 25 31 26 32
REMARK SMILES IDX 27 33 28 34 29 35 30 36 31 37 32 38 33 39 34 40 98 41 35 42
REMARK SMILES IDX 97 43 36 44 37 45 38 46 91 47 39 48 96 49 90 50 92 51 40 52
REMARK SMILES IDX 95 53 89 54 88 55 41 57 75 58 54 59 74 60 55 61 58 62 73 63
REMARK SMILES IDX 93 64 56 65 57 66 72 68 94 69 59 70 42 71 43 72 52 73 44 74
REMARK SMILES IDX 45 75 51 76 53 77 46 78 47 79 48 80 49 81 50 82 76 83 77 84
REMARK SMILES IDX 86 85 78 86 79 87 85 88 87 89 80 90 81 91 82 92 83 93 84 94
REMARK SMILES IDX 60 95 61 96 70 97 62 98 63 99 69 100 71 101 64 102 65 103
REMARK SMILES IDX 66 104 67 105 68 106
REMARK H PARENT 11 19 92 56 58 67
REMARK Flexibility Score: inf
ROOT
ATOM      1  O   UNL A   1      44.854  35.325  26.003  1.00  0.00    -0.377 OA
ENDROOT
BRANCH   1   2
ATOM      2  C   UNL A   1      45.239  36.439  26.800  1.00  0.00     0.188 C 
BRANCH   2   3
ATOM      3  C   UNL A   1      46.423  37.180  26.230  1.00  0.00     0.188 C 
BRANCH   3   4
ATOM      4  O   UNL A   1      46.462  38.422  26.911  1.00  0.00    -0.376 OA
BRANCH   4   5
ATOM      5  C   UNL A   1      45.338  39.167  26.507  1.00  0.00     0.202 C 
BRANCH   5   6
ATOM      6  C   UNL A   1      45.551  40.644  26.493  1.00  0.00     0.261 C 
BRANCH   6   7
ATOM      7  O   UNL A   1      44.659  41.450  25.785  1.00  0.00    -0.463 OA
BRANCH   7   8
ATOM      8  C   UNL A   1      45.233  41.767  24.630  1.00  0.00     0.310 C 
ATOM      9  O   UNL A   1      46.295  41.307  24.200  1.00  0.00    -0.252 OA
BRANCH   8  10
ATOM     10  C   UNL A   1      44.333  42.643  23.855  1.00  0.00     0.119 C 
ATOM     11  C   UNL A   1      45.142  43.041  22.603  1.00  0.00     0.100 C 
ATOM     12  C   UNL A   1      45.306  44.546  22.818  1.00  0.00     0.025 C 
ATOM     13  C   UNL A   1      44.145  43.958  24.635  1.00  0.00     0.027 C 
ATOM     14  C   UNL A   1      46.228  44.696  24.035  1.00  0.00    -0.027 C 
ATOM     15  C   UNL A   1      43.981  44.933  23.479  1.00  0.00     0.017 C 
ATOM     16  C   UNL A   1      45.508  44.396  25.131  1.00  0.00    -0.027 C 
BRANCH  11  17
ATOM     17  C   UNL A   1      44.568  42.500  21.306  1.00  0.00     0.228 C 
ATOM     18  N   UNL A   1      45.318  42.550  20.146  1.00  0.00    -0.326 N 
ATOM     19  H   UNL A   1      44.902  42.147  19.350  1.00  0.00     0.169 HD
ATOM     20  O   UNL A   1      43.410  42.083  21.225  1.00  0.00    -0.274 OA
BRANCH  18  21
ATOM     21  C   UNL A   1      46.603  43.102  19.952  1.00  0.00     0.044 A 
ATOM     22  C   UNL A   1      45.622  45.063  18.626  1.00  0.00     0.047 C 
ATOM     23  C   UNL A   1      46.727  44.374  19.374  1.00  0.00    -0.021 A 
ATOM     24  C   UNL A   1      47.950  45.060  19.514  1.00  0.00     0.091 A 
ATOM     25  C   UNL A   1      49.036  44.461  20.170  1.00  0.00     0.269 A 
ATOM     26  C   UNL A   1      47.760  42.447  20.402  1.00  0.00     0.033 A 
ATOM     27  C   UNL A   1      48.966  43.129  20.563  1.00  0.00     0.088 A 
BRANCH  25  28
ATOM     28  N   UNL A   1      50.223  45.260  20.492  1.00  0.00     0.062 N 
ATOM     29  O   UNL A   1      51.163  44.686  21.063  1.00  0.00    -0.258 OA
ATOM     30  O   UNL A   1      50.250  46.437  20.105  1.00  0.00    -0.258 OA
ENDBRANCH  25  28
ENDBRANCH  18  21
ENDBRANCH  11  17
ENDBRANCH   8  10
ENDBRANCH   7   8
ENDBRANCH   6   7
ENDBRANCH   5   6
ENDBRANCH   4   5
ENDBRANCH   3   4
ENDBRANCH   2   3
ENDBRANCH   1   2
BRANCH   1  31
ATOM     31  C   UNL A   1      43.799  34.545  26.526  1.00  0.00     0.188 C 
BRANCH  31  32
ATOM     32  C   UNL A   1      44.250  33.584  27.625  1.00  0.00     0.188 C 
BRANCH  32  33
ATOM     33  O   UNL A   1      43.396  33.443  28.746  1.00  0.00    -0.376 OA
BRANCH  33  34
ATOM     34  C   UNL A   1      42.797  34.687  29.165  1.00  0.00     0.202 C 
BRANCH  34  35
ATOM     35  C   UNL A   1      41.551  34.633  30.136  1.00  0.00     0.261 C 
BRANCH  35  36
ATOM     36  O   UNL A   1      41.972  34.201  31.501  1.00  0.00    -0.460 OA
BRANCH  36  37
ATOM     37  C   UNL A   1      42.044  32.976  32.117  1.00  0.00     0.338 C 
ATOM     38  O   UNL A   1      42.267  31.967  31.448  1.00  0.00    -0.246 OA
BRANCH  37  39
ATOM     39  C   UNL A   1      41.216  32.780  33.433  1.00  0.00     0.060 A 
ATOM     40  C   UNL A   1      41.874  32.059  34.434  1.00  0.00     0.016 A 
ATOM     41  C   UNL A   1      39.861  32.509  33.408  1.00  0.00     0.016 A 
ATOM     42  C   UNL A   1      41.423  30.774  34.798  1.00  0.00     0.010 A 
ATOM     43  C   UNL A   1      39.434  31.195  33.663  1.00  0.00     0.010 A 
ATOM     44  C   UNL A   1      40.369  30.237  34.064  1.00  0.00    -0.014 A 
BRANCH  44  45
ATOM     45  C   UNL A   1      40.692  29.077  33.096  1.00  0.00     0.031 A 
ATOM     46  C   UNL A   1      41.986  28.189  33.309  1.00  0.00     0.074 A 
ATOM     47  C   UNL A   1      39.576  28.838  32.310  1.00  0.00     0.049 A 
ATOM     48  N   UNL A   1      42.706  27.553  32.398  1.00  0.00    -0.248 NA
ATOM     49  C   UNL A   1      42.632  28.063  34.621  1.00  0.00     0.031 C 
ATOM     50  C   UNL A   1      38.639  27.735  32.009  1.00  0.00     0.029 A 
ATOM     51  N   UNL A   1      39.185  29.731  31.293  1.00  0.00    -0.354 N 
ATOM     52  C   UNL A   1      43.673  26.728  33.033  1.00  0.00     0.074 A 
ATOM     53  C   UNL A   1      43.655  27.231  34.385  1.00  0.00     0.031 C 
ATOM     54  C   UNL A   1      38.150  27.841  30.750  1.00  0.00     0.029 A 
ATOM     55  C   UNL A   1      38.810  28.988  30.167  1.00  0.00     0.049 A 
ATOM     56  H   UNL A   1      39.175  30.713  31.364  1.00  0.00     0.167 HD
ATOM     57  C   UNL A   1      44.326  25.645  32.442  1.00  0.00     0.037 A 
ATOM     58  C   UNL A   1      38.705  29.383  28.880  1.00  0.00     0.037 A 
ATOM     59  C   UNL A   1      43.987  25.463  30.988  1.00  0.00     0.049 A 
ATOM     60  C   UNL A   1      39.932  28.878  28.064  1.00  0.00     0.074 A 
ATOM     61  C   UNL A   1      43.616  24.351  30.245  1.00  0.00     0.029 A 
ATOM     62  N   UNL A   1      43.866  26.539  30.080  1.00  0.00    -0.354 N 
ATOM     63  N   UNL A   1      40.829  28.004  28.482  1.00  0.00    -0.248 NA
ATOM     64  C   UNL A   1      40.210  29.256  26.676  1.00  0.00     0.031 C 
ATOM     65  C   UNL A   1      43.174  24.763  28.953  1.00  0.00     0.029 A 
ATOM     66  C   UNL A   1      43.277  26.148  28.862  1.00  0.00     0.049 A 
ATOM     67  H   UNL A   1      44.159  27.458  30.276  1.00  0.00     0.167 HD
ATOM     68  C   UNL A   1      41.828  27.775  27.543  1.00  0.00     0.074 A 
ATOM     69  C   UNL A   1      41.311  28.527  26.393  1.00  0.00     0.031 C 
ATOM     70  C   UNL A   1      43.030  27.085  27.735  1.00  0.00     0.037 A 
BRANCH  57  71
ATOM     71  C   UNL A   1      45.195  24.490  33.214  1.00  0.00     0.058 A 
ATOM     72  C   UNL A   1      44.632  23.230  33.599  1.00  0.00     0.135 A 
ATOM     73  C   UNL A   1      46.551  24.566  33.632  1.00  0.00     0.135 A 
ATOM     74  F   UNL A   1      43.409  22.858  33.206  1.00  0.00    -0.206 F 
ATOM     75  C   UNL A   1      45.286  22.237  34.376  1.00  0.00     0.059 A 
ATOM     76  C   UNL A   1      47.245  23.564  34.365  1.00  0.00     0.059 A 
ATOM     77  F   UNL A   1      47.328  25.613  33.364  1.00  0.00    -0.206 F 
ATOM     78  C   UNL A   1      46.599  22.411  34.766  1.00  0.00     0.060 A 
BRANCH  78  79
ATOM     79  S   UNL A   1      47.453  21.136  35.731  1.00  0.00     0.124 S 
ATOM     80  O   UNL A   1      46.337  20.409  36.331  1.00  0.00    -0.237 OA
ATOM     81  O   UNL A   1      48.209  20.413  34.715  1.00  0.00    -0.237 OA
ATOM     82  O   UNL A   1      48.265  21.904  36.672  1.00  0.00    -0.744 OA
ENDBRANCH  78  79
ENDBRANCH  57  71
BRANCH  58  83
ATOM     83  C   UNL A   1      37.927  30.680  28.907  1.00  0.00     0.058 A 
ATOM     84  C   UNL A   1      36.518  30.514  29.043  1.00  0.00     0.135 A 
ATOM     85  C   UNL A   1      38.469  31.823  29.524  1.00  0.00     0.135 A 
ATOM     86  F   UNL A   1      35.923  29.446  28.484  1.00  0.00    -0.206 F 
ATOM     87  C   UNL A   1      35.737  31.310  29.897  1.00  0.00     0.059 A 
ATOM     88  C   UNL A   1      37.699  32.630  30.387  1.00  0.00     0.059 A 
ATOM     89  F   UNL A   1      39.794  32.025  29.494  1.00  0.00    -0.206 F 
ATOM     90  C   UNL A   1      36.344  32.345  30.601  1.00  0.00     0.060 A 
BRANCH  90  91
ATOM     91  S   UNL A   1      35.386  33.238  31.878  1.00  0.00     0.124 S 
ATOM     92  O   UNL A   1      34.994  34.450  31.171  1.00  0.00    -0.237 OA
ATOM     93  O   UNL A   1      34.297  32.325  32.207  1.00  0.00    -0.237 OA
ATOM     94  O   UNL A   1      36.358  33.427  32.953  1.00  0.00    -0.744 OA
ENDBRANCH  90  91
ENDBRANCH  58  83
BRANCH  70  95
ATOM     95  C   UNL A   1      44.232  27.211  26.802  1.00  0.00     0.058 A 
ATOM     96  C   UNL A   1      45.269  28.125  27.024  1.00  0.00     0.135 A 
ATOM     97  C   UNL A   1      44.487  26.252  25.779  1.00  0.00     0.135 A 
ATOM     98  F   UNL A   1      45.263  28.958  28.072  1.00  0.00    -0.206 F 
ATOM     99  C   UNL A   1      46.406  28.175  26.223  1.00  0.00     0.059 A 
ATOM    100  C   UNL A   1      45.656  26.227  25.031  1.00  0.00     0.059 A 
ATOM    101  F   UNL A   1      43.632  25.269  25.471  1.00  0.00    -0.206 F 
ATOM    102  C   UNL A   1      46.590  27.223  25.228  1.00  0.00     0.060 A 
BRANCH 102 103
ATOM    103  S   UNL A   1      48.080  27.265  24.230  1.00  0.00     0.124 S 
ATOM    104  O   UNL A   1      48.903  28.199  24.990  1.00  0.00    -0.237 OA
ATOM    105  O   UNL A   1      48.517  25.871  24.255  1.00  0.00    -0.237 OA
ATOM    106  O   UNL A   1      47.608  27.743  22.935  1.00  0.00    -0.744 OA
ENDBRANCH 102 103
ENDBRANCH  70  95
ENDBRANCH  44  45
ENDBRANCH  37  39
ENDBRANCH  36  37
ENDBRANCH  35  36
ENDBRANCH  34  35
ENDBRANCH  33  34
ENDBRANCH  32  33
ENDBRANCH  31  32
ENDBRANCH   1  31
TORSDOF 26
ENDMDL
