MODEL 1
REMARK VINA RESULT:     -10.3      0.000      0.000
REMARK SMILES O=C(OCCOCCOCCOCCOC(=O)[C@H]1C[C@](O)(c2ccc(F)cc2)[C@@H](c2ccc(F)cc2)O1)c1ccc(-c2c3nc(c(-c4c(F)cc(S(=O)(=O)[O-])cc4F)c4ccc([nH]4)c(-c4c(F)cc(S(=O)(=O)[O-])cc4F)c4nc(c(-c5c(F)cc(S(=O)(=O)[O-])cc5F)c5ccc2[nH]5)C=C4)C=C3)cc1
REMARK SMILES IDX 8 1 7 2 6 3 5 4 4 5 3 6 2 7 1 8 38 9 39 10 103 11 40 12
REMARK SMILES IDX 102 13 41 14 42 15 43 16 96 17 44 18 101 19 95 20 97 21
REMARK SMILES IDX 45 22 100 23 94 24 93 25 46 27 80 28 59 29 79 30 60 31 63 32
REMARK SMILES IDX 78 33 98 34 61 35 62 36 77 38 99 39 64 40 47 41 48 42 57 43
REMARK SMILES IDX 49 44 50 45 56 46 58 47 51 48 52 49 53 50 54 51 55 52 81 53
REMARK SMILES IDX 82 54 91 55 83 56 84 57 90 58 92 59 85 60 86 61 87 62 88 63
REMARK SMILES IDX 89 64 65 65 66 66 75 67 67 68 68 69 74 70 76 71 69 72 70 73
REMARK SMILES IDX 71 74 72 75 73 76 9 77 10 78 11 79 12 80 13 81 14 82 15 83
REMARK SMILES IDX 16 84 17 85 18 86 19 87 37 88 20 89 29 90 22 91 23 92 28 93
REMARK SMILES IDX 24 94 27 95 25 96 26 97 21 98 30 100 31 101 36 102 32 103
REMARK SMILES IDX 35 104 33 105 34 106
REMARK H PARENT 97 26 63 37 21 99
REMARK Flexibility Score: inf
ROOT
ATOM      1  C   UNL A   1      30.418  28.008  22.775  1.00  0.00     0.188 C 
ENDROOT
BRANCH   1   2
ATOM      2  C   UNL A   1      30.421  29.265  23.613  1.00  0.00     0.188 C 
BRANCH   2   3
ATOM      3  O   UNL A   1      31.061  28.968  24.831  1.00  0.00    -0.376 OA
BRANCH   3   4
ATOM      4  C   UNL A   1      31.912  29.891  25.466  1.00  0.00     0.202 C 
BRANCH   4   5
ATOM      5  C   UNL A   1      33.371  29.517  25.667  1.00  0.00     0.261 C 
BRANCH   5   6
ATOM      6  O   UNL A   1      33.947  29.655  26.986  1.00  0.00    -0.460 OA
BRANCH   6   7
ATOM      7  C   UNL A   1      34.801  30.526  27.564  1.00  0.00     0.338 C 
ATOM      8  O   UNL A   1      34.547  31.728  27.505  1.00  0.00    -0.246 OA
BRANCH   7   9
ATOM      9  C   UNL A   1      36.049  30.124  28.254  1.00  0.00     0.060 A 
ATOM     10  C   UNL A   1      36.081  29.319  29.383  1.00  0.00     0.016 A 
ATOM     11  C   UNL A   1      37.270  30.429  27.642  1.00  0.00     0.016 A 
ATOM     12  C   UNL A   1      37.251  29.007  30.037  1.00  0.00     0.010 A 
ATOM     13  C   UNL A   1      38.473  30.015  28.223  1.00  0.00     0.010 A 
ATOM     14  C   UNL A   1      38.458  29.351  29.456  1.00  0.00    -0.014 A 
BRANCH  14  15
ATOM     15  C   UNL A   1      39.665  29.154  30.270  1.00  0.00     0.031 A 
ATOM     16  C   UNL A   1      40.683  28.195  29.740  1.00  0.00     0.074 A 
ATOM     17  C   UNL A   1      39.907  29.958  31.323  1.00  0.00     0.049 A 
ATOM     18  N   UNL A   1      41.775  27.761  30.298  1.00  0.00    -0.248 NA
ATOM     19  C   UNL A   1      40.446  27.660  28.384  1.00  0.00     0.031 C 
ATOM     20  C   UNL A   1      39.044  31.062  31.765  1.00  0.00     0.029 A 
ATOM     21  N   UNL A   1      40.967  30.009  32.183  1.00  0.00    -0.354 N 
ATOM     22  C   UNL A   1      42.329  26.874  29.384  1.00  0.00     0.074 A 
ATOM     23  C   UNL A   1      41.457  26.820  28.237  1.00  0.00     0.031 C 
ATOM     24  C   UNL A   1      39.630  31.697  32.791  1.00  0.00     0.029 A 
ATOM     25  C   UNL A   1      40.851  30.986  33.143  1.00  0.00     0.049 A 
ATOM     26  H   UNL A   1      41.741  29.403  32.121  1.00  0.00     0.167 HD
ATOM     27  C   UNL A   1      43.473  26.172  29.512  1.00  0.00     0.037 A 
ATOM     28  C   UNL A   1      41.628  31.231  34.214  1.00  0.00     0.037 A 
ATOM     29  C   UNL A   1      44.313  26.282  30.671  1.00  0.00     0.049 A 
ATOM     30  C   UNL A   1      42.814  30.326  34.415  1.00  0.00     0.074 A 
ATOM     31  C   UNL A   1      45.443  25.559  30.993  1.00  0.00     0.029 A 
ATOM     32  N   UNL A   1      44.105  27.196  31.698  1.00  0.00    -0.354 N 
ATOM     33  N   UNL A   1      43.267  29.380  33.622  1.00  0.00    -0.248 NA
ATOM     34  C   UNL A   1      43.576  30.491  35.656  1.00  0.00     0.031 C 
ATOM     35  C   UNL A   1      45.892  26.006  32.238  1.00  0.00     0.029 A 
ATOM     36  C   UNL A   1      45.078  27.048  32.665  1.00  0.00     0.049 A 
ATOM     37  H   UNL A   1      43.372  27.852  31.730  1.00  0.00     0.167 HD
ATOM     38  C   UNL A   1      44.379  28.848  34.258  1.00  0.00     0.074 A 
ATOM     39  C   UNL A   1      44.538  29.591  35.495  1.00  0.00     0.031 C 
ATOM     40  C   UNL A   1      45.194  27.836  33.869  1.00  0.00     0.037 A 
BRANCH  27  41
ATOM     41  C   UNL A   1      43.823  25.204  28.421  1.00  0.00     0.058 A 
ATOM     42  C   UNL A   1      44.453  25.661  27.252  1.00  0.00     0.135 A 
ATOM     43  C   UNL A   1      43.549  23.831  28.523  1.00  0.00     0.135 A 
ATOM     44  F   UNL A   1      44.769  26.958  27.117  1.00  0.00    -0.206 F 
ATOM     45  C   UNL A   1      44.776  24.796  26.213  1.00  0.00     0.059 A 
ATOM     46  C   UNL A   1      43.886  22.943  27.504  1.00  0.00     0.059 A 
ATOM     47  F   UNL A   1      42.997  23.334  29.641  1.00  0.00    -0.206 F 
ATOM     48  C   UNL A   1      44.483  23.438  26.346  1.00  0.00     0.060 A 
BRANCH  48  49
ATOM     49  S   UNL A   1      44.918  22.331  24.988  1.00  0.00     0.124 S 
ATOM     50  O   UNL A   1      43.666  21.615  24.774  1.00  0.00    -0.237 OA
ATOM     51  O   UNL A   1      45.304  23.271  23.940  1.00  0.00    -0.237 OA
ATOM     52  O   UNL A   1      46.012  21.535  25.538  1.00  0.00    -0.744 OA
ENDBRANCH  48  49
ENDBRANCH  27  41
BRANCH  28  53
ATOM     53  C   UNL A   1      41.280  32.308  35.183  1.00  0.00     0.058 A 
ATOM     54  C   UNL A   1      40.275  32.127  36.150  1.00  0.00     0.135 A 
ATOM     55  C   UNL A   1      41.940  33.546  35.167  1.00  0.00     0.135 A 
ATOM     56  F   UNL A   1      39.604  30.967  36.218  1.00  0.00    -0.206 F 
ATOM     57  C   UNL A   1      39.926  33.133  37.045  1.00  0.00     0.059 A 
ATOM     58  C   UNL A   1      41.630  34.559  36.072  1.00  0.00     0.059 A 
ATOM     59  F   UNL A   1      42.914  33.772  34.271  1.00  0.00    -0.206 F 
ATOM     60  C   UNL A   1      40.612  34.345  37.002  1.00  0.00     0.060 A 
BRANCH  60  61
ATOM     61  S   UNL A   1      40.165  35.628  38.193  1.00  0.00     0.124 S 
ATOM     62  O   UNL A   1      39.653  36.677  37.313  1.00  0.00    -0.237 OA
ATOM     63  O   UNL A   1      39.162  34.945  39.010  1.00  0.00    -0.237 OA
ATOM     64  O   UNL A   1      41.420  35.925  38.862  1.00  0.00    -0.744 OA
ENDBRANCH  60  61
ENDBRANCH  28  53
BRANCH  40  65
ATOM     65  C   UNL A   1      46.346  27.504  34.768  1.00  0.00     0.058 A 
ATOM     66  C   UNL A   1      47.608  28.067  34.525  1.00  0.00     0.135 A 
ATOM     67  C   UNL A   1      46.225  26.551  35.789  1.00  0.00     0.135 A 
ATOM     68  F   UNL A   1      47.769  28.976  33.551  1.00  0.00    -0.206 F 
ATOM     69  C   UNL A   1      48.723  27.670  35.247  1.00  0.00     0.059 A 
ATOM     70  C   UNL A   1      47.323  26.164  36.547  1.00  0.00     0.059 A 
ATOM     71  F   UNL A   1      45.032  25.997  36.059  1.00  0.00    -0.206 F 
ATOM     72  C   UNL A   1      48.571  26.714  36.252  1.00  0.00     0.060 A 
BRANCH  72  73
ATOM     73  S   UNL A   1      50.034  26.205  37.173  1.00  0.00     0.124 S 
ATOM     74  O   UNL A   1      49.511  25.109  37.981  1.00  0.00    -0.237 OA
ATOM     75  O   UNL A   1      50.953  25.826  36.104  1.00  0.00    -0.237 OA
ATOM     76  O   UNL A   1      50.404  27.409  37.913  1.00  0.00    -0.744 OA
ENDBRANCH  72  73
ENDBRANCH  40  65
ENDBRANCH  14  15
ENDBRANCH   7   9
ENDBRANCH   6   7
ENDBRANCH   5   6
ENDBRANCH   4   5
ENDBRANCH   3   4
ENDBRANCH   2   3
ENDBRANCH   1   2
BRANCH   1  77
ATOM     77  O   UNL A   1      31.702  27.494  22.452  1.00  0.00    -0.377 OA
BRANCH  77  78
ATOM     78  C   UNL A   1      31.889  26.094  22.223  1.00  0.00     0.188 C 
BRANCH  78  79
ATOM     79  C   UNL A   1      33.308  25.575  21.980  1.00  0.00     0.188 C 
BRANCH  79  80
ATOM     80  O   UNL A   1      33.474  24.209  22.279  1.00  0.00    -0.376 OA
BRANCH  80  81
ATOM     81  C   UNL A   1      32.329  23.473  22.700  1.00  0.00     0.202 C 
BRANCH  81  82
ATOM     82  C   UNL A   1      32.336  21.942  22.946  1.00  0.00     0.261 C 
BRANCH  82  83
ATOM     83  O   UNL A   1      31.871  21.442  24.226  1.00  0.00    -0.461 OA
BRANCH  83  84
ATOM     84  C   UNL A   1      32.597  20.443  24.803  1.00  0.00     0.335 C 
ATOM     85  O   UNL A   1      32.259  19.260  24.759  1.00  0.00    -0.249 OA
BRANCH  84  86
ATOM     86  C   UNL A   1      33.896  20.862  25.563  1.00  0.00     0.232 C 
ATOM     87  C   UNL A   1      35.093  21.453  24.825  1.00  0.00     0.087 C 
ATOM     88  O   UNL A   1      33.730  21.611  26.766  1.00  0.00    -0.355 OA
ATOM     89  C   UNL A   1      35.400  22.803  25.471  1.00  0.00     0.123 C 
ATOM     90  C   UNL A   1      34.319  22.913  26.595  1.00  0.00     0.186 C 
BRANCH  89  91
ATOM     91  C   UNL A   1      36.891  22.770  25.852  1.00  0.00    -0.013 A 
ATOM     92  C   UNL A   1      37.493  23.947  26.369  1.00  0.00     0.010 A 
ATOM     93  C   UNL A   1      37.724  21.666  25.616  1.00  0.00     0.010 A 
ATOM     94  C   UNL A   1      38.853  24.003  26.673  1.00  0.00     0.039 A 
ATOM     95  C   UNL A   1      39.087  21.722  25.927  1.00  0.00     0.039 A 
ATOM     96  C   UNL A   1      39.638  22.884  26.456  1.00  0.00     0.123 A 
ATOM     97  F   UNL A   1      40.946  22.927  26.743  1.00  0.00    -0.207 F 
ENDBRANCH  89  91
BRANCH  89  98
ATOM     98  O   UNL A   1      35.303  23.866  24.512  1.00  0.00    -0.382 OA
ATOM     99  H   UNL A   1      35.289  23.493  23.617  1.00  0.00     0.212 HD
ENDBRANCH  89  98
BRANCH  90 100
ATOM    100  C   UNL A   1      33.128  23.853  26.458  1.00  0.00    -0.016 A 
ATOM    101  C   UNL A   1      33.248  25.162  25.972  1.00  0.00     0.009 A 
ATOM    102  C   UNL A   1      31.834  23.362  26.690  1.00  0.00     0.009 A 
ATOM    103  C   UNL A   1      32.134  25.966  25.735  1.00  0.00     0.039 A 
ATOM    104  C   UNL A   1      30.712  24.162  26.458  1.00  0.00     0.039 A 
ATOM    105  C   UNL A   1      30.872  25.457  25.980  1.00  0.00     0.123 A 
ATOM    106  F   UNL A   1      29.795  26.213  25.737  1.00  0.00    -0.207 F 
ENDBRANCH  90 100
ENDBRANCH  84  86
ENDBRANCH  83  84
ENDBRANCH  82  83
ENDBRANCH  81  82
ENDBRANCH  80  81
ENDBRANCH  79  80
ENDBRANCH  78  79
ENDBRANCH  77  78
ENDBRANCH   1  77
TORSDOF 26
ENDMDL
MODEL 2
REMARK VINA RESULT:      -9.4      3.440      4.219
REMARK SMILES O=C(OCCOCCOCCOCCOC(=O)[C@H]1C[C@](O)(c2ccc(F)cc2)[C@@H](c2ccc(F)cc2)O1)c1ccc(-c2c3nc(c(-c4c(F)cc(S(=O)(=O)[O-])cc4F)c4ccc([nH]4)c(-c4c(F)cc(S(=O)(=O)[O-])cc4F)c4nc(c(-c5c(F)cc(S(=O)(=O)[O-])cc5F)c5ccc2[nH]5)C=C4)C=C3)cc1
REMARK SMILES IDX 8 1 7 2 6 3 5 4 4 5 3 6 2 7 1 8 38 9 39 10 103 11 40 12
REMARK SMILES IDX 102 13 41 14 42 15 43 16 96 17 44 18 101 19 95 20 97 21
REMARK SMILES IDX 45 22 100 23 94 24 93 25 46 27 80 28 59 29 79 30 60 31 63 32
REMARK SMILES IDX 78 33 98 34 61 35 62 36 77 38 99 39 64 40 47 41 48 42 57 43
REMARK SMILES IDX 49 44 50 45 56 46 58 47 51 48 52 49 53 50 54 51 55 52 81 53
REMARK SMILES IDX 82 54 91 55 83 56 84 57 90 58 92 59 85 60 86 61 87 62 88 63
REMARK SMILES IDX 89 64 65 65 66 66 75 67 67 68 68 69 74 70 76 71 69 72 70 73
REMARK SMILES IDX 71 74 72 75 73 76 9 77 10 78 11 79 12 80 13 81 14 82 15 83
REMARK SMILES IDX 16 84 17 85 18 86 19 87 37 88 20 89 29 90 22 91 23 92 28 93
REMARK SMILES IDX 24 94 27 95 25 96 26 97 21 98 30 100 31 101 36 102 32 103
REMARK SMILES IDX 35 104 33 105 34 106
REMARK H PARENT 97 26 63 37 21 99
REMARK Flexibility Score: inf
ROOT
ATOM      1  C   UNL A   1      30.727  28.240  23.550  1.00  0.00     0.188 C 
ENDROOT
BRANCH   1   2
ATOM      2  C   UNL A   1      31.251  29.331  24.454  1.00  0.00     0.188 C 
BRANCH   2   3
ATOM      3  O   UNL A   1      32.067  28.726  25.428  1.00  0.00    -0.376 OA
BRANCH   3   4
ATOM      4  C   UNL A   1      32.891  29.485  26.279  1.00  0.00     0.202 C 
BRANCH   4   5
ATOM      5  C   UNL A   1      34.377  29.167  26.327  1.00  0.00     0.261 C 
BRANCH   5   6
ATOM      6  O   UNL A   1      35.003  28.971  27.615  1.00  0.00    -0.460 OA
BRANCH   6   7
ATOM      7  C   UNL A   1      35.836  29.700  28.388  1.00  0.00     0.338 C 
ATOM      8  O   UNL A   1      35.370  30.634  29.039  1.00  0.00    -0.246 OA
BRANCH   7   9
ATOM      9  C   UNL A   1      37.294  29.457  28.487  1.00  0.00     0.060 A 
ATOM     10  C   UNL A   1      37.913  28.922  29.607  1.00  0.00     0.016 A 
ATOM     11  C   UNL A   1      38.070  29.616  27.334  1.00  0.00     0.016 A 
ATOM     12  C   UNL A   1      39.277  28.758  29.693  1.00  0.00     0.010 A 
ATOM     13  C   UNL A   1      39.441  29.337  27.361  1.00  0.00     0.010 A 
ATOM     14  C   UNL A   1      40.050  28.962  28.565  1.00  0.00    -0.014 A 
BRANCH  14  15
ATOM     15  C   UNL A   1      41.507  28.947  28.749  1.00  0.00     0.031 A 
ATOM     16  C   UNL A   1      42.237  27.750  28.227  1.00  0.00     0.074 A 
ATOM     17  C   UNL A   1      42.144  30.052  29.181  1.00  0.00     0.049 A 
ATOM     18  N   UNL A   1      43.493  27.434  28.348  1.00  0.00    -0.248 NA
ATOM     19  C   UNL A   1      41.444  26.779  27.446  1.00  0.00     0.031 C 
ATOM     20  C   UNL A   1      41.500  31.331  29.506  1.00  0.00     0.029 A 
ATOM     21  N   UNL A   1      43.474  30.298  29.374  1.00  0.00    -0.354 N 
ATOM     22  C   UNL A   1      43.630  26.213  27.699  1.00  0.00     0.074 A 
ATOM     23  C   UNL A   1      42.336  25.836  27.191  1.00  0.00     0.031 C 
ATOM     24  C   UNL A   1      42.442  32.232  29.825  1.00  0.00     0.029 A 
ATOM     25  C   UNL A   1      43.738  31.569  29.828  1.00  0.00     0.049 A 
ATOM     26  H   UNL A   1      44.177  29.629  29.205  1.00  0.00     0.167 HD
ATOM     27  C   UNL A   1      44.755  25.483  27.552  1.00  0.00     0.037 A 
ATOM     28  C   UNL A   1      44.900  32.105  30.245  1.00  0.00     0.037 A 
ATOM     29  C   UNL A   1      46.023  25.921  28.064  1.00  0.00     0.049 A 
ATOM     30  C   UNL A   1      46.111  31.211  30.215  1.00  0.00     0.074 A 
ATOM     31  C   UNL A   1      47.226  25.247  28.088  1.00  0.00     0.029 A 
ATOM     32  N   UNL A   1      46.242  27.170  28.636  1.00  0.00    -0.354 N 
ATOM     33  N   UNL A   1      46.219  29.993  29.733  1.00  0.00    -0.248 NA
ATOM     34  C   UNL A   1      47.343  31.739  30.807  1.00  0.00     0.031 C 
ATOM     35  C   UNL A   1      48.163  26.071  28.717  1.00  0.00     0.029 A 
ATOM     36  C   UNL A   1      47.559  27.282  29.032  1.00  0.00     0.049 A 
ATOM     37  H   UNL A   1      45.558  27.869  28.744  1.00  0.00     0.167 HD
ATOM     38  C   UNL A   1      47.537  29.613  29.945  1.00  0.00     0.074 A 
ATOM     39  C   UNL A   1      48.189  30.740  30.585  1.00  0.00     0.031 C 
ATOM     40  C   UNL A   1      48.155  28.443  29.648  1.00  0.00     0.037 A 
BRANCH  27  41
ATOM     41  C   UNL A   1      44.637  24.146  26.884  1.00  0.00     0.058 A 
ATOM     42  C   UNL A   1      44.902  24.021  25.511  1.00  0.00     0.135 A 
ATOM     43  C   UNL A   1      44.272  22.988  27.589  1.00  0.00     0.135 A 
ATOM     44  F   UNL A   1      45.287  25.090  24.797  1.00  0.00    -0.206 F 
ATOM     45  C   UNL A   1      44.784  22.801  24.855  1.00  0.00     0.059 A 
ATOM     46  C   UNL A   1      44.173  21.751  26.957  1.00  0.00     0.059 A 
ATOM     47  F   UNL A   1      44.060  23.042  28.914  1.00  0.00    -0.206 F 
ATOM     48  C   UNL A   1      44.413  21.672  25.586  1.00  0.00     0.060 A 
BRANCH  48  49
ATOM     49  S   UNL A   1      44.275  20.096  24.717  1.00  0.00     0.124 S 
ATOM     50  O   UNL A   1      44.528  20.492  23.337  1.00  0.00    -0.237 OA
ATOM     51  O   UNL A   1      45.322  19.303  25.355  1.00  0.00    -0.237 OA
ATOM     52  O   UNL A   1      42.910  19.666  25.009  1.00  0.00    -0.744 OA
ENDBRANCH  48  49
ENDBRANCH  27  41
BRANCH  28  53
ATOM     53  C   UNL A   1      44.955  33.498  30.772  1.00  0.00     0.058 A 
ATOM     54  C   UNL A   1      45.200  34.593  29.925  1.00  0.00     0.135 A 
ATOM     55  C   UNL A   1      44.766  33.770  32.135  1.00  0.00     0.135 A 
ATOM     56  F   UNL A   1      45.392  34.401  28.610  1.00  0.00    -0.206 F 
ATOM     57  C   UNL A   1      45.276  35.895  30.409  1.00  0.00     0.059 A 
ATOM     58  C   UNL A   1      44.806  35.068  32.641  1.00  0.00     0.059 A 
ATOM     59  F   UNL A   1      44.519  32.764  32.989  1.00  0.00    -0.206 F 
ATOM     60  C   UNL A   1      45.073  36.124  31.768  1.00  0.00     0.060 A 
BRANCH  60  61
ATOM     61  S   UNL A   1      45.146  37.825  32.373  1.00  0.00     0.124 S 
ATOM     62  O   UNL A   1      45.709  37.636  33.707  1.00  0.00    -0.237 OA
ATOM     63  O   UNL A   1      46.034  38.454  31.396  1.00  0.00    -0.237 OA
ATOM     64  O   UNL A   1      43.760  38.261  32.330  1.00  0.00    -0.744 OA
ENDBRANCH  60  61
ENDBRANCH  28  53
BRANCH  40  65
ATOM     65  C   UNL A   1      49.613  28.341  29.978  1.00  0.00     0.058 A 
ATOM     66  C   UNL A   1      50.015  27.926  31.257  1.00  0.00     0.135 A 
ATOM     67  C   UNL A   1      50.599  28.758  29.072  1.00  0.00     0.135 A 
ATOM     68  F   UNL A   1      49.102  27.528  32.158  1.00  0.00    -0.206 F 
ATOM     69  C   UNL A   1      51.346  27.960  31.639  1.00  0.00     0.059 A 
ATOM     70  C   UNL A   1      51.943  28.767  29.423  1.00  0.00     0.059 A 
ATOM     71  F   UNL A   1      50.257  29.152  27.835  1.00  0.00    -0.206 F 
ATOM     72  C   UNL A   1      52.303  28.387  30.717  1.00  0.00     0.060 A 
BRANCH  72  73
ATOM     73  S   UNL A   1      54.028  28.431  31.236  1.00  0.00     0.124 S 
ATOM     74  O   UNL A   1      54.497  27.114  30.822  1.00  0.00    -0.237 OA
ATOM     75  O   UNL A   1      54.549  29.561  30.471  1.00  0.00    -0.237 OA
ATOM     76  O   UNL A   1      53.943  28.643  32.678  1.00  0.00    -0.744 OA
ENDBRANCH  72  73
ENDBRANCH  40  65
ENDBRANCH  14  15
ENDBRANCH   7   9
ENDBRANCH   6   7
ENDBRANCH   5   6
ENDBRANCH   4   5
ENDBRANCH   3   4
ENDBRANCH   2   3
ENDBRANCH   1   2
BRANCH   1  77
ATOM     77  O   UNL A   1      31.667  27.719  22.622  1.00  0.00    -0.377 OA
BRANCH  77  78
ATOM     78  C   UNL A   1      31.838  26.307  22.472  1.00  0.00     0.188 C 
BRANCH  78  79
ATOM     79  C   UNL A   1      33.227  25.770  22.122  1.00  0.00     0.188 C 
BRANCH  79  80
ATOM     80  O   UNL A   1      33.261  24.380  21.899  1.00  0.00    -0.376 OA
BRANCH  80  81
ATOM     81  C   UNL A   1      32.511  23.544  22.777  1.00  0.00     0.202 C 
BRANCH  81  82
ATOM     82  C   UNL A   1      32.534  21.995  22.713  1.00  0.00     0.261 C 
BRANCH  82  83
ATOM     83  O   UNL A   1      32.283  21.247  23.931  1.00  0.00    -0.461 OA
BRANCH  83  84
ATOM     84  C   UNL A   1      33.204  20.305  24.281  1.00  0.00     0.335 C 
ATOM     85  O   UNL A   1      33.110  19.122  23.953  1.00  0.00    -0.249 OA
BRANCH  84  86
ATOM     86  C   UNL A   1      34.406  20.784  25.158  1.00  0.00     0.232 C 
ATOM     87  C   UNL A   1      35.565  21.570  24.554  1.00  0.00     0.087 C 
ATOM     88  O   UNL A   1      34.093  21.389  26.411  1.00  0.00    -0.355 OA
ATOM     89  C   UNL A   1      35.683  22.875  25.339  1.00  0.00     0.123 C 
ATOM     90  C   UNL A   1      34.539  22.758  26.398  1.00  0.00     0.186 C 
BRANCH  89  91
ATOM     91  C   UNL A   1      37.147  22.964  25.810  1.00  0.00    -0.013 A 
ATOM     92  C   UNL A   1      37.986  21.829  25.660  1.00  0.00     0.010 A 
ATOM     93  C   UNL A   1      37.676  24.077  26.481  1.00  0.00     0.010 A 
ATOM     94  C   UNL A   1      39.301  21.821  26.124  1.00  0.00     0.039 A 
ATOM     95  C   UNL A   1      38.998  24.069  26.941  1.00  0.00     0.039 A 
ATOM     96  C   UNL A   1      39.798  22.948  26.755  1.00  0.00     0.123 A 
ATOM     97  F   UNL A   1      41.060  22.952  27.205  1.00  0.00    -0.207 F 
ENDBRANCH  89  91
BRANCH  89  98
ATOM     98  O   UNL A   1      35.519  24.010  24.478  1.00  0.00    -0.382 OA
ATOM     99  H   UNL A   1      34.685  23.926  23.989  1.00  0.00     0.212 HD
ENDBRANCH  89  98
BRANCH  90 100
ATOM    100  C   UNL A   1      33.259  23.573  26.273  1.00  0.00    -0.016 A 
ATOM    101  C   UNL A   1      31.985  23.015  26.439  1.00  0.00     0.009 A 
ATOM    102  C   UNL A   1      33.344  24.967  26.123  1.00  0.00     0.009 A 
ATOM    103  C   UNL A   1      30.832  23.797  26.446  1.00  0.00     0.039 A 
ATOM    104  C   UNL A   1      32.192  25.759  26.125  1.00  0.00     0.039 A 
ATOM    105  C   UNL A   1      30.946  25.166  26.289  1.00  0.00     0.123 A 
ATOM    106  F   UNL A   1      29.847  25.929  26.314  1.00  0.00    -0.207 F 
ENDBRANCH  90 100
ENDBRANCH  84  86
ENDBRANCH  83  84
ENDBRANCH  82  83
ENDBRANCH  81  82
ENDBRANCH  80  81
ENDBRANCH  79  80
ENDBRANCH  78  79
ENDBRANCH  77  78
ENDBRANCH   1  77
TORSDOF 26
ENDMDL
MODEL 3
REMARK VINA RESULT:      -9.4      1.659      3.107
REMARK SMILES O=C(OCCOCCOCCOCCOC(=O)[C@H]1C[C@](O)(c2ccc(F)cc2)[C@@H](c2ccc(F)cc2)O1)c1ccc(-c2c3nc(c(-c4c(F)cc(S(=O)(=O)[O-])cc4F)c4ccc([nH]4)c(-c4c(F)cc(S(=O)(=O)[O-])cc4F)c4nc(c(-c5c(F)cc(S(=O)(=O)[O-])cc5F)c5ccc2[nH]5)C=C4)C=C3)cc1
REMARK SMILES IDX 8 1 7 2 6 3 5 4 4 5 3 6 2 7 1 8 38 9 39 10 103 11 40 12
REMARK SMILES IDX 102 13 41 14 42 15 43 16 96 17 44 18 101 19 95 20 97 21
REMARK SMILES IDX 45 22 100 23 94 24 93 25 46 27 80 28 59 29 79 30 60 31 63 32
REMARK SMILES IDX 78 33 98 34 61 35 62 36 77 38 99 39 64 40 47 41 48 42 57 43
REMARK SMILES IDX 49 44 50 45 56 46 58 47 51 48 52 49 53 50 54 51 55 52 81 53
REMARK SMILES IDX 82 54 91 55 83 56 84 57 90 58 92 59 85 60 86 61 87 62 88 63
REMARK SMILES IDX 89 64 65 65 66 66 75 67 67 68 68 69 74 70 76 71 69 72 70 73
REMARK SMILES IDX 71 74 72 75 73 76 9 77 10 78 11 79 12 80 13 81 14 82 15 83
REMARK SMILES IDX 16 84 17 85 18 86 19 87 37 88 20 89 29 90 22 91 23 92 28 93
REMARK SMILES IDX 24 94 27 95 25 96 26 97 21 98 30 100 31 101 36 102 32 103
REMARK SMILES IDX 35 104 33 105 34 106
REMARK H PARENT 97 26 63 37 21 99
REMARK Flexibility Score: inf
ROOT
ATOM      1  C   UNL A   1      29.743  28.295  22.963  1.00  0.00     0.188 C 
ENDROOT
BRANCH   1   2
ATOM      2  C   UNL A   1      30.130  29.539  23.729  1.00  0.00     0.188 C 
BRANCH   2   3
ATOM      3  O   UNL A   1      31.476  29.402  24.119  1.00  0.00    -0.376 OA
BRANCH   3   4
ATOM      4  C   UNL A   1      31.878  29.553  25.458  1.00  0.00     0.202 C 
BRANCH   4   5
ATOM      5  C   UNL A   1      33.356  29.435  25.792  1.00  0.00     0.261 C 
BRANCH   5   6
ATOM      6  O   UNL A   1      33.799  29.797  27.120  1.00  0.00    -0.460 OA
BRANCH   6   7
ATOM      7  C   UNL A   1      34.728  30.642  27.614  1.00  0.00     0.338 C 
ATOM      8  O   UNL A   1      34.539  31.853  27.509  1.00  0.00    -0.246 OA
BRANCH   7   9
ATOM      9  C   UNL A   1      35.983  30.199  28.266  1.00  0.00     0.060 A 
ATOM     10  C   UNL A   1      36.024  29.407  29.404  1.00  0.00     0.016 A 
ATOM     11  C   UNL A   1      37.192  30.448  27.607  1.00  0.00     0.016 A 
ATOM     12  C   UNL A   1      37.203  29.057  30.020  1.00  0.00     0.010 A 
ATOM     13  C   UNL A   1      38.398  29.994  28.151  1.00  0.00     0.010 A 
ATOM     14  C   UNL A   1      38.401  29.346  29.393  1.00  0.00    -0.014 A 
BRANCH  14  15
ATOM     15  C   UNL A   1      39.627  29.112  30.166  1.00  0.00     0.031 A 
ATOM     16  C   UNL A   1      40.568  28.076  29.636  1.00  0.00     0.074 A 
ATOM     17  C   UNL A   1      39.957  29.940  31.175  1.00  0.00     0.049 A 
ATOM     18  N   UNL A   1      41.656  27.602  30.168  1.00  0.00    -0.248 NA
ATOM     19  C   UNL A   1      40.246  27.505  28.313  1.00  0.00     0.031 C 
ATOM     20  C   UNL A   1      39.176  31.107  31.606  1.00  0.00     0.029 A 
ATOM     21  N   UNL A   1      41.053  29.962  31.991  1.00  0.00    -0.354 N 
ATOM     22  C   UNL A   1      42.121  26.651  29.269  1.00  0.00     0.074 A 
ATOM     23  C   UNL A   1      41.202  26.603  28.161  1.00  0.00     0.031 C 
ATOM     24  C   UNL A   1      39.838  31.746  32.582  1.00  0.00     0.029 A 
ATOM     25  C   UNL A   1      41.031  30.980  32.915  1.00  0.00     0.049 A 
ATOM     26  H   UNL A   1      41.789  29.312  31.923  1.00  0.00     0.167 HD
ATOM     27  C   UNL A   1      43.229  25.889  29.381  1.00  0.00     0.037 A 
ATOM     28  C   UNL A   1      41.864  31.222  33.944  1.00  0.00     0.037 A 
ATOM     29  C   UNL A   1      44.121  25.995  30.501  1.00  0.00     0.049 A 
ATOM     30  C   UNL A   1      43.005  30.258  34.134  1.00  0.00     0.074 A 
ATOM     31  C   UNL A   1      45.221  25.221  30.808  1.00  0.00     0.029 A 
ATOM     32  N   UNL A   1      44.007  26.958  31.497  1.00  0.00    -0.354 N 
ATOM     33  N   UNL A   1      43.371  29.258  33.363  1.00  0.00    -0.248 NA
ATOM     34  C   UNL A   1      43.825  30.426  35.337  1.00  0.00     0.031 C 
ATOM     35  C   UNL A   1      45.746  25.689  32.016  1.00  0.00     0.029 A 
ATOM     36  C   UNL A   1      45.009  26.791  32.431  1.00  0.00     0.049 A 
ATOM     37  H   UNL A   1      43.313  27.656  31.532  1.00  0.00     0.167 HD
ATOM     38  C   UNL A   1      44.478  28.687  33.977  1.00  0.00     0.074 A 
ATOM     39  C   UNL A   1      44.729  29.467  35.175  1.00  0.00     0.031 C 
ATOM     40  C   UNL A   1      45.218  27.617  33.597  1.00  0.00     0.037 A 
BRANCH  27  41
ATOM     41  C   UNL A   1      43.480  24.862  28.317  1.00  0.00     0.058 A 
ATOM     42  C   UNL A   1      44.193  25.210  27.159  1.00  0.00     0.135 A 
ATOM     43  C   UNL A   1      43.028  23.538  28.435  1.00  0.00     0.135 A 
ATOM     44  F   UNL A   1      44.677  26.453  27.011  1.00  0.00    -0.206 F 
ATOM     45  C   UNL A   1      44.428  24.290  26.144  1.00  0.00     0.059 A 
ATOM     46  C   UNL A   1      43.274  22.593  27.442  1.00  0.00     0.059 A 
ATOM     47  F   UNL A   1      42.388  23.139  29.546  1.00  0.00    -0.206 F 
ATOM     48  C   UNL A   1      43.959  22.984  26.292  1.00  0.00     0.060 A 
BRANCH  48  49
ATOM     49  S   UNL A   1      44.283  21.802  24.967  1.00  0.00     0.124 S 
ATOM     50  O   UNL A   1      45.665  21.424  25.234  1.00  0.00    -0.237 OA
ATOM     51  O   UNL A   1      43.279  20.773  25.224  1.00  0.00    -0.237 OA
ATOM     52  O   UNL A   1      44.068  22.586  23.753  1.00  0.00    -0.744 OA
ENDBRANCH  48  49
ENDBRANCH  27  41
BRANCH  28  53
ATOM     53  C   UNL A   1      41.617  32.353  34.881  1.00  0.00     0.058 A 
ATOM     54  C   UNL A   1      42.160  33.629  34.650  1.00  0.00     0.135 A 
ATOM     55  C   UNL A   1      40.832  32.188  36.032  1.00  0.00     0.135 A 
ATOM     56  F   UNL A   1      42.922  33.853  33.568  1.00  0.00    -0.206 F 
ATOM     57  C   UNL A   1      41.954  34.686  35.530  1.00  0.00     0.059 A 
ATOM     58  C   UNL A   1      40.584  33.239  36.913  1.00  0.00     0.059 A 
ATOM     59  F   UNL A   1      40.279  30.994  36.298  1.00  0.00    -0.206 F 
ATOM     60  C   UNL A   1      41.161  34.484  36.657  1.00  0.00     0.060 A 
BRANCH  60  61
ATOM     61  S   UNL A   1      40.880  35.878  37.771  1.00  0.00     0.124 S 
ATOM     62  O   UNL A   1      42.245  36.344  38.005  1.00  0.00    -0.237 OA
ATOM     63  O   UNL A   1      40.045  36.756  36.951  1.00  0.00    -0.237 OA
ATOM     64  O   UNL A   1      40.218  35.273  38.914  1.00  0.00    -0.744 OA
ENDBRANCH  60  61
ENDBRANCH  28  53
BRANCH  40  65
ATOM     65  C   UNL A   1      46.385  27.253  34.463  1.00  0.00     0.058 A 
ATOM     66  C   UNL A   1      47.653  27.790  34.190  1.00  0.00     0.135 A 
ATOM     67  C   UNL A   1      46.271  26.297  35.482  1.00  0.00     0.135 A 
ATOM     68  F   UNL A   1      47.808  28.701  33.217  1.00  0.00    -0.206 F 
ATOM     69  C   UNL A   1      48.777  27.364  34.880  1.00  0.00     0.059 A 
ATOM     70  C   UNL A   1      47.379  25.882  36.208  1.00  0.00     0.059 A 
ATOM     71  F   UNL A   1      45.074  25.768  35.781  1.00  0.00    -0.206 F 
ATOM     72  C   UNL A   1      48.632  26.405  35.883  1.00  0.00     0.060 A 
BRANCH  72  73
ATOM     73  S   UNL A   1      50.107  25.859  36.762  1.00  0.00     0.124 S 
ATOM     74  O   UNL A   1      49.994  24.408  36.659  1.00  0.00    -0.237 OA
ATOM     75  O   UNL A   1      51.175  26.471  35.977  1.00  0.00    -0.237 OA
ATOM     76  O   UNL A   1      49.926  26.409  38.102  1.00  0.00    -0.744 OA
ENDBRANCH  72  73
ENDBRANCH  40  65
ENDBRANCH  14  15
ENDBRANCH   7   9
ENDBRANCH   6   7
ENDBRANCH   5   6
ENDBRANCH   4   5
ENDBRANCH   3   4
ENDBRANCH   2   3
ENDBRANCH   1   2
BRANCH   1  77
ATOM     77  O   UNL A   1      30.647  27.911  21.937  1.00  0.00    -0.377 OA
BRANCH  77  78
ATOM     78  C   UNL A   1      31.108  26.560  21.839  1.00  0.00     0.188 C 
BRANCH  78  79
ATOM     79  C   UNL A   1      32.571  26.311  21.468  1.00  0.00     0.188 C 
BRANCH  79  80
ATOM     80  O   UNL A   1      33.262  25.501  22.390  1.00  0.00    -0.376 OA
BRANCH  80  81
ATOM     81  C   UNL A   1      32.594  25.141  23.596  1.00  0.00     0.202 C 
BRANCH  81  82
ATOM     82  C   UNL A   1      33.042  23.970  24.508  1.00  0.00     0.261 C 
BRANCH  82  83
ATOM     83  O   UNL A   1      33.102  24.189  25.941  1.00  0.00    -0.461 OA
BRANCH  83  84
ATOM     84  C   UNL A   1      32.340  23.376  26.725  1.00  0.00     0.335 C 
ATOM     85  O   UNL A   1      31.444  23.798  27.457  1.00  0.00    -0.249 OA
BRANCH  84  86
ATOM     86  C   UNL A   1      32.665  21.847  26.683  1.00  0.00     0.232 C 
ATOM     87  C   UNL A   1      32.510  21.038  25.400  1.00  0.00     0.087 C 
ATOM     88  O   UNL A   1      33.877  21.425  27.305  1.00  0.00    -0.355 OA
ATOM     89  C   UNL A   1      33.858  20.379  25.116  1.00  0.00     0.123 C 
ATOM     90  C   UNL A   1      34.749  20.865  26.305  1.00  0.00     0.186 C 
BRANCH  89  91
ATOM     91  C   UNL A   1      33.577  18.875  24.943  1.00  0.00    -0.013 A 
ATOM     92  C   UNL A   1      32.536  18.281  25.704  1.00  0.00     0.010 A 
ATOM     93  C   UNL A   1      34.365  18.028  24.150  1.00  0.00     0.010 A 
ATOM     94  C   UNL A   1      32.271  16.913  25.644  1.00  0.00     0.039 A 
ATOM     95  C   UNL A   1      34.094  16.656  24.086  1.00  0.00     0.039 A 
ATOM     96  C   UNL A   1      33.051  16.113  24.827  1.00  0.00     0.123 A 
ATOM     97  F   UNL A   1      32.807  14.797  24.762  1.00  0.00    -0.207 F 
ENDBRANCH  89  91
BRANCH  89  98
ATOM     98  O   UNL A   1      34.373  20.792  23.842  1.00  0.00    -0.382 OA
ATOM     99  H   UNL A   1      33.771  20.499  23.140  1.00  0.00     0.212 HD
ENDBRANCH  89  98
BRANCH  90 100
ATOM    100  C   UNL A   1      35.827  21.922  26.106  1.00  0.00    -0.016 A 
ATOM    101  C   UNL A   1      35.696  23.236  26.576  1.00  0.00     0.009 A 
ATOM    102  C   UNL A   1      37.064  21.548  25.556  1.00  0.00     0.009 A 
ATOM    103  C   UNL A   1      36.741  24.155  26.497  1.00  0.00     0.039 A 
ATOM    104  C   UNL A   1      38.115  22.465  25.470  1.00  0.00     0.039 A 
ATOM    105  C   UNL A   1      37.944  23.760  25.943  1.00  0.00     0.123 A 
ATOM    106  F   UNL A   1      38.961  24.628  25.880  1.00  0.00    -0.207 F 
ENDBRANCH  90 100
ENDBRANCH  84  86
ENDBRANCH  83  84
ENDBRANCH  82  83
ENDBRANCH  81  82
ENDBRANCH  80  81
ENDBRANCH  79  80
ENDBRANCH  78  79
ENDBRANCH  77  78
ENDBRANCH   1  77
TORSDOF 26
ENDMDL
