MODEL 1
REMARK VINA RESULT:      -9.5      0.000      0.000
REMARK SMILES O=C(C[NH+]1CCN(c2ncc(C(F)(F)F)cc2Cl)CC1)OCCOCCOCCOCCOC(=O)c1ccc(-c2c3nc(c(-c4c(F)cc(S(=O)(=O)[O-])cc4F)c4ccc([nH]4)c(-c4c(F)cc(S(=O)(=O)[O-])cc4F)c4nc(c(-c5c(F)cc(S(=O)(=O)[O-])cc5F)c5ccc2[nH]5)C=C4)C=C3)cc1
REMARK SMILES IDX 27 1 26 2 25 3 24 4 23 5 22 6 21 7 2 8 1 9 3 10 4 11 5 12
REMARK SMILES IDX 20 13 6 15 19 16 7 17 8 18 9 19 17 20 10 21 16 22 18 23
REMARK SMILES IDX 11 24 12 25 13 26 14 27 15 28 28 29 29 30 30 31 31 32 32 33
REMARK SMILES IDX 33 34 34 35 35 36 36 37 37 38 101 39 38 40 100 41 39 42
REMARK SMILES IDX 40 43 41 44 94 45 42 46 99 47 93 48 95 49 43 50 98 51 92 52
REMARK SMILES IDX 91 53 44 55 78 56 57 57 77 58 58 59 61 60 76 61 96 62 59 63
REMARK SMILES IDX 60 64 75 66 97 67 62 68 45 69 46 70 55 71 47 72 48 73 54 74
REMARK SMILES IDX 56 75 49 76 50 77 51 78 52 79 53 80 79 81 80 82 89 83 81 84
REMARK SMILES IDX 82 85 88 86 90 87 83 88 84 89 85 90 86 91 87 92 63 93 64 94
REMARK SMILES IDX 73 95 65 96 66 97 72 98 74 99 67 100 68 101 69 102 70 103
REMARK SMILES IDX 71 104
REMARK H PARENT 4 14 95 54 61 65
REMARK Flexibility Score: inf
ROOT
ATOM      1  O   UNL A   1      44.354  20.798  24.287  1.00  0.00    -0.377 OA
ENDROOT
BRANCH   1   2
ATOM      2  C   UNL A   1      44.426  19.544  24.949  1.00  0.00     0.188 C 
BRANCH   2   3
ATOM      3  C   UNL A   1      43.140  19.041  25.613  1.00  0.00     0.188 C 
BRANCH   3   4
ATOM      4  O   UNL A   1      42.517  19.927  26.517  1.00  0.00    -0.376 OA
BRANCH   4   5
ATOM      5  C   UNL A   1      41.519  20.830  26.107  1.00  0.00     0.202 C 
BRANCH   5   6
ATOM      6  C   UNL A   1      40.044  20.571  26.403  1.00  0.00     0.261 C 
BRANCH   6   7
ATOM      7  O   UNL A   1      39.025  21.582  26.157  1.00  0.00    -0.459 OA
BRANCH   7   8
ATOM      8  C   UNL A   1      37.889  21.830  25.488  1.00  0.00     0.361 C 
ATOM      9  O   UNL A   1      37.634  23.006  25.214  1.00  0.00    -0.245 OA
BRANCH   8  10
ATOM     10  C   UNL A   1      36.851  20.764  25.203  1.00  0.00     0.386 C 
BRANCH  10  11
ATOM     11  N   UNL A   1      35.467  20.935  25.661  1.00  0.00    -0.323 N 
ATOM     12  C   UNL A   1      35.140  21.779  26.837  1.00  0.00     0.284 C 
ATOM     13  C   UNL A   1      34.513  21.148  24.599  1.00  0.00     0.284 C 
ATOM     14  H   UNL A   1      35.369  20.001  26.061  1.00  0.00     0.348 HD
ATOM     15  C   UNL A   1      34.345  23.162  26.655  1.00  0.00     0.179 C 
ATOM     16  C   UNL A   1      34.359  22.631  24.319  1.00  0.00     0.179 C 
ATOM     17  N   UNL A   1      33.567  23.160  25.406  1.00  0.00    -0.344 N 
BRANCH  17  18
ATOM     18  C   UNL A   1      32.755  24.178  24.909  1.00  0.00     0.147 A 
ATOM     19  N   UNL A   1      32.695  25.351  25.576  1.00  0.00    -0.237 NA
ATOM     20  C   UNL A   1      32.238  24.072  23.587  1.00  0.00     0.084 A 
ATOM     21  C   UNL A   1      32.219  26.441  24.902  1.00  0.00     0.126 A 
ATOM     22  C   UNL A   1      31.816  25.208  22.911  1.00  0.00     0.039 A 
ATOM     23  Cl  UNL A   1      32.207  22.581  22.691  1.00  0.00    -0.080 Cl
ATOM     24  C   UNL A   1      31.814  26.432  23.572  1.00  0.00     0.075 A 
BRANCH  24  25
ATOM     25  C   UNL A   1      31.363  27.684  22.878  1.00  0.00     0.417 C 
ATOM     26  F   UNL A   1      32.406  28.412  22.416  1.00  0.00    -0.166 F 
ATOM     27  F   UNL A   1      30.521  27.438  21.844  1.00  0.00    -0.166 F 
ATOM     28  F   UNL A   1      30.675  28.514  23.720  1.00  0.00    -0.166 F 
ENDBRANCH  24  25
ENDBRANCH  17  18
ENDBRANCH  10  11
ENDBRANCH   8  10
ENDBRANCH   7   8
ENDBRANCH   6   7
ENDBRANCH   5   6
ENDBRANCH   4   5
ENDBRANCH   3   4
ENDBRANCH   2   3
ENDBRANCH   1   2
BRANCH   1  29
ATOM     29  C   UNL A   1      45.456  21.685  24.462  1.00  0.00     0.188 C 
BRANCH  29  30
ATOM     30  C   UNL A   1      45.039  23.164  24.520  1.00  0.00     0.188 C 
BRANCH  30  31
ATOM     31  O   UNL A   1      44.959  23.638  25.856  1.00  0.00    -0.376 OA
BRANCH  31  32
ATOM     32  C   UNL A   1      43.700  24.180  26.238  1.00  0.00     0.202 C 
BRANCH  32  33
ATOM     33  C   UNL A   1      42.983  25.126  25.254  1.00  0.00     0.261 C 
BRANCH  33  34
ATOM     34  O   UNL A   1      42.025  26.071  25.787  1.00  0.00    -0.460 OA
BRANCH  34  35
ATOM     35  C   UNL A   1      40.872  25.636  26.340  1.00  0.00     0.338 C 
ATOM     36  O   UNL A   1      40.339  24.555  26.161  1.00  0.00    -0.246 OA
BRANCH  35  37
ATOM     37  C   UNL A   1      40.480  26.601  27.409  1.00  0.00     0.060 A 
ATOM     38  C   UNL A   1      40.786  27.962  27.251  1.00  0.00     0.016 A 
ATOM     39  C   UNL A   1      39.781  26.178  28.544  1.00  0.00     0.016 A 
ATOM     40  C   UNL A   1      40.455  28.888  28.250  1.00  0.00     0.010 A 
ATOM     41  C   UNL A   1      39.473  27.098  29.556  1.00  0.00     0.010 A 
ATOM     42  C   UNL A   1      39.854  28.449  29.437  1.00  0.00    -0.014 A 
BRANCH  42  43
ATOM     43  C   UNL A   1      39.923  29.298  30.660  1.00  0.00     0.031 A 
ATOM     44  C   UNL A   1      41.041  29.005  31.633  1.00  0.00     0.074 A 
ATOM     45  C   UNL A   1      39.052  30.289  30.926  1.00  0.00     0.049 A 
ATOM     46  N   UNL A   1      41.281  29.517  32.811  1.00  0.00    -0.248 NA
ATOM     47  C   UNL A   1      42.017  27.983  31.211  1.00  0.00     0.031 C 
ATOM     48  C   UNL A   1      37.957  30.716  30.059  1.00  0.00     0.029 A 
ATOM     49  N   UNL A   1      38.950  31.111  32.025  1.00  0.00    -0.354 N 
ATOM     50  C   UNL A   1      42.423  28.872  33.276  1.00  0.00     0.074 A 
ATOM     51  C   UNL A   1      42.813  27.915  32.265  1.00  0.00     0.031 C 
ATOM     52  C   UNL A   1      37.279  31.708  30.669  1.00  0.00     0.029 A 
ATOM     53  C   UNL A   1      37.871  31.964  31.983  1.00  0.00     0.049 A 
ATOM     54  H   UNL A   1      39.590  31.090  32.772  1.00  0.00     0.167 HD
ATOM     55  C   UNL A   1      43.093  29.058  34.436  1.00  0.00     0.037 A 
ATOM     56  C   UNL A   1      37.401  32.827  32.910  1.00  0.00     0.037 A 
ATOM     57  C   UNL A   1      42.708  30.005  35.446  1.00  0.00     0.049 A 
ATOM     58  C   UNL A   1      38.121  32.970  34.231  1.00  0.00     0.074 A 
ATOM     59  C   UNL A   1      43.329  30.274  36.653  1.00  0.00     0.029 A 
ATOM     60  N   UNL A   1      41.597  30.831  35.373  1.00  0.00    -0.354 N 
ATOM     61  N   UNL A   1      39.206  32.362  34.652  1.00  0.00    -0.248 NA
ATOM     62  C   UNL A   1      37.551  33.915  35.205  1.00  0.00     0.031 C 
ATOM     63  C   UNL A   1      42.566  31.229  37.331  1.00  0.00     0.029 A 
ATOM     64  C   UNL A   1      41.502  31.596  36.522  1.00  0.00     0.049 A 
ATOM     65  H   UNL A   1      40.970  30.868  34.615  1.00  0.00     0.167 HD
ATOM     66  C   UNL A   1      39.463  32.873  35.923  1.00  0.00     0.074 A 
ATOM     67  C   UNL A   1      38.426  33.844  36.200  1.00  0.00     0.031 C 
ATOM     68  C   UNL A   1      40.470  32.569  36.781  1.00  0.00     0.037 A 
BRANCH  55  69
ATOM     69  C   UNL A   1      44.296  28.191  34.686  1.00  0.00     0.058 A 
ATOM     70  C   UNL A   1      44.178  26.893  35.208  1.00  0.00     0.135 A 
ATOM     71  C   UNL A   1      45.583  28.661  34.384  1.00  0.00     0.135 A 
ATOM     72  F   UNL A   1      42.971  26.404  35.538  1.00  0.00    -0.206 F 
ATOM     73  C   UNL A   1      45.295  26.102  35.447  1.00  0.00     0.059 A 
ATOM     74  C   UNL A   1      46.714  27.877  34.588  1.00  0.00     0.059 A 
ATOM     75  F   UNL A   1      45.753  29.899  33.891  1.00  0.00    -0.206 F 
ATOM     76  C   UNL A   1      46.560  26.604  35.132  1.00  0.00     0.060 A 
BRANCH  76  77
ATOM     77  S   UNL A   1      48.002  25.561  35.441  1.00  0.00     0.124 S 
ATOM     78  O   UNL A   1      47.385  24.245  35.574  1.00  0.00    -0.237 OA
ATOM     79  O   UNL A   1      48.800  25.769  34.238  1.00  0.00    -0.237 OA
ATOM     80  O   UNL A   1      48.566  26.116  36.668  1.00  0.00    -0.744 OA
ENDBRANCH  76  77
ENDBRANCH  55  69
BRANCH  56  81
ATOM     81  C   UNL A   1      36.166  33.616  32.639  1.00  0.00     0.058 A 
ATOM     82  C   UNL A   1      34.912  32.998  32.532  1.00  0.00     0.135 A 
ATOM     83  C   UNL A   1      36.219  35.009  32.468  1.00  0.00     0.135 A 
ATOM     84  F   UNL A   1      34.809  31.666  32.663  1.00  0.00    -0.206 F 
ATOM     85  C   UNL A   1      33.756  33.727  32.264  1.00  0.00     0.059 A 
ATOM     86  C   UNL A   1      35.075  35.763  32.224  1.00  0.00     0.059 A 
ATOM     87  F   UNL A   1      37.394  35.653  32.556  1.00  0.00    -0.206 F 
ATOM     88  C   UNL A   1      33.847  35.112  32.120  1.00  0.00     0.060 A 
BRANCH  88  89
ATOM     89  S   UNL A   1      32.333  36.059  31.847  1.00  0.00     0.124 S 
ATOM     90  O   UNL A   1      32.222  36.026  30.394  1.00  0.00    -0.237 OA
ATOM     91  O   UNL A   1      31.345  35.276  32.584  1.00  0.00    -0.237 OA
ATOM     92  O   UNL A   1      32.641  37.362  32.428  1.00  0.00    -0.744 OA
ENDBRANCH  88  89
ENDBRANCH  56  81
BRANCH  68  93
ATOM     93  C   UNL A   1      40.535  33.319  38.085  1.00  0.00     0.058 A 
ATOM     94  C   UNL A   1      41.460  34.351  38.303  1.00  0.00     0.135 A 
ATOM     95  C   UNL A   1      39.606  33.046  39.105  1.00  0.00     0.135 A 
ATOM     96  F   UNL A   1      42.368  34.652  37.362  1.00  0.00    -0.206 F 
ATOM     97  C   UNL A   1      41.478  35.072  39.493  1.00  0.00     0.059 A 
ATOM     98  C   UNL A   1      39.589  33.773  40.292  1.00  0.00     0.059 A 
ATOM     99  F   UNL A   1      38.690  32.079  38.944  1.00  0.00    -0.206 F 
ATOM    100  C   UNL A   1      40.537  34.776  40.482  1.00  0.00     0.060 A 
BRANCH 100 101
ATOM    101  S   UNL A   1      40.549  35.741  42.008  1.00  0.00     0.124 S 
ATOM    102  O   UNL A   1      41.515  35.003  42.814  1.00  0.00    -0.237 OA
ATOM    103  O   UNL A   1      40.983  37.056  41.544  1.00  0.00    -0.237 OA
ATOM    104  O   UNL A   1      39.165  35.670  42.467  1.00  0.00    -0.744 OA
ENDBRANCH 100 101
ENDBRANCH  68  93
ENDBRANCH  42  43
ENDBRANCH  35  37
ENDBRANCH  34  35
ENDBRANCH  33  34
ENDBRANCH  32  33
ENDBRANCH  31  32
ENDBRANCH  30  31
ENDBRANCH  29  30
ENDBRANCH   1  29
TORSDOF 26
ENDMDL
MODEL 2
REMARK VINA RESULT:      -9.4      5.103     12.765
REMARK SMILES O=C(C[NH+]1CCN(c2ncc(C(F)(F)F)cc2Cl)CC1)OCCOCCOCCOCCOC(=O)c1ccc(-c2c3nc(c(-c4c(F)cc(S(=O)(=O)[O-])cc4F)c4ccc([nH]4)c(-c4c(F)cc(S(=O)(=O)[O-])cc4F)c4nc(c(-c5c(F)cc(S(=O)(=O)[O-])cc5F)c5ccc2[nH]5)C=C4)C=C3)cc1
REMARK SMILES IDX 27 1 26 2 25 3 24 4 23 5 22 6 21 7 2 8 1 9 3 10 4 11 5 12
REMARK SMILES IDX 20 13 6 15 19 16 7 17 8 18 9 19 17 20 10 21 16 22 18 23
REMARK SMILES IDX 11 24 12 25 13 26 14 27 15 28 28 29 29 30 30 31 31 32 32 33
REMARK SMILES IDX 33 34 34 35 35 36 36 37 37 38 101 39 38 40 100 41 39 42
REMARK SMILES IDX 40 43 41 44 94 45 42 46 99 47 93 48 95 49 43 50 98 51 92 52
REMARK SMILES IDX 91 53 44 55 78 56 57 57 77 58 58 59 61 60 76 61 96 62 59 63
REMARK SMILES IDX 60 64 75 66 97 67 62 68 45 69 46 70 55 71 47 72 48 73 54 74
REMARK SMILES IDX 56 75 49 76 50 77 51 78 52 79 53 80 79 81 80 82 89 83 81 84
REMARK SMILES IDX 82 85 88 86 90 87 83 88 84 89 85 90 86 91 87 92 63 93 64 94
REMARK SMILES IDX 73 95 65 96 66 97 72 98 74 99 67 100 68 101 69 102 70 103
REMARK SMILES IDX 71 104
REMARK H PARENT 4 14 95 54 61 65
REMARK Flexibility Score: inf
ROOT
ATOM      1  O   UNL A   1      35.465  34.944  34.175  1.00  0.00    -0.377 OA
ENDROOT
BRANCH   1   2
ATOM      2  C   UNL A   1      36.108  33.927  33.422  1.00  0.00     0.188 C 
BRANCH   2   3
ATOM      3  C   UNL A   1      37.636  33.997  33.333  1.00  0.00     0.188 C 
BRANCH   3   4
ATOM      4  O   UNL A   1      38.164  34.889  32.375  1.00  0.00    -0.376 OA
BRANCH   4   5
ATOM      5  C   UNL A   1      39.303  34.575  31.611  1.00  0.00     0.202 C 
BRANCH   5   6
ATOM      6  C   UNL A   1      40.680  34.445  32.255  1.00  0.00     0.261 C 
BRANCH   6   7
ATOM      7  O   UNL A   1      41.783  33.777  31.578  1.00  0.00    -0.459 OA
BRANCH   7   8
ATOM      8  C   UNL A   1      42.085  32.925  30.588  1.00  0.00     0.361 C 
ATOM      9  O   UNL A   1      41.229  32.733  29.719  1.00  0.00    -0.245 OA
BRANCH   8  10
ATOM     10  C   UNL A   1      43.345  32.084  30.579  1.00  0.00     0.386 C 
BRANCH  10  11
ATOM     11  N   UNL A   1      44.216  32.065  29.398  1.00  0.00    -0.323 N 
ATOM     12  C   UNL A   1      45.610  32.571  29.458  1.00  0.00     0.284 C 
ATOM     13  C   UNL A   1      44.149  30.844  28.631  1.00  0.00     0.284 C 
ATOM     14  H   UNL A   1      43.753  32.832  28.910  1.00  0.00     0.348 HD
ATOM     15  C   UNL A   1      46.852  31.563  29.328  1.00  0.00     0.179 C 
ATOM     16  C   UNL A   1      45.186  29.853  29.125  1.00  0.00     0.179 C 
ATOM     17  N   UNL A   1      46.458  30.330  28.629  1.00  0.00    -0.344 N 
BRANCH  17  18
ATOM     18  C   UNL A   1      47.258  29.229  28.332  1.00  0.00     0.147 A 
ATOM     19  N   UNL A   1      47.951  28.636  29.327  1.00  0.00    -0.237 NA
ATOM     20  C   UNL A   1      47.115  28.586  27.069  1.00  0.00     0.084 A 
ATOM     21  C   UNL A   1      48.413  27.368  29.111  1.00  0.00     0.126 A 
ATOM     22  C   UNL A   1      47.545  27.278  26.901  1.00  0.00     0.039 A 
ATOM     23  Cl  UNL A   1      46.306  29.317  25.713  1.00  0.00    -0.080 Cl
ATOM     24  C   UNL A   1      48.201  26.637  27.947  1.00  0.00     0.075 A 
BRANCH  24  25
ATOM     25  C   UNL A   1      48.684  25.223  27.805  1.00  0.00     0.417 C 
ATOM     26  F   UNL A   1      49.360  25.030  26.650  1.00  0.00    -0.166 F 
ATOM     27  F   UNL A   1      49.474  24.833  28.835  1.00  0.00    -0.166 F 
ATOM     28  F   UNL A   1      47.646  24.331  27.782  1.00  0.00    -0.166 F 
ENDBRANCH  24  25
ENDBRANCH  17  18
ENDBRANCH  10  11
ENDBRANCH   8  10
ENDBRANCH   7   8
ENDBRANCH   6   7
ENDBRANCH   5   6
ENDBRANCH   4   5
ENDBRANCH   3   4
ENDBRANCH   2   3
ENDBRANCH   1   2
BRANCH   1  29
ATOM     29  C   UNL A   1      34.354  35.595  33.565  1.00  0.00     0.188 C 
BRANCH  29  30
ATOM     30  C   UNL A   1      34.703  36.262  32.225  1.00  0.00     0.188 C 
BRANCH  30  31
ATOM     31  O   UNL A   1      33.742  35.968  31.222  1.00  0.00    -0.376 OA
BRANCH  31  32
ATOM     32  C   UNL A   1      33.517  34.584  30.977  1.00  0.00     0.202 C 
BRANCH  32  33
ATOM     33  C   UNL A   1      34.224  33.929  29.773  1.00  0.00     0.261 C 
BRANCH  33  34
ATOM     34  O   UNL A   1      34.637  32.548  29.889  1.00  0.00    -0.460 OA
BRANCH  34  35
ATOM     35  C   UNL A   1      34.829  31.797  28.782  1.00  0.00     0.338 C 
ATOM     36  O   UNL A   1      34.228  31.889  27.726  1.00  0.00    -0.246 OA
BRANCH  35  37
ATOM     37  C   UNL A   1      36.075  31.000  28.976  1.00  0.00     0.060 A 
ATOM     38  C   UNL A   1      36.016  29.798  29.700  1.00  0.00     0.016 A 
ATOM     39  C   UNL A   1      37.290  31.409  28.416  1.00  0.00     0.016 A 
ATOM     40  C   UNL A   1      37.174  29.041  29.921  1.00  0.00     0.010 A 
ATOM     41  C   UNL A   1      38.454  30.666  28.660  1.00  0.00     0.010 A 
ATOM     42  C   UNL A   1      38.412  29.506  29.457  1.00  0.00    -0.014 A 
BRANCH  42  43
ATOM     43  C   UNL A   1      39.672  28.991  30.063  1.00  0.00     0.031 A 
ATOM     44  C   UNL A   1      40.138  29.653  31.337  1.00  0.00     0.074 A 
ATOM     45  C   UNL A   1      40.392  27.984  29.533  1.00  0.00     0.049 A 
ATOM     46  N   UNL A   1      41.238  29.473  32.020  1.00  0.00    -0.248 NA
ATOM     47  C   UNL A   1      39.233  30.666  31.911  1.00  0.00     0.031 C 
ATOM     48  C   UNL A   1      40.039  27.220  28.339  1.00  0.00     0.029 A 
ATOM     49  N   UNL A   1      41.591  27.442  29.937  1.00  0.00    -0.354 N 
ATOM     50  C   UNL A   1      41.163  30.357  33.092  1.00  0.00     0.074 A 
ATOM     51  C   UNL A   1      39.925  31.089  32.956  1.00  0.00     0.031 C 
ATOM     52  C   UNL A   1      41.012  26.321  28.094  1.00  0.00     0.029 A 
ATOM     53  C   UNL A   1      42.072  26.467  29.093  1.00  0.00     0.049 A 
ATOM     54  H   UNL A   1      42.060  27.725  30.754  1.00  0.00     0.167 HD
ATOM     55  C   UNL A   1      42.042  30.544  34.104  1.00  0.00     0.037 A 
ATOM     56  C   UNL A   1      43.244  25.795  29.110  1.00  0.00     0.037 A 
ATOM     57  C   UNL A   1      43.277  29.823  34.243  1.00  0.00     0.049 A 
ATOM     58  C   UNL A   1      44.246  26.068  30.208  1.00  0.00     0.074 A 
ATOM     59  C   UNL A   1      44.230  29.934  35.239  1.00  0.00     0.029 A 
ATOM     60  N   UNL A   1      43.735  28.862  33.354  1.00  0.00    -0.354 N 
ATOM     61  N   UNL A   1      44.157  26.898  31.222  1.00  0.00    -0.248 NA
ATOM     62  C   UNL A   1      45.509  25.315  30.164  1.00  0.00     0.031 C 
ATOM     63  C   UNL A   1      45.288  29.075  34.927  1.00  0.00     0.029 A 
ATOM     64  C   UNL A   1      44.968  28.388  33.768  1.00  0.00     0.049 A 
ATOM     65  H   UNL A   1      43.255  28.562  32.549  1.00  0.00     0.167 HD
ATOM     66  C   UNL A   1      45.336  26.744  31.948  1.00  0.00     0.074 A 
ATOM     67  C   UNL A   1      46.119  25.737  31.264  1.00  0.00     0.031 C 
ATOM     68  C   UNL A   1      45.732  27.376  33.082  1.00  0.00     0.037 A 
BRANCH  55  69
ATOM     69  C   UNL A   1      41.708  31.599  35.122  1.00  0.00     0.058 A 
ATOM     70  C   UNL A   1      42.343  32.850  35.129  1.00  0.00     0.135 A 
ATOM     71  C   UNL A   1      40.727  31.356  36.097  1.00  0.00     0.135 A 
ATOM     72  F   UNL A   1      43.308  33.124  34.235  1.00  0.00    -0.206 F 
ATOM     73  C   UNL A   1      42.037  33.815  36.081  1.00  0.00     0.059 A 
ATOM     74  C   UNL A   1      40.383  32.318  37.042  1.00  0.00     0.059 A 
ATOM     75  F   UNL A   1      40.094  30.172  36.141  1.00  0.00    -0.206 F 
ATOM     76  C   UNL A   1      41.054  33.539  37.034  1.00  0.00     0.060 A 
BRANCH  76  77
ATOM     77  S   UNL A   1      40.662  34.805  38.260  1.00  0.00     0.124 S 
ATOM     78  O   UNL A   1      39.246  35.037  37.995  1.00  0.00    -0.237 OA
ATOM     79  O   UNL A   1      40.970  34.128  39.515  1.00  0.00    -0.237 OA
ATOM     80  O   UNL A   1      41.554  35.905  37.909  1.00  0.00    -0.744 OA
ENDBRANCH  76  77
ENDBRANCH  55  69
BRANCH  56  81
ATOM     81  C   UNL A   1      43.554  24.806  28.040  1.00  0.00     0.058 A 
ATOM     82  C   UNL A   1      43.228  23.449  28.181  1.00  0.00     0.135 A 
ATOM     83  C   UNL A   1      44.198  25.198  26.855  1.00  0.00     0.135 A 
ATOM     84  F   UNL A   1      42.634  23.017  29.305  1.00  0.00    -0.206 F 
ATOM     85  C   UNL A   1      43.529  22.516  27.192  1.00  0.00     0.059 A 
ATOM     86  C   UNL A   1      44.487  24.290  25.840  1.00  0.00     0.059 A 
ATOM     87  F   UNL A   1      44.536  26.484  26.668  1.00  0.00    -0.206 F 
ATOM     88  C   UNL A   1      44.151  22.949  26.020  1.00  0.00     0.060 A 
BRANCH  88  89
ATOM     89  S   UNL A   1      44.470  21.746  24.710  1.00  0.00     0.124 S 
ATOM     90  O   UNL A   1      44.091  22.498  23.520  1.00  0.00    -0.237 OA
ATOM     91  O   UNL A   1      45.896  21.483  24.877  1.00  0.00    -0.237 OA
ATOM     92  O   UNL A   1      43.596  20.630  25.058  1.00  0.00    -0.744 OA
ENDBRANCH  88  89
ENDBRANCH  56  81
BRANCH  68  93
ATOM     93  C   UNL A   1      47.051  26.974  33.689  1.00  0.00     0.058 A 
ATOM     94  C   UNL A   1      47.176  25.846  34.514  1.00  0.00     0.135 A 
ATOM     95  C   UNL A   1      48.220  27.690  33.378  1.00  0.00     0.135 A 
ATOM     96  F   UNL A   1      46.092  25.127  34.843  1.00  0.00    -0.206 F 
ATOM     97  C   UNL A   1      48.408  25.454  35.028  1.00  0.00     0.059 A 
ATOM     98  C   UNL A   1      49.467  27.299  33.859  1.00  0.00     0.059 A 
ATOM     99  F   UNL A   1      48.161  28.768  32.581  1.00  0.00    -0.206 F 
ATOM    100  C   UNL A   1      49.550  26.187  34.693  1.00  0.00     0.060 A 
BRANCH 100 101
ATOM    101  S   UNL A   1      51.147  25.648  35.339  1.00  0.00     0.124 S 
ATOM    102  O   UNL A   1      52.058  26.576  34.679  1.00  0.00    -0.237 OA
ATOM    103  O   UNL A   1      50.983  25.835  36.777  1.00  0.00    -0.237 OA
ATOM    104  O   UNL A   1      51.240  24.259  34.900  1.00  0.00    -0.744 OA
ENDBRANCH 100 101
ENDBRANCH  68  93
ENDBRANCH  42  43
ENDBRANCH  35  37
ENDBRANCH  34  35
ENDBRANCH  33  34
ENDBRANCH  32  33
ENDBRANCH  31  32
ENDBRANCH  30  31
ENDBRANCH  29  30
ENDBRANCH   1  29
TORSDOF 26
ENDMDL
MODEL 3
REMARK VINA RESULT:      -9.2      6.209     10.411
REMARK SMILES O=C(C[NH+]1CCN(c2ncc(C(F)(F)F)cc2Cl)CC1)OCCOCCOCCOCCOC(=O)c1ccc(-c2c3nc(c(-c4c(F)cc(S(=O)(=O)[O-])cc4F)c4ccc([nH]4)c(-c4c(F)cc(S(=O)(=O)[O-])cc4F)c4nc(c(-c5c(F)cc(S(=O)(=O)[O-])cc5F)c5ccc2[nH]5)C=C4)C=C3)cc1
REMARK SMILES IDX 27 1 26 2 25 3 24 4 23 5 22 6 21 7 2 8 1 9 3 10 4 11 5 12
REMARK SMILES IDX 20 13 6 15 19 16 7 17 8 18 9 19 17 20 10 21 16 22 18 23
REMARK SMILES IDX 11 24 12 25 13 26 14 27 15 28 28 29 29 30 30 31 31 32 32 33
REMARK SMILES IDX 33 34 34 35 35 36 36 37 37 38 101 39 38 40 100 41 39 42
REMARK SMILES IDX 40 43 41 44 94 45 42 46 99 47 93 48 95 49 43 50 98 51 92 52
REMARK SMILES IDX 91 53 44 55 78 56 57 57 77 58 58 59 61 60 76 61 96 62 59 63
REMARK SMILES IDX 60 64 75 66 97 67 62 68 45 69 46 70 55 71 47 72 48 73 54 74
REMARK SMILES IDX 56 75 49 76 50 77 51 78 52 79 53 80 79 81 80 82 89 83 81 84
REMARK SMILES IDX 82 85 88 86 90 87 83 88 84 89 85 90 86 91 87 92 63 93 64 94
REMARK SMILES IDX 73 95 65 96 66 97 72 98 74 99 67 100 68 101 69 102 70 103
REMARK SMILES IDX 71 104
REMARK H PARENT 4 14 95 54 61 65
REMARK Flexibility Score: inf
ROOT
ATOM      1  O   UNL A   1      35.465  31.698  28.501  1.00  0.00    -0.377 OA
ENDROOT
BRANCH   1   2
ATOM      2  C   UNL A   1      35.043  30.646  27.646  1.00  0.00     0.188 C 
BRANCH   2   3
ATOM      3  C   UNL A   1      33.535  30.382  27.572  1.00  0.00     0.188 C 
BRANCH   3   4
ATOM      4  O   UNL A   1      33.083  29.659  26.448  1.00  0.00    -0.376 OA
BRANCH   4   5
ATOM      5  C   UNL A   1      32.149  30.195  25.543  1.00  0.00     0.202 C 
BRANCH   5   6
ATOM      6  C   UNL A   1      31.219  29.295  24.736  1.00  0.00     0.261 C 
BRANCH   6   7
ATOM      7  O   UNL A   1      31.672  28.026  24.181  1.00  0.00    -0.459 OA
BRANCH   7   8
ATOM      8  C   UNL A   1      31.259  26.904  23.574  1.00  0.00     0.361 C 
ATOM      9  O   UNL A   1      30.859  26.999  22.410  1.00  0.00    -0.245 OA
BRANCH   8  10
ATOM     10  C   UNL A   1      31.116  25.580  24.297  1.00  0.00     0.386 C 
BRANCH  10  11
ATOM     11  N   UNL A   1      32.280  24.955  24.937  1.00  0.00    -0.323 N 
ATOM     12  C   UNL A   1      32.209  24.420  26.318  1.00  0.00     0.284 C 
ATOM     13  C   UNL A   1      33.016  24.057  24.079  1.00  0.00     0.284 C 
ATOM     14  H   UNL A   1      32.797  25.821  25.091  1.00  0.00     0.348 HD
ATOM     15  C   UNL A   1      32.289  22.840  26.588  1.00  0.00     0.179 C 
ATOM     16  C   UNL A   1      32.478  22.645  24.208  1.00  0.00     0.179 C 
ATOM     17  N   UNL A   1      32.963  22.150  25.477  1.00  0.00    -0.344 N 
BRANCH  17  18
ATOM     18  C   UNL A   1      33.217  20.786  25.353  1.00  0.00     0.147 A 
ATOM     19  N   UNL A   1      32.189  19.949  25.095  1.00  0.00    -0.237 NA
ATOM     20  C   UNL A   1      34.562  20.338  25.219  1.00  0.00     0.084 A 
ATOM     21  C   UNL A   1      32.486  18.708  24.607  1.00  0.00     0.126 A 
ATOM     22  C   UNL A   1      34.830  19.093  24.667  1.00  0.00     0.039 A 
ATOM     23  Cl  UNL A   1      35.940  21.328  25.607  1.00  0.00    -0.080 Cl
ATOM     24  C   UNL A   1      33.773  18.253  24.337  1.00  0.00     0.075 A 
BRANCH  24  25
ATOM     25  C   UNL A   1      34.020  16.898  23.740  1.00  0.00     0.417 C 
ATOM     26  F   UNL A   1      32.934  16.097  23.833  1.00  0.00    -0.166 F 
ATOM     27  F   UNL A   1      34.398  16.959  22.440  1.00  0.00    -0.166 F 
ATOM     28  F   UNL A   1      35.027  16.234  24.384  1.00  0.00    -0.166 F 
ENDBRANCH  24  25
ENDBRANCH  17  18
ENDBRANCH  10  11
ENDBRANCH   8  10
ENDBRANCH   7   8
ENDBRANCH   6   7
ENDBRANCH   5   6
ENDBRANCH   4   5
ENDBRANCH   3   4
ENDBRANCH   2   3
ENDBRANCH   1   2
BRANCH   1  29
ATOM     29  C   UNL A   1      34.447  32.417  29.192  1.00  0.00     0.188 C 
BRANCH  29  30
ATOM     30  C   UNL A   1      35.002  33.443  30.192  1.00  0.00     0.188 C 
BRANCH  30  31
ATOM     31  O   UNL A   1      34.087  33.703  31.246  1.00  0.00    -0.376 OA
BRANCH  31  32
ATOM     32  C   UNL A   1      34.147  35.013  31.800  1.00  0.00     0.202 C 
BRANCH  32  33
ATOM     33  C   UNL A   1      34.605  35.167  33.264  1.00  0.00     0.261 C 
BRANCH  33  34
ATOM     34  O   UNL A   1      36.002  34.950  33.572  1.00  0.00    -0.460 OA
BRANCH  34  35
ATOM     35  C   UNL A   1      36.373  33.938  34.387  1.00  0.00     0.338 C 
ATOM     36  O   UNL A   1      35.705  33.433  35.273  1.00  0.00    -0.246 OA
BRANCH  35  37
ATOM     37  C   UNL A   1      37.646  33.365  33.862  1.00  0.00     0.060 A 
ATOM     38  C   UNL A   1      38.843  33.602  34.556  1.00  0.00     0.016 A 
ATOM     39  C   UNL A   1      37.661  32.565  32.714  1.00  0.00     0.016 A 
ATOM     40  C   UNL A   1      40.059  33.100  34.073  1.00  0.00     0.010 A 
ATOM     41  C   UNL A   1      38.880  32.085  32.216  1.00  0.00     0.010 A 
ATOM     42  C   UNL A   1      40.092  32.393  32.864  1.00  0.00    -0.014 A 
BRANCH  42  43
ATOM     43  C   UNL A   1      41.373  32.266  32.114  1.00  0.00     0.031 A 
ATOM     44  C   UNL A   1      42.173  31.004  32.337  1.00  0.00     0.074 A 
ATOM     45  C   UNL A   1      41.833  33.205  31.266  1.00  0.00     0.049 A 
ATOM     46  N   UNL A   1      43.357  30.675  31.893  1.00  0.00    -0.248 NA
ATOM     47  C   UNL A   1      41.543  29.978  33.188  1.00  0.00     0.031 C 
ATOM     48  C   UNL A   1      41.147  34.446  30.916  1.00  0.00     0.029 A 
ATOM     49  N   UNL A   1      43.010  33.259  30.554  1.00  0.00    -0.354 N 
ATOM     50  C   UNL A   1      43.619  29.414  32.421  1.00  0.00     0.074 A 
ATOM     51  C   UNL A   1      42.483  29.049  33.237  1.00  0.00     0.031 C 
ATOM     52  C   UNL A   1      41.925  35.150  30.070  1.00  0.00     0.029 A 
ATOM     53  C   UNL A   1      43.178  34.427  29.846  1.00  0.00     0.049 A 
ATOM     54  H   UNL A   1      43.670  32.529  30.552  1.00  0.00     0.167 HD
ATOM     55  C   UNL A   1      44.704  28.625  32.243  1.00  0.00     0.037 A 
ATOM     56  C   UNL A   1      44.232  34.870  29.127  1.00  0.00     0.037 A 
ATOM     57  C   UNL A   1      45.837  28.983  31.437  1.00  0.00     0.049 A 
ATOM     58  C   UNL A   1      45.465  34.006  28.998  1.00  0.00     0.074 A 
ATOM     59  C   UNL A   1      46.981  28.247  31.187  1.00  0.00     0.029 A 
ATOM     60  N   UNL A   1      45.976  30.184  30.757  1.00  0.00    -0.354 N 
ATOM     61  N   UNL A   1      45.695  32.812  29.493  1.00  0.00    -0.248 NA
ATOM     62  C   UNL A   1      46.585  34.551  28.214  1.00  0.00     0.031 C 
ATOM     63  C   UNL A   1      47.833  29.022  30.394  1.00  0.00     0.029 A 
ATOM     64  C   UNL A   1      47.196  30.218  30.104  1.00  0.00     0.049 A 
ATOM     65  H   UNL A   1      45.306  30.905  30.741  1.00  0.00     0.167 HD
ATOM     66  C   UNL A   1      46.968  32.453  29.056  1.00  0.00     0.074 A 
ATOM     67  C   UNL A   1      47.457  33.552  28.250  1.00  0.00     0.031 C 
ATOM     68  C   UNL A   1      47.667  31.314  29.296  1.00  0.00     0.037 A 
BRANCH  55  69
ATOM     69  C   UNL A   1      44.724  27.307  32.967  1.00  0.00     0.058 A 
ATOM     70  C   UNL A   1      44.261  26.126  32.367  1.00  0.00     0.135 A 
ATOM     71  C   UNL A   1      45.228  27.224  34.274  1.00  0.00     0.135 A 
ATOM     72  F   UNL A   1      43.745  26.154  31.127  1.00  0.00    -0.206 F 
ATOM     73  C   UNL A   1      44.272  24.913  33.046  1.00  0.00     0.059 A 
ATOM     74  C   UNL A   1      45.275  26.017  34.963  1.00  0.00     0.059 A 
ATOM     75  F   UNL A   1      45.675  28.326  34.898  1.00  0.00    -0.206 F 
ATOM     76  C   UNL A   1      44.783  24.869  34.345  1.00  0.00     0.060 A 
BRANCH  76  77
ATOM     77  S   UNL A   1      44.797  23.286  35.212  1.00  0.00     0.124 S 
ATOM     78  O   UNL A   1      43.374  22.965  35.254  1.00  0.00    -0.237 OA
ATOM     79  O   UNL A   1      45.609  22.455  34.330  1.00  0.00    -0.237 OA
ATOM     80  O   UNL A   1      45.405  23.608  36.499  1.00  0.00    -0.744 OA
ENDBRANCH  76  77
ENDBRANCH  55  69
BRANCH  56  81
ATOM     81  C   UNL A   1      44.186  36.213  28.483  1.00  0.00     0.058 A 
ATOM     82  C   UNL A   1      43.490  36.426  27.284  1.00  0.00     0.135 A 
ATOM     83  C   UNL A   1      44.851  37.313  29.051  1.00  0.00     0.135 A 
ATOM     84  F   UNL A   1      42.858  35.403  26.687  1.00  0.00    -0.206 F 
ATOM     85  C   UNL A   1      43.455  37.674  26.668  1.00  0.00     0.059 A 
ATOM     86  C   UNL A   1      44.810  38.576  28.468  1.00  0.00     0.059 A 
ATOM     87  F   UNL A   1      45.535  37.166  30.197  1.00  0.00    -0.206 F 
ATOM     88  C   UNL A   1      44.112  38.746  27.274  1.00  0.00     0.060 A 
BRANCH  88  89
ATOM     89  S   UNL A   1      44.000  40.379  26.509  1.00  0.00     0.124 S 
ATOM     90  O   UNL A   1      42.607  40.409  26.079  1.00  0.00    -0.237 OA
ATOM     91  O   UNL A   1      44.348  41.262  27.618  1.00  0.00    -0.237 OA
ATOM     92  O   UNL A   1      44.990  40.318  25.438  1.00  0.00    -0.744 OA
ENDBRANCH  88  89
ENDBRANCH  56  81
BRANCH  68  93
ATOM     93  C   UNL A   1      49.019  31.168  28.649  1.00  0.00     0.058 A 
ATOM     94  C   UNL A   1      49.182  30.554  27.398  1.00  0.00     0.135 A 
ATOM     95  C   UNL A   1      50.159  31.719  29.261  1.00  0.00     0.135 A 
ATOM     96  F   UNL A   1      48.127  30.012  26.770  1.00  0.00    -0.206 F 
ATOM     97  C   UNL A   1      50.429  30.469  26.787  1.00  0.00     0.059 A 
ATOM     98  C   UNL A   1      51.411  31.670  28.655  1.00  0.00     0.059 A 
ATOM     99  F   UNL A   1      50.058  32.331  30.451  1.00  0.00    -0.206 F 
ATOM    100  C   UNL A   1      51.539  31.033  27.423  1.00  0.00     0.060 A 
BRANCH 100 101
ATOM    101  S   UNL A   1      53.145  30.946  26.603  1.00  0.00     0.124 S 
ATOM    102  O   UNL A   1      53.949  30.258  27.606  1.00  0.00    -0.237 OA
ATOM    103  O   UNL A   1      52.842  30.180  25.398  1.00  0.00    -0.237 OA
ATOM    104  O   UNL A   1      53.487  32.348  26.378  1.00  0.00    -0.744 OA
ENDBRANCH 100 101
ENDBRANCH  68  93
ENDBRANCH  42  43
ENDBRANCH  35  37
ENDBRANCH  34  35
ENDBRANCH  33  34
ENDBRANCH  32  33
ENDBRANCH  31  32
ENDBRANCH  30  31
ENDBRANCH  29  30
ENDBRANCH   1  29
TORSDOF 26
ENDMDL
