MODEL 1
REMARK VINA RESULT:      -9.3      0.000      0.000
REMARK SMILES O=C(OCCOCCOCCOCCOC(=O)c1ccc(-n2cc(CSc3nc4ccccc4c(=O)n3-c3ccc(Br)cc3)nn2)cc1)c1ccc(-c2c3nc(c(-c4c(F)cc(S(=O)(=O)[O-])cc4F)c4ccc([nH]4)c(-c4c(F)cc(S(=O)(=O)[O-])cc4F)c4nc(c(-c5c(F)cc(S(=O)(=O)[O-])cc5F)c5ccc2[nH]5)C=C4)C=C3)cc1
REMARK SMILES IDX 10 1 9 2 8 3 7 4 6 5 5 6 4 7 3 8 2 9 1 10 49 11 50 12 114 13
REMARK SMILES IDX 51 14 113 15 52 16 53 17 54 18 107 19 55 20 112 21 106 22
REMARK SMILES IDX 108 23 56 24 111 25 105 26 104 27 57 29 91 30 70 31 90 32
REMARK SMILES IDX 71 33 74 34 89 35 109 36 72 37 73 38 88 40 110 41 75 42
REMARK SMILES IDX 58 43 59 44 68 45 60 46 61 47 67 48 69 49 62 50 63 51 64 52
REMARK SMILES IDX 65 53 66 54 92 55 93 56 102 57 94 58 95 59 101 60 103 61
REMARK SMILES IDX 96 62 97 63 98 64 99 65 100 66 76 67 77 68 86 69 78 70 79 71
REMARK SMILES IDX 85 72 87 73 80 74 81 75 82 76 83 77 84 78 11 79 12 80 13 81
REMARK SMILES IDX 14 82 15 83 16 84 17 85 18 86 19 87 48 88 20 89 47 90 21 91
REMARK SMILES IDX 22 92 23 93 46 94 24 95 45 96 25 97 26 98 27 99 28 100
REMARK SMILES IDX 37 101 29 102 35 103 30 104 34 105 36 106 31 107 33 108
REMARK SMILES IDX 32 109 38 110 39 111 44 112 40 113 43 114 41 115 42 116
REMARK H PARENT 108 28 74 39
REMARK Flexibility Score: inf
ROOT
ATOM      1  C   UNL A   1      40.237  32.097  31.276  1.00  0.00     0.188 C 
ENDROOT
BRANCH   1   2
ATOM      2  O   UNL A   1      40.618  30.774  31.573  1.00  0.00    -0.377 OA
BRANCH   2   3
ATOM      3  C   UNL A   1      40.465  30.436  32.940  1.00  0.00     0.188 C 
BRANCH   3   4
ATOM      4  C   UNL A   1      40.632  28.954  33.321  1.00  0.00     0.188 C 
BRANCH   4   5
ATOM      5  O   UNL A   1      41.400  28.436  34.397  1.00  0.00    -0.376 OA
BRANCH   5   6
ATOM      6  C   UNL A   1      41.472  28.783  35.764  1.00  0.00     0.202 C 
BRANCH   6   7
ATOM      7  C   UNL A   1      42.340  29.885  36.377  1.00  0.00     0.261 C 
BRANCH   7   8
ATOM      8  O   UNL A   1      43.478  30.276  35.631  1.00  0.00    -0.460 OA
BRANCH   8   9
ATOM      9  C   UNL A   1      44.611  29.565  35.459  1.00  0.00     0.338 C 
ATOM     10  O   UNL A   1      45.284  29.288  36.450  1.00  0.00    -0.246 OA
BRANCH   9  11
ATOM     11  C   UNL A   1      45.167  29.247  34.116  1.00  0.00     0.060 A 
ATOM     12  C   UNL A   1      44.778  28.188  33.287  1.00  0.00     0.016 A 
ATOM     13  C   UNL A   1      46.194  30.110  33.686  1.00  0.00     0.016 A 
ATOM     14  C   UNL A   1      45.504  27.873  32.165  1.00  0.00     0.010 A 
ATOM     15  C   UNL A   1      46.919  29.815  32.551  1.00  0.00     0.010 A 
ATOM     16  C   UNL A   1      46.634  28.622  31.895  1.00  0.00    -0.014 A 
BRANCH  16  17
ATOM     17  C   UNL A   1      47.640  27.954  31.097  1.00  0.00     0.031 A 
ATOM     18  C   UNL A   1      48.829  27.465  31.835  1.00  0.00     0.074 A 
ATOM     19  C   UNL A   1      47.382  27.848  29.777  1.00  0.00     0.049 A 
ATOM     20  N   UNL A   1      50.079  27.711  31.612  1.00  0.00    -0.248 NA
ATOM     21  C   UNL A   1      48.578  26.715  33.078  1.00  0.00     0.031 C 
ATOM     22  C   UNL A   1      46.138  28.205  29.073  1.00  0.00     0.029 A 
ATOM     23  N   UNL A   1      48.116  27.255  28.805  1.00  0.00    -0.354 N 
ATOM     24  C   UNL A   1      50.778  26.944  32.542  1.00  0.00     0.074 A 
ATOM     25  C   UNL A   1      49.817  26.501  33.519  1.00  0.00     0.031 C 
ATOM     26  C   UNL A   1      46.100  27.572  27.884  1.00  0.00     0.029 A 
ATOM     27  C   UNL A   1      47.361  26.891  27.695  1.00  0.00     0.049 A 
ATOM     28  H   UNL A   1      49.085  27.099  28.877  1.00  0.00     0.167 HD
ATOM     29  C   UNL A   1      52.038  26.492  32.300  1.00  0.00     0.037 A 
ATOM     30  C   UNL A   1      47.717  25.932  26.808  1.00  0.00     0.037 A 
ATOM     31  C   UNL A   1      52.725  27.298  31.329  1.00  0.00     0.049 A 
ATOM     32  C   UNL A   1      49.197  25.787  26.926  1.00  0.00     0.074 A 
ATOM     33  C   UNL A   1      53.113  28.623  31.280  1.00  0.00     0.029 A 
ATOM     34  N   UNL A   1      52.802  26.840  30.035  1.00  0.00    -0.354 N 
ATOM     35  N   UNL A   1      50.040  26.746  26.632  1.00  0.00    -0.248 NA
ATOM     36  C   UNL A   1      49.711  24.773  27.836  1.00  0.00     0.031 C 
ATOM     37  C   UNL A   1      52.931  29.014  29.922  1.00  0.00     0.029 A 
ATOM     38  C   UNL A   1      52.490  27.896  29.213  1.00  0.00     0.049 A 
ATOM     39  H   UNL A   1      53.035  25.927  29.751  1.00  0.00     0.167 HD
ATOM     40  C   UNL A   1      51.033  26.672  27.603  1.00  0.00     0.074 A 
ATOM     41  C   UNL A   1      50.807  25.396  28.277  1.00  0.00     0.031 C 
ATOM     42  C   UNL A   1      51.767  27.769  27.964  1.00  0.00     0.037 A 
BRANCH  29  43
ATOM     43  C   UNL A   1      52.481  25.104  32.689  1.00  0.00     0.058 A 
ATOM     44  C   UNL A   1      51.765  23.980  32.241  1.00  0.00     0.135 A 
ATOM     45  C   UNL A   1      53.429  24.862  33.712  1.00  0.00     0.135 A 
ATOM     46  F   UNL A   1      50.827  24.103  31.289  1.00  0.00    -0.206 F 
ATOM     47  C   UNL A   1      51.940  22.716  32.810  1.00  0.00     0.059 A 
ATOM     48  C   UNL A   1      53.660  23.605  34.250  1.00  0.00     0.059 A 
ATOM     49  F   UNL A   1      54.101  25.852  34.312  1.00  0.00    -0.206 F 
ATOM     50  C   UNL A   1      52.879  22.545  33.825  1.00  0.00     0.060 A 
BRANCH  50  51
ATOM     51  S   UNL A   1      53.015  20.955  34.659  1.00  0.00     0.124 S 
ATOM     52  O   UNL A   1      52.861  21.347  36.055  1.00  0.00    -0.237 OA
ATOM     53  O   UNL A   1      51.904  20.209  34.075  1.00  0.00    -0.237 OA
ATOM     54  O   UNL A   1      54.344  20.487  34.276  1.00  0.00    -0.744 OA
ENDBRANCH  50  51
ENDBRANCH  29  43
BRANCH  30  55
ATOM     55  C   UNL A   1      46.800  24.873  26.307  1.00  0.00     0.058 A 
ATOM     56  C   UNL A   1      46.767  24.515  24.953  1.00  0.00     0.135 A 
ATOM     57  C   UNL A   1      46.080  24.033  27.189  1.00  0.00     0.135 A 
ATOM     58  F   UNL A   1      47.453  25.235  24.051  1.00  0.00    -0.206 F 
ATOM     59  C   UNL A   1      46.075  23.385  24.500  1.00  0.00     0.059 A 
ATOM     60  C   UNL A   1      45.368  22.916  26.759  1.00  0.00     0.059 A 
ATOM     61  F   UNL A   1      46.111  24.221  28.517  1.00  0.00    -0.206 F 
ATOM     62  C   UNL A   1      45.385  22.586  25.414  1.00  0.00     0.060 A 
BRANCH  62  63
ATOM     63  S   UNL A   1      44.603  21.056  24.856  1.00  0.00     0.124 S 
ATOM     64  O   UNL A   1      43.283  21.151  25.468  1.00  0.00    -0.237 OA
ATOM     65  O   UNL A   1      44.645  21.201  23.405  1.00  0.00    -0.237 OA
ATOM     66  O   UNL A   1      45.468  20.011  25.400  1.00  0.00    -0.744 OA
ENDBRANCH  62  63
ENDBRANCH  30  55
BRANCH  42  67
ATOM     67  C   UNL A   1      51.609  29.032  27.152  1.00  0.00     0.058 A 
ATOM     68  C   UNL A   1      50.648  30.019  27.438  1.00  0.00     0.135 A 
ATOM     69  C   UNL A   1      52.576  29.350  26.189  1.00  0.00     0.135 A 
ATOM     70  F   UNL A   1      49.761  29.844  28.425  1.00  0.00    -0.206 F 
ATOM     71  C   UNL A   1      50.625  31.248  26.775  1.00  0.00     0.059 A 
ATOM     72  C   UNL A   1      52.592  30.582  25.534  1.00  0.00     0.059 A 
ATOM     73  F   UNL A   1      53.568  28.483  25.923  1.00  0.00    -0.206 F 
ATOM     74  C   UNL A   1      51.606  31.523  25.826  1.00  0.00     0.060 A 
BRANCH  74  75
ATOM     75  S   UNL A   1      51.640  33.156  25.052  1.00  0.00     0.124 S 
ATOM     76  O   UNL A   1      50.320  33.682  25.385  1.00  0.00    -0.237 OA
ATOM     77  O   UNL A   1      52.766  33.802  25.720  1.00  0.00    -0.237 OA
ATOM     78  O   UNL A   1      51.856  32.859  23.637  1.00  0.00    -0.744 OA
ENDBRANCH  74  75
ENDBRANCH  42  67
ENDBRANCH  16  17
ENDBRANCH   9  11
ENDBRANCH   8   9
ENDBRANCH   7   8
ENDBRANCH   6   7
ENDBRANCH   5   6
ENDBRANCH   4   5
ENDBRANCH   3   4
ENDBRANCH   2   3
ENDBRANCH   1   2
BRANCH   1  79
ATOM     79  C   UNL A   1      39.218  32.690  32.273  1.00  0.00     0.188 C 
BRANCH  79  80
ATOM     80  O   UNL A   1      37.838  32.775  31.953  1.00  0.00    -0.376 OA
BRANCH  80  81
ATOM     81  C   UNL A   1      37.239  31.801  31.114  1.00  0.00     0.202 C 
BRANCH  81  82
ATOM     82  C   UNL A   1      35.708  31.641  31.049  1.00  0.00     0.261 C 
BRANCH  82  83
ATOM     83  O   UNL A   1      35.008  32.495  30.129  1.00  0.00    -0.460 OA
BRANCH  83  84
ATOM     84  C   UNL A   1      35.510  32.580  28.874  1.00  0.00     0.338 C 
ATOM     85  O   UNL A   1      36.390  33.325  28.473  1.00  0.00    -0.246 OA
BRANCH  84  86
ATOM     86  C   UNL A   1      34.985  31.446  28.078  1.00  0.00     0.060 A 
ATOM     87  C   UNL A   1      35.875  30.409  27.753  1.00  0.00     0.018 A 
ATOM     88  C   UNL A   1      33.634  31.352  27.725  1.00  0.00     0.018 A 
ATOM     89  C   UNL A   1      35.421  29.282  27.079  1.00  0.00     0.029 A 
ATOM     90  C   UNL A   1      33.171  30.220  27.041  1.00  0.00     0.029 A 
ATOM     91  C   UNL A   1      34.075  29.199  26.709  1.00  0.00     0.066 A 
BRANCH  91  92
ATOM     92  N   UNL A   1      33.689  28.180  25.816  1.00  0.00    -0.220 N 
ATOM     93  C   UNL A   1      33.283  26.924  26.227  1.00  0.00     0.141 A 
ATOM     94  N   UNL A   1      33.991  28.152  24.508  1.00  0.00    -0.062 NA
ATOM     95  C   UNL A   1      33.483  26.104  25.146  1.00  0.00     0.093 A 
ATOM     96  N   UNL A   1      33.790  26.915  24.071  1.00  0.00    -0.134 NA
BRANCH  95  97
ATOM     97  C   UNL A   1      33.754  24.653  24.993  1.00  0.00     0.138 C 
BRANCH  97  98
ATOM     98  S   UNL A   1      35.065  23.855  24.091  1.00  0.00    -0.081 SA
BRANCH  98  99
ATOM     99  C   UNL A   1      36.328  23.153  25.052  1.00  0.00     0.176 A 
ATOM    100  N   UNL A   1      36.992  24.071  25.691  1.00  0.00    -0.223 NA
ATOM    101  N   UNL A   1      36.642  21.807  25.179  1.00  0.00    -0.255 N 
ATOM    102  C   UNL A   1      38.127  23.703  26.417  1.00  0.00     0.079 A 
ATOM    103  C   UNL A   1      38.020  21.563  25.304  1.00  0.00     0.266 A 
ATOM    104  C   UNL A   1      38.700  24.568  27.349  1.00  0.00     0.029 A 
ATOM    105  C   UNL A   1      38.773  22.514  26.128  1.00  0.00     0.066 A 
ATOM    106  O   UNL A   1      38.649  20.663  24.751  1.00  0.00    -0.268 OA
ATOM    107  C   UNL A   1      39.939  24.261  27.923  1.00  0.00     0.002 A 
ATOM    108  C   UNL A   1      40.037  22.217  26.644  1.00  0.00     0.016 A 
ATOM    109  C   UNL A   1      40.624  23.104  27.541  1.00  0.00     0.001 A 
BRANCH 101 110
ATOM    110  C   UNL A   1      35.746  20.665  25.088  1.00  0.00     0.051 A 
ATOM    111  C   UNL A   1      36.276  19.363  24.940  1.00  0.00     0.028 A 
ATOM    112  C   UNL A   1      34.351  20.746  25.127  1.00  0.00     0.028 A 
ATOM    113  C   UNL A   1      35.481  18.261  24.609  1.00  0.00     0.018 A 
ATOM    114  C   UNL A   1      33.544  19.661  24.748  1.00  0.00     0.018 A 
ATOM    115  C   UNL A   1      34.118  18.433  24.448  1.00  0.00     0.018 A 
ATOM    116  Br  UNL A   1      33.054  17.006  23.828  1.00  0.00    -0.051 Br
ENDBRANCH 101 110
ENDBRANCH  98  99
ENDBRANCH  97  98
ENDBRANCH  95  97
ENDBRANCH  91  92
ENDBRANCH  84  86
ENDBRANCH  83  84
ENDBRANCH  82  83
ENDBRANCH  81  82
ENDBRANCH  80  81
ENDBRANCH  79  80
ENDBRANCH   1  79
TORSDOF 28
ENDMDL
MODEL 2
REMARK VINA RESULT:      -9.0      5.054     10.562
REMARK SMILES O=C(OCCOCCOCCOCCOC(=O)c1ccc(-n2cc(CSc3nc4ccccc4c(=O)n3-c3ccc(Br)cc3)nn2)cc1)c1ccc(-c2c3nc(c(-c4c(F)cc(S(=O)(=O)[O-])cc4F)c4ccc([nH]4)c(-c4c(F)cc(S(=O)(=O)[O-])cc4F)c4nc(c(-c5c(F)cc(S(=O)(=O)[O-])cc5F)c5ccc2[nH]5)C=C4)C=C3)cc1
REMARK SMILES IDX 10 1 9 2 8 3 7 4 6 5 5 6 4 7 3 8 2 9 1 10 49 11 50 12 114 13
REMARK SMILES IDX 51 14 113 15 52 16 53 17 54 18 107 19 55 20 112 21 106 22
REMARK SMILES IDX 108 23 56 24 111 25 105 26 104 27 57 29 91 30 70 31 90 32
REMARK SMILES IDX 71 33 74 34 89 35 109 36 72 37 73 38 88 40 110 41 75 42
REMARK SMILES IDX 58 43 59 44 68 45 60 46 61 47 67 48 69 49 62 50 63 51 64 52
REMARK SMILES IDX 65 53 66 54 92 55 93 56 102 57 94 58 95 59 101 60 103 61
REMARK SMILES IDX 96 62 97 63 98 64 99 65 100 66 76 67 77 68 86 69 78 70 79 71
REMARK SMILES IDX 85 72 87 73 80 74 81 75 82 76 83 77 84 78 11 79 12 80 13 81
REMARK SMILES IDX 14 82 15 83 16 84 17 85 18 86 19 87 48 88 20 89 47 90 21 91
REMARK SMILES IDX 22 92 23 93 46 94 24 95 45 96 25 97 26 98 27 99 28 100
REMARK SMILES IDX 37 101 29 102 35 103 30 104 34 105 36 106 31 107 33 108
REMARK SMILES IDX 32 109 38 110 39 111 44 112 40 113 43 114 41 115 42 116
REMARK H PARENT 108 28 74 39
REMARK Flexibility Score: inf
ROOT
ATOM      1  C   UNL A   1      41.839  23.704  28.386  1.00  0.00     0.188 C 
ENDROOT
BRANCH   1   2
ATOM      2  O   UNL A   1      41.567  22.843  27.305  1.00  0.00    -0.377 OA
BRANCH   2   3
ATOM      3  C   UNL A   1      40.518  21.927  27.563  1.00  0.00     0.188 C 
BRANCH   3   4
ATOM      4  C   UNL A   1      40.782  20.446  27.236  1.00  0.00     0.188 C 
BRANCH   4   5
ATOM      5  O   UNL A   1      42.029  19.771  27.299  1.00  0.00    -0.376 OA
BRANCH   5   6
ATOM      6  C   UNL A   1      42.565  18.697  26.556  1.00  0.00     0.202 C 
BRANCH   6   7
ATOM      7  C   UNL A   1      43.443  18.805  25.306  1.00  0.00     0.261 C 
BRANCH   7   8
ATOM      8  O   UNL A   1      43.552  20.091  24.725  1.00  0.00    -0.460 OA
BRANCH   8   9
ATOM      9  C   UNL A   1      44.673  20.665  24.243  1.00  0.00     0.338 C 
ATOM     10  O   UNL A   1      45.447  19.972  23.584  1.00  0.00    -0.246 OA
BRANCH   9  11
ATOM     11  C   UNL A   1      45.097  22.043  24.611  1.00  0.00     0.060 A 
ATOM     12  C   UNL A   1      46.367  22.599  24.418  1.00  0.00     0.016 A 
ATOM     13  C   UNL A   1      44.096  22.821  25.225  1.00  0.00     0.016 A 
ATOM     14  C   UNL A   1      46.698  23.805  24.985  1.00  0.00     0.010 A 
ATOM     15  C   UNL A   1      44.411  24.042  25.782  1.00  0.00     0.010 A 
ATOM     16  C   UNL A   1      45.744  24.437  25.761  1.00  0.00    -0.014 A 
BRANCH  16  17
ATOM     17  C   UNL A   1      46.266  25.349  26.756  1.00  0.00     0.031 A 
ATOM     18  C   UNL A   1      45.684  25.223  28.114  1.00  0.00     0.074 A 
ATOM     19  C   UNL A   1      47.221  26.205  26.341  1.00  0.00     0.049 A 
ATOM     20  N   UNL A   1      45.129  26.133  28.847  1.00  0.00    -0.248 NA
ATOM     21  C   UNL A   1      45.578  23.861  28.668  1.00  0.00     0.031 C 
ATOM     22  C   UNL A   1      47.898  26.231  25.032  1.00  0.00     0.029 A 
ATOM     23  N   UNL A   1      47.904  27.137  27.048  1.00  0.00    -0.354 N 
ATOM     24  C   UNL A   1      44.831  25.505  30.054  1.00  0.00     0.074 A 
ATOM     25  C   UNL A   1      44.959  24.089  29.826  1.00  0.00     0.031 C 
ATOM     26  C   UNL A   1      49.053  26.915  25.139  1.00  0.00     0.029 A 
ATOM     27  C   UNL A   1      49.121  27.481  26.468  1.00  0.00     0.049 A 
ATOM     28  H   UNL A   1      47.573  27.531  27.887  1.00  0.00     0.167 HD
ATOM     29  C   UNL A   1      44.769  26.191  31.226  1.00  0.00     0.037 A 
ATOM     30  C   UNL A   1      50.164  28.021  27.141  1.00  0.00     0.037 A 
ATOM     31  C   UNL A   1      44.497  27.587  31.023  1.00  0.00     0.049 A 
ATOM     32  C   UNL A   1      49.587  28.650  28.364  1.00  0.00     0.074 A 
ATOM     33  C   UNL A   1      43.443  28.291  30.473  1.00  0.00     0.029 A 
ATOM     34  N   UNL A   1      45.545  28.474  31.083  1.00  0.00    -0.354 N 
ATOM     35  N   UNL A   1      48.746  29.654  28.331  1.00  0.00    -0.248 NA
ATOM     36  C   UNL A   1      49.549  27.854  29.583  1.00  0.00     0.031 C 
ATOM     37  C   UNL A   1      44.043  29.390  29.795  1.00  0.00     0.029 A 
ATOM     38  C   UNL A   1      45.420  29.322  30.009  1.00  0.00     0.049 A 
ATOM     39  H   UNL A   1      46.252  28.498  31.767  1.00  0.00     0.167 HD
ATOM     40  C   UNL A   1      47.818  29.388  29.333  1.00  0.00     0.074 A 
ATOM     41  C   UNL A   1      48.404  28.300  30.110  1.00  0.00     0.031 C 
ATOM     42  C   UNL A   1      46.540  29.873  29.274  1.00  0.00     0.037 A 
BRANCH  29  43
ATOM     43  C   UNL A   1      45.326  25.634  32.512  1.00  0.00     0.058 A 
ATOM     44  C   UNL A   1      44.519  25.562  33.662  1.00  0.00     0.135 A 
ATOM     45  C   UNL A   1      46.710  25.420  32.718  1.00  0.00     0.135 A 
ATOM     46  F   UNL A   1      43.195  25.770  33.581  1.00  0.00    -0.206 F 
ATOM     47  C   UNL A   1      45.059  25.349  34.933  1.00  0.00     0.059 A 
ATOM     48  C   UNL A   1      47.259  25.149  33.963  1.00  0.00     0.059 A 
ATOM     49  F   UNL A   1      47.609  25.568  31.737  1.00  0.00    -0.206 F 
ATOM     50  C   UNL A   1      46.432  25.162  35.072  1.00  0.00     0.060 A 
BRANCH  50  51
ATOM     51  S   UNL A   1      47.154  25.025  36.716  1.00  0.00     0.124 S 
ATOM     52  O   UNL A   1      45.960  24.931  37.548  1.00  0.00    -0.237 OA
ATOM     53  O   UNL A   1      47.952  23.809  36.598  1.00  0.00    -0.237 OA
ATOM     54  O   UNL A   1      47.922  26.259  36.850  1.00  0.00    -0.744 OA
ENDBRANCH  50  51
ENDBRANCH  29  43
BRANCH  30  55
ATOM     55  C   UNL A   1      51.573  27.563  27.008  1.00  0.00     0.058 A 
ATOM     56  C   UNL A   1      51.936  26.232  27.254  1.00  0.00     0.135 A 
ATOM     57  C   UNL A   1      52.571  28.381  26.425  1.00  0.00     0.135 A 
ATOM     58  F   UNL A   1      51.039  25.377  27.771  1.00  0.00    -0.206 F 
ATOM     59  C   UNL A   1      53.204  25.735  26.930  1.00  0.00     0.059 A 
ATOM     60  C   UNL A   1      53.845  27.914  26.113  1.00  0.00     0.059 A 
ATOM     61  F   UNL A   1      52.314  29.645  26.060  1.00  0.00    -0.206 F 
ATOM     62  C   UNL A   1      54.149  26.583  26.350  1.00  0.00     0.060 A 
BRANCH  62  63
ATOM     63  S   UNL A   1      55.739  25.917  25.808  1.00  0.00     0.124 S 
ATOM     64  O   UNL A   1      55.347  24.638  25.225  1.00  0.00    -0.237 OA
ATOM     65  O   UNL A   1      56.193  26.935  24.867  1.00  0.00    -0.237 OA
ATOM     66  O   UNL A   1      56.512  25.826  27.044  1.00  0.00    -0.744 OA
ENDBRANCH  62  63
ENDBRANCH  30  55
BRANCH  42  67
ATOM     67  C   UNL A   1      46.202  30.866  28.187  1.00  0.00     0.058 A 
ATOM     68  C   UNL A   1      45.652  30.494  26.946  1.00  0.00     0.135 A 
ATOM     69  C   UNL A   1      46.246  32.236  28.476  1.00  0.00     0.135 A 
ATOM     70  F   UNL A   1      45.465  29.204  26.640  1.00  0.00    -0.206 F 
ATOM     71  C   UNL A   1      45.200  31.437  26.021  1.00  0.00     0.059 A 
ATOM     72  C   UNL A   1      45.774  33.197  27.581  1.00  0.00     0.059 A 
ATOM     73  F   UNL A   1      46.689  32.655  29.673  1.00  0.00    -0.206 F 
ATOM     74  C   UNL A   1      45.260  32.790  26.350  1.00  0.00     0.060 A 
BRANCH  74  75
ATOM     75  S   UNL A   1      44.573  34.001  25.198  1.00  0.00     0.124 S 
ATOM     76  O   UNL A   1      45.730  34.840  24.908  1.00  0.00    -0.237 OA
ATOM     77  O   UNL A   1      44.105  33.163  24.097  1.00  0.00    -0.237 OA
ATOM     78  O   UNL A   1      43.512  34.644  25.971  1.00  0.00    -0.744 OA
ENDBRANCH  74  75
ENDBRANCH  42  67
ENDBRANCH  16  17
ENDBRANCH   9  11
ENDBRANCH   8   9
ENDBRANCH   7   8
ENDBRANCH   6   7
ENDBRANCH   5   6
ENDBRANCH   4   5
ENDBRANCH   3   4
ENDBRANCH   2   3
ENDBRANCH   1   2
BRANCH   1  79
ATOM     79  C   UNL A   1      41.625  25.198  28.060  1.00  0.00     0.188 C 
BRANCH  79  80
ATOM     80  O   UNL A   1      40.332  25.784  28.106  1.00  0.00    -0.376 OA
BRANCH  80  81
ATOM     81  C   UNL A   1      40.141  27.040  28.735  1.00  0.00     0.202 C 
BRANCH  81  82
ATOM     82  C   UNL A   1      38.952  27.945  28.358  1.00  0.00     0.261 C 
BRANCH  82  83
ATOM     83  O   UNL A   1      39.212  29.356  28.286  1.00  0.00    -0.460 OA
BRANCH  83  84
ATOM     84  C   UNL A   1      38.204  30.181  28.655  1.00  0.00     0.338 C 
ATOM     85  O   UNL A   1      37.005  30.013  28.490  1.00  0.00    -0.246 OA
BRANCH  84  86
ATOM     86  C   UNL A   1      38.759  31.248  29.521  1.00  0.00     0.060 A 
ATOM     87  C   UNL A   1      39.866  30.928  30.323  1.00  0.00     0.018 A 
ATOM     88  C   UNL A   1      38.264  32.557  29.491  1.00  0.00     0.018 A 
ATOM     89  C   UNL A   1      40.480  31.908  31.092  1.00  0.00     0.029 A 
ATOM     90  C   UNL A   1      38.877  33.549  30.269  1.00  0.00     0.029 A 
ATOM     91  C   UNL A   1      39.972  33.211  31.078  1.00  0.00     0.066 A 
BRANCH  91  92
ATOM     92  N   UNL A   1      40.442  34.122  32.044  1.00  0.00    -0.220 N 
ATOM     93  C   UNL A   1      41.757  34.539  32.119  1.00  0.00     0.141 A 
ATOM     94  N   UNL A   1      39.807  34.418  33.191  1.00  0.00    -0.062 NA
ATOM     95  C   UNL A   1      41.929  34.975  33.408  1.00  0.00     0.093 A 
ATOM     96  N   UNL A   1      40.680  35.012  33.996  1.00  0.00    -0.134 NA
BRANCH  95  97
ATOM     97  C   UNL A   1      43.101  35.068  34.314  1.00  0.00     0.138 C 
BRANCH  97  98
ATOM     98  S   UNL A   1      43.309  34.376  35.941  1.00  0.00    -0.081 SA
BRANCH  98  99
ATOM     99  C   UNL A   1      41.889  34.348  36.940  1.00  0.00     0.176 A 
ATOM    100  N   UNL A   1      41.602  35.541  37.373  1.00  0.00    -0.223 NA
ATOM    101  N   UNL A   1      41.111  33.248  37.267  1.00  0.00    -0.255 N 
ATOM    102  C   UNL A   1      40.563  35.692  38.294  1.00  0.00     0.079 A 
ATOM    103  C   UNL A   1      40.598  33.294  38.574  1.00  0.00     0.266 A 
ATOM    104  C   UNL A   1      40.017  36.946  38.567  1.00  0.00     0.029 A 
ATOM    105  C   UNL A   1      40.144  34.607  39.044  1.00  0.00     0.066 A 
ATOM    106  O   UNL A   1      40.540  32.353  39.364  1.00  0.00    -0.268 OA
ATOM    107  C   UNL A   1      39.115  37.104  39.626  1.00  0.00     0.002 A 
ATOM    108  C   UNL A   1      39.293  34.753  40.141  1.00  0.00     0.016 A 
ATOM    109  C   UNL A   1      38.783  36.015  40.436  1.00  0.00     0.001 A 
BRANCH 101 110
ATOM    110  C   UNL A   1      40.873  32.050  36.476  1.00  0.00     0.051 A 
ATOM    111  C   UNL A   1      41.868  31.050  36.394  1.00  0.00     0.028 A 
ATOM    112  C   UNL A   1      39.702  31.796  35.754  1.00  0.00     0.028 A 
ATOM    113  C   UNL A   1      41.804  30.000  35.472  1.00  0.00     0.018 A 
ATOM    114  C   UNL A   1      39.645  30.776  34.790  1.00  0.00     0.018 A 
ATOM    115  C   UNL A   1      40.716  29.909  34.624  1.00  0.00     0.018 A 
ATOM    116  Br  UNL A   1      40.692  28.612  33.256  1.00  0.00    -0.051 Br
ENDBRANCH 101 110
ENDBRANCH  98  99
ENDBRANCH  97  98
ENDBRANCH  95  97
ENDBRANCH  91  92
ENDBRANCH  84  86
ENDBRANCH  83  84
ENDBRANCH  82  83
ENDBRANCH  81  82
ENDBRANCH  80  81
ENDBRANCH  79  80
ENDBRANCH   1  79
TORSDOF 28
ENDMDL
MODEL 3
REMARK VINA RESULT:      -9.0      4.801     11.124
REMARK SMILES O=C(OCCOCCOCCOCCOC(=O)c1ccc(-n2cc(CSc3nc4ccccc4c(=O)n3-c3ccc(Br)cc3)nn2)cc1)c1ccc(-c2c3nc(c(-c4c(F)cc(S(=O)(=O)[O-])cc4F)c4ccc([nH]4)c(-c4c(F)cc(S(=O)(=O)[O-])cc4F)c4nc(c(-c5c(F)cc(S(=O)(=O)[O-])cc5F)c5ccc2[nH]5)C=C4)C=C3)cc1
REMARK SMILES IDX 10 1 9 2 8 3 7 4 6 5 5 6 4 7 3 8 2 9 1 10 49 11 50 12 114 13
REMARK SMILES IDX 51 14 113 15 52 16 53 17 54 18 107 19 55 20 112 21 106 22
REMARK SMILES IDX 108 23 56 24 111 25 105 26 104 27 57 29 91 30 70 31 90 32
REMARK SMILES IDX 71 33 74 34 89 35 109 36 72 37 73 38 88 40 110 41 75 42
REMARK SMILES IDX 58 43 59 44 68 45 60 46 61 47 67 48 69 49 62 50 63 51 64 52
REMARK SMILES IDX 65 53 66 54 92 55 93 56 102 57 94 58 95 59 101 60 103 61
REMARK SMILES IDX 96 62 97 63 98 64 99 65 100 66 76 67 77 68 86 69 78 70 79 71
REMARK SMILES IDX 85 72 87 73 80 74 81 75 82 76 83 77 84 78 11 79 12 80 13 81
REMARK SMILES IDX 14 82 15 83 16 84 17 85 18 86 19 87 48 88 20 89 47 90 21 91
REMARK SMILES IDX 22 92 23 93 46 94 24 95 45 96 25 97 26 98 27 99 28 100
REMARK SMILES IDX 37 101 29 102 35 103 30 104 34 105 36 106 31 107 33 108
REMARK SMILES IDX 32 109 38 110 39 111 44 112 40 113 43 114 41 115 42 116
REMARK H PARENT 108 28 74 39
REMARK Flexibility Score: inf
ROOT
ATOM      1  C   UNL A   1      46.952  27.660  29.985  1.00  0.00     0.188 C 
ENDROOT
BRANCH   1   2
ATOM      2  O   UNL A   1      47.071  27.353  31.355  1.00  0.00    -0.377 OA
BRANCH   2   3
ATOM      3  C   UNL A   1      48.401  27.090  31.761  1.00  0.00     0.188 C 
BRANCH   3   4
ATOM      4  C   UNL A   1      48.626  25.892  32.701  1.00  0.00     0.188 C 
BRANCH   4   5
ATOM      5  O   UNL A   1      47.639  24.989  33.175  1.00  0.00    -0.376 OA
BRANCH   5   6
ATOM      6  C   UNL A   1      46.325  25.185  33.652  1.00  0.00     0.202 C 
BRANCH   6   7
ATOM      7  C   UNL A   1      45.259  24.104  33.848  1.00  0.00     0.261 C 
BRANCH   7   8
ATOM      8  O   UNL A   1      44.474  24.201  35.022  1.00  0.00    -0.460 OA
BRANCH   8   9
ATOM      9  C   UNL A   1      43.186  24.594  35.099  1.00  0.00     0.338 C 
ATOM     10  O   UNL A   1      42.307  23.740  35.000  1.00  0.00    -0.246 OA
BRANCH   9  11
ATOM     11  C   UNL A   1      42.780  26.026  35.128  1.00  0.00     0.060 A 
ATOM     12  C   UNL A   1      41.524  26.539  34.783  1.00  0.00     0.016 A 
ATOM     13  C   UNL A   1      43.795  26.916  35.533  1.00  0.00     0.016 A 
ATOM     14  C   UNL A   1      41.332  27.892  34.651  1.00  0.00     0.010 A 
ATOM     15  C   UNL A   1      43.607  28.277  35.423  1.00  0.00     0.010 A 
ATOM     16  C   UNL A   1      42.419  28.722  34.854  1.00  0.00    -0.014 A 
BRANCH  16  17
ATOM     17  C   UNL A   1      42.348  30.004  34.187  1.00  0.00     0.031 A 
ATOM     18  C   UNL A   1      41.987  31.158  35.044  1.00  0.00     0.074 A 
ATOM     19  C   UNL A   1      42.620  30.006  32.866  1.00  0.00     0.049 A 
ATOM     20  N   UNL A   1      41.031  32.016  34.891  1.00  0.00    -0.248 NA
ATOM     21  C   UNL A   1      42.704  31.284  36.326  1.00  0.00     0.031 C 
ATOM     22  C   UNL A   1      43.118  28.886  32.048  1.00  0.00     0.029 A 
ATOM     23  N   UNL A   1      42.661  31.048  32.000  1.00  0.00    -0.354 N 
ATOM     24  C   UNL A   1      41.187  32.933  35.928  1.00  0.00     0.074 A 
ATOM     25  C   UNL A   1      42.103  32.342  36.868  1.00  0.00     0.031 C 
ATOM     26  C   UNL A   1      43.669  29.368  30.918  1.00  0.00     0.029 A 
ATOM     27  C   UNL A   1      43.437  30.794  30.875  1.00  0.00     0.049 A 
ATOM     28  H   UNL A   1      42.188  31.898  32.153  1.00  0.00     0.167 HD
ATOM     29  C   UNL A   1      40.776  34.224  35.813  1.00  0.00     0.037 A 
ATOM     30  C   UNL A   1      43.997  31.752  30.098  1.00  0.00     0.037 A 
ATOM     31  C   UNL A   1      39.742  34.379  34.828  1.00  0.00     0.049 A 
ATOM     32  C   UNL A   1      43.200  32.991  30.331  1.00  0.00     0.074 A 
ATOM     33  C   UNL A   1      38.458  33.883  34.696  1.00  0.00     0.029 A 
ATOM     34  N   UNL A   1      40.086  34.855  33.586  1.00  0.00    -0.354 N 
ATOM     35  N   UNL A   1      41.933  33.103  30.017  1.00  0.00    -0.248 NA
ATOM     36  C   UNL A   1      43.665  33.915  31.356  1.00  0.00     0.031 C 
ATOM     37  C   UNL A   1      38.292  33.647  33.301  1.00  0.00     0.029 A 
ATOM     38  C   UNL A   1      39.462  34.056  32.659  1.00  0.00     0.049 A 
ATOM     39  H   UNL A   1      40.670  35.624  33.396  1.00  0.00     0.167 HD
ATOM     40  C   UNL A   1      41.360  33.825  31.059  1.00  0.00     0.074 A 
ATOM     41  C   UNL A   1      42.490  34.352  31.820  1.00  0.00     0.031 C 
ATOM     42  C   UNL A   1      40.036  33.697  31.378  1.00  0.00     0.037 A 
BRANCH  29  43
ATOM     43  C   UNL A   1      41.591  35.375  36.347  1.00  0.00     0.058 A 
ATOM     44  C   UNL A   1      42.893  35.606  35.867  1.00  0.00     0.135 A 
ATOM     45  C   UNL A   1      41.229  36.094  37.512  1.00  0.00     0.135 A 
ATOM     46  F   UNL A   1      43.345  34.958  34.781  1.00  0.00    -0.206 F 
ATOM     47  C   UNL A   1      43.789  36.447  36.531  1.00  0.00     0.059 A 
ATOM     48  C   UNL A   1      42.084  36.979  38.153  1.00  0.00     0.059 A 
ATOM     49  F   UNL A   1      40.066  35.893  38.143  1.00  0.00    -0.206 F 
ATOM     50  C   UNL A   1      43.378  37.114  37.683  1.00  0.00     0.060 A 
BRANCH  50  51
ATOM     51  S   UNL A   1      44.564  38.091  38.622  1.00  0.00     0.124 S 
ATOM     52  O   UNL A   1      43.749  38.523  39.753  1.00  0.00    -0.237 OA
ATOM     53  O   UNL A   1      45.602  37.108  38.917  1.00  0.00    -0.237 OA
ATOM     54  O   UNL A   1      44.952  39.141  37.685  1.00  0.00    -0.744 OA
ENDBRANCH  50  51
ENDBRANCH  29  43
BRANCH  30  55
ATOM     55  C   UNL A   1      45.407  31.728  29.625  1.00  0.00     0.058 A 
ATOM     56  C   UNL A   1      46.477  31.605  30.522  1.00  0.00     0.135 A 
ATOM     57  C   UNL A   1      45.730  31.611  28.252  1.00  0.00     0.135 A 
ATOM     58  F   UNL A   1      46.255  31.667  31.844  1.00  0.00    -0.206 F 
ATOM     59  C   UNL A   1      47.787  31.365  30.087  1.00  0.00     0.059 A 
ATOM     60  C   UNL A   1      47.027  31.393  27.796  1.00  0.00     0.059 A 
ATOM     61  F   UNL A   1      44.779  31.620  27.306  1.00  0.00    -0.206 F 
ATOM     62  C   UNL A   1      48.050  31.252  28.720  1.00  0.00     0.060 A 
BRANCH  62  63
ATOM     63  S   UNL A   1      49.710  30.811  28.161  1.00  0.00     0.124 S 
ATOM     64  O   UNL A   1      49.680  31.232  26.765  1.00  0.00    -0.237 OA
ATOM     65  O   UNL A   1      50.554  31.604  29.048  1.00  0.00    -0.237 OA
ATOM     66  O   UNL A   1      49.771  29.367  28.375  1.00  0.00    -0.744 OA
ENDBRANCH  62  63
ENDBRANCH  30  55
BRANCH  42  67
ATOM     67  C   UNL A   1      39.153  32.892  30.453  1.00  0.00     0.058 A 
ATOM     68  C   UNL A   1      38.921  31.514  30.616  1.00  0.00     0.135 A 
ATOM     69  C   UNL A   1      38.369  33.560  29.504  1.00  0.00     0.135 A 
ATOM     70  F   UNL A   1      39.542  30.824  31.580  1.00  0.00    -0.206 F 
ATOM     71  C   UNL A   1      37.979  30.824  29.848  1.00  0.00     0.059 A 
ATOM     72  C   UNL A   1      37.401  32.899  28.746  1.00  0.00     0.059 A 
ATOM     73  F   UNL A   1      38.486  34.890  29.352  1.00  0.00    -0.206 F 
ATOM     74  C   UNL A   1      37.219  31.527  28.917  1.00  0.00     0.060 A 
BRANCH  74  75
ATOM     75  S   UNL A   1      35.925  30.654  28.006  1.00  0.00     0.124 S 
ATOM     76  O   UNL A   1      35.004  31.734  27.669  1.00  0.00    -0.237 OA
ATOM     77  O   UNL A   1      36.661  30.076  26.884  1.00  0.00    -0.237 OA
ATOM     78  O   UNL A   1      35.422  29.682  28.974  1.00  0.00    -0.744 OA
ENDBRANCH  74  75
ENDBRANCH  42  67
ENDBRANCH  16  17
ENDBRANCH   9  11
ENDBRANCH   8   9
ENDBRANCH   7   8
ENDBRANCH   6   7
ENDBRANCH   5   6
ENDBRANCH   4   5
ENDBRANCH   3   4
ENDBRANCH   2   3
ENDBRANCH   1   2
BRANCH   1  79
ATOM     79  C   UNL A   1      46.757  26.420  29.086  1.00  0.00     0.188 C 
BRANCH  79  80
ATOM     80  O   UNL A   1      47.476  26.272  27.870  1.00  0.00    -0.376 OA
BRANCH  80  81
ATOM     81  C   UNL A   1      46.998  25.399  26.861  1.00  0.00     0.202 C 
BRANCH  81  82
ATOM     82  C   UNL A   1      46.416  24.017  27.215  1.00  0.00     0.261 C 
BRANCH  82  83
ATOM     83  O   UNL A   1      46.306  23.068  26.142  1.00  0.00    -0.460 OA
BRANCH  83  84
ATOM     84  C   UNL A   1      45.602  23.459  25.053  1.00  0.00     0.338 C 
ATOM     85  O   UNL A   1      46.010  23.583  23.908  1.00  0.00    -0.246 OA
BRANCH  84  86
ATOM     86  C   UNL A   1      44.164  23.498  25.408  1.00  0.00     0.060 A 
ATOM     87  C   UNL A   1      43.550  22.291  25.775  1.00  0.00     0.018 A 
ATOM     88  C   UNL A   1      43.449  24.700  25.464  1.00  0.00     0.018 A 
ATOM     89  C   UNL A   1      42.226  22.279  26.198  1.00  0.00     0.029 A 
ATOM     90  C   UNL A   1      42.112  24.693  25.884  1.00  0.00     0.029 A 
ATOM     91  C   UNL A   1      41.505  23.477  26.233  1.00  0.00     0.066 A 
BRANCH  91  92
ATOM     92  N   UNL A   1      40.110  23.413  26.418  1.00  0.00    -0.220 N 
ATOM     93  C   UNL A   1      39.360  22.284  26.153  1.00  0.00     0.141 A 
ATOM     94  N   UNL A   1      39.302  24.481  26.519  1.00  0.00    -0.062 NA
ATOM     95  C   UNL A   1      38.078  22.734  25.961  1.00  0.00     0.093 A 
ATOM     96  N   UNL A   1      38.056  24.066  26.326  1.00  0.00    -0.134 NA
BRANCH  95  97
ATOM     97  C   UNL A   1      36.916  22.228  25.189  1.00  0.00     0.138 C 
BRANCH  97  98
ATOM     98  S   UNL A   1      36.158  22.922  23.735  1.00  0.00    -0.081 SA
BRANCH  98  99
ATOM     99  C   UNL A   1      34.438  23.147  23.811  1.00  0.00     0.176 A 
ATOM    100  N   UNL A   1      34.104  24.329  23.382  1.00  0.00    -0.223 NA
ATOM    101  N   UNL A   1      33.487  22.235  24.247  1.00  0.00    -0.255 N 
ATOM    102  C   UNL A   1      32.772  24.734  23.488  1.00  0.00     0.079 A 
ATOM    103  C   UNL A   1      32.414  22.831  24.930  1.00  0.00     0.266 A 
ATOM    104  C   UNL A   1      32.297  25.844  22.791  1.00  0.00     0.029 A 
ATOM    105  C   UNL A   1      31.930  24.105  24.389  1.00  0.00     0.066 A 
ATOM    106  O   UNL A   1      31.882  22.407  25.955  1.00  0.00    -0.268 OA
ATOM    107  C   UNL A   1      31.018  26.346  23.056  1.00  0.00     0.002 A 
ATOM    108  C   UNL A   1      30.674  24.624  24.712  1.00  0.00     0.016 A 
ATOM    109  C   UNL A   1      30.222  25.759  24.043  1.00  0.00     0.001 A 
BRANCH 101 110
ATOM    110  C   UNL A   1      33.538  20.783  24.176  1.00  0.00     0.051 A 
ATOM    111  C   UNL A   1      32.527  20.076  23.487  1.00  0.00     0.028 A 
ATOM    112  C   UNL A   1      34.534  19.994  24.758  1.00  0.00     0.028 A 
ATOM    113  C   UNL A   1      32.383  18.688  23.581  1.00  0.00     0.018 A 
ATOM    114  C   UNL A   1      34.377  18.606  24.903  1.00  0.00     0.018 A 
ATOM    115  C   UNL A   1      33.277  17.965  24.349  1.00  0.00     0.018 A 
ATOM    116  Br  UNL A   1      33.000  16.123  24.637  1.00  0.00    -0.051 Br
ENDBRANCH 101 110
ENDBRANCH  98  99
ENDBRANCH  97  98
ENDBRANCH  95  97
ENDBRANCH  91  92
ENDBRANCH  84  86
ENDBRANCH  83  84
ENDBRANCH  82  83
ENDBRANCH  81  82
ENDBRANCH  80  81
ENDBRANCH  79  80
ENDBRANCH   1  79
TORSDOF 28
ENDMDL
