MODEL 1
REMARK VINA RESULT:      -9.3      0.000      0.000
REMARK SMILES CCc1nc(N2CC[N@H+](CC=C(C)C)[C@H](C(=O)OCCOCCOCCOCCOC(=O)c3ccc(-c4c5nc(c(-c6c(F)cc(S(=O)(=O)[O-])cc6F)c6ccc([nH]6)c(-c6c(F)cc(S(=O)(=O)[O-])cc6F)c6nc(c(-c7c(F)cc(S(=O)(=O)[O-])cc7F)c7ccc4[nH]7)C=C6)C=C5)cc3)C2)no1
REMARK SMILES IDX 25 1 24 2 23 3 22 4 21 5 20 6 19 7 18 8 16 9 17 10 15 11
REMARK SMILES IDX 6 12 7 13 99 14 8 15 9 16 5 18 3 19 4 20 101 21 100 22 2 23
REMARK SMILES IDX 1 24 10 25 11 26 12 27 13 28 14 29 26 30 27 31 28 32 29 33
REMARK SMILES IDX 30 34 31 35 32 36 33 37 34 38 98 39 35 40 97 41 36 42 37 43
REMARK SMILES IDX 38 44 91 45 39 46 96 47 90 48 92 49 40 50 95 51 89 52 88 53
REMARK SMILES IDX 41 55 75 56 54 57 74 58 55 59 58 60 73 61 93 62 56 63 57 64
REMARK SMILES IDX 72 66 94 67 59 68 42 69 43 70 52 71 44 72 45 73 51 74 53 75
REMARK SMILES IDX 46 76 47 77 48 78 49 79 50 80 76 81 77 82 86 83 78 84 79 85
REMARK SMILES IDX 85 86 87 87 80 88 81 89 82 90 83 91 84 92 60 93 61 94 70 95
REMARK SMILES IDX 62 96 63 97 69 98 71 99 64 100 65 101 66 102 67 103 68 104
REMARK H PARENT 9 17 92 54 58 65
REMARK Flexibility Score: inf
ROOT
ATOM      1  C   UNL A   1      36.490  22.442  24.806  1.00  0.00     0.188 C 
ENDROOT
BRANCH   1   2
ATOM      2  O   UNL A   1      35.321  21.691  25.036  1.00  0.00    -0.377 OA
BRANCH   2   3
ATOM      3  C   UNL A   1      34.878  21.619  26.377  1.00  0.00     0.188 C 
BRANCH   3   4
ATOM      4  C   UNL A   1      34.390  22.888  27.115  1.00  0.00     0.188 C 
BRANCH   4   5
ATOM      5  O   UNL A   1      33.440  23.652  26.389  1.00  0.00    -0.376 OA
BRANCH   5   6
ATOM      6  C   UNL A   1      32.521  24.475  27.091  1.00  0.00     0.202 C 
BRANCH   6   7
ATOM      7  C   UNL A   1      31.588  25.378  26.266  1.00  0.00     0.261 C 
BRANCH   7   8
ATOM      8  O   UNL A   1      30.550  24.734  25.497  1.00  0.00    -0.459 OA
BRANCH   8   9
ATOM      9  C   UNL A   1      30.492  24.989  24.164  1.00  0.00     0.366 C 
ATOM     10  O   UNL A   1      30.044  26.034  23.711  1.00  0.00    -0.245 OA
BRANCH   9  11
ATOM     11  C   UNL A   1      31.141  23.849  23.338  1.00  0.00     0.315 C 
ATOM     12  N   UNL A   1      32.237  21.558  23.538  1.00  0.00    -0.326 N 
ATOM     13  C   UNL A   1      33.371  22.032  22.757  1.00  0.00     0.181 C 
ATOM     14  C   UNL A   1      31.416  22.576  24.202  1.00  0.00     0.197 C 
ATOM     15  C   UNL A   1      32.948  23.212  21.859  1.00  0.00     0.285 C 
ATOM     16  N   UNL A   1      32.294  24.349  22.535  1.00  0.00    -0.317 N 
ATOM     17  H   UNL A   1      31.888  24.980  21.844  1.00  0.00     0.349 HD
BRANCH  12  18
ATOM     18  C   UNL A   1      32.187  20.253  23.904  1.00  0.00     0.266 A 
ATOM     19  C   UNL A   1      32.635  18.210  23.731  1.00  0.00     0.227 A 
ATOM     20  N   UNL A   1      32.497  19.283  22.982  1.00  0.00    -0.176 NA
ATOM     21  O   UNL A   1      32.308  18.424  25.036  1.00  0.00    -0.337 OA
ATOM     22  N   UNL A   1      32.017  19.779  25.147  1.00  0.00    -0.038 NA
BRANCH  19  23
ATOM     23  C   UNL A   1      33.270  16.904  23.414  1.00  0.00     0.097 C 
ATOM     24  C   UNL A   1      33.841  16.184  24.624  1.00  0.00     0.014 C 
ENDBRANCH  19  23
ENDBRANCH  12  18
BRANCH  16  25
ATOM     25  C   UNL A   1      33.238  25.257  23.196  1.00  0.00     0.291 C 
BRANCH  25  26
ATOM     26  C   UNL A   1      33.335  26.641  22.617  1.00  0.00     0.032 C 
ATOM     27  C   UNL A   1      33.545  27.784  23.296  1.00  0.00    -0.075 C 
ATOM     28  C   UNL A   1      33.433  29.115  22.610  1.00  0.00     0.039 C 
ATOM     29  C   UNL A   1      33.838  27.798  24.764  1.00  0.00     0.039 C 
ENDBRANCH  25  26
ENDBRANCH  16  25
ENDBRANCH   9  11
ENDBRANCH   8   9
ENDBRANCH   7   8
ENDBRANCH   6   7
ENDBRANCH   5   6
ENDBRANCH   4   5
ENDBRANCH   3   4
ENDBRANCH   2   3
ENDBRANCH   1   2
BRANCH   1  30
ATOM     30  C   UNL A   1      37.772  21.658  25.136  1.00  0.00     0.188 C 
BRANCH  30  31
ATOM     31  O   UNL A   1      38.745  22.231  25.992  1.00  0.00    -0.376 OA
BRANCH  31  32
ATOM     32  C   UNL A   1      39.882  21.541  26.480  1.00  0.00     0.202 C 
BRANCH  32  33
ATOM     33  C   UNL A   1      40.351  20.113  26.134  1.00  0.00     0.261 C 
BRANCH  33  34
ATOM     34  O   UNL A   1      41.605  19.655  26.623  1.00  0.00    -0.460 OA
BRANCH  34  35
ATOM     35  C   UNL A   1      42.649  19.753  25.776  1.00  0.00     0.338 C 
ATOM     36  O   UNL A   1      42.956  18.975  24.890  1.00  0.00    -0.246 OA
BRANCH  35  37
ATOM     37  C   UNL A   1      43.238  21.090  25.978  1.00  0.00     0.060 A 
ATOM     38  C   UNL A   1      43.459  21.534  27.289  1.00  0.00     0.016 A 
ATOM     39  C   UNL A   1      43.626  21.870  24.886  1.00  0.00     0.016 A 
ATOM     40  C   UNL A   1      44.066  22.763  27.514  1.00  0.00     0.010 A 
ATOM     41  C   UNL A   1      44.183  23.129  25.112  1.00  0.00     0.010 A 
ATOM     42  C   UNL A   1      44.377  23.588  26.427  1.00  0.00    -0.014 A 
BRANCH  42  43
ATOM     43  C   UNL A   1      44.647  25.018  26.678  1.00  0.00     0.031 A 
ATOM     44  C   UNL A   1      46.066  25.487  26.519  1.00  0.00     0.074 A 
ATOM     45  C   UNL A   1      43.663  25.875  27.002  1.00  0.00     0.049 A 
ATOM     46  N   UNL A   1      46.576  26.671  26.729  1.00  0.00    -0.248 NA
ATOM     47  C   UNL A   1      47.044  24.482  26.062  1.00  0.00     0.031 C 
ATOM     48  C   UNL A   1      42.248  25.533  27.133  1.00  0.00     0.029 A 
ATOM     49  N   UNL A   1      43.715  27.214  27.294  1.00  0.00    -0.354 N 
ATOM     50  C   UNL A   1      47.930  26.550  26.445  1.00  0.00     0.074 A 
ATOM     51  C   UNL A   1      48.171  25.178  26.063  1.00  0.00     0.031 C 
ATOM     52  C   UNL A   1      41.568  26.632  27.508  1.00  0.00     0.029 A 
ATOM     53  C   UNL A   1      42.505  27.743  27.673  1.00  0.00     0.049 A 
ATOM     54  H   UNL A   1      44.542  27.746  27.238  1.00  0.00     0.167 HD
ATOM     55  C   UNL A   1      48.885  27.504  26.498  1.00  0.00     0.037 A 
ATOM     56  C   UNL A   1      42.204  28.975  28.131  1.00  0.00     0.037 A 
ATOM     57  C   UNL A   1      48.631  28.868  26.873  1.00  0.00     0.049 A 
ATOM     58  C   UNL A   1      43.305  30.004  28.240  1.00  0.00     0.074 A 
ATOM     59  C   UNL A   1      49.526  29.921  26.930  1.00  0.00     0.029 A 
ATOM     60  N   UNL A   1      47.397  29.364  27.263  1.00  0.00    -0.354 N 
ATOM     61  N   UNL A   1      44.577  29.890  27.933  1.00  0.00    -0.248 NA
ATOM     62  C   UNL A   1      42.931  31.330  28.753  1.00  0.00     0.031 C 
ATOM     63  C   UNL A   1      48.846  31.041  27.415  1.00  0.00     0.029 A 
ATOM     64  C   UNL A   1      47.513  30.703  27.592  1.00  0.00     0.049 A 
ATOM     65  H   UNL A   1      46.563  28.843  27.299  1.00  0.00     0.167 HD
ATOM     66  C   UNL A   1      45.143  31.139  28.182  1.00  0.00     0.074 A 
ATOM     67  C   UNL A   1      44.073  31.994  28.651  1.00  0.00     0.031 C 
ATOM     68  C   UNL A   1      46.430  31.543  28.036  1.00  0.00     0.037 A 
BRANCH  55  69
ATOM     69  C   UNL A   1      50.298  27.108  26.175  1.00  0.00     0.058 A 
ATOM     70  C   UNL A   1      50.826  27.231  24.882  1.00  0.00     0.135 A 
ATOM     71  C   UNL A   1      51.156  26.674  27.199  1.00  0.00     0.135 A 
ATOM     72  F   UNL A   1      50.040  27.613  23.862  1.00  0.00    -0.206 F 
ATOM     73  C   UNL A   1      52.159  26.942  24.614  1.00  0.00     0.059 A 
ATOM     74  C   UNL A   1      52.499  26.405  26.959  1.00  0.00     0.059 A 
ATOM     75  F   UNL A   1      50.694  26.525  28.449  1.00  0.00    -0.206 F 
ATOM     76  C   UNL A   1      52.991  26.543  25.662  1.00  0.00     0.060 A 
BRANCH  76  77
ATOM     77  S   UNL A   1      54.734  26.238  25.310  1.00  0.00     0.124 S 
ATOM     78  O   UNL A   1      54.972  27.150  24.195  1.00  0.00    -0.237 OA
ATOM     79  O   UNL A   1      55.373  26.599  26.571  1.00  0.00    -0.237 OA
ATOM     80  O   UNL A   1      54.772  24.817  24.976  1.00  0.00    -0.744 OA
ENDBRANCH  76  77
ENDBRANCH  55  69
BRANCH  56  81
ATOM     81  C   UNL A   1      40.817  29.305  28.562  1.00  0.00     0.058 A 
ATOM     82  C   UNL A   1      40.471  29.377  29.920  1.00  0.00     0.135 A 
ATOM     83  C   UNL A   1      39.795  29.499  27.620  1.00  0.00     0.135 A 
ATOM     84  F   UNL A   1      41.409  29.190  30.862  1.00  0.00    -0.206 F 
ATOM     85  C   UNL A   1      39.158  29.591  30.329  1.00  0.00     0.059 A 
ATOM     86  C   UNL A   1      38.480  29.747  28.004  1.00  0.00     0.059 A 
ATOM     87  F   UNL A   1      40.069  29.451  26.307  1.00  0.00    -0.206 F 
ATOM     88  C   UNL A   1      38.169  29.770  29.362  1.00  0.00     0.060 A 
BRANCH  88  89
ATOM     89  S   UNL A   1      36.468  30.049  29.902  1.00  0.00     0.124 S 
ATOM     90  O   UNL A   1      36.429  31.504  30.009  1.00  0.00    -0.237 OA
ATOM     91  O   UNL A   1      35.700  29.468  28.805  1.00  0.00    -0.237 OA
ATOM     92  O   UNL A   1      36.393  29.321  31.164  1.00  0.00    -0.744 OA
ENDBRANCH  88  89
ENDBRANCH  56  81
BRANCH  68  93
ATOM     93  C   UNL A   1      46.748  32.984  28.330  1.00  0.00     0.058 A 
ATOM     94  C   UNL A   1      46.614  33.988  27.358  1.00  0.00     0.135 A 
ATOM     95  C   UNL A   1      47.129  33.373  29.625  1.00  0.00     0.135 A 
ATOM     96  F   UNL A   1      46.255  33.672  26.103  1.00  0.00    -0.206 F 
ATOM     97  C   UNL A   1      46.873  35.323  27.654  1.00  0.00     0.059 A 
ATOM     98  C   UNL A   1      47.359  34.705  29.950  1.00  0.00     0.059 A 
ATOM     99  F   UNL A   1      47.256  32.455  30.597  1.00  0.00    -0.206 F 
ATOM    100  C   UNL A   1      47.242  35.672  28.954  1.00  0.00     0.060 A 
BRANCH 100 101
ATOM    101  S   UNL A   1      47.542  37.411  29.330  1.00  0.00     0.124 S 
ATOM    102  O   UNL A   1      46.236  37.835  29.822  1.00  0.00    -0.237 OA
ATOM    103  O   UNL A   1      48.603  37.336  30.330  1.00  0.00    -0.237 OA
ATOM    104  O   UNL A   1      47.940  37.974  28.043  1.00  0.00    -0.744 OA
ENDBRANCH 100 101
ENDBRANCH  68  93
ENDBRANCH  42  43
ENDBRANCH  35  37
ENDBRANCH  34  35
ENDBRANCH  33  34
ENDBRANCH  32  33
ENDBRANCH  31  32
ENDBRANCH  30  31
ENDBRANCH   1  30
TORSDOF 27
ENDMDL
MODEL 2
REMARK VINA RESULT:      -9.2      6.044     10.424
REMARK SMILES CCc1nc(N2CC[N@H+](CC=C(C)C)[C@H](C(=O)OCCOCCOCCOCCOC(=O)c3ccc(-c4c5nc(c(-c6c(F)cc(S(=O)(=O)[O-])cc6F)c6ccc([nH]6)c(-c6c(F)cc(S(=O)(=O)[O-])cc6F)c6nc(c(-c7c(F)cc(S(=O)(=O)[O-])cc7F)c7ccc4[nH]7)C=C6)C=C5)cc3)C2)no1
REMARK SMILES IDX 25 1 24 2 23 3 22 4 21 5 20 6 19 7 18 8 16 9 17 10 15 11
REMARK SMILES IDX 6 12 7 13 99 14 8 15 9 16 5 18 3 19 4 20 101 21 100 22 2 23
REMARK SMILES IDX 1 24 10 25 11 26 12 27 13 28 14 29 26 30 27 31 28 32 29 33
REMARK SMILES IDX 30 34 31 35 32 36 33 37 34 38 98 39 35 40 97 41 36 42 37 43
REMARK SMILES IDX 38 44 91 45 39 46 96 47 90 48 92 49 40 50 95 51 89 52 88 53
REMARK SMILES IDX 41 55 75 56 54 57 74 58 55 59 58 60 73 61 93 62 56 63 57 64
REMARK SMILES IDX 72 66 94 67 59 68 42 69 43 70 52 71 44 72 45 73 51 74 53 75
REMARK SMILES IDX 46 76 47 77 48 78 49 79 50 80 76 81 77 82 86 83 78 84 79 85
REMARK SMILES IDX 85 86 87 87 80 88 81 89 82 90 83 91 84 92 60 93 61 94 70 95
REMARK SMILES IDX 62 96 63 97 69 98 71 99 64 100 65 101 66 102 67 103 68 104
REMARK H PARENT 9 17 92 54 58 65
REMARK Flexibility Score: inf
ROOT
ATOM      1  C   UNL A   1      35.831  22.030  25.383  1.00  0.00     0.188 C 
ENDROOT
BRANCH   1   2
ATOM      2  O   UNL A   1      35.407  21.663  26.676  1.00  0.00    -0.377 OA
BRANCH   2   3
ATOM      3  C   UNL A   1      34.327  22.402  27.212  1.00  0.00     0.188 C 
BRANCH   3   4
ATOM      4  C   UNL A   1      33.859  23.715  26.540  1.00  0.00     0.188 C 
BRANCH   4   5
ATOM      5  O   UNL A   1      32.517  24.070  26.832  1.00  0.00    -0.376 OA
BRANCH   5   6
ATOM      6  C   UNL A   1      32.135  25.437  26.809  1.00  0.00     0.202 C 
BRANCH   6   7
ATOM      7  C   UNL A   1      30.826  25.805  26.089  1.00  0.00     0.261 C 
BRANCH   7   8
ATOM      8  O   UNL A   1      30.277  24.837  25.171  1.00  0.00    -0.459 OA
BRANCH   8   9
ATOM      9  C   UNL A   1      30.485  25.028  23.842  1.00  0.00     0.366 C 
ATOM     10  O   UNL A   1      30.154  26.055  23.264  1.00  0.00    -0.245 OA
BRANCH   9  11
ATOM     11  C   UNL A   1      31.258  23.842  23.211  1.00  0.00     0.315 C 
ATOM     12  N   UNL A   1      32.315  21.585  23.742  1.00  0.00    -0.326 N 
ATOM     13  C   UNL A   1      33.556  22.019  23.117  1.00  0.00     0.181 C 
ATOM     14  C   UNL A   1      31.397  22.636  24.195  1.00  0.00     0.197 C 
ATOM     15  C   UNL A   1      33.277  23.129  22.082  1.00  0.00     0.285 C 
ATOM     16  N   UNL A   1      32.522  24.300  22.565  1.00  0.00    -0.317 N 
ATOM     17  H   UNL A   1      32.228  24.876  21.776  1.00  0.00     0.349 HD
BRANCH  12  18
ATOM     18  C   UNL A   1      32.210  20.308  24.186  1.00  0.00     0.266 A 
ATOM     19  C   UNL A   1      32.612  18.248  24.167  1.00  0.00     0.227 A 
ATOM     20  N   UNL A   1      32.542  19.274  23.346  1.00  0.00    -0.176 NA
ATOM     21  O   UNL A   1      32.223  18.554  25.437  1.00  0.00    -0.337 OA
ATOM     22  N   UNL A   1      31.963  19.920  25.446  1.00  0.00    -0.038 NA
BRANCH  19  23
ATOM     23  C   UNL A   1      33.227  16.910  23.968  1.00  0.00     0.097 C 
ATOM     24  C   UNL A   1      34.174  16.835  22.782  1.00  0.00     0.014 C 
ENDBRANCH  19  23
ENDBRANCH  12  18
BRANCH  16  25
ATOM     25  C   UNL A   1      33.347  25.265  23.300  1.00  0.00     0.291 C 
BRANCH  25  26
ATOM     26  C   UNL A   1      33.492  26.623  22.671  1.00  0.00     0.032 C 
ATOM     27  C   UNL A   1      33.676  27.791  23.312  1.00  0.00    -0.075 C 
ATOM     28  C   UNL A   1      33.617  29.093  22.566  1.00  0.00     0.039 C 
ATOM     29  C   UNL A   1      33.887  27.864  24.793  1.00  0.00     0.039 C 
ENDBRANCH  25  26
ENDBRANCH  16  25
ENDBRANCH   9  11
ENDBRANCH   8   9
ENDBRANCH   7   8
ENDBRANCH   6   7
ENDBRANCH   5   6
ENDBRANCH   4   5
ENDBRANCH   3   4
ENDBRANCH   2   3
ENDBRANCH   1   2
BRANCH   1  30
ATOM     30  C   UNL A   1      37.178  22.772  25.389  1.00  0.00     0.188 C 
BRANCH  30  31
ATOM     31  O   UNL A   1      38.242  22.292  26.190  1.00  0.00    -0.376 OA
BRANCH  31  32
ATOM     32  C   UNL A   1      39.614  22.480  25.890  1.00  0.00     0.202 C 
BRANCH  32  33
ATOM     33  C   UNL A   1      40.825  22.319  26.830  1.00  0.00     0.261 C 
BRANCH  33  34
ATOM     34  O   UNL A   1      41.162  23.377  27.718  1.00  0.00    -0.460 OA
BRANCH  34  35
ATOM     35  C   UNL A   1      41.651  24.498  27.154  1.00  0.00     0.338 C 
ATOM     36  O   UNL A   1      42.068  24.632  26.017  1.00  0.00    -0.246 OA
BRANCH  35  37
ATOM     37  C   UNL A   1      41.391  25.600  28.101  1.00  0.00     0.060 A 
ATOM     38  C   UNL A   1      42.386  26.569  28.290  1.00  0.00     0.016 A 
ATOM     39  C   UNL A   1      40.156  25.710  28.746  1.00  0.00     0.016 A 
ATOM     40  C   UNL A   1      42.152  27.651  29.130  1.00  0.00     0.010 A 
ATOM     41  C   UNL A   1      39.943  26.765  29.632  1.00  0.00     0.010 A 
ATOM     42  C   UNL A   1      40.952  27.720  29.847  1.00  0.00    -0.014 A 
BRANCH  42  43
ATOM     43  C   UNL A   1      40.872  28.632  31.006  1.00  0.00     0.031 A 
ATOM     44  C   UNL A   1      39.795  29.681  30.981  1.00  0.00     0.074 A 
ATOM     45  C   UNL A   1      41.702  28.513  32.056  1.00  0.00     0.049 A 
ATOM     46  N   UNL A   1      39.544  30.631  31.841  1.00  0.00    -0.248 NA
ATOM     47  C   UNL A   1      38.877  29.656  29.826  1.00  0.00     0.031 C 
ATOM     48  C   UNL A   1      42.746  27.500  32.202  1.00  0.00     0.029 A 
ATOM     49  N   UNL A   1      41.800  29.266  33.198  1.00  0.00    -0.354 N 
ATOM     50  C   UNL A   1      38.453  31.321  31.326  1.00  0.00     0.074 A 
ATOM     51  C   UNL A   1      38.098  30.697  30.074  1.00  0.00     0.031 C 
ATOM     52  C   UNL A   1      43.401  27.715  33.358  1.00  0.00     0.029 A 
ATOM     53  C   UNL A   1      42.842  28.895  34.015  1.00  0.00     0.049 A 
ATOM     54  H   UNL A   1      41.184  30.003  33.412  1.00  0.00     0.167 HD
ATOM     55  C   UNL A   1      37.808  32.383  31.858  1.00  0.00     0.037 A 
ATOM     56  C   UNL A   1      43.303  29.470  35.143  1.00  0.00     0.037 A 
ATOM     57  C   UNL A   1      38.168  32.991  33.110  1.00  0.00     0.049 A 
ATOM     58  C   UNL A   1      42.600  30.695  35.681  1.00  0.00     0.074 A 
ATOM     59  C   UNL A   1      37.558  34.054  33.751  1.00  0.00     0.029 A 
ATOM     60  N   UNL A   1      39.234  32.598  33.903  1.00  0.00    -0.354 N 
ATOM     61  N   UNL A   1      41.546  31.319  35.206  1.00  0.00    -0.248 NA
ATOM     62  C   UNL A   1      43.144  31.292  36.909  1.00  0.00     0.031 C 
ATOM     63  C   UNL A   1      38.294  34.344  34.903  1.00  0.00     0.029 A 
ATOM     64  C   UNL A   1      39.320  33.417  35.014  1.00  0.00     0.049 A 
ATOM     65  H   UNL A   1      39.840  31.848  33.705  1.00  0.00     0.167 HD
ATOM     66  C   UNL A   1      41.283  32.356  36.098  1.00  0.00     0.074 A 
ATOM     67  C   UNL A   1      42.279  32.267  37.145  1.00  0.00     0.031 C 
ATOM     68  C   UNL A   1      40.307  33.297  36.057  1.00  0.00     0.037 A 
BRANCH  55  69
ATOM     69  C   UNL A   1      36.669  32.978  31.082  1.00  0.00     0.058 A 
ATOM     70  C   UNL A   1      35.334  32.815  31.479  1.00  0.00     0.135 A 
ATOM     71  C   UNL A   1      36.930  33.790  29.966  1.00  0.00     0.135 A 
ATOM     72  F   UNL A   1      35.029  32.025  32.522  1.00  0.00    -0.206 F 
ATOM     73  C   UNL A   1      34.295  33.443  30.801  1.00  0.00     0.059 A 
ATOM     74  C   UNL A   1      35.908  34.448  29.288  1.00  0.00     0.059 A 
ATOM     75  F   UNL A   1      38.188  33.964  29.536  1.00  0.00    -0.206 F 
ATOM     76  C   UNL A   1      34.594  34.268  29.715  1.00  0.00     0.060 A 
BRANCH  76  77
ATOM     77  S   UNL A   1      33.240  35.128  28.888  1.00  0.00     0.124 S 
ATOM     78  O   UNL A   1      33.936  36.259  28.284  1.00  0.00    -0.237 OA
ATOM     79  O   UNL A   1      32.751  34.115  27.959  1.00  0.00    -0.237 OA
ATOM     80  O   UNL A   1      32.331  35.463  29.980  1.00  0.00    -0.744 OA
ENDBRANCH  76  77
ENDBRANCH  55  69
BRANCH  56  81
ATOM     81  C   UNL A   1      44.512  28.932  35.827  1.00  0.00     0.058 A 
ATOM     82  C   UNL A   1      44.413  27.945  36.820  1.00  0.00     0.135 A 
ATOM     83  C   UNL A   1      45.790  29.438  35.540  1.00  0.00     0.135 A 
ATOM     84  F   UNL A   1      43.213  27.434  37.139  1.00  0.00    -0.206 F 
ATOM     85  C   UNL A   1      45.527  27.507  37.528  1.00  0.00     0.059 A 
ATOM     86  C   UNL A   1      46.924  28.992  36.211  1.00  0.00     0.059 A 
ATOM     87  F   UNL A   1      45.946  30.376  34.592  1.00  0.00    -0.206 F 
ATOM     88  C   UNL A   1      46.778  28.041  37.219  1.00  0.00     0.060 A 
BRANCH  88  89
ATOM     89  S   UNL A   1      48.220  27.464  38.143  1.00  0.00     0.124 S 
ATOM     90  O   UNL A   1      49.301  28.182  37.476  1.00  0.00    -0.237 OA
ATOM     91  O   UNL A   1      47.906  27.899  39.501  1.00  0.00    -0.237 OA
ATOM     92  O   UNL A   1      48.196  26.020  37.933  1.00  0.00    -0.744 OA
ENDBRANCH  88  89
ENDBRANCH  56  81
BRANCH  68  93
ATOM     93  C   UNL A   1      40.227  34.273  37.200  1.00  0.00     0.058 A 
ATOM     94  C   UNL A   1      39.515  33.984  38.375  1.00  0.00     0.135 A 
ATOM     95  C   UNL A   1      40.929  35.488  37.141  1.00  0.00     0.135 A 
ATOM     96  F   UNL A   1      38.824  32.838  38.483  1.00  0.00    -0.206 F 
ATOM     97  C   UNL A   1      39.482  34.878  39.441  1.00  0.00     0.059 A 
ATOM     98  C   UNL A   1      40.938  36.380  38.208  1.00  0.00     0.059 A 
ATOM     99  F   UNL A   1      41.639  35.807  36.047  1.00  0.00    -0.206 F 
ATOM    100  C   UNL A   1      40.200  36.072  39.349  1.00  0.00     0.060 A 
BRANCH 100 101
ATOM    101  S   UNL A   1      40.174  37.206  40.753  1.00  0.00     0.124 S 
ATOM    102  O   UNL A   1      40.414  36.298  41.869  1.00  0.00    -0.237 OA
ATOM    103  O   UNL A   1      41.265  38.123  40.434  1.00  0.00    -0.237 OA
ATOM    104  O   UNL A   1      38.837  37.789  40.695  1.00  0.00    -0.744 OA
ENDBRANCH 100 101
ENDBRANCH  68  93
ENDBRANCH  42  43
ENDBRANCH  35  37
ENDBRANCH  34  35
ENDBRANCH  33  34
ENDBRANCH  32  33
ENDBRANCH  31  32
ENDBRANCH  30  31
ENDBRANCH   1  30
TORSDOF 27
ENDMDL
MODEL 3
REMARK VINA RESULT:      -8.5      5.466      7.529
REMARK SMILES CCc1nc(N2CC[N@H+](CC=C(C)C)[C@H](C(=O)OCCOCCOCCOCCOC(=O)c3ccc(-c4c5nc(c(-c6c(F)cc(S(=O)(=O)[O-])cc6F)c6ccc([nH]6)c(-c6c(F)cc(S(=O)(=O)[O-])cc6F)c6nc(c(-c7c(F)cc(S(=O)(=O)[O-])cc7F)c7ccc4[nH]7)C=C6)C=C5)cc3)C2)no1
REMARK SMILES IDX 25 1 24 2 23 3 22 4 21 5 20 6 19 7 18 8 16 9 17 10 15 11
REMARK SMILES IDX 6 12 7 13 99 14 8 15 9 16 5 18 3 19 4 20 101 21 100 22 2 23
REMARK SMILES IDX 1 24 10 25 11 26 12 27 13 28 14 29 26 30 27 31 28 32 29 33
REMARK SMILES IDX 30 34 31 35 32 36 33 37 34 38 98 39 35 40 97 41 36 42 37 43
REMARK SMILES IDX 38 44 91 45 39 46 96 47 90 48 92 49 40 50 95 51 89 52 88 53
REMARK SMILES IDX 41 55 75 56 54 57 74 58 55 59 58 60 73 61 93 62 56 63 57 64
REMARK SMILES IDX 72 66 94 67 59 68 42 69 43 70 52 71 44 72 45 73 51 74 53 75
REMARK SMILES IDX 46 76 47 77 48 78 49 79 50 80 76 81 77 82 86 83 78 84 79 85
REMARK SMILES IDX 85 86 87 87 80 88 81 89 82 90 83 91 84 92 60 93 61 94 70 95
REMARK SMILES IDX 62 96 63 97 69 98 71 99 64 100 65 101 66 102 67 103 68 104
REMARK H PARENT 9 17 92 54 58 65
REMARK Flexibility Score: inf
ROOT
ATOM      1  C   UNL A   1      35.768  22.947  25.806  1.00  0.00     0.188 C 
ENDROOT
BRANCH   1   2
ATOM      2  O   UNL A   1      34.988  22.090  26.606  1.00  0.00    -0.377 OA
BRANCH   2   3
ATOM      3  C   UNL A   1      33.766  22.620  27.082  1.00  0.00     0.188 C 
BRANCH   3   4
ATOM      4  C   UNL A   1      33.336  24.060  26.714  1.00  0.00     0.188 C 
BRANCH   4   5
ATOM      5  O   UNL A   1      31.989  24.364  27.041  1.00  0.00    -0.376 OA
BRANCH   5   6
ATOM      6  C   UNL A   1      31.507  25.686  26.859  1.00  0.00     0.202 C 
BRANCH   6   7
ATOM      7  C   UNL A   1      30.381  25.906  25.833  1.00  0.00     0.261 C 
BRANCH   7   8
ATOM      8  O   UNL A   1      30.128  24.847  24.887  1.00  0.00    -0.459 OA
BRANCH   8   9
ATOM      9  C   UNL A   1      30.461  25.058  23.588  1.00  0.00     0.366 C 
ATOM     10  O   UNL A   1      30.150  26.077  22.984  1.00  0.00    -0.245 OA
BRANCH   9  11
ATOM     11  C   UNL A   1      31.342  23.910  23.033  1.00  0.00     0.315 C 
ATOM     12  N   UNL A   1      32.376  21.661  23.637  1.00  0.00    -0.326 N 
ATOM     13  C   UNL A   1      33.679  22.141  23.197  1.00  0.00     0.181 C 
ATOM     14  C   UNL A   1      31.379  22.677  23.993  1.00  0.00     0.197 C 
ATOM     15  C   UNL A   1      33.511  23.277  22.166  1.00  0.00     0.285 C 
ATOM     16  N   UNL A   1      32.669  24.415  22.576  1.00  0.00    -0.317 N 
ATOM     17  H   UNL A   1      32.468  25.010  21.771  1.00  0.00     0.349 HD
BRANCH  12  18
ATOM     18  C   UNL A   1      32.247  20.369  24.027  1.00  0.00     0.266 A 
ATOM     19  C   UNL A   1      32.565  18.298  23.890  1.00  0.00     0.227 A 
ATOM     20  N   UNL A   1      32.490  19.365  23.122  1.00  0.00    -0.176 NA
ATOM     21  O   UNL A   1      32.260  18.557  25.192  1.00  0.00    -0.337 OA
ATOM     22  N   UNL A   1      32.056  19.929  25.280  1.00  0.00    -0.038 NA
BRANCH  19  23
ATOM     23  C   UNL A   1      33.115  16.950  23.594  1.00  0.00     0.097 C 
ATOM     24  C   UNL A   1      34.394  16.625  24.347  1.00  0.00     0.014 C 
ENDBRANCH  19  23
ENDBRANCH  12  18
BRANCH  16  25
ATOM     25  C   UNL A   1      33.363  25.374  23.442  1.00  0.00     0.291 C 
BRANCH  25  26
ATOM     26  C   UNL A   1      33.615  26.734  22.851  1.00  0.00     0.032 C 
ATOM     27  C   UNL A   1      33.709  27.897  23.520  1.00  0.00    -0.075 C 
ATOM     28  C   UNL A   1      33.777  29.203  22.782  1.00  0.00     0.039 C 
ATOM     29  C   UNL A   1      33.689  27.962  25.016  1.00  0.00     0.039 C 
ENDBRANCH  25  26
ENDBRANCH  16  25
ENDBRANCH   9  11
ENDBRANCH   8   9
ENDBRANCH   7   8
ENDBRANCH   6   7
ENDBRANCH   5   6
ENDBRANCH   4   5
ENDBRANCH   3   4
ENDBRANCH   2   3
ENDBRANCH   1   2
BRANCH   1  30
ATOM     30  C   UNL A   1      37.269  22.858  26.131  1.00  0.00     0.188 C 
BRANCH  30  31
ATOM     31  O   UNL A   1      37.938  21.614  26.031  1.00  0.00    -0.376 OA
BRANCH  31  32
ATOM     32  C   UNL A   1      39.324  21.472  25.774  1.00  0.00     0.202 C 
BRANCH  32  33
ATOM     33  C   UNL A   1      40.254  20.311  26.181  1.00  0.00     0.261 C 
BRANCH  33  34
ATOM     34  O   UNL A   1      41.359  20.571  27.036  1.00  0.00    -0.460 OA
BRANCH  34  35
ATOM     35  C   UNL A   1      42.441  21.132  26.462  1.00  0.00     0.338 C 
ATOM     36  O   UNL A   1      42.903  20.887  25.361  1.00  0.00    -0.246 OA
BRANCH  35  37
ATOM     37  C   UNL A   1      42.847  22.258  27.325  1.00  0.00     0.060 A 
ATOM     38  C   UNL A   1      44.122  22.812  27.149  1.00  0.00     0.016 A 
ATOM     39  C   UNL A   1      41.955  22.801  28.254  1.00  0.00     0.016 A 
ATOM     40  C   UNL A   1      44.514  23.909  27.905  1.00  0.00     0.010 A 
ATOM     41  C   UNL A   1      42.370  23.867  29.052  1.00  0.00     0.010 A 
ATOM     42  C   UNL A   1      43.661  24.403  28.898  1.00  0.00    -0.014 A 
BRANCH  42  43
ATOM     43  C   UNL A   1      44.222  25.288  29.938  1.00  0.00     0.031 A 
ATOM     44  C   UNL A   1      44.391  26.740  29.586  1.00  0.00     0.074 A 
ATOM     45  C   UNL A   1      44.540  24.828  31.160  1.00  0.00     0.049 A 
ATOM     46  N   UNL A   1      44.905  27.709  30.293  1.00  0.00    -0.248 NA
ATOM     47  C   UNL A   1      43.916  27.153  28.252  1.00  0.00     0.031 C 
ATOM     48  C   UNL A   1      44.369  23.450  31.619  1.00  0.00     0.029 A 
ATOM     49  N   UNL A   1      45.088  25.477  32.237  1.00  0.00    -0.354 N 
ATOM     50  C   UNL A   1      44.828  28.840  29.488  1.00  0.00     0.074 A 
ATOM     51  C   UNL A   1      44.235  28.439  28.235  1.00  0.00     0.031 C 
ATOM     52  C   UNL A   1      44.832  23.352  32.879  1.00  0.00     0.029 A 
ATOM     53  C   UNL A   1      45.358  24.649  33.300  1.00  0.00     0.049 A 
ATOM     54  H   UNL A   1      45.271  26.444  32.247  1.00  0.00     0.167 HD
ATOM     55  C   UNL A   1      45.219  30.101  29.776  1.00  0.00     0.037 A 
ATOM     56  C   UNL A   1      45.989  24.912  34.462  1.00  0.00     0.037 A 
ATOM     57  C   UNL A   1      45.803  30.488  31.032  1.00  0.00     0.049 A 
ATOM     58  C   UNL A   1      46.472  26.318  34.731  1.00  0.00     0.074 A 
ATOM     59  C   UNL A   1      46.207  31.748  31.435  1.00  0.00     0.029 A 
ATOM     60  N   UNL A   1      46.073  29.622  32.079  1.00  0.00    -0.354 N 
ATOM     61  N   UNL A   1      46.362  27.389  33.979  1.00  0.00    -0.248 NA
ATOM     62  C   UNL A   1      47.162  26.554  36.008  1.00  0.00     0.031 C 
ATOM     63  C   UNL A   1      46.780  31.634  32.704  1.00  0.00     0.029 A 
ATOM     64  C   UNL A   1      46.668  30.315  33.119  1.00  0.00     0.049 A 
ATOM     65  H   UNL A   1      45.872  28.659  32.084  1.00  0.00     0.167 HD
ATOM     66  C   UNL A   1      46.935  28.428  34.708  1.00  0.00     0.074 A 
ATOM     67  C   UNL A   1      47.378  27.861  35.963  1.00  0.00     0.031 C 
ATOM     68  C   UNL A   1      47.082  29.734  34.371  1.00  0.00     0.037 A 
BRANCH  55  69
ATOM     69  C   UNL A   1      45.062  31.149  28.713  1.00  0.00     0.058 A 
ATOM     70  C   UNL A   1      43.894  31.916  28.594  1.00  0.00     0.135 A 
ATOM     71  C   UNL A   1      46.133  31.440  27.852  1.00  0.00     0.135 A 
ATOM     72  F   UNL A   1      42.831  31.658  29.373  1.00  0.00    -0.206 F 
ATOM     73  C   UNL A   1      43.794  32.942  27.660  1.00  0.00     0.059 A 
ATOM     74  C   UNL A   1      46.064  32.479  26.929  1.00  0.00     0.059 A 
ATOM     75  F   UNL A   1      47.265  30.724  27.915  1.00  0.00    -0.206 F 
ATOM     76  C   UNL A   1      44.889  33.224  26.841  1.00  0.00     0.060 A 
BRANCH  76  77
ATOM     77  S   UNL A   1      44.766  34.602  25.683  1.00  0.00     0.124 S 
ATOM     78  O   UNL A   1      45.733  34.213  24.660  1.00  0.00    -0.237 OA
ATOM     79  O   UNL A   1      43.364  34.546  25.283  1.00  0.00    -0.237 OA
ATOM     80  O   UNL A   1      45.140  35.760  26.489  1.00  0.00    -0.744 OA
ENDBRANCH  76  77
ENDBRANCH  55  69
BRANCH  56  81
ATOM     81  C   UNL A   1      46.242  23.825  35.448  1.00  0.00     0.058 A 
ATOM     82  C   UNL A   1      47.312  22.930  35.292  1.00  0.00     0.135 A 
ATOM     83  C   UNL A   1      45.383  23.625  36.540  1.00  0.00     0.135 A 
ATOM     84  F   UNL A   1      48.158  23.071  34.259  1.00  0.00    -0.206 F 
ATOM     85  C   UNL A   1      47.499  21.856  36.156  1.00  0.00     0.059 A 
ATOM     86  C   UNL A   1      45.568  22.578  37.438  1.00  0.00     0.059 A 
ATOM     87  F   UNL A   1      44.350  24.457  36.746  1.00  0.00    -0.206 F 
ATOM     88  C   UNL A   1      46.617  21.686  37.225  1.00  0.00     0.060 A 
BRANCH  88  89
ATOM     89  S   UNL A   1      46.868  20.291  38.343  1.00  0.00     0.124 S 
ATOM     90  O   UNL A   1      48.189  19.824  37.939  1.00  0.00    -0.237 OA
ATOM     91  O   UNL A   1      46.789  20.930  39.653  1.00  0.00    -0.237 OA
ATOM     92  O   UNL A   1      45.758  19.400  38.021  1.00  0.00    -0.744 OA
ENDBRANCH  88  89
ENDBRANCH  56  81
BRANCH  68  93
ATOM     93  C   UNL A   1      47.695  30.655  35.391  1.00  0.00     0.058 A 
ATOM     94  C   UNL A   1      46.934  31.245  36.412  1.00  0.00     0.135 A 
ATOM     95  C   UNL A   1      49.079  30.896  35.382  1.00  0.00     0.135 A 
ATOM     96  F   UNL A   1      45.607  31.050  36.466  1.00  0.00    -0.206 F 
ATOM     97  C   UNL A   1      47.520  32.063  37.374  1.00  0.00     0.059 A 
ATOM     98  C   UNL A   1      49.690  31.682  36.353  1.00  0.00     0.059 A 
ATOM     99  F   UNL A   1      49.856  30.344  34.438  1.00  0.00    -0.206 F 
ATOM    100  C   UNL A   1      48.900  32.273  37.337  1.00  0.00     0.060 A 
BRANCH 100 101
ATOM    101  S   UNL A   1      49.651  33.309  38.611  1.00  0.00     0.124 S 
ATOM    102  O   UNL A   1      50.973  32.707  38.738  1.00  0.00    -0.237 OA
ATOM    103  O   UNL A   1      49.612  34.633  37.997  1.00  0.00    -0.237 OA
ATOM    104  O   UNL A   1      48.767  33.130  39.759  1.00  0.00    -0.744 OA
ENDBRANCH 100 101
ENDBRANCH  68  93
ENDBRANCH  42  43
ENDBRANCH  35  37
ENDBRANCH  34  35
ENDBRANCH  33  34
ENDBRANCH  32  33
ENDBRANCH  31  32
ENDBRANCH  30  31
ENDBRANCH   1  30
TORSDOF 27
ENDMDL
