MODEL 1
REMARK VINA RESULT:      -8.9      0.000      0.000
REMARK SMILES NS(=O)(=O)c1ccc(-n2nc(C(=O)NCCCC(=O)OCCOCCOCCOCCOC(=O)c3ccc(-c4c5nc(c(-c6c(F)cc(S(=O)(=O)[O-])cc6F)c6ccc([nH]6)c(-c6c(F)cc(S(=O)(=O)[O-])cc6F)c6nc(c(-c7c(F)cc(S(=O)(=O)[O-])cc7F)c7ccc4[nH]7)C=C6)C=C5)cc3)cc2-c2ccccc2)cc1
REMARK SMILES IDX 24 1 23 2 22 3 21 4 20 5 18 6 19 7 17 8 16 9 15 10 14 11
REMARK SMILES IDX 12 12 13 13 11 15 9 16 10 17 102 18 101 19 8 20 5 21 6 22
REMARK SMILES IDX 110 23 7 24 109 25 2 26 3 27 4 28 1 29 103 32 104 33 108 34
REMARK SMILES IDX 105 35 107 36 106 37 25 38 26 39 27 40 28 41 29 42 30 43
REMARK SMILES IDX 31 44 32 45 33 46 34 47 35 48 36 49 100 50 37 51 99 52 38 53
REMARK SMILES IDX 39 54 40 55 93 56 41 57 98 58 92 59 94 60 42 61 97 62 91 63
REMARK SMILES IDX 90 64 43 66 77 67 56 68 76 69 57 70 60 71 75 72 95 73 58 74
REMARK SMILES IDX 59 75 74 77 96 78 61 79 44 80 45 81 54 82 46 83 47 84 53 85
REMARK SMILES IDX 55 86 48 87 49 88 50 89 51 90 52 91 78 92 79 93 88 94 80 95
REMARK SMILES IDX 81 96 87 97 89 98 82 99 83 100 84 101 85 102 86 103 62 104
REMARK SMILES IDX 63 105 72 106 64 107 65 108 71 109 73 110 66 111 67 112
REMARK SMILES IDX 68 113 69 114 70 115
REMARK H PARENT 14 14 1 30 1 31 94 65 60 76
REMARK Flexibility Score: inf
ROOT
ATOM      1  C   UNL A   1      35.550  30.076  28.503  1.00  0.00     0.188 C 
ENDROOT
BRANCH   1   2
ATOM      2  O   UNL A   1      34.991  30.600  27.303  1.00  0.00    -0.376 OA
BRANCH   2   3
ATOM      3  C   UNL A   1      33.651  31.069  27.286  1.00  0.00     0.202 C 
BRANCH   3   4
ATOM      4  C   UNL A   1      32.559  30.206  26.644  1.00  0.00     0.261 C 
BRANCH   4   5
ATOM      5  O   UNL A   1      32.808  28.787  26.639  1.00  0.00    -0.463 OA
BRANCH   5   6
ATOM      6  C   UNL A   1      31.750  27.995  26.912  1.00  0.00     0.305 C 
ATOM      7  O   UNL A   1      31.384  27.693  28.044  1.00  0.00    -0.252 OA
BRANCH   6   8
ATOM      8  C   UNL A   1      31.037  27.446  25.691  1.00  0.00     0.124 C 
BRANCH   8   9
ATOM      9  C   UNL A   1      31.760  26.876  24.469  1.00  0.00     0.033 C 
BRANCH   9  10
ATOM     10  C   UNL A   1      30.946  26.324  23.297  1.00  0.00     0.117 C 
BRANCH  10  11
ATOM     11  N   UNL A   1      31.729  26.188  22.092  1.00  0.00    -0.351 N 
ATOM     12  C   UNL A   1      32.774  25.352  21.766  1.00  0.00     0.271 C 
ATOM     13  O   UNL A   1      33.322  25.596  20.687  1.00  0.00    -0.267 OA
ATOM     14  H   UNL A   1      31.468  26.806  21.371  1.00  0.00     0.163 HD
BRANCH  12  15
ATOM     15  C   UNL A   1      33.216  24.237  22.639  1.00  0.00     0.151 A 
ATOM     16  N   UNL A   1      34.554  23.211  23.961  1.00  0.00    -0.232 N 
ATOM     17  N   UNL A   1      34.243  24.438  23.492  1.00  0.00    -0.162 NA
ATOM     18  C   UNL A   1      33.531  22.300  23.741  1.00  0.00     0.075 A 
ATOM     19  C   UNL A   1      32.761  22.887  22.751  1.00  0.00     0.065 A 
BRANCH  16  20
ATOM     20  C   UNL A   1      35.782  22.963  24.625  1.00  0.00     0.065 A 
ATOM     21  C   UNL A   1      38.323  22.661  25.699  1.00  0.00     0.082 A 
ATOM     22  C   UNL A   1      37.542  23.751  26.087  1.00  0.00     0.024 A 
ATOM     23  C   UNL A   1      37.826  21.699  24.811  1.00  0.00     0.024 A 
ATOM     24  C   UNL A   1      36.270  23.905  25.546  1.00  0.00     0.030 A 
ATOM     25  C   UNL A   1      36.534  21.834  24.291  1.00  0.00     0.030 A 
BRANCH  21  26
ATOM     26  S   UNL A   1      39.975  22.566  26.317  1.00  0.00     0.238 S 
ATOM     27  O   UNL A   1      40.411  23.877  26.676  1.00  0.00    -0.207 OA
ATOM     28  O   UNL A   1      40.739  21.672  25.455  1.00  0.00    -0.207 OA
BRANCH  26  29
ATOM     29  N   UNL A   1      39.829  21.712  27.763  1.00  0.00    -0.225 NA
ATOM     30  H   UNL A   1      39.301  20.856  27.601  1.00  0.00     0.137 HD
ATOM     31  H   UNL A   1      39.342  22.289  28.450  1.00  0.00     0.137 HD
ENDBRANCH  26  29
ENDBRANCH  21  26
ENDBRANCH  16  20
BRANCH  18  32
ATOM     32  C   UNL A   1      33.387  21.047  24.496  1.00  0.00     0.000 A 
ATOM     33  C   UNL A   1      33.518  19.813  23.829  1.00  0.00     0.010 A 
ATOM     34  C   UNL A   1      33.054  21.036  25.850  1.00  0.00     0.010 A 
ATOM     35  C   UNL A   1      33.286  18.603  24.487  1.00  0.00     0.001 A 
ATOM     36  C   UNL A   1      32.824  19.815  26.504  1.00  0.00     0.001 A 
ATOM     37  C   UNL A   1      32.940  18.606  25.828  1.00  0.00     0.000 A 
ENDBRANCH  18  32
ENDBRANCH  12  15
ENDBRANCH  10  11
ENDBRANCH   9  10
ENDBRANCH   8   9
ENDBRANCH   6   8
ENDBRANCH   5   6
ENDBRANCH   4   5
ENDBRANCH   3   4
ENDBRANCH   2   3
ENDBRANCH   1   2
BRANCH   1  38
ATOM     38  C   UNL A   1      36.160  31.002  29.574  1.00  0.00     0.188 C 
BRANCH  38  39
ATOM     39  O   UNL A   1      36.653  32.241  29.100  1.00  0.00    -0.377 OA
BRANCH  39  40
ATOM     40  C   UNL A   1      36.155  33.375  29.806  1.00  0.00     0.188 C 
BRANCH  40  41
ATOM     41  C   UNL A   1      34.695  33.301  30.315  1.00  0.00     0.188 C 
BRANCH  41  42
ATOM     42  O   UNL A   1      34.550  32.686  31.599  1.00  0.00    -0.376 OA
BRANCH  42  43
ATOM     43  C   UNL A   1      35.409  33.073  32.666  1.00  0.00     0.202 C 
BRANCH  43  44
ATOM     44  C   UNL A   1      36.277  31.949  33.234  1.00  0.00     0.261 C 
BRANCH  44  45
ATOM     45  O   UNL A   1      37.639  32.328  33.353  1.00  0.00    -0.460 OA
BRANCH  45  46
ATOM     46  C   UNL A   1      38.509  31.600  32.622  1.00  0.00     0.338 C 
ATOM     47  O   UNL A   1      38.936  31.859  31.512  1.00  0.00    -0.246 OA
BRANCH  46  48
ATOM     48  C   UNL A   1      38.838  30.377  33.361  1.00  0.00     0.060 A 
ATOM     49  C   UNL A   1      39.708  30.550  34.439  1.00  0.00     0.016 A 
ATOM     50  C   UNL A   1      38.683  29.155  32.709  1.00  0.00     0.016 A 
ATOM     51  C   UNL A   1      40.729  29.641  34.575  1.00  0.00     0.010 A 
ATOM     52  C   UNL A   1      39.702  28.265  32.847  1.00  0.00     0.010 A 
ATOM     53  C   UNL A   1      40.779  28.597  33.659  1.00  0.00    -0.014 A 
BRANCH  53  54
ATOM     54  C   UNL A   1      42.030  27.917  33.423  1.00  0.00     0.031 A 
ATOM     55  C   UNL A   1      42.511  27.158  34.588  1.00  0.00     0.074 A 
ATOM     56  C   UNL A   1      42.555  27.845  32.184  1.00  0.00     0.049 A 
ATOM     57  N   UNL A   1      43.458  27.486  35.399  1.00  0.00    -0.248 NA
ATOM     58  C   UNL A   1      41.700  26.016  35.043  1.00  0.00     0.031 C 
ATOM     59  C   UNL A   1      41.947  28.259  30.913  1.00  0.00     0.029 A 
ATOM     60  N   UNL A   1      43.721  27.273  31.787  1.00  0.00    -0.354 N 
ATOM     61  C   UNL A   1      43.511  26.440  36.310  1.00  0.00     0.074 A 
ATOM     62  C   UNL A   1      42.249  25.764  36.229  1.00  0.00     0.031 C 
ATOM     63  C   UNL A   1      42.658  27.735  29.887  1.00  0.00     0.029 A 
ATOM     64  C   UNL A   1      43.817  27.037  30.420  1.00  0.00     0.049 A 
ATOM     65  H   UNL A   1      44.443  27.043  32.417  1.00  0.00     0.167 HD
ATOM     66  C   UNL A   1      44.692  25.989  36.806  1.00  0.00     0.037 A 
ATOM     67  C   UNL A   1      44.732  26.233  29.817  1.00  0.00     0.037 A 
ATOM     68  C   UNL A   1      45.759  26.925  36.557  1.00  0.00     0.049 A 
ATOM     69  C   UNL A   1      45.840  26.025  30.796  1.00  0.00     0.074 A 
ATOM     70  C   UNL A   1      45.948  28.262  36.850  1.00  0.00     0.029 A 
ATOM     71  N   UNL A   1      46.657  26.621  35.561  1.00  0.00    -0.354 N 
ATOM     72  N   UNL A   1      46.657  26.969  31.187  1.00  0.00    -0.248 NA
ATOM     73  C   UNL A   1      45.740  24.887  31.702  1.00  0.00     0.031 C 
ATOM     74  C   UNL A   1      46.618  28.800  35.715  1.00  0.00     0.029 A 
ATOM     75  C   UNL A   1      46.854  27.757  34.818  1.00  0.00     0.049 A 
ATOM     76  H   UNL A   1      47.082  25.746  35.409  1.00  0.00     0.167 HD
ATOM     77  C   UNL A   1      46.854  26.742  32.544  1.00  0.00     0.074 A 
ATOM     78  C   UNL A   1      46.334  25.399  32.784  1.00  0.00     0.031 C 
ATOM     79  C   UNL A   1      47.146  27.766  33.399  1.00  0.00     0.037 A 
BRANCH  66  80
ATOM     80  C   UNL A   1      44.936  24.549  37.174  1.00  0.00     0.058 A 
ATOM     81  C   UNL A   1      45.424  24.252  38.457  1.00  0.00     0.135 A 
ATOM     82  C   UNL A   1      44.942  23.477  36.250  1.00  0.00     0.135 A 
ATOM     83  F   UNL A   1      45.481  25.203  39.402  1.00  0.00    -0.206 F 
ATOM     84  C   UNL A   1      45.935  22.997  38.782  1.00  0.00     0.059 A 
ATOM     85  C   UNL A   1      45.378  22.202  36.573  1.00  0.00     0.059 A 
ATOM     86  F   UNL A   1      44.625  23.633  34.958  1.00  0.00    -0.206 F 
ATOM     87  C   UNL A   1      45.919  21.984  37.827  1.00  0.00     0.060 A 
BRANCH  87  88
ATOM     88  S   UNL A   1      46.690  20.402  38.197  1.00  0.00     0.124 S 
ATOM     89  O   UNL A   1      45.833  19.488  37.452  1.00  0.00    -0.237 OA
ATOM     90  O   UNL A   1      48.038  20.592  37.672  1.00  0.00    -0.237 OA
ATOM     91  O   UNL A   1      46.594  20.319  39.652  1.00  0.00    -0.744 OA
ENDBRANCH  87  88
ENDBRANCH  66  80
BRANCH  67  92
ATOM     92  C   UNL A   1      44.548  25.379  28.608  1.00  0.00     0.058 A 
ATOM     93  C   UNL A   1      45.473  25.398  27.547  1.00  0.00     0.135 A 
ATOM     94  C   UNL A   1      43.597  24.338  28.573  1.00  0.00     0.135 A 
ATOM     95  F   UNL A   1      46.435  26.333  27.508  1.00  0.00    -0.206 F 
ATOM     96  C   UNL A   1      45.477  24.425  26.539  1.00  0.00     0.059 A 
ATOM     97  C   UNL A   1      43.568  23.372  27.569  1.00  0.00     0.059 A 
ATOM     98  F   UNL A   1      42.716  24.165  29.568  1.00  0.00    -0.206 F 
ATOM     99  C   UNL A   1      44.527  23.404  26.568  1.00  0.00     0.060 A 
BRANCH  99 100
ATOM    100  S   UNL A   1      44.623  22.049  25.373  1.00  0.00     0.124 S 
ATOM    101  O   UNL A   1      44.060  22.661  24.175  1.00  0.00    -0.237 OA
ATOM    102  O   UNL A   1      46.054  21.769  25.337  1.00  0.00    -0.237 OA
ATOM    103  O   UNL A   1      43.803  21.005  25.983  1.00  0.00    -0.744 OA
ENDBRANCH  99 100
ENDBRANCH  67  92
BRANCH  79 104
ATOM    104  C   UNL A   1      47.556  29.094  32.815  1.00  0.00     0.058 A 
ATOM    105  C   UNL A   1      46.652  30.108  32.452  1.00  0.00     0.135 A 
ATOM    106  C   UNL A   1      48.921  29.419  32.802  1.00  0.00     0.135 A 
ATOM    107  F   UNL A   1      45.328  29.914  32.542  1.00  0.00    -0.206 F 
ATOM    108  C   UNL A   1      47.087  31.376  32.061  1.00  0.00     0.059 A 
ATOM    109  C   UNL A   1      49.376  30.687  32.450  1.00  0.00     0.059 A 
ATOM    110  F   UNL A   1      49.831  28.515  33.202  1.00  0.00    -0.206 F 
ATOM    111  C   UNL A   1      48.452  31.658  32.071  1.00  0.00     0.060 A 
BRANCH 111 112
ATOM    112  S   UNL A   1      49.005  33.331  31.673  1.00  0.00     0.124 S 
ATOM    113  O   UNL A   1      49.596  33.765  32.934  1.00  0.00    -0.237 OA
ATOM    114  O   UNL A   1      49.944  33.104  30.578  1.00  0.00    -0.237 OA
ATOM    115  O   UNL A   1      47.772  34.015  31.292  1.00  0.00    -0.744 OA
ENDBRANCH 111 112
ENDBRANCH  79 104
ENDBRANCH  53  54
ENDBRANCH  46  48
ENDBRANCH  45  46
ENDBRANCH  44  45
ENDBRANCH  43  44
ENDBRANCH  42  43
ENDBRANCH  41  42
ENDBRANCH  40  41
ENDBRANCH  39  40
ENDBRANCH  38  39
ENDBRANCH   1  38
TORSDOF 31
ENDMDL
MODEL 2
REMARK VINA RESULT:      -8.0      2.151      2.739
REMARK SMILES NS(=O)(=O)c1ccc(-n2nc(C(=O)NCCCC(=O)OCCOCCOCCOCCOC(=O)c3ccc(-c4c5nc(c(-c6c(F)cc(S(=O)(=O)[O-])cc6F)c6ccc([nH]6)c(-c6c(F)cc(S(=O)(=O)[O-])cc6F)c6nc(c(-c7c(F)cc(S(=O)(=O)[O-])cc7F)c7ccc4[nH]7)C=C6)C=C5)cc3)cc2-c2ccccc2)cc1
REMARK SMILES IDX 24 1 23 2 22 3 21 4 20 5 18 6 19 7 17 8 16 9 15 10 14 11
REMARK SMILES IDX 12 12 13 13 11 15 9 16 10 17 102 18 101 19 8 20 5 21 6 22
REMARK SMILES IDX 110 23 7 24 109 25 2 26 3 27 4 28 1 29 103 32 104 33 108 34
REMARK SMILES IDX 105 35 107 36 106 37 25 38 26 39 27 40 28 41 29 42 30 43
REMARK SMILES IDX 31 44 32 45 33 46 34 47 35 48 36 49 100 50 37 51 99 52 38 53
REMARK SMILES IDX 39 54 40 55 93 56 41 57 98 58 92 59 94 60 42 61 97 62 91 63
REMARK SMILES IDX 90 64 43 66 77 67 56 68 76 69 57 70 60 71 75 72 95 73 58 74
REMARK SMILES IDX 59 75 74 77 96 78 61 79 44 80 45 81 54 82 46 83 47 84 53 85
REMARK SMILES IDX 55 86 48 87 49 88 50 89 51 90 52 91 78 92 79 93 88 94 80 95
REMARK SMILES IDX 81 96 87 97 89 98 82 99 83 100 84 101 85 102 86 103 62 104
REMARK SMILES IDX 63 105 72 106 64 107 65 108 71 109 73 110 66 111 67 112
REMARK SMILES IDX 68 113 69 114 70 115
REMARK H PARENT 14 14 1 30 1 31 94 65 60 76
REMARK Flexibility Score: inf
ROOT
ATOM      1  C   UNL A   1      35.743  29.972  28.604  1.00  0.00     0.188 C 
ENDROOT
BRANCH   1   2
ATOM      2  O   UNL A   1      35.105  30.700  27.560  1.00  0.00    -0.376 OA
BRANCH   2   3
ATOM      3  C   UNL A   1      33.737  31.062  27.676  1.00  0.00     0.202 C 
BRANCH   3   4
ATOM      4  C   UNL A   1      32.690  30.333  26.826  1.00  0.00     0.261 C 
BRANCH   4   5
ATOM      5  O   UNL A   1      32.844  28.903  26.740  1.00  0.00    -0.463 OA
BRANCH   5   6
ATOM      6  C   UNL A   1      31.752  28.167  27.039  1.00  0.00     0.305 C 
ATOM      7  O   UNL A   1      31.320  27.998  28.175  1.00  0.00    -0.252 OA
BRANCH   6   8
ATOM      8  C   UNL A   1      31.089  27.504  25.846  1.00  0.00     0.124 C 
BRANCH   8   9
ATOM      9  C   UNL A   1      31.857  26.958  24.642  1.00  0.00     0.033 C 
BRANCH   9  10
ATOM     10  C   UNL A   1      31.093  26.301  23.490  1.00  0.00     0.117 C 
BRANCH  10  11
ATOM     11  N   UNL A   1      31.878  26.208  22.283  1.00  0.00    -0.351 N 
ATOM     12  C   UNL A   1      32.901  25.361  21.917  1.00  0.00     0.271 C 
ATOM     13  O   UNL A   1      33.462  25.647  20.854  1.00  0.00    -0.267 OA
ATOM     14  H   UNL A   1      31.639  26.872  21.596  1.00  0.00     0.163 HD
BRANCH  12  15
ATOM     15  C   UNL A   1      33.305  24.188  22.729  1.00  0.00     0.151 A 
ATOM     16  N   UNL A   1      34.603  23.055  24.004  1.00  0.00    -0.232 N 
ATOM     17  N   UNL A   1      34.328  24.314  23.601  1.00  0.00    -0.162 NA
ATOM     18  C   UNL A   1      33.560  22.184  23.722  1.00  0.00     0.075 A 
ATOM     19  C   UNL A   1      32.817  22.845  22.760  1.00  0.00     0.065 A 
BRANCH  16  20
ATOM     20  C   UNL A   1      35.816  22.739  24.664  1.00  0.00     0.065 A 
ATOM     21  C   UNL A   1      38.340  22.296  25.732  1.00  0.00     0.082 A 
ATOM     22  C   UNL A   1      37.623  23.429  26.120  1.00  0.00     0.024 A 
ATOM     23  C   UNL A   1      37.786  21.362  24.847  1.00  0.00     0.024 A 
ATOM     24  C   UNL A   1      36.360  23.654  25.582  1.00  0.00     0.030 A 
ATOM     25  C   UNL A   1      36.503  21.568  24.331  1.00  0.00     0.030 A 
BRANCH  21  26
ATOM     26  S   UNL A   1      39.986  22.107  26.345  1.00  0.00     0.238 S 
ATOM     27  O   UNL A   1      40.713  21.252  25.462  1.00  0.00    -0.207 OA
ATOM     28  O   UNL A   1      39.920  21.905  27.788  1.00  0.00    -0.207 OA
BRANCH  26  29
ATOM     29  N   UNL A   1      40.670  23.638  26.177  1.00  0.00    -0.225 NA
ATOM     30  H   UNL A   1      41.436  23.744  26.841  1.00  0.00     0.137 HD
ATOM     31  H   UNL A   1      39.961  24.349  26.359  1.00  0.00     0.137 HD
ENDBRANCH  26  29
ENDBRANCH  21  26
ENDBRANCH  16  20
BRANCH  18  32
ATOM     32  C   UNL A   1      33.377  20.894  24.403  1.00  0.00     0.000 A 
ATOM     33  C   UNL A   1      33.142  19.732  23.643  1.00  0.00     0.010 A 
ATOM     34  C   UNL A   1      33.359  20.791  25.794  1.00  0.00     0.010 A 
ATOM     35  C   UNL A   1      32.860  18.508  24.254  1.00  0.00     0.001 A 
ATOM     36  C   UNL A   1      33.076  19.557  26.400  1.00  0.00     0.001 A 
ATOM     37  C   UNL A   1      32.829  18.422  25.636  1.00  0.00     0.000 A 
ENDBRANCH  18  32
ENDBRANCH  12  15
ENDBRANCH  10  11
ENDBRANCH   9  10
ENDBRANCH   8   9
ENDBRANCH   6   8
ENDBRANCH   5   6
ENDBRANCH   4   5
ENDBRANCH   3   4
ENDBRANCH   2   3
ENDBRANCH   1   2
BRANCH   1  38
ATOM     38  C   UNL A   1      36.414  30.692  29.790  1.00  0.00     0.188 C 
BRANCH  38  39
ATOM     39  O   UNL A   1      36.822  32.025  29.543  1.00  0.00    -0.377 OA
BRANCH  39  40
ATOM     40  C   UNL A   1      36.243  32.984  30.423  1.00  0.00     0.188 C 
BRANCH  40  41
ATOM     41  C   UNL A   1      35.023  32.527  31.258  1.00  0.00     0.188 C 
BRANCH  41  42
ATOM     42  O   UNL A   1      35.357  31.969  32.532  1.00  0.00    -0.376 OA
BRANCH  42  43
ATOM     43  C   UNL A   1      36.536  32.402  33.203  1.00  0.00     0.202 C 
BRANCH  43  44
ATOM     44  C   UNL A   1      37.498  31.282  33.602  1.00  0.00     0.261 C 
BRANCH  44  45
ATOM     45  O   UNL A   1      38.715  31.333  32.874  1.00  0.00    -0.460 OA
BRANCH  45  46
ATOM     46  C   UNL A   1      39.241  30.136  32.539  1.00  0.00     0.338 C 
ATOM     47  O   UNL A   1      38.789  29.328  31.748  1.00  0.00    -0.246 OA
BRANCH  46  48
ATOM     48  C   UNL A   1      40.452  29.914  33.334  1.00  0.00     0.060 A 
ATOM     49  C   UNL A   1      41.446  30.884  33.188  1.00  0.00     0.016 A 
ATOM     50  C   UNL A   1      40.725  28.616  33.764  1.00  0.00     0.016 A 
ATOM     51  C   UNL A   1      42.738  30.442  33.043  1.00  0.00     0.010 A 
ATOM     52  C   UNL A   1      42.007  28.189  33.611  1.00  0.00     0.010 A 
ATOM     53  C   UNL A   1      42.954  29.071  33.105  1.00  0.00    -0.014 A 
BRANCH  53  54
ATOM     54  C   UNL A   1      44.135  28.508  32.495  1.00  0.00     0.031 A 
ATOM     55  C   UNL A   1      45.106  27.989  33.470  1.00  0.00     0.074 A 
ATOM     56  C   UNL A   1      44.198  28.313  31.163  1.00  0.00     0.049 A 
ATOM     57  N   UNL A   1      46.213  28.538  33.841  1.00  0.00    -0.248 NA
ATOM     58  C   UNL A   1      44.697  26.843  34.300  1.00  0.00     0.031 C 
ATOM     59  C   UNL A   1      43.127  28.462  30.169  1.00  0.00     0.029 A 
ATOM     60  N   UNL A   1      45.227  27.823  30.424  1.00  0.00    -0.354 N 
ATOM     61  C   UNL A   1      46.745  27.652  34.766  1.00  0.00     0.074 A 
ATOM     62  C   UNL A   1      45.658  26.833  35.221  1.00  0.00     0.031 C 
ATOM     63  C   UNL A   1      43.508  27.875  29.010  1.00  0.00     0.029 A 
ATOM     64  C   UNL A   1      44.875  27.399  29.147  1.00  0.00     0.049 A 
ATOM     65  H   UNL A   1      46.150  27.772  30.764  1.00  0.00     0.167 HD
ATOM     66  C   UNL A   1      48.080  27.415  34.837  1.00  0.00     0.037 A 
ATOM     67  C   UNL A   1      45.637  26.622  28.332  1.00  0.00     0.037 A 
ATOM     68  C   UNL A   1      48.830  28.417  34.123  1.00  0.00     0.049 A 
ATOM     69  C   UNL A   1      47.035  26.688  28.852  1.00  0.00     0.074 A 
ATOM     70  C   UNL A   1      48.896  29.796  34.194  1.00  0.00     0.029 A 
ATOM     71  N   UNL A   1      49.360  28.071  32.902  1.00  0.00    -0.354 N 
ATOM     72  N   UNL A   1      47.777  27.764  28.821  1.00  0.00    -0.248 NA
ATOM     73  C   UNL A   1      47.439  25.692  29.838  1.00  0.00     0.031 C 
ATOM     74  C   UNL A   1      49.032  30.231  32.846  1.00  0.00     0.029 A 
ATOM     75  C   UNL A   1      49.102  29.100  32.031  1.00  0.00     0.049 A 
ATOM     76  H   UNL A   1      49.837  27.237  32.691  1.00  0.00     0.167 HD
ATOM     77  C   UNL A   1      48.469  27.765  30.027  1.00  0.00     0.074 A 
ATOM     78  C   UNL A   1      48.285  26.423  30.571  1.00  0.00     0.031 C 
ATOM     79  C   UNL A   1      48.874  28.931  30.611  1.00  0.00     0.037 A 
BRANCH  66  80
ATOM     80  C   UNL A   1      48.662  26.082  35.228  1.00  0.00     0.058 A 
ATOM     81  C   UNL A   1      49.594  26.033  36.278  1.00  0.00     0.135 A 
ATOM     82  C   UNL A   1      48.529  24.896  34.467  1.00  0.00     0.135 A 
ATOM     83  F   UNL A   1      49.812  27.111  37.048  1.00  0.00    -0.206 F 
ATOM     84  C   UNL A   1      50.379  24.908  36.518  1.00  0.00     0.059 A 
ATOM     85  C   UNL A   1      49.247  23.741  34.734  1.00  0.00     0.059 A 
ATOM     86  F   UNL A   1      47.776  24.825  33.362  1.00  0.00    -0.206 F 
ATOM     87  C   UNL A   1      50.207  23.772  35.730  1.00  0.00     0.060 A 
BRANCH  87  88
ATOM     88  S   UNL A   1      51.301  22.363  35.951  1.00  0.00     0.124 S 
ATOM     89  O   UNL A   1      50.576  21.597  36.958  1.00  0.00    -0.237 OA
ATOM     90  O   UNL A   1      51.335  21.792  34.609  1.00  0.00    -0.237 OA
ATOM     91  O   UNL A   1      52.547  22.977  36.398  1.00  0.00    -0.744 OA
ENDBRANCH  87  88
ENDBRANCH  66  80
BRANCH  67  92
ATOM     92  C   UNL A   1      45.180  25.583  27.364  1.00  0.00     0.058 A 
ATOM     93  C   UNL A   1      45.489  25.668  25.994  1.00  0.00     0.135 A 
ATOM     94  C   UNL A   1      44.645  24.351  27.796  1.00  0.00     0.135 A 
ATOM     95  F   UNL A   1      46.030  26.790  25.493  1.00  0.00    -0.206 F 
ATOM     96  C   UNL A   1      45.315  24.588  25.117  1.00  0.00     0.059 A 
ATOM     97  C   UNL A   1      44.443  23.271  26.939  1.00  0.00     0.059 A 
ATOM     98  F   UNL A   1      44.387  24.118  29.091  1.00  0.00    -0.206 F 
ATOM     99  C   UNL A   1      44.804  23.386  25.605  1.00  0.00     0.060 A 
BRANCH  99 100
ATOM    100  S   UNL A   1      44.731  21.934  24.528  1.00  0.00     0.124 S 
ATOM    101  O   UNL A   1      43.910  22.418  23.424  1.00  0.00    -0.237 OA
ATOM    102  O   UNL A   1      46.139  21.703  24.226  1.00  0.00    -0.237 OA
ATOM    103  O   UNL A   1      44.105  20.920  25.372  1.00  0.00    -0.744 OA
ENDBRANCH  99 100
ENDBRANCH  67  92
BRANCH  79 104
ATOM    104  C   UNL A   1      48.839  30.195  29.790  1.00  0.00     0.058 A 
ATOM    105  C   UNL A   1      47.715  31.033  29.682  1.00  0.00     0.135 A 
ATOM    106  C   UNL A   1      50.045  30.669  29.251  1.00  0.00     0.135 A 
ATOM    107  F   UNL A   1      46.554  30.705  30.266  1.00  0.00    -0.206 F 
ATOM    108  C   UNL A   1      47.779  32.270  29.038  1.00  0.00     0.059 A 
ATOM    109  C   UNL A   1      50.140  31.913  28.634  1.00  0.00     0.059 A 
ATOM    110  F   UNL A   1      51.169  29.945  29.379  1.00  0.00    -0.206 F 
ATOM    111  C   UNL A   1      49.000  32.705  28.523  1.00  0.00     0.060 A 
BRANCH 111 112
ATOM    112  S   UNL A   1      49.105  34.352  27.790  1.00  0.00     0.124 S 
ATOM    113  O   UNL A   1      50.414  34.317  27.147  1.00  0.00    -0.237 OA
ATOM    114  O   UNL A   1      47.956  34.373  26.888  1.00  0.00    -0.237 OA
ATOM    115  O   UNL A   1      48.998  35.245  28.940  1.00  0.00    -0.744 OA
ENDBRANCH 111 112
ENDBRANCH  79 104
ENDBRANCH  53  54
ENDBRANCH  46  48
ENDBRANCH  45  46
ENDBRANCH  44  45
ENDBRANCH  43  44
ENDBRANCH  42  43
ENDBRANCH  41  42
ENDBRANCH  40  41
ENDBRANCH  39  40
ENDBRANCH  38  39
ENDBRANCH   1  38
TORSDOF 31
ENDMDL
MODEL 3
REMARK VINA RESULT:      -7.8      2.972      6.240
REMARK SMILES NS(=O)(=O)c1ccc(-n2nc(C(=O)NCCCC(=O)OCCOCCOCCOCCOC(=O)c3ccc(-c4c5nc(c(-c6c(F)cc(S(=O)(=O)[O-])cc6F)c6ccc([nH]6)c(-c6c(F)cc(S(=O)(=O)[O-])cc6F)c6nc(c(-c7c(F)cc(S(=O)(=O)[O-])cc7F)c7ccc4[nH]7)C=C6)C=C5)cc3)cc2-c2ccccc2)cc1
REMARK SMILES IDX 24 1 23 2 22 3 21 4 20 5 18 6 19 7 17 8 16 9 15 10 14 11
REMARK SMILES IDX 12 12 13 13 11 15 9 16 10 17 102 18 101 19 8 20 5 21 6 22
REMARK SMILES IDX 110 23 7 24 109 25 2 26 3 27 4 28 1 29 103 32 104 33 108 34
REMARK SMILES IDX 105 35 107 36 106 37 25 38 26 39 27 40 28 41 29 42 30 43
REMARK SMILES IDX 31 44 32 45 33 46 34 47 35 48 36 49 100 50 37 51 99 52 38 53
REMARK SMILES IDX 39 54 40 55 93 56 41 57 98 58 92 59 94 60 42 61 97 62 91 63
REMARK SMILES IDX 90 64 43 66 77 67 56 68 76 69 57 70 60 71 75 72 95 73 58 74
REMARK SMILES IDX 59 75 74 77 96 78 61 79 44 80 45 81 54 82 46 83 47 84 53 85
REMARK SMILES IDX 55 86 48 87 49 88 50 89 51 90 52 91 78 92 79 93 88 94 80 95
REMARK SMILES IDX 81 96 87 97 89 98 82 99 83 100 84 101 85 102 86 103 62 104
REMARK SMILES IDX 63 105 72 106 64 107 65 108 71 109 73 110 66 111 67 112
REMARK SMILES IDX 68 113 69 114 70 115
REMARK H PARENT 14 14 1 30 1 31 94 65 60 76
REMARK Flexibility Score: inf
ROOT
ATOM      1  C   UNL A   1      35.805  29.696  28.934  1.00  0.00     0.188 C 
ENDROOT
BRANCH   1   2
ATOM      2  O   UNL A   1      35.446  30.212  27.656  1.00  0.00    -0.376 OA
BRANCH   2   3
ATOM      3  C   UNL A   1      34.120  30.657  27.415  1.00  0.00     0.202 C 
BRANCH   3   4
ATOM      4  C   UNL A   1      33.245  29.908  26.404  1.00  0.00     0.261 C 
BRANCH   4   5
ATOM      5  O   UNL A   1      33.104  28.492  26.632  1.00  0.00    -0.463 OA
BRANCH   5   6
ATOM      6  C   UNL A   1      31.860  28.055  26.920  1.00  0.00     0.305 C 
ATOM      7  O   UNL A   1      31.406  27.957  28.057  1.00  0.00    -0.252 OA
BRANCH   6   8
ATOM      8  C   UNL A   1      31.038  27.641  25.715  1.00  0.00     0.124 C 
BRANCH   8   9
ATOM      9  C   UNL A   1      31.405  26.474  24.796  1.00  0.00     0.033 C 
BRANCH   9  10
ATOM     10  C   UNL A   1      30.715  26.333  23.438  1.00  0.00     0.117 C 
BRANCH  10  11
ATOM     11  N   UNL A   1      31.637  26.443  22.332  1.00  0.00    -0.351 N 
ATOM     12  C   UNL A   1      32.778  25.739  22.016  1.00  0.00     0.271 C 
ATOM     13  O   UNL A   1      33.422  26.187  21.062  1.00  0.00    -0.267 OA
ATOM     14  H   UNL A   1      31.407  27.149  21.686  1.00  0.00     0.163 HD
BRANCH  12  15
ATOM     15  C   UNL A   1      33.211  24.530  22.759  1.00  0.00     0.151 A 
ATOM     16  N   UNL A   1      34.601  23.285  23.812  1.00  0.00    -0.232 N 
ATOM     17  N   UNL A   1      34.369  24.566  23.453  1.00  0.00    -0.162 NA
ATOM     18  C   UNL A   1      33.457  22.506  23.710  1.00  0.00     0.075 A 
ATOM     19  C   UNL A   1      32.624  23.232  22.878  1.00  0.00     0.065 A 
BRANCH  16  20
ATOM     20  C   UNL A   1      35.875  22.866  24.268  1.00  0.00     0.065 A 
ATOM     21  C   UNL A   1      38.229  21.974  25.440  1.00  0.00     0.082 A 
ATOM     22  C   UNL A   1      37.394  21.057  24.799  1.00  0.00     0.024 A 
ATOM     23  C   UNL A   1      37.915  23.340  25.463  1.00  0.00     0.024 A 
ATOM     24  C   UNL A   1      36.213  21.503  24.214  1.00  0.00     0.030 A 
ATOM     25  C   UNL A   1      36.744  23.795  24.847  1.00  0.00     0.030 A 
BRANCH  21  26
ATOM     26  S   UNL A   1      39.658  21.352  26.271  1.00  0.00     0.238 S 
ATOM     27  O   UNL A   1      39.779  19.956  26.000  1.00  0.00    -0.207 OA
ATOM     28  O   UNL A   1      39.693  21.917  27.615  1.00  0.00    -0.207 OA
BRANCH  26  29
ATOM     29  N   UNL A   1      40.951  22.091  25.483  1.00  0.00    -0.225 NA
ATOM     30  H   UNL A   1      41.602  22.465  26.173  1.00  0.00     0.137 HD
ATOM     31  H   UNL A   1      40.603  22.851  24.897  1.00  0.00     0.137 HD
ENDBRANCH  26  29
ENDBRANCH  21  26
ENDBRANCH  16  20
BRANCH  18  32
ATOM     32  C   UNL A   1      33.282  21.230  24.420  1.00  0.00     0.000 A 
ATOM     33  C   UNL A   1      33.401  21.192  25.824  1.00  0.00     0.010 A 
ATOM     34  C   UNL A   1      33.067  20.032  23.741  1.00  0.00     0.010 A 
ATOM     35  C   UNL A   1      33.345  19.986  26.525  1.00  0.00     0.001 A 
ATOM     36  C   UNL A   1      33.010  18.824  24.453  1.00  0.00     0.001 A 
ATOM     37  C   UNL A   1      33.147  18.799  25.837  1.00  0.00     0.000 A 
ENDBRANCH  18  32
ENDBRANCH  12  15
ENDBRANCH  10  11
ENDBRANCH   9  10
ENDBRANCH   8   9
ENDBRANCH   6   8
ENDBRANCH   5   6
ENDBRANCH   4   5
ENDBRANCH   3   4
ENDBRANCH   2   3
ENDBRANCH   1   2
BRANCH   1  38
ATOM     38  C   UNL A   1      36.451  30.594  30.008  1.00  0.00     0.188 C 
BRANCH  38  39
ATOM     39  O   UNL A   1      36.834  31.885  29.574  1.00  0.00    -0.377 OA
BRANCH  39  40
ATOM     40  C   UNL A   1      35.974  32.929  30.022  1.00  0.00     0.188 C 
BRANCH  40  41
ATOM     41  C   UNL A   1      34.756  32.515  30.884  1.00  0.00     0.188 C 
BRANCH  41  42
ATOM     42  O   UNL A   1      35.081  32.158  32.230  1.00  0.00    -0.376 OA
BRANCH  42  43
ATOM     43  C   UNL A   1      36.108  32.865  32.918  1.00  0.00     0.202 C 
BRANCH  43  44
ATOM     44  C   UNL A   1      37.279  32.001  33.392  1.00  0.00     0.261 C 
BRANCH  44  45
ATOM     45  O   UNL A   1      38.419  32.135  32.558  1.00  0.00    -0.460 OA
BRANCH  45  46
ATOM     46  C   UNL A   1      39.376  31.199  32.730  1.00  0.00     0.338 C 
ATOM     47  O   UNL A   1      39.220  30.041  33.072  1.00  0.00    -0.246 OA
BRANCH  46  48
ATOM     48  C   UNL A   1      40.684  31.814  32.490  1.00  0.00     0.060 A 
ATOM     49  C   UNL A   1      40.976  32.089  31.152  1.00  0.00     0.016 A 
ATOM     50  C   UNL A   1      41.675  31.644  33.456  1.00  0.00     0.016 A 
ATOM     51  C   UNL A   1      42.231  31.759  30.702  1.00  0.00     0.010 A 
ATOM     52  C   UNL A   1      42.912  31.313  32.997  1.00  0.00     0.010 A 
ATOM     53  C   UNL A   1      43.121  31.226  31.627  1.00  0.00    -0.014 A 
BRANCH  53  54
ATOM     54  C   UNL A   1      44.230  30.424  31.168  1.00  0.00     0.031 A 
ATOM     55  C   UNL A   1      43.821  29.125  30.613  1.00  0.00     0.074 A 
ATOM     56  C   UNL A   1      45.471  30.943  31.085  1.00  0.00     0.049 A 
ATOM     57  N   UNL A   1      43.914  27.969  31.177  1.00  0.00    -0.248 NA
ATOM     58  C   UNL A   1      43.006  29.130  29.386  1.00  0.00     0.031 C 
ATOM     59  C   UNL A   1      45.887  32.340  31.269  1.00  0.00     0.029 A 
ATOM     60  N   UNL A   1      46.623  30.334  30.703  1.00  0.00    -0.354 N 
ATOM     61  C   UNL A   1      43.395  27.085  30.242  1.00  0.00     0.074 A 
ATOM     62  C   UNL A   1      42.595  27.864  29.342  1.00  0.00     0.031 C 
ATOM     63  C   UNL A   1      47.146  32.496  30.797  1.00  0.00     0.029 A 
ATOM     64  C   UNL A   1      47.656  31.203  30.371  1.00  0.00     0.049 A 
ATOM     65  H   UNL A   1      46.720  29.355  30.664  1.00  0.00     0.167 HD
ATOM     66  C   UNL A   1      43.929  25.850  30.058  1.00  0.00     0.037 A 
ATOM     67  C   UNL A   1      48.789  30.866  29.697  1.00  0.00     0.037 A 
ATOM     68  C   UNL A   1      44.799  25.487  31.148  1.00  0.00     0.049 A 
ATOM     69  C   UNL A   1      48.918  29.381  29.781  1.00  0.00     0.074 A 
ATOM     70  C   UNL A   1      44.636  25.402  32.518  1.00  0.00     0.029 A 
ATOM     71  N   UNL A   1      46.156  25.536  30.927  1.00  0.00    -0.354 N 
ATOM     72  N   UNL A   1      49.165  28.730  30.888  1.00  0.00    -0.248 NA
ATOM     73  C   UNL A   1      48.300  28.586  28.727  1.00  0.00     0.031 C 
ATOM     74  C   UNL A   1      45.864  25.864  33.068  1.00  0.00     0.029 A 
ATOM     75  C   UNL A   1      46.731  26.150  32.012  1.00  0.00     0.049 A 
ATOM     76  H   UNL A   1      46.629  25.194  30.134  1.00  0.00     0.167 HD
ATOM     77  C   UNL A   1      48.381  27.584  30.819  1.00  0.00     0.074 A 
ATOM     78  C   UNL A   1      47.938  27.509  29.431  1.00  0.00     0.031 C 
ATOM     79  C   UNL A   1      47.924  26.970  31.950  1.00  0.00     0.037 A 
BRANCH  66  80
ATOM     80  C   UNL A   1      43.952  25.151  28.725  1.00  0.00     0.058 A 
ATOM     81  C   UNL A   1      43.407  23.860  28.628  1.00  0.00     0.135 A 
ATOM     82  C   UNL A   1      44.697  25.590  27.604  1.00  0.00     0.135 A 
ATOM     83  F   UNL A   1      42.701  23.340  29.644  1.00  0.00    -0.206 F 
ATOM     84  C   UNL A   1      43.633  23.043  27.523  1.00  0.00     0.059 A 
ATOM     85  C   UNL A   1      44.872  24.822  26.464  1.00  0.00     0.059 A 
ATOM     86  F   UNL A   1      45.379  26.742  27.594  1.00  0.00    -0.206 F 
ATOM     87  C   UNL A   1      44.379  23.530  26.452  1.00  0.00     0.060 A 
BRANCH  87  88
ATOM     88  S   UNL A   1      44.780  22.440  25.080  1.00  0.00     0.124 S 
ATOM     89  O   UNL A   1      44.661  23.352  23.949  1.00  0.00    -0.237 OA
ATOM     90  O   UNL A   1      46.132  22.010  25.420  1.00  0.00    -0.237 OA
ATOM     91  O   UNL A   1      43.756  21.403  25.170  1.00  0.00    -0.744 OA
ENDBRANCH  87  88
ENDBRANCH  66  80
BRANCH  67  92
ATOM     92  C   UNL A   1      49.557  31.693  28.723  1.00  0.00     0.058 A 
ATOM     93  C   UNL A   1      50.963  31.753  28.756  1.00  0.00     0.135 A 
ATOM     94  C   UNL A   1      48.948  32.247  27.577  1.00  0.00     0.135 A 
ATOM     95  F   UNL A   1      51.635  31.226  29.791  1.00  0.00    -0.206 F 
ATOM     96  C   UNL A   1      51.716  32.291  27.704  1.00  0.00     0.059 A 
ATOM     97  C   UNL A   1      49.675  32.806  26.527  1.00  0.00     0.059 A 
ATOM     98  F   UNL A   1      47.622  32.177  27.390  1.00  0.00    -0.206 F 
ATOM     99  C   UNL A   1      51.060  32.802  26.584  1.00  0.00     0.060 A 
BRANCH  99 100
ATOM    100  S   UNL A   1      52.018  33.344  25.148  1.00  0.00     0.124 S 
ATOM    101  O   UNL A   1      53.387  33.101  25.587  1.00  0.00    -0.237 OA
ATOM    102  O   UNL A   1      51.518  32.468  24.095  1.00  0.00    -0.237 OA
ATOM    103  O   UNL A   1      51.649  34.751  25.009  1.00  0.00    -0.744 OA
ENDBRANCH  99 100
ENDBRANCH  67  92
BRANCH  79 104
ATOM    104  C   UNL A   1      48.527  27.361  33.275  1.00  0.00     0.058 A 
ATOM    105  C   UNL A   1      48.063  28.426  34.068  1.00  0.00     0.135 A 
ATOM    106  C   UNL A   1      49.486  26.509  33.845  1.00  0.00     0.135 A 
ATOM    107  F   UNL A   1      47.071  29.220  33.641  1.00  0.00    -0.206 F 
ATOM    108  C   UNL A   1      48.554  28.652  35.355  1.00  0.00     0.059 A 
ATOM    109  C   UNL A   1      49.964  26.695  35.139  1.00  0.00     0.059 A 
ATOM    110  F   UNL A   1      49.920  25.436  33.163  1.00  0.00    -0.206 F 
ATOM    111  C   UNL A   1      49.500  27.775  35.885  1.00  0.00     0.060 A 
BRANCH 111 112
ATOM    112  S   UNL A   1      50.050  28.004  37.590  1.00  0.00     0.124 S 
ATOM    113  O   UNL A   1      49.944  29.450  37.753  1.00  0.00    -0.237 OA
ATOM    114  O   UNL A   1      49.086  27.209  38.345  1.00  0.00    -0.237 OA
ATOM    115  O   UNL A   1      51.411  27.474  37.583  1.00  0.00    -0.744 OA
ENDBRANCH 111 112
ENDBRANCH  79 104
ENDBRANCH  53  54
ENDBRANCH  46  48
ENDBRANCH  45  46
ENDBRANCH  44  45
ENDBRANCH  43  44
ENDBRANCH  42  43
ENDBRANCH  41  42
ENDBRANCH  40  41
ENDBRANCH  39  40
ENDBRANCH  38  39
ENDBRANCH   1  38
TORSDOF 31
ENDMDL
