MODEL 1
REMARK VINA RESULT:      -9.5      0.000      0.000
REMARK SMILES O=C(OCCOCCOCCOCCOC(=O)[C@H]1CC[C@@H]([NH+]2CCCC2)CC1)c1ccc(-c2c3nc(c(-c4c(F)cc(S(=O)(=O)[O-])cc4F)c4ccc([nH]4)c(-c4c(F)cc(S(=O)(=O)[O-])cc4F)c4nc(c(-c5c(F)cc(S(=O)(=O)[O-])cc5F)c5ccc2[nH]5)C=C4)C=C3)cc1
REMARK SMILES IDX 8 1 7 2 6 3 5 4 4 5 3 6 2 7 1 8 29 9 30 10 94 11 31 12 93 13
REMARK SMILES IDX 32 14 33 15 34 16 87 17 35 18 92 19 86 20 88 21 36 22 91 23
REMARK SMILES IDX 85 24 84 25 37 27 71 28 50 29 70 30 51 31 54 32 69 33 89 34
REMARK SMILES IDX 52 35 53 36 68 38 90 39 55 40 38 41 39 42 48 43 40 44 41 45
REMARK SMILES IDX 47 46 49 47 42 48 43 49 44 50 45 51 46 52 72 53 73 54 82 55
REMARK SMILES IDX 74 56 75 57 81 58 83 59 76 60 77 61 78 62 79 63 80 64 56 65
REMARK SMILES IDX 57 66 66 67 58 68 59 69 65 70 67 71 60 72 61 73 62 74 63 75
REMARK SMILES IDX 64 76 9 77 10 78 11 79 12 80 13 81 14 82 15 83 16 84 17 85
REMARK SMILES IDX 18 86 19 87 28 88 20 89 27 90 21 91 22 92 23 93 26 94 24 96
REMARK SMILES IDX 25 97
REMARK H PARENT 88 26 54 37 22 95
REMARK Flexibility Score: inf
ROOT
ATOM      1  C   UNL A   1      40.130  21.684  26.759  1.00  0.00     0.188 C 
ENDROOT
BRANCH   1   2
ATOM      2  C   UNL A   1      41.495  21.869  26.097  1.00  0.00     0.188 C 
BRANCH   2   3
ATOM      3  O   UNL A   1      41.968  23.156  26.439  1.00  0.00    -0.376 OA
BRANCH   3   4
ATOM      4  C   UNL A   1      43.257  23.605  26.051  1.00  0.00     0.202 C 
BRANCH   4   5
ATOM      5  C   UNL A   1      43.280  24.749  25.065  1.00  0.00     0.261 C 
BRANCH   5   6
ATOM      6  O   UNL A   1      42.249  25.738  25.225  1.00  0.00    -0.460 OA
BRANCH   6   7
ATOM      7  C   UNL A   1      42.286  27.058  25.511  1.00  0.00     0.338 C 
ATOM      8  O   UNL A   1      42.557  27.838  24.598  1.00  0.00    -0.246 OA
BRANCH   7   9
ATOM      9  C   UNL A   1      41.987  27.645  26.845  1.00  0.00     0.060 A 
ATOM     10  C   UNL A   1      42.274  28.949  27.225  1.00  0.00     0.016 A 
ATOM     11  C   UNL A   1      41.213  26.882  27.728  1.00  0.00     0.016 A 
ATOM     12  C   UNL A   1      41.955  29.467  28.451  1.00  0.00     0.010 A 
ATOM     13  C   UNL A   1      40.781  27.424  28.943  1.00  0.00     0.010 A 
ATOM     14  C   UNL A   1      41.170  28.720  29.298  1.00  0.00    -0.014 A 
BRANCH  14  15
ATOM     15  C   UNL A   1      40.914  29.329  30.599  1.00  0.00     0.031 A 
ATOM     16  C   UNL A   1      39.717  30.205  30.695  1.00  0.00     0.074 A 
ATOM     17  C   UNL A   1      41.624  28.925  31.669  1.00  0.00     0.049 A 
ATOM     18  N   UNL A   1      39.345  30.972  31.673  1.00  0.00    -0.248 NA
ATOM     19  C   UNL A   1      38.800  30.206  29.537  1.00  0.00     0.031 C 
ATOM     20  C   UNL A   1      42.654  27.874  31.663  1.00  0.00     0.029 A 
ATOM     21  N   UNL A   1      41.572  29.322  32.974  1.00  0.00    -0.354 N 
ATOM     22  C   UNL A   1      38.201  31.608  31.220  1.00  0.00     0.074 A 
ATOM     23  C   UNL A   1      37.903  31.107  29.901  1.00  0.00     0.031 C 
ATOM     24  C   UNL A   1      43.147  27.732  32.903  1.00  0.00     0.029 A 
ATOM     25  C   UNL A   1      42.545  28.745  33.755  1.00  0.00     0.049 A 
ATOM     26  H   UNL A   1      40.905  29.958  33.320  1.00  0.00     0.167 HD
ATOM     27  C   UNL A   1      37.503  32.562  31.864  1.00  0.00     0.037 A 
ATOM     28  C   UNL A   1      42.948  29.081  34.993  1.00  0.00     0.037 A 
ATOM     29  C   UNL A   1      37.853  33.002  33.184  1.00  0.00     0.049 A 
ATOM     30  C   UNL A   1      42.231  30.237  35.640  1.00  0.00     0.074 A 
ATOM     31  C   UNL A   1      37.276  33.995  33.946  1.00  0.00     0.029 A 
ATOM     32  N   UNL A   1      38.895  32.463  33.931  1.00  0.00    -0.354 N 
ATOM     33  N   UNL A   1      41.195  30.914  35.193  1.00  0.00    -0.248 NA
ATOM     34  C   UNL A   1      42.745  30.704  36.930  1.00  0.00     0.031 C 
ATOM     35  C   UNL A   1      38.011  34.098  35.131  1.00  0.00     0.029 A 
ATOM     36  C   UNL A   1      39.007  33.130  35.132  1.00  0.00     0.049 A 
ATOM     37  H   UNL A   1      39.468  31.715  33.644  1.00  0.00     0.167 HD
ATOM     38  C   UNL A   1      40.929  31.883  36.149  1.00  0.00     0.074 A 
ATOM     39  C   UNL A   1      41.895  31.681  37.214  1.00  0.00     0.031 C 
ATOM     40  C   UNL A   1      39.989  32.860  36.155  1.00  0.00     0.037 A 
BRANCH  27  41
ATOM     41  C   UNL A   1      36.410  33.249  31.109  1.00  0.00     0.058 A 
ATOM     42  C   UNL A   1      35.054  33.082  31.422  1.00  0.00     0.135 A 
ATOM     43  C   UNL A   1      36.740  34.094  30.038  1.00  0.00     0.135 A 
ATOM     44  F   UNL A   1      34.682  32.237  32.398  1.00  0.00    -0.206 F 
ATOM     45  C   UNL A   1      34.061  33.744  30.706  1.00  0.00     0.059 A 
ATOM     46  C   UNL A   1      35.767  34.783  29.324  1.00  0.00     0.059 A 
ATOM     47  F   UNL A   1      38.023  34.251  29.673  1.00  0.00    -0.206 F 
ATOM     48  C   UNL A   1      34.430  34.603  29.669  1.00  0.00     0.060 A 
BRANCH  48  49
ATOM     49  S   UNL A   1      33.137  35.509  28.797  1.00  0.00     0.124 S 
ATOM     50  O   UNL A   1      32.510  34.447  28.014  1.00  0.00    -0.237 OA
ATOM     51  O   UNL A   1      32.336  36.037  29.900  1.00  0.00    -0.237 OA
ATOM     52  O   UNL A   1      33.874  36.504  28.030  1.00  0.00    -0.744 OA
ENDBRANCH  48  49
ENDBRANCH  27  41
BRANCH  28  53
ATOM     53  C   UNL A   1      44.137  28.439  35.623  1.00  0.00     0.058 A 
ATOM     54  C   UNL A   1      45.439  28.886  35.360  1.00  0.00     0.135 A 
ATOM     55  C   UNL A   1      43.997  27.316  36.462  1.00  0.00     0.135 A 
ATOM     56  F   UNL A   1      45.633  29.950  34.566  1.00  0.00    -0.206 F 
ATOM     57  C   UNL A   1      46.556  28.227  35.866  1.00  0.00     0.059 A 
ATOM     58  C   UNL A   1      45.097  26.661  37.007  1.00  0.00     0.059 A 
ATOM     59  F   UNL A   1      42.778  26.842  36.761  1.00  0.00    -0.206 F 
ATOM     60  C   UNL A   1      46.375  27.108  36.683  1.00  0.00     0.060 A 
BRANCH  60  61
ATOM     61  S   UNL A   1      47.828  26.239  37.310  1.00  0.00     0.124 S 
ATOM     62  O   UNL A   1      48.078  25.277  36.238  1.00  0.00    -0.237 OA
ATOM     63  O   UNL A   1      48.802  27.318  37.435  1.00  0.00    -0.237 OA
ATOM     64  O   UNL A   1      47.365  25.671  38.569  1.00  0.00    -0.744 OA
ENDBRANCH  60  61
ENDBRANCH  28  53
BRANCH  40  65
ATOM     65  C   UNL A   1      39.959  33.758  37.352  1.00  0.00     0.058 A 
ATOM     66  C   UNL A   1      40.765  34.904  37.421  1.00  0.00     0.135 A 
ATOM     67  C   UNL A   1      39.042  33.520  38.386  1.00  0.00     0.135 A 
ATOM     68  F   UNL A   1      41.662  35.162  36.457  1.00  0.00    -0.206 F 
ATOM     69  C   UNL A   1      40.664  35.786  38.487  1.00  0.00     0.059 A 
ATOM     70  C   UNL A   1      38.901  34.408  39.443  1.00  0.00     0.059 A 
ATOM     71  F   UNL A   1      38.244  32.441  38.348  1.00  0.00    -0.206 F 
ATOM     72  C   UNL A   1      39.721  35.535  39.486  1.00  0.00     0.060 A 
BRANCH  72  73
ATOM     73  S   UNL A   1      39.548  36.730  40.824  1.00  0.00     0.124 S 
ATOM     74  O   UNL A   1      39.015  35.895  41.894  1.00  0.00    -0.237 OA
ATOM     75  O   UNL A   1      40.921  37.194  41.004  1.00  0.00    -0.237 OA
ATOM     76  O   UNL A   1      38.624  37.719  40.279  1.00  0.00    -0.744 OA
ENDBRANCH  72  73
ENDBRANCH  40  65
ENDBRANCH  14  15
ENDBRANCH   7   9
ENDBRANCH   6   7
ENDBRANCH   5   6
ENDBRANCH   4   5
ENDBRANCH   3   4
ENDBRANCH   2   3
ENDBRANCH   1   2
BRANCH   1  77
ATOM     77  O   UNL A   1      39.246  22.803  26.670  1.00  0.00    -0.377 OA
BRANCH  77  78
ATOM     78  C   UNL A   1      37.978  22.559  26.080  1.00  0.00     0.188 C 
BRANCH  78  79
ATOM     79  C   UNL A   1      37.000  23.678  25.743  1.00  0.00     0.188 C 
BRANCH  79  80
ATOM     80  O   UNL A   1      35.809  23.354  25.079  1.00  0.00    -0.376 OA
BRANCH  80  81
ATOM     81  C   UNL A   1      35.736  22.152  24.332  1.00  0.00     0.202 C 
BRANCH  81  82
ATOM     82  C   UNL A   1      35.006  20.856  24.771  1.00  0.00     0.261 C 
BRANCH  82  83
ATOM     83  O   UNL A   1      33.711  20.539  24.215  1.00  0.00    -0.463 OA
BRANCH  83  84
ATOM     84  C   UNL A   1      32.673  20.372  25.086  1.00  0.00     0.309 C 
ATOM     85  O   UNL A   1      32.397  19.316  25.632  1.00  0.00    -0.252 OA
BRANCH  84  86
ATOM     86  C   UNL A   1      31.812  21.641  25.276  1.00  0.00     0.099 C 
ATOM     87  C   UNL A   1      32.250  22.535  26.436  1.00  0.00     0.021 C 
ATOM     88  C   UNL A   1      31.717  22.394  23.950  1.00  0.00     0.021 C 
ATOM     89  C   UNL A   1      31.760  23.967  26.496  1.00  0.00     0.066 C 
ATOM     90  C   UNL A   1      31.106  23.782  24.117  1.00  0.00     0.066 C 
ATOM     91  C   UNL A   1      31.838  24.675  25.136  1.00  0.00     0.184 C 
BRANCH  91  92
ATOM     92  N   UNL A   1      33.159  25.228  24.770  1.00  0.00    -0.333 N 
ATOM     93  C   UNL A   1      33.783  26.015  25.840  1.00  0.00     0.262 C 
ATOM     94  C   UNL A   1      33.364  25.994  23.537  1.00  0.00     0.262 C 
ATOM     95  H   UNL A   1      33.594  24.323  24.592  1.00  0.00     0.348 HD
ATOM     96  C   UNL A   1      33.596  27.460  25.424  1.00  0.00     0.067 C 
ATOM     97  C   UNL A   1      33.783  27.409  23.925  1.00  0.00     0.067 C 
ENDBRANCH  91  92
ENDBRANCH  84  86
ENDBRANCH  83  84
ENDBRANCH  82  83
ENDBRANCH  81  82
ENDBRANCH  80  81
ENDBRANCH  79  80
ENDBRANCH  78  79
ENDBRANCH  77  78
ENDBRANCH   1  77
TORSDOF 24
ENDMDL
MODEL 2
REMARK VINA RESULT:      -9.2      1.206      2.142
REMARK SMILES O=C(OCCOCCOCCOCCOC(=O)[C@H]1CC[C@@H]([NH+]2CCCC2)CC1)c1ccc(-c2c3nc(c(-c4c(F)cc(S(=O)(=O)[O-])cc4F)c4ccc([nH]4)c(-c4c(F)cc(S(=O)(=O)[O-])cc4F)c4nc(c(-c5c(F)cc(S(=O)(=O)[O-])cc5F)c5ccc2[nH]5)C=C4)C=C3)cc1
REMARK SMILES IDX 8 1 7 2 6 3 5 4 4 5 3 6 2 7 1 8 29 9 30 10 94 11 31 12 93 13
REMARK SMILES IDX 32 14 33 15 34 16 87 17 35 18 92 19 86 20 88 21 36 22 91 23
REMARK SMILES IDX 85 24 84 25 37 27 71 28 50 29 70 30 51 31 54 32 69 33 89 34
REMARK SMILES IDX 52 35 53 36 68 38 90 39 55 40 38 41 39 42 48 43 40 44 41 45
REMARK SMILES IDX 47 46 49 47 42 48 43 49 44 50 45 51 46 52 72 53 73 54 82 55
REMARK SMILES IDX 74 56 75 57 81 58 83 59 76 60 77 61 78 62 79 63 80 64 56 65
REMARK SMILES IDX 57 66 66 67 58 68 59 69 65 70 67 71 60 72 61 73 62 74 63 75
REMARK SMILES IDX 64 76 9 77 10 78 11 79 12 80 13 81 14 82 15 83 16 84 17 85
REMARK SMILES IDX 18 86 19 87 28 88 20 89 27 90 21 91 22 92 23 93 26 94 24 96
REMARK SMILES IDX 25 97
REMARK H PARENT 88 26 54 37 22 95
REMARK Flexibility Score: inf
ROOT
ATOM      1  C   UNL A   1      38.613  23.350  25.805  1.00  0.00     0.188 C 
ENDROOT
BRANCH   1   2
ATOM      2  C   UNL A   1      39.620  22.915  26.870  1.00  0.00     0.188 C 
BRANCH   2   3
ATOM      3  O   UNL A   1      40.712  22.311  26.207  1.00  0.00    -0.376 OA
BRANCH   3   4
ATOM      4  C   UNL A   1      42.054  22.563  26.595  1.00  0.00     0.202 C 
BRANCH   4   5
ATOM      5  C   UNL A   1      42.812  23.539  25.728  1.00  0.00     0.261 C 
BRANCH   5   6
ATOM      6  O   UNL A   1      42.873  24.892  26.209  1.00  0.00    -0.460 OA
BRANCH   6   7
ATOM      7  C   UNL A   1      41.942  25.865  26.321  1.00  0.00     0.338 C 
ATOM      8  O   UNL A   1      41.221  26.087  25.349  1.00  0.00    -0.246 OA
BRANCH   7   9
ATOM      9  C   UNL A   1      41.699  26.668  27.550  1.00  0.00     0.060 A 
ATOM     10  C   UNL A   1      40.830  26.315  28.573  1.00  0.00     0.016 A 
ATOM     11  C   UNL A   1      42.525  27.777  27.772  1.00  0.00     0.016 A 
ATOM     12  C   UNL A   1      40.654  27.061  29.708  1.00  0.00     0.010 A 
ATOM     13  C   UNL A   1      42.442  28.494  28.970  1.00  0.00     0.010 A 
ATOM     14  C   UNL A   1      41.490  28.131  29.929  1.00  0.00    -0.014 A 
BRANCH  14  15
ATOM     15  C   UNL A   1      41.206  28.895  31.138  1.00  0.00     0.031 A 
ATOM     16  C   UNL A   1      40.010  29.778  31.097  1.00  0.00     0.074 A 
ATOM     17  C   UNL A   1      41.887  28.624  32.267  1.00  0.00     0.049 A 
ATOM     18  N   UNL A   1      39.618  30.660  31.965  1.00  0.00    -0.248 NA
ATOM     19  C   UNL A   1      39.122  29.639  29.925  1.00  0.00     0.031 C 
ATOM     20  C   UNL A   1      42.912  27.579  32.415  1.00  0.00     0.029 A 
ATOM     21  N   UNL A   1      41.805  29.178  33.511  1.00  0.00    -0.354 N 
ATOM     22  C   UNL A   1      38.488  31.237  31.409  1.00  0.00     0.074 A 
ATOM     23  C   UNL A   1      38.220  30.579  30.155  1.00  0.00     0.031 C 
ATOM     24  C   UNL A   1      43.374  27.588  33.674  1.00  0.00     0.029 A 
ATOM     25  C   UNL A   1      42.757  28.699  34.381  1.00  0.00     0.049 A 
ATOM     26  H   UNL A   1      41.133  29.853  33.761  1.00  0.00     0.167 HD
ATOM     27  C   UNL A   1      37.779  32.264  31.914  1.00  0.00     0.037 A 
ATOM     28  C   UNL A   1      43.132  29.184  35.578  1.00  0.00     0.037 A 
ATOM     29  C   UNL A   1      38.099  32.862  33.179  1.00  0.00     0.049 A 
ATOM     30  C   UNL A   1      42.404  30.411  36.061  1.00  0.00     0.074 A 
ATOM     31  C   UNL A   1      37.509  33.942  33.799  1.00  0.00     0.029 A 
ATOM     32  N   UNL A   1      39.121  32.416  34.011  1.00  0.00    -0.354 N 
ATOM     33  N   UNL A   1      41.382  31.029  35.509  1.00  0.00    -0.248 NA
ATOM     34  C   UNL A   1      42.889  31.032  37.297  1.00  0.00     0.031 C 
ATOM     35  C   UNL A   1      38.215  34.187  34.980  1.00  0.00     0.029 A 
ATOM     36  C   UNL A   1      39.207  33.225  35.125  1.00  0.00     0.049 A 
ATOM     37  H   UNL A   1      39.697  31.638  33.833  1.00  0.00     0.167 HD
ATOM     38  C   UNL A   1      41.098  32.109  36.333  1.00  0.00     0.074 A 
ATOM     39  C   UNL A   1      42.037  32.038  37.438  1.00  0.00     0.031 C 
ATOM     40  C   UNL A   1      40.163  33.081  36.196  1.00  0.00     0.037 A 
BRANCH  27  41
ATOM     41  C   UNL A   1      36.708  32.855  31.055  1.00  0.00     0.058 A 
ATOM     42  C   UNL A   1      35.348  32.565  31.234  1.00  0.00     0.135 A 
ATOM     43  C   UNL A   1      37.064  33.734  30.019  1.00  0.00     0.135 A 
ATOM     44  F   UNL A   1      34.961  31.685  32.170  1.00  0.00    -0.206 F 
ATOM     45  C   UNL A   1      34.375  33.141  30.423  1.00  0.00     0.059 A 
ATOM     46  C   UNL A   1      36.107  34.338  29.212  1.00  0.00     0.059 A 
ATOM     47  F   UNL A   1      38.357  34.007  29.781  1.00  0.00    -0.206 F 
ATOM     48  C   UNL A   1      34.764  34.036  29.425  1.00  0.00     0.060 A 
BRANCH  48  49
ATOM     49  S   UNL A   1      33.486  34.828  28.428  1.00  0.00     0.124 S 
ATOM     50  O   UNL A   1      34.239  35.901  27.784  1.00  0.00    -0.237 OA
ATOM     51  O   UNL A   1      33.063  33.738  27.551  1.00  0.00    -0.237 OA
ATOM     52  O   UNL A   1      32.500  35.254  29.412  1.00  0.00    -0.744 OA
ENDBRANCH  48  49
ENDBRANCH  27  41
BRANCH  28  53
ATOM     53  C   UNL A   1      44.301  28.621  36.311  1.00  0.00     0.058 A 
ATOM     54  C   UNL A   1      44.166  27.539  37.191  1.00  0.00     0.135 A 
ATOM     55  C   UNL A   1      45.581  29.196  36.188  1.00  0.00     0.135 A 
ATOM     56  F   UNL A   1      42.969  26.952  37.350  1.00  0.00    -0.206 F 
ATOM     57  C   UNL A   1      45.235  27.074  37.952  1.00  0.00     0.059 A 
ATOM     58  C   UNL A   1      46.673  28.728  36.912  1.00  0.00     0.059 A 
ATOM     59  F   UNL A   1      45.782  30.229  35.356  1.00  0.00    -0.206 F 
ATOM     60  C   UNL A   1      46.485  27.682  37.812  1.00  0.00     0.060 A 
BRANCH  60  61
ATOM     61  S   UNL A   1      47.860  27.096  38.825  1.00  0.00     0.124 S 
ATOM     62  O   UNL A   1      48.130  25.792  38.222  1.00  0.00    -0.237 OA
ATOM     63  O   UNL A   1      48.870  28.123  38.596  1.00  0.00    -0.237 OA
ATOM     64  O   UNL A   1      47.300  27.063  40.169  1.00  0.00    -0.744 OA
ENDBRANCH  60  61
ENDBRANCH  28  53
BRANCH  40  65
ATOM     65  C   UNL A   1      40.108  34.119  37.273  1.00  0.00     0.058 A 
ATOM     66  C   UNL A   1      40.759  35.352  37.128  1.00  0.00     0.135 A 
ATOM     67  C   UNL A   1      39.312  33.910  38.410  1.00  0.00     0.135 A 
ATOM     68  F   UNL A   1      41.538  35.586  36.060  1.00  0.00    -0.206 F 
ATOM     69  C   UNL A   1      40.626  36.348  38.084  1.00  0.00     0.059 A 
ATOM     70  C   UNL A   1      39.138  34.906  39.360  1.00  0.00     0.059 A 
ATOM     71  F   UNL A   1      38.662  32.748  38.577  1.00  0.00    -0.206 F 
ATOM     72  C   UNL A   1      39.804  36.120  39.190  1.00  0.00     0.060 A 
BRANCH  72  73
ATOM     73  S   UNL A   1      39.581  37.451  40.383  1.00  0.00     0.124 S 
ATOM     74  O   UNL A   1      38.802  38.411  39.607  1.00  0.00    -0.237 OA
ATOM     75  O   UNL A   1      38.866  36.781  41.465  1.00  0.00    -0.237 OA
ATOM     76  O   UNL A   1      40.946  37.858  40.698  1.00  0.00    -0.744 OA
ENDBRANCH  72  73
ENDBRANCH  40  65
ENDBRANCH  14  15
ENDBRANCH   7   9
ENDBRANCH   6   7
ENDBRANCH   5   6
ENDBRANCH   4   5
ENDBRANCH   3   4
ENDBRANCH   2   3
ENDBRANCH   1   2
BRANCH   1  77
ATOM     77  O   UNL A   1      37.451  24.022  26.295  1.00  0.00    -0.377 OA
BRANCH  77  78
ATOM     78  C   UNL A   1      36.246  23.271  26.305  1.00  0.00     0.188 C 
BRANCH  78  79
ATOM     79  C   UNL A   1      36.125  21.903  25.645  1.00  0.00     0.188 C 
BRANCH  79  80
ATOM     80  O   UNL A   1      34.927  21.191  25.789  1.00  0.00    -0.376 OA
BRANCH  80  81
ATOM     81  C   UNL A   1      34.238  20.748  24.633  1.00  0.00     0.202 C 
BRANCH  81  82
ATOM     82  C   UNL A   1      32.808  21.176  24.211  1.00  0.00     0.261 C 
BRANCH  82  83
ATOM     83  O   UNL A   1      32.630  22.113  23.127  1.00  0.00    -0.463 OA
BRANCH  83  84
ATOM     84  C   UNL A   1      32.033  23.306  23.415  1.00  0.00     0.309 C 
ATOM     85  O   UNL A   1      30.826  23.475  23.474  1.00  0.00    -0.252 OA
BRANCH  84  86
ATOM     86  C   UNL A   1      33.032  24.472  23.594  1.00  0.00     0.099 C 
ATOM     87  C   UNL A   1      32.681  25.733  22.804  1.00  0.00     0.021 C 
ATOM     88  C   UNL A   1      33.235  24.743  25.084  1.00  0.00     0.021 C 
ATOM     89  C   UNL A   1      33.331  27.049  23.177  1.00  0.00     0.066 C 
ATOM     90  C   UNL A   1      33.998  26.040  25.335  1.00  0.00     0.066 C 
ATOM     91  C   UNL A   1      33.358  27.285  24.694  1.00  0.00     0.184 C 
BRANCH  91  92
ATOM     92  N   UNL A   1      32.115  27.824  25.286  1.00  0.00    -0.333 N 
ATOM     93  C   UNL A   1      31.803  29.189  24.851  1.00  0.00     0.262 C 
ATOM     94  C   UNL A   1      31.870  27.797  26.731  1.00  0.00     0.262 C 
ATOM     95  H   UNL A   1      31.507  27.101  24.903  1.00  0.00     0.348 HD
ATOM     96  C   UNL A   1      32.177  30.071  26.026  1.00  0.00     0.067 C 
ATOM     97  C   UNL A   1      31.767  29.238  27.219  1.00  0.00     0.067 C 
ENDBRANCH  91  92
ENDBRANCH  84  86
ENDBRANCH  83  84
ENDBRANCH  82  83
ENDBRANCH  81  82
ENDBRANCH  80  81
ENDBRANCH  79  80
ENDBRANCH  78  79
ENDBRANCH  77  78
ENDBRANCH   1  77
TORSDOF 24
ENDMDL
MODEL 3
REMARK VINA RESULT:      -9.1     10.215     17.389
REMARK SMILES O=C(OCCOCCOCCOCCOC(=O)[C@H]1CC[C@@H]([NH+]2CCCC2)CC1)c1ccc(-c2c3nc(c(-c4c(F)cc(S(=O)(=O)[O-])cc4F)c4ccc([nH]4)c(-c4c(F)cc(S(=O)(=O)[O-])cc4F)c4nc(c(-c5c(F)cc(S(=O)(=O)[O-])cc5F)c5ccc2[nH]5)C=C4)C=C3)cc1
REMARK SMILES IDX 8 1 7 2 6 3 5 4 4 5 3 6 2 7 1 8 29 9 30 10 94 11 31 12 93 13
REMARK SMILES IDX 32 14 33 15 34 16 87 17 35 18 92 19 86 20 88 21 36 22 91 23
REMARK SMILES IDX 85 24 84 25 37 27 71 28 50 29 70 30 51 31 54 32 69 33 89 34
REMARK SMILES IDX 52 35 53 36 68 38 90 39 55 40 38 41 39 42 48 43 40 44 41 45
REMARK SMILES IDX 47 46 49 47 42 48 43 49 44 50 45 51 46 52 72 53 73 54 82 55
REMARK SMILES IDX 74 56 75 57 81 58 83 59 76 60 77 61 78 62 79 63 80 64 56 65
REMARK SMILES IDX 57 66 66 67 58 68 59 69 65 70 67 71 60 72 61 73 62 74 63 75
REMARK SMILES IDX 64 76 9 77 10 78 11 79 12 80 13 81 14 82 15 83 16 84 17 85
REMARK SMILES IDX 18 86 19 87 28 88 20 89 27 90 21 91 22 92 23 93 26 94 24 96
REMARK SMILES IDX 25 97
REMARK H PARENT 88 26 54 37 22 95
REMARK Flexibility Score: inf
ROOT
ATOM      1  C   UNL A   1      45.574  42.324  23.275  1.00  0.00     0.188 C 
ENDROOT
BRANCH   1   2
ATOM      2  C   UNL A   1      46.887  41.735  23.792  1.00  0.00     0.188 C 
BRANCH   2   3
ATOM      3  O   UNL A   1      46.628  41.149  25.051  1.00  0.00    -0.376 OA
BRANCH   3   4
ATOM      4  C   UNL A   1      46.921  39.785  25.315  1.00  0.00     0.202 C 
BRANCH   4   5
ATOM      5  C   UNL A   1      46.114  39.146  26.420  1.00  0.00     0.261 C 
BRANCH   5   6
ATOM      6  O   UNL A   1      46.781  38.117  27.171  1.00  0.00    -0.460 OA
BRANCH   6   7
ATOM      7  C   UNL A   1      47.489  37.028  26.799  1.00  0.00     0.338 C 
ATOM      8  O   UNL A   1      48.600  37.206  26.298  1.00  0.00    -0.246 OA
BRANCH   7   9
ATOM      9  C   UNL A   1      47.040  35.621  26.984  1.00  0.00     0.060 A 
ATOM     10  C   UNL A   1      46.533  34.808  25.979  1.00  0.00     0.016 A 
ATOM     11  C   UNL A   1      47.297  35.018  28.221  1.00  0.00     0.016 A 
ATOM     12  C   UNL A   1      46.159  33.506  26.177  1.00  0.00     0.010 A 
ATOM     13  C   UNL A   1      47.025  33.660  28.417  1.00  0.00     0.010 A 
ATOM     14  C   UNL A   1      46.443  32.915  27.386  1.00  0.00    -0.014 A 
BRANCH  14  15
ATOM     15  C   UNL A   1      45.973  31.542  27.526  1.00  0.00     0.031 A 
ATOM     16  C   UNL A   1      46.953  30.470  27.207  1.00  0.00     0.074 A 
ATOM     17  C   UNL A   1      44.785  31.307  28.115  1.00  0.00     0.049 A 
ATOM     18  N   UNL A   1      46.759  29.191  27.109  1.00  0.00    -0.248 NA
ATOM     19  C   UNL A   1      48.350  30.894  26.983  1.00  0.00     0.031 C 
ATOM     20  C   UNL A   1      43.891  32.333  28.673  1.00  0.00     0.029 A 
ATOM     21  N   UNL A   1      44.135  30.134  28.371  1.00  0.00    -0.354 N 
ATOM     22  C   UNL A   1      47.985  28.667  26.733  1.00  0.00     0.074 A 
ATOM     23  C   UNL A   1      48.934  29.750  26.667  1.00  0.00     0.031 C 
ATOM     24  C   UNL A   1      42.802  31.740  29.185  1.00  0.00     0.029 A 
ATOM     25  C   UNL A   1      42.877  30.317  28.896  1.00  0.00     0.049 A 
ATOM     26  H   UNL A   1      44.526  29.248  28.198  1.00  0.00     0.167 HD
ATOM     27  C   UNL A   1      48.251  27.381  26.432  1.00  0.00     0.037 A 
ATOM     28  C   UNL A   1      41.877  29.427  29.032  1.00  0.00     0.037 A 
ATOM     29  C   UNL A   1      47.255  26.353  26.533  1.00  0.00     0.049 A 
ATOM     30  C   UNL A   1      42.165  28.022  28.569  1.00  0.00     0.074 A 
ATOM     31  C   UNL A   1      47.358  25.017  26.214  1.00  0.00     0.029 A 
ATOM     32  N   UNL A   1      45.959  26.571  26.989  1.00  0.00    -0.354 N 
ATOM     33  N   UNL A   1      43.298  27.520  28.128  1.00  0.00    -0.248 NA
ATOM     34  C   UNL A   1      41.048  27.074  28.583  1.00  0.00     0.031 C 
ATOM     35  C   UNL A   1      46.102  24.438  26.419  1.00  0.00     0.029 A 
ATOM     36  C   UNL A   1      45.235  25.399  26.922  1.00  0.00     0.049 A 
ATOM     37  H   UNL A   1      45.611  27.433  27.313  1.00  0.00     0.167 HD
ATOM     38  C   UNL A   1      43.032  26.194  27.817  1.00  0.00     0.074 A 
ATOM     39  C   UNL A   1      41.638  25.967  28.152  1.00  0.00     0.031 C 
ATOM     40  C   UNL A   1      43.848  25.247  27.291  1.00  0.00     0.037 A 
BRANCH  27  41
ATOM     41  C   UNL A   1      49.599  27.068  25.865  1.00  0.00     0.058 A 
ATOM     42  C   UNL A   1      50.675  26.648  26.658  1.00  0.00     0.135 A 
ATOM     43  C   UNL A   1      49.810  27.201  24.483  1.00  0.00     0.135 A 
ATOM     44  F   UNL A   1      50.541  26.563  27.992  1.00  0.00    -0.206 F 
ATOM     45  C   UNL A   1      51.913  26.354  26.097  1.00  0.00     0.059 A 
ATOM     46  C   UNL A   1      51.032  26.891  23.898  1.00  0.00     0.059 A 
ATOM     47  F   UNL A   1      48.822  27.644  23.688  1.00  0.00    -0.206 F 
ATOM     48  C   UNL A   1      52.077  26.465  24.715  1.00  0.00     0.060 A 
BRANCH  48  49
ATOM     49  S   UNL A   1      53.668  26.012  23.994  1.00  0.00     0.124 S 
ATOM     50  O   UNL A   1      53.910  24.711  24.610  1.00  0.00    -0.237 OA
ATOM     51  O   UNL A   1      53.360  25.988  22.566  1.00  0.00    -0.237 OA
ATOM     52  O   UNL A   1      54.555  27.085  24.422  1.00  0.00    -0.744 OA
ENDBRANCH  48  49
ENDBRANCH  27  41
BRANCH  28  53
ATOM     53  C   UNL A   1      40.519  29.848  29.477  1.00  0.00     0.058 A 
ATOM     54  C   UNL A   1      40.225  30.068  30.830  1.00  0.00     0.135 A 
ATOM     55  C   UNL A   1      39.462  29.985  28.557  1.00  0.00     0.135 A 
ATOM     56  F   UNL A   1      41.193  29.950  31.753  1.00  0.00    -0.206 F 
ATOM     57  C   UNL A   1      38.935  30.364  31.261  1.00  0.00     0.059 A 
ATOM     58  C   UNL A   1      38.171  30.313  28.959  1.00  0.00     0.059 A 
ATOM     59  F   UNL A   1      39.677  29.797  27.246  1.00  0.00    -0.206 F 
ATOM     60  C   UNL A   1      37.911  30.476  30.317  1.00  0.00     0.060 A 
BRANCH  60  61
ATOM     61  S   UNL A   1      36.233  30.829  30.885  1.00  0.00     0.124 S 
ATOM     62  O   UNL A   1      35.435  30.293  29.784  1.00  0.00    -0.237 OA
ATOM     63  O   UNL A   1      36.170  30.084  32.138  1.00  0.00    -0.237 OA
ATOM     64  O   UNL A   1      36.222  32.279  31.023  1.00  0.00    -0.744 OA
ENDBRANCH  60  61
ENDBRANCH  28  53
BRANCH  40  65
ATOM     65  C   UNL A   1      43.252  23.891  27.072  1.00  0.00     0.058 A 
ATOM     66  C   UNL A   1      42.985  23.415  25.781  1.00  0.00     0.135 A 
ATOM     67  C   UNL A   1      43.047  23.030  28.160  1.00  0.00     0.135 A 
ATOM     68  F   UNL A   1      43.159  24.212  24.714  1.00  0.00    -0.206 F 
ATOM     69  C   UNL A   1      42.524  22.123  25.575  1.00  0.00     0.059 A 
ATOM     70  C   UNL A   1      42.620  21.723  27.974  1.00  0.00     0.059 A 
ATOM     71  F   UNL A   1      43.305  23.445  29.410  1.00  0.00    -0.206 F 
ATOM     72  C   UNL A   1      42.357  21.282  26.677  1.00  0.00     0.060 A 
BRANCH  72  73
ATOM     73  S   UNL A   1      41.832  19.582  26.388  1.00  0.00     0.124 S 
ATOM     74  O   UNL A   1      42.273  18.928  27.615  1.00  0.00    -0.237 OA
ATOM     75  O   UNL A   1      40.388  19.726  26.228  1.00  0.00    -0.237 OA
ATOM     76  O   UNL A   1      42.557  19.204  25.179  1.00  0.00    -0.744 OA
ENDBRANCH  72  73
ENDBRANCH  40  65
ENDBRANCH  14  15
ENDBRANCH   7   9
ENDBRANCH   6   7
ENDBRANCH   5   6
ENDBRANCH   4   5
ENDBRANCH   3   4
ENDBRANCH   2   3
ENDBRANCH   1   2
BRANCH   1  77
ATOM     77  O   UNL A   1      44.430  42.094  24.099  1.00  0.00    -0.377 OA
BRANCH  77  78
ATOM     78  C   UNL A   1      43.263  42.837  23.780  1.00  0.00     0.188 C 
BRANCH  78  79
ATOM     79  C   UNL A   1      41.983  42.181  23.275  1.00  0.00     0.188 C 
BRANCH  79  80
ATOM     80  O   UNL A   1      41.865  41.903  21.907  1.00  0.00    -0.376 OA
BRANCH  80  81
ATOM     81  C   UNL A   1      41.731  42.976  20.989  1.00  0.00     0.202 C 
BRANCH  81  82
ATOM     82  C   UNL A   1      42.089  42.928  19.481  1.00  0.00     0.261 C 
BRANCH  82  83
ATOM     83  O   UNL A   1      42.598  44.110  18.827  1.00  0.00    -0.463 OA
BRANCH  83  84
ATOM     84  C   UNL A   1      41.808  44.700  17.884  1.00  0.00     0.309 C 
ATOM     85  O   UNL A   1      40.657  44.369  17.645  1.00  0.00    -0.252 OA
BRANCH  84  86
ATOM     86  C   UNL A   1      42.527  45.801  17.072  1.00  0.00     0.099 C 
ATOM     87  C   UNL A   1      41.976  47.210  17.291  1.00  0.00     0.021 C 
ATOM     88  C   UNL A   1      44.033  45.709  17.313  1.00  0.00     0.021 C 
ATOM     89  C   UNL A   1      42.809  48.406  16.878  1.00  0.00     0.066 C 
ATOM     90  C   UNL A   1      44.781  46.917  16.757  1.00  0.00     0.066 C 
ATOM     91  C   UNL A   1      44.281  48.272  17.293  1.00  0.00     0.184 C 
BRANCH  91  92
ATOM     92  N   UNL A   1      44.595  48.637  18.691  1.00  0.00    -0.333 N 
ATOM     93  C   UNL A   1      44.837  50.071  18.882  1.00  0.00     0.262 C 
ATOM     94  C   UNL A   1      45.638  47.948  19.457  1.00  0.00     0.262 C 
ATOM     95  H   UNL A   1      43.716  48.294  19.077  1.00  0.00     0.348 HD
ATOM     96  C   UNL A   1      46.341  50.201  19.015  1.00  0.00     0.067 C 
ATOM     97  C   UNL A   1      46.720  48.967  19.802  1.00  0.00     0.067 C 
ENDBRANCH  91  92
ENDBRANCH  84  86
ENDBRANCH  83  84
ENDBRANCH  82  83
ENDBRANCH  81  82
ENDBRANCH  80  81
ENDBRANCH  79  80
ENDBRANCH  78  79
ENDBRANCH  77  78
ENDBRANCH   1  77
TORSDOF 24
ENDMDL
