MODEL 1
REMARK VINA RESULT:     -10.0      0.000      0.000
REMARK SMILES Cc1ccc([C@H](C)Nc2ccc(C(=O)OCCOCCOCCOCCOC(=O)c3ccc(-c4c5nc(c(-c6c(F)cc(S(=O)(=O)[O-])cc6F)c6ccc([nH]6)c(-c6c(F)cc(S(=O)(=O)[O-])cc6F)c6nc(c(-c7c(F)cc(S(=O)(=O)[O-])cc7F)c7ccc4[nH]7)C=C6)C=C5)cc3)cc2Cl)cc1F
REMARK SMILES IDX 21 1 20 2 19 3 18 4 17 5 16 6 15 7 13 8 14 9 12 10 9 11
REMARK SMILES IDX 10 12 97 13 11 14 96 15 98 16 8 17 6 19 7 20 5 21 1 22 2 23
REMARK SMILES IDX 3 24 100 25 4 26 99 27 101 28 22 29 23 30 24 31 25 32 26 33
REMARK SMILES IDX 27 34 28 35 29 36 30 37 31 38 95 39 32 40 94 41 33 42 34 43
REMARK SMILES IDX 35 44 88 45 36 46 93 47 87 48 89 49 37 50 92 51 86 52 85 53
REMARK SMILES IDX 38 55 72 56 51 57 71 58 52 59 55 60 70 61 90 62 53 63 54 64
REMARK SMILES IDX 69 66 91 67 56 68 39 69 40 70 49 71 41 72 42 73 48 74 50 75
REMARK SMILES IDX 43 76 44 77 45 78 46 79 47 80 73 81 74 82 83 83 75 84 76 85
REMARK SMILES IDX 82 86 84 87 77 88 78 89 79 90 80 91 81 92 57 93 58 94 67 95
REMARK SMILES IDX 59 96 60 97 66 98 68 99 61 100 62 101 63 102 64 103 65 104
REMARK H PARENT 8 18 89 54 55 65
REMARK Flexibility Score: inf
ROOT
ATOM      1  O   UNL A   1      35.412  33.348  27.549  1.00  0.00    -0.377 OA
ENDROOT
BRANCH   1   2
ATOM      2  C   UNL A   1      35.918  32.148  28.093  1.00  0.00     0.188 C 
BRANCH   2   3
ATOM      3  C   UNL A   1      35.104  30.847  27.875  1.00  0.00     0.188 C 
BRANCH   3   4
ATOM      4  O   UNL A   1      34.079  30.646  26.903  1.00  0.00    -0.376 OA
BRANCH   4   5
ATOM      5  C   UNL A   1      32.718  30.549  27.279  1.00  0.00     0.202 C 
BRANCH   5   6
ATOM      6  C   UNL A   1      31.786  30.176  26.109  1.00  0.00     0.261 C 
BRANCH   6   7
ATOM      7  O   UNL A   1      31.819  28.789  25.743  1.00  0.00    -0.460 OA
BRANCH   7   8
ATOM      8  C   UNL A   1      31.630  27.910  26.754  1.00  0.00     0.338 C 
ATOM      9  O   UNL A   1      31.096  28.130  27.830  1.00  0.00    -0.246 OA
BRANCH   8  10
ATOM     10  C   UNL A   1      32.075  26.561  26.334  1.00  0.00     0.061 A 
ATOM     11  C   UNL A   1      32.825  23.954  25.535  1.00  0.00     0.053 A 
ATOM     12  C   UNL A   1      31.484  24.272  25.798  1.00  0.00     0.028 A 
ATOM     13  C   UNL A   1      33.780  24.990  25.646  1.00  0.00     0.065 A 
ATOM     14  C   UNL A   1      31.114  25.552  26.217  1.00  0.00     0.018 A 
ATOM     15  C   UNL A   1      33.404  26.287  26.012  1.00  0.00     0.038 A 
ATOM     16  Cl  UNL A   1      35.457  24.763  25.282  1.00  0.00    -0.082 Cl
BRANCH  11  17
ATOM     17  N   UNL A   1      33.122  22.622  25.264  1.00  0.00    -0.377 N 
ATOM     18  H   UNL A   1      32.755  22.203  24.453  1.00  0.00     0.161 HD
BRANCH  17  19
ATOM     19  C   UNL A   1      33.965  21.830  26.160  1.00  0.00     0.106 C 
ATOM     20  C   UNL A   1      33.402  21.979  27.583  1.00  0.00     0.036 C 
BRANCH  19  21
ATOM     21  C   UNL A   1      34.087  20.413  25.606  1.00  0.00    -0.023 A 
ATOM     22  C   UNL A   1      34.030  16.598  23.540  1.00  0.00     0.047 C 
ATOM     23  C   UNL A   1      34.085  17.893  24.287  1.00  0.00    -0.015 A 
ATOM     24  C   UNL A   1      35.253  18.659  24.361  1.00  0.00     0.007 A 
ATOM     25  C   UNL A   1      32.934  18.382  24.895  1.00  0.00     0.126 A 
ATOM     26  C   UNL A   1      35.252  19.904  25.010  1.00  0.00     0.006 A 
ATOM     27  C   UNL A   1      32.930  19.609  25.548  1.00  0.00     0.045 A 
ATOM     28  F   UNL A   1      31.794  17.681  24.824  1.00  0.00    -0.207 F 
ENDBRANCH  19  21
ENDBRANCH  17  19
ENDBRANCH  11  17
ENDBRANCH   8  10
ENDBRANCH   7   8
ENDBRANCH   6   7
ENDBRANCH   5   6
ENDBRANCH   4   5
ENDBRANCH   3   4
ENDBRANCH   2   3
ENDBRANCH   1   2
BRANCH   1  29
ATOM     29  C   UNL A   1      34.819  34.277  28.432  1.00  0.00     0.188 C 
BRANCH  29  30
ATOM     30  C   UNL A   1      33.346  34.116  28.753  1.00  0.00     0.188 C 
BRANCH  30  31
ATOM     31  O   UNL A   1      32.562  35.198  29.252  1.00  0.00    -0.376 OA
BRANCH  31  32
ATOM     32  C   UNL A   1      33.251  35.931  30.290  1.00  0.00     0.202 C 
BRANCH  32  33
ATOM     33  C   UNL A   1      33.175  35.378  31.719  1.00  0.00     0.261 C 
BRANCH  33  34
ATOM     34  O   UNL A   1      34.328  34.606  32.062  1.00  0.00    -0.460 OA
BRANCH  34  35
ATOM     35  C   UNL A   1      34.286  33.595  32.972  1.00  0.00     0.338 C 
ATOM     36  O   UNL A   1      33.319  32.986  33.323  1.00  0.00    -0.246 OA
BRANCH  35  37
ATOM     37  C   UNL A   1      35.699  33.461  33.504  1.00  0.00     0.060 A 
ATOM     38  C   UNL A   1      36.460  34.620  33.453  1.00  0.00     0.016 A 
ATOM     39  C   UNL A   1      36.342  32.208  33.632  1.00  0.00     0.016 A 
ATOM     40  C   UNL A   1      37.811  34.490  33.137  1.00  0.00     0.010 A 
ATOM     41  C   UNL A   1      37.692  32.081  33.344  1.00  0.00     0.010 A 
ATOM     42  C   UNL A   1      38.372  33.213  32.942  1.00  0.00    -0.014 A 
BRANCH  42  43
ATOM     43  C   UNL A   1      39.619  33.066  32.194  1.00  0.00     0.031 A 
ATOM     44  C   UNL A   1      39.754  31.844  31.431  1.00  0.00     0.074 A 
ATOM     45  C   UNL A   1      40.709  33.845  32.392  1.00  0.00     0.049 A 
ATOM     46  N   UNL A   1      40.465  30.837  31.793  1.00  0.00    -0.248 NA
ATOM     47  C   UNL A   1      39.033  31.677  30.181  1.00  0.00     0.031 C 
ATOM     48  C   UNL A   1      42.100  33.557  32.054  1.00  0.00     0.029 A 
ATOM     49  N   UNL A   1      40.813  34.970  33.192  1.00  0.00    -0.354 N 
ATOM     50  C   UNL A   1      40.620  30.093  30.650  1.00  0.00     0.074 A 
ATOM     51  C   UNL A   1      39.562  30.526  29.755  1.00  0.00     0.031 C 
ATOM     52  C   UNL A   1      42.895  34.213  32.928  1.00  0.00     0.029 A 
ATOM     53  C   UNL A   1      42.059  34.980  33.842  1.00  0.00     0.049 A 
ATOM     54  H   UNL A   1      40.117  35.659  33.290  1.00  0.00     0.167 HD
ATOM     55  C   UNL A   1      41.781  29.410  30.442  1.00  0.00     0.037 A 
ATOM     56  C   UNL A   1      42.117  34.975  35.216  1.00  0.00     0.037 A 
ATOM     57  C   UNL A   1      42.771  29.736  31.480  1.00  0.00     0.049 A 
ATOM     58  C   UNL A   1      42.458  33.584  35.739  1.00  0.00     0.074 A 
ATOM     59  C   UNL A   1      43.879  30.571  31.466  1.00  0.00     0.029 A 
ATOM     60  N   UNL A   1      42.490  29.508  32.830  1.00  0.00    -0.354 N 
ATOM     61  N   UNL A   1      42.573  32.538  34.967  1.00  0.00    -0.248 NA
ATOM     62  C   UNL A   1      42.719  33.249  37.140  1.00  0.00     0.031 C 
ATOM     63  C   UNL A   1      44.210  30.909  32.800  1.00  0.00     0.029 A 
ATOM     64  C   UNL A   1      43.311  30.278  33.638  1.00  0.00     0.049 A 
ATOM     65  H   UNL A   1      41.803  28.886  33.161  1.00  0.00     0.167 HD
ATOM     66  C   UNL A   1      42.950  31.440  35.695  1.00  0.00     0.074 A 
ATOM     67  C   UNL A   1      43.026  31.939  37.056  1.00  0.00     0.031 C 
ATOM     68  C   UNL A   1      43.209  30.237  35.094  1.00  0.00     0.037 A 
BRANCH  55  69
ATOM     69  C   UNL A   1      42.096  28.792  29.099  1.00  0.00     0.058 A 
ATOM     70  C   UNL A   1      41.662  27.499  28.746  1.00  0.00     0.135 A 
ATOM     71  C   UNL A   1      42.839  29.460  28.101  1.00  0.00     0.135 A 
ATOM     72  F   UNL A   1      40.876  26.773  29.550  1.00  0.00    -0.206 F 
ATOM     73  C   UNL A   1      42.004  26.886  27.541  1.00  0.00     0.059 A 
ATOM     74  C   UNL A   1      43.236  28.851  26.908  1.00  0.00     0.059 A 
ATOM     75  F   UNL A   1      43.182  30.750  28.246  1.00  0.00    -0.206 F 
ATOM     76  C   UNL A   1      42.804  27.562  26.631  1.00  0.00     0.060 A 
BRANCH  76  77
ATOM     77  S   UNL A   1      43.205  26.754  25.072  1.00  0.00     0.124 S 
ATOM     78  O   UNL A   1      42.817  27.762  24.090  1.00  0.00    -0.237 OA
ATOM     79  O   UNL A   1      44.639  26.526  25.214  1.00  0.00    -0.237 OA
ATOM     80  O   UNL A   1      42.377  25.552  25.087  1.00  0.00    -0.744 OA
ENDBRANCH  76  77
ENDBRANCH  55  69
BRANCH  56  81
ATOM     81  C   UNL A   1      41.149  35.961  35.874  1.00  0.00     0.058 A 
ATOM     82  C   UNL A   1      40.009  35.389  36.489  1.00  0.00     0.135 A 
ATOM     83  C   UNL A   1      41.788  36.932  36.620  1.00  0.00     0.135 A 
ATOM     84  F   UNL A   1      39.140  34.694  35.739  1.00  0.00    -0.206 F 
ATOM     85  C   UNL A   1      39.814  35.403  37.880  1.00  0.00     0.059 A 
ATOM     86  C   UNL A   1      41.712  36.821  38.006  1.00  0.00     0.059 A 
ATOM     87  F   UNL A   1      42.766  37.654  36.061  1.00  0.00    -0.206 F 
ATOM     88  C   UNL A   1      40.779  36.021  38.645  1.00  0.00     0.060 A 
BRANCH  88  89
ATOM     89  S   UNL A   1      41.094  35.590  40.377  1.00  0.00     0.124 S 
ATOM     90  O   UNL A   1      41.107  34.130  40.339  1.00  0.00    -0.237 OA
ATOM     91  O   UNL A   1      42.376  36.231  40.648  1.00  0.00    -0.237 OA
ATOM     92  O   UNL A   1      39.948  36.199  41.048  1.00  0.00    -0.744 OA
ENDBRANCH  88  89
ENDBRANCH  56  81
BRANCH  68  93
ATOM     93  C   UNL A   1      43.561  28.937  35.780  1.00  0.00     0.058 A 
ATOM     94  C   UNL A   1      42.629  28.003  36.252  1.00  0.00     0.135 A 
ATOM     95  C   UNL A   1      44.923  28.543  35.878  1.00  0.00     0.135 A 
ATOM     96  F   UNL A   1      41.310  28.207  36.122  1.00  0.00    -0.206 F 
ATOM     97  C   UNL A   1      43.018  26.797  36.842  1.00  0.00     0.059 A 
ATOM     98  C   UNL A   1      45.327  27.320  36.398  1.00  0.00     0.059 A 
ATOM     99  F   UNL A   1      45.923  29.335  35.464  1.00  0.00    -0.206 F 
ATOM    100  C   UNL A   1      44.370  26.464  36.910  1.00  0.00     0.060 A 
BRANCH 100 101
ATOM    101  S   UNL A   1      44.875  24.895  37.629  1.00  0.00     0.124 S 
ATOM    102  O   UNL A   1      46.323  25.061  37.698  1.00  0.00    -0.237 OA
ATOM    103  O   UNL A   1      44.177  24.893  38.912  1.00  0.00    -0.237 OA
ATOM    104  O   UNL A   1      44.397  23.910  36.664  1.00  0.00    -0.744 OA
ENDBRANCH 100 101
ENDBRANCH  68  93
ENDBRANCH  42  43
ENDBRANCH  35  37
ENDBRANCH  34  35
ENDBRANCH  33  34
ENDBRANCH  32  33
ENDBRANCH  31  32
ENDBRANCH  30  31
ENDBRANCH  29  30
ENDBRANCH   1  29
TORSDOF 26
ENDMDL
MODEL 2
REMARK VINA RESULT:      -9.8      2.759      3.495
REMARK SMILES Cc1ccc([C@H](C)Nc2ccc(C(=O)OCCOCCOCCOCCOC(=O)c3ccc(-c4c5nc(c(-c6c(F)cc(S(=O)(=O)[O-])cc6F)c6ccc([nH]6)c(-c6c(F)cc(S(=O)(=O)[O-])cc6F)c6nc(c(-c7c(F)cc(S(=O)(=O)[O-])cc7F)c7ccc4[nH]7)C=C6)C=C5)cc3)cc2Cl)cc1F
REMARK SMILES IDX 21 1 20 2 19 3 18 4 17 5 16 6 15 7 13 8 14 9 12 10 9 11
REMARK SMILES IDX 10 12 97 13 11 14 96 15 98 16 8 17 6 19 7 20 5 21 1 22 2 23
REMARK SMILES IDX 3 24 100 25 4 26 99 27 101 28 22 29 23 30 24 31 25 32 26 33
REMARK SMILES IDX 27 34 28 35 29 36 30 37 31 38 95 39 32 40 94 41 33 42 34 43
REMARK SMILES IDX 35 44 88 45 36 46 93 47 87 48 89 49 37 50 92 51 86 52 85 53
REMARK SMILES IDX 38 55 72 56 51 57 71 58 52 59 55 60 70 61 90 62 53 63 54 64
REMARK SMILES IDX 69 66 91 67 56 68 39 69 40 70 49 71 41 72 42 73 48 74 50 75
REMARK SMILES IDX 43 76 44 77 45 78 46 79 47 80 73 81 74 82 83 83 75 84 76 85
REMARK SMILES IDX 82 86 84 87 77 88 78 89 79 90 80 91 81 92 57 93 58 94 67 95
REMARK SMILES IDX 59 96 60 97 66 98 68 99 61 100 62 101 63 102 64 103 65 104
REMARK H PARENT 8 18 89 54 55 65
REMARK Flexibility Score: inf
ROOT
ATOM      1  O   UNL A   1      35.543  32.989  27.532  1.00  0.00    -0.377 OA
ENDROOT
BRANCH   1   2
ATOM      2  C   UNL A   1      36.105  31.781  28.001  1.00  0.00     0.188 C 
BRANCH   2   3
ATOM      3  C   UNL A   1      35.246  30.494  27.918  1.00  0.00     0.188 C 
BRANCH   3   4
ATOM      4  O   UNL A   1      34.244  30.210  26.942  1.00  0.00    -0.376 OA
BRANCH   4   5
ATOM      5  C   UNL A   1      32.878  30.113  27.298  1.00  0.00     0.202 C 
BRANCH   5   6
ATOM      6  C   UNL A   1      31.949  29.860  26.093  1.00  0.00     0.261 C 
BRANCH   6   7
ATOM      7  O   UNL A   1      31.810  28.478  25.732  1.00  0.00    -0.460 OA
BRANCH   7   8
ATOM      8  C   UNL A   1      31.556  27.627  26.752  1.00  0.00     0.338 C 
ATOM      9  O   UNL A   1      31.031  27.896  27.822  1.00  0.00    -0.246 OA
BRANCH   8  10
ATOM     10  C   UNL A   1      31.912  26.245  26.353  1.00  0.00     0.061 A 
ATOM     11  C   UNL A   1      32.686  23.643  25.562  1.00  0.00     0.053 A 
ATOM     12  C   UNL A   1      33.555  24.733  25.410  1.00  0.00     0.028 A 
ATOM     13  C   UNL A   1      31.427  23.884  26.158  1.00  0.00     0.065 A 
ATOM     14  C   UNL A   1      33.167  26.023  25.776  1.00  0.00     0.018 A 
ATOM     15  C   UNL A   1      31.057  25.167  26.577  1.00  0.00     0.038 A 
ATOM     16  Cl  UNL A   1      30.282  22.625  26.475  1.00  0.00    -0.082 Cl
BRANCH  11  17
ATOM     17  N   UNL A   1      33.098  22.422  25.039  1.00  0.00    -0.377 N 
ATOM     18  H   UNL A   1      33.870  21.962  25.441  1.00  0.00     0.161 HD
BRANCH  17  19
ATOM     19  C   UNL A   1      32.413  21.807  23.902  1.00  0.00     0.106 C 
ATOM     20  C   UNL A   1      32.578  22.744  22.695  1.00  0.00     0.036 C 
BRANCH  19  21
ATOM     21  C   UNL A   1      32.906  20.371  23.739  1.00  0.00    -0.023 A 
ATOM     22  C   UNL A   1      34.230  16.245  23.942  1.00  0.00     0.047 C 
ATOM     23  C   UNL A   1      33.777  17.665  23.818  1.00  0.00    -0.015 A 
ATOM     24  C   UNL A   1      32.580  18.011  23.184  1.00  0.00     0.007 A 
ATOM     25  C   UNL A   1      34.541  18.679  24.386  1.00  0.00     0.126 A 
ATOM     26  C   UNL A   1      32.149  19.347  23.149  1.00  0.00     0.006 A 
ATOM     27  C   UNL A   1      34.125  20.004  24.343  1.00  0.00     0.045 A 
ATOM     28  F   UNL A   1      35.684  18.377  25.018  1.00  0.00    -0.207 F 
ENDBRANCH  19  21
ENDBRANCH  17  19
ENDBRANCH  11  17
ENDBRANCH   8  10
ENDBRANCH   7   8
ENDBRANCH   6   7
ENDBRANCH   5   6
ENDBRANCH   4   5
ENDBRANCH   3   4
ENDBRANCH   2   3
ENDBRANCH   1   2
BRANCH   1  29
ATOM     29  C   UNL A   1      35.083  33.920  28.488  1.00  0.00     0.188 C 
BRANCH  29  30
ATOM     30  C   UNL A   1      33.607  33.913  28.838  1.00  0.00     0.188 C 
BRANCH  30  31
ATOM     31  O   UNL A   1      32.885  35.120  29.078  1.00  0.00    -0.376 OA
BRANCH  31  32
ATOM     32  C   UNL A   1      33.459  35.886  30.162  1.00  0.00     0.202 C 
BRANCH  32  33
ATOM     33  C   UNL A   1      33.224  35.379  31.591  1.00  0.00     0.261 C 
BRANCH  33  34
ATOM     34  O   UNL A   1      34.247  34.475  32.018  1.00  0.00    -0.460 OA
BRANCH  34  35
ATOM     35  C   UNL A   1      34.019  33.497  32.936  1.00  0.00     0.338 C 
ATOM     36  O   UNL A   1      32.968  32.990  33.199  1.00  0.00    -0.246 OA
BRANCH  35  37
ATOM     37  C   UNL A   1      35.354  33.246  33.610  1.00  0.00     0.060 A 
ATOM     38  C   UNL A   1      35.737  34.207  34.534  1.00  0.00     0.016 A 
ATOM     39  C   UNL A   1      36.326  32.379  33.060  1.00  0.00     0.016 A 
ATOM     40  C   UNL A   1      37.088  34.543  34.591  1.00  0.00     0.010 A 
ATOM     41  C   UNL A   1      37.672  32.697  33.138  1.00  0.00     0.010 A 
ATOM     42  C   UNL A   1      38.019  33.872  33.774  1.00  0.00    -0.014 A 
BRANCH  42  43
ATOM     43  C   UNL A   1      39.315  34.482  33.486  1.00  0.00     0.031 A 
ATOM     44  C   UNL A   1      39.978  34.014  32.287  1.00  0.00     0.074 A 
ATOM     45  C   UNL A   1      40.015  35.216  34.383  1.00  0.00     0.049 A 
ATOM     46  N   UNL A   1      40.955  33.182  32.276  1.00  0.00    -0.248 NA
ATOM     47  C   UNL A   1      39.524  34.458  30.980  1.00  0.00     0.031 C 
ATOM     48  C   UNL A   1      41.445  35.508  34.394  1.00  0.00     0.029 A 
ATOM     49  N   UNL A   1      39.604  35.641  35.635  1.00  0.00    -0.354 N 
ATOM     50  C   UNL A   1      41.509  33.314  31.026  1.00  0.00     0.074 A 
ATOM     51  C   UNL A   1      40.484  33.936  30.208  1.00  0.00     0.031 C 
ATOM     52  C   UNL A   1      41.835  35.682  35.677  1.00  0.00     0.029 A 
ATOM     53  C   UNL A   1      40.672  35.549  36.545  1.00  0.00     0.049 A 
ATOM     54  H   UNL A   1      38.700  35.960  35.855  1.00  0.00     0.167 HD
ATOM     55  C   UNL A   1      42.855  33.170  30.866  1.00  0.00     0.037 A 
ATOM     56  C   UNL A   1      40.560  34.748  37.657  1.00  0.00     0.037 A 
ATOM     57  C   UNL A   1      43.524  33.035  32.170  1.00  0.00     0.049 A 
ATOM     58  C   UNL A   1      41.316  33.439  37.462  1.00  0.00     0.074 A 
ATOM     59  C   UNL A   1      44.245  33.943  32.932  1.00  0.00     0.029 A 
ATOM     60  N   UNL A   1      43.182  32.000  33.043  1.00  0.00    -0.354 N 
ATOM     61  N   UNL A   1      41.897  33.108  36.341  1.00  0.00    -0.248 NA
ATOM     62  C   UNL A   1      41.507  32.413  38.488  1.00  0.00     0.031 C 
ATOM     63  C   UNL A   1      44.265  33.494  34.273  1.00  0.00     0.029 A 
ATOM     64  C   UNL A   1      43.561  32.307  34.340  1.00  0.00     0.049 A 
ATOM     65  H   UNL A   1      42.732  31.166  32.773  1.00  0.00     0.167 HD
ATOM     66  C   UNL A   1      42.554  31.914  36.471  1.00  0.00     0.074 A 
ATOM     67  C   UNL A   1      42.277  31.515  37.839  1.00  0.00     0.031 C 
ATOM     68  C   UNL A   1      43.304  31.394  35.449  1.00  0.00     0.037 A 
BRANCH  55  69
ATOM     69  C   UNL A   1      43.534  33.553  29.571  1.00  0.00     0.058 A 
ATOM     70  C   UNL A   1      43.689  32.645  28.506  1.00  0.00     0.135 A 
ATOM     71  C   UNL A   1      44.058  34.843  29.332  1.00  0.00     0.135 A 
ATOM     72  F   UNL A   1      43.171  31.412  28.547  1.00  0.00    -0.206 F 
ATOM     73  C   UNL A   1      44.375  32.960  27.334  1.00  0.00     0.059 A 
ATOM     74  C   UNL A   1      44.792  35.169  28.188  1.00  0.00     0.059 A 
ATOM     75  F   UNL A   1      43.844  35.845  30.200  1.00  0.00    -0.206 F 
ATOM     76  C   UNL A   1      44.939  34.219  27.187  1.00  0.00     0.060 A 
BRANCH  76  77
ATOM     77  S   UNL A   1      45.796  34.605  25.650  1.00  0.00     0.124 S 
ATOM     78  O   UNL A   1      46.037  36.039  25.779  1.00  0.00    -0.237 OA
ATOM     79  O   UNL A   1      46.976  33.752  25.744  1.00  0.00    -0.237 OA
ATOM     80  O   UNL A   1      44.833  34.229  24.619  1.00  0.00    -0.744 OA
ENDBRANCH  76  77
ENDBRANCH  55  69
BRANCH  56  81
ATOM     81  C   UNL A   1      39.227  34.905  38.393  1.00  0.00     0.058 A 
ATOM     82  C   UNL A   1      38.345  33.800  38.315  1.00  0.00     0.135 A 
ATOM     83  C   UNL A   1      39.365  35.453  39.653  1.00  0.00     0.135 A 
ATOM     84  F   UNL A   1      37.890  33.409  37.115  1.00  0.00    -0.206 F 
ATOM     85  C   UNL A   1      38.028  33.007  39.430  1.00  0.00     0.059 A 
ATOM     86  C   UNL A   1      39.206  34.596  40.739  1.00  0.00     0.059 A 
ATOM     87  F   UNL A   1      40.035  36.602  39.802  1.00  0.00    -0.206 F 
ATOM     88  C   UNL A   1      38.600  33.355  40.633  1.00  0.00     0.060 A 
BRANCH  88  89
ATOM     89  S   UNL A   1      38.891  32.167  41.971  1.00  0.00     0.124 S 
ATOM     90  O   UNL A   1      38.131  32.748  43.075  1.00  0.00    -0.237 OA
ATOM     91  O   UNL A   1      38.368  30.921  41.425  1.00  0.00    -0.237 OA
ATOM     92  O   UNL A   1      40.345  32.218  42.104  1.00  0.00    -0.744 OA
ENDBRANCH  88  89
ENDBRANCH  56  81
BRANCH  68  93
ATOM     93  C   UNL A   1      44.017  30.062  35.435  1.00  0.00     0.058 A 
ATOM     94  C   UNL A   1      45.187  29.772  36.151  1.00  0.00     0.135 A 
ATOM     95  C   UNL A   1      43.436  28.962  34.745  1.00  0.00     0.135 A 
ATOM     96  F   UNL A   1      45.777  30.693  36.927  1.00  0.00    -0.206 F 
ATOM     97  C   UNL A   1      45.778  28.505  36.129  1.00  0.00     0.059 A 
ATOM     98  C   UNL A   1      43.969  27.681  34.768  1.00  0.00     0.059 A 
ATOM     99  F   UNL A   1      42.315  29.092  34.022  1.00  0.00    -0.206 F 
ATOM    100  C   UNL A   1      45.161  27.466  35.435  1.00  0.00     0.060 A 
BRANCH 100 101
ATOM    101  S   UNL A   1      45.893  25.823  35.439  1.00  0.00     0.124 S 
ATOM    102  O   UNL A   1      44.814  25.026  36.014  1.00  0.00    -0.237 OA
ATOM    103  O   UNL A   1      46.164  25.592  34.022  1.00  0.00    -0.237 OA
ATOM    104  O   UNL A   1      47.078  25.981  36.277  1.00  0.00    -0.744 OA
ENDBRANCH 100 101
ENDBRANCH  68  93
ENDBRANCH  42  43
ENDBRANCH  35  37
ENDBRANCH  34  35
ENDBRANCH  33  34
ENDBRANCH  32  33
ENDBRANCH  31  32
ENDBRANCH  30  31
ENDBRANCH  29  30
ENDBRANCH   1  29
TORSDOF 26
ENDMDL
MODEL 3
REMARK VINA RESULT:      -9.5      5.233     10.712
REMARK SMILES Cc1ccc([C@H](C)Nc2ccc(C(=O)OCCOCCOCCOCCOC(=O)c3ccc(-c4c5nc(c(-c6c(F)cc(S(=O)(=O)[O-])cc6F)c6ccc([nH]6)c(-c6c(F)cc(S(=O)(=O)[O-])cc6F)c6nc(c(-c7c(F)cc(S(=O)(=O)[O-])cc7F)c7ccc4[nH]7)C=C6)C=C5)cc3)cc2Cl)cc1F
REMARK SMILES IDX 21 1 20 2 19 3 18 4 17 5 16 6 15 7 13 8 14 9 12 10 9 11
REMARK SMILES IDX 10 12 97 13 11 14 96 15 98 16 8 17 6 19 7 20 5 21 1 22 2 23
REMARK SMILES IDX 3 24 100 25 4 26 99 27 101 28 22 29 23 30 24 31 25 32 26 33
REMARK SMILES IDX 27 34 28 35 29 36 30 37 31 38 95 39 32 40 94 41 33 42 34 43
REMARK SMILES IDX 35 44 88 45 36 46 93 47 87 48 89 49 37 50 92 51 86 52 85 53
REMARK SMILES IDX 38 55 72 56 51 57 71 58 52 59 55 60 70 61 90 62 53 63 54 64
REMARK SMILES IDX 69 66 91 67 56 68 39 69 40 70 49 71 41 72 42 73 48 74 50 75
REMARK SMILES IDX 43 76 44 77 45 78 46 79 47 80 73 81 74 82 83 83 75 84 76 85
REMARK SMILES IDX 82 86 84 87 77 88 78 89 79 90 80 91 81 92 57 93 58 94 67 95
REMARK SMILES IDX 59 96 60 97 66 98 68 99 61 100 62 101 63 102 64 103 65 104
REMARK H PARENT 8 18 89 54 55 65
REMARK Flexibility Score: inf
ROOT
ATOM      1  O   UNL A   1      33.437  21.577  25.677  1.00  0.00    -0.377 OA
ENDROOT
BRANCH   1   2
ATOM      2  C   UNL A   1      32.831  22.703  25.078  1.00  0.00     0.188 C 
BRANCH   2   3
ATOM      3  C   UNL A   1      33.076  24.092  25.720  1.00  0.00     0.188 C 
BRANCH   3   4
ATOM      4  O   UNL A   1      32.118  25.142  25.850  1.00  0.00    -0.376 OA
BRANCH   4   5
ATOM      5  C   UNL A   1      30.942  25.167  25.064  1.00  0.00     0.202 C 
BRANCH   5   6
ATOM      6  C   UNL A   1      30.983  26.217  23.935  1.00  0.00     0.261 C 
BRANCH   6   7
ATOM      7  O   UNL A   1      31.109  27.572  24.391  1.00  0.00    -0.460 OA
BRANCH   7   8
ATOM      8  C   UNL A   1      32.279  28.184  24.100  1.00  0.00     0.338 C 
ATOM      9  O   UNL A   1      32.878  28.159  23.035  1.00  0.00    -0.246 OA
BRANCH   8  10
ATOM     10  C   UNL A   1      32.712  29.013  25.249  1.00  0.00     0.061 A 
ATOM     11  C   UNL A   1      33.445  30.643  27.440  1.00  0.00     0.053 A 
ATOM     12  C   UNL A   1      32.198  30.790  26.814  1.00  0.00     0.028 A 
ATOM     13  C   UNL A   1      34.304  29.628  26.962  1.00  0.00     0.065 A 
ATOM     14  C   UNL A   1      31.843  30.004  25.716  1.00  0.00     0.018 A 
ATOM     15  C   UNL A   1      33.928  28.802  25.897  1.00  0.00     0.038 A 
ATOM     16  Cl  UNL A   1      35.841  29.283  27.682  1.00  0.00    -0.082 Cl
BRANCH  11  17
ATOM     17  N   UNL A   1      33.773  31.563  28.430  1.00  0.00    -0.377 N 
ATOM     18  H   UNL A   1      33.581  31.345  29.371  1.00  0.00     0.161 HD
BRANCH  17  19
ATOM     19  C   UNL A   1      34.393  32.848  28.105  1.00  0.00     0.106 C 
ATOM     20  C   UNL A   1      33.277  33.902  28.042  1.00  0.00     0.036 C 
BRANCH  19  21
ATOM     21  C   UNL A   1      35.540  33.108  29.079  1.00  0.00    -0.023 A 
ATOM     22  C   UNL A   1      38.764  34.484  31.635  1.00  0.00     0.047 C 
ATOM     23  C   UNL A   1      37.656  33.961  30.777  1.00  0.00    -0.015 A 
ATOM     24  C   UNL A   1      36.439  33.531  31.314  1.00  0.00     0.007 A 
ATOM     25  C   UNL A   1      37.814  33.937  29.395  1.00  0.00     0.126 A 
ATOM     26  C   UNL A   1      35.394  33.113  30.475  1.00  0.00     0.006 A 
ATOM     27  C   UNL A   1      36.786  33.513  28.561  1.00  0.00     0.045 A 
ATOM     28  F   UNL A   1      38.962  34.361  28.848  1.00  0.00    -0.207 F 
ENDBRANCH  19  21
ENDBRANCH  17  19
ENDBRANCH  11  17
ENDBRANCH   8  10
ENDBRANCH   7   8
ENDBRANCH   6   7
ENDBRANCH   5   6
ENDBRANCH   4   5
ENDBRANCH   3   4
ENDBRANCH   2   3
ENDBRANCH   1   2
BRANCH   1  29
ATOM     29  C   UNL A   1      34.496  20.949  24.984  1.00  0.00     0.188 C 
BRANCH  29  30
ATOM     30  C   UNL A   1      35.909  21.429  25.254  1.00  0.00     0.188 C 
BRANCH  30  31
ATOM     31  O   UNL A   1      36.322  22.762  24.955  1.00  0.00    -0.376 OA
BRANCH  31  32
ATOM     32  C   UNL A   1      37.403  23.195  25.812  1.00  0.00     0.202 C 
BRANCH  32  33
ATOM     33  C   UNL A   1      38.611  22.262  25.959  1.00  0.00     0.261 C 
BRANCH  33  34
ATOM     34  O   UNL A   1      39.807  22.974  26.285  1.00  0.00    -0.460 OA
BRANCH  34  35
ATOM     35  C   UNL A   1      40.606  22.621  27.328  1.00  0.00     0.338 C 
ATOM     36  O   UNL A   1      40.261  22.382  28.448  1.00  0.00    -0.246 OA
BRANCH  35  37
ATOM     37  C   UNL A   1      42.025  22.674  26.797  1.00  0.00     0.060 A 
ATOM     38  C   UNL A   1      42.987  23.047  27.723  1.00  0.00     0.016 A 
ATOM     39  C   UNL A   1      42.310  22.772  25.415  1.00  0.00     0.016 A 
ATOM     40  C   UNL A   1      44.029  23.859  27.279  1.00  0.00     0.010 A 
ATOM     41  C   UNL A   1      43.362  23.558  24.971  1.00  0.00     0.010 A 
ATOM     42  C   UNL A   1      44.113  24.222  25.921  1.00  0.00    -0.014 A 
BRANCH  42  43
ATOM     43  C   UNL A   1      44.894  25.390  25.520  1.00  0.00     0.031 A 
ATOM     44  C   UNL A   1      46.323  25.187  25.418  1.00  0.00     0.074 A 
ATOM     45  C   UNL A   1      44.404  26.653  25.511  1.00  0.00     0.049 A 
ATOM     46  N   UNL A   1      47.175  25.573  26.298  1.00  0.00    -0.248 NA
ATOM     47  C   UNL A   1      46.883  24.475  24.283  1.00  0.00     0.031 C 
ATOM     48  C   UNL A   1      45.143  27.910  25.556  1.00  0.00     0.029 A 
ATOM     49  N   UNL A   1      43.097  27.056  25.725  1.00  0.00    -0.354 N 
ATOM     50  C   UNL A   1      48.385  25.534  25.651  1.00  0.00     0.074 A 
ATOM     51  C   UNL A   1      48.188  24.663  24.507  1.00  0.00     0.031 C 
ATOM     52  C   UNL A   1      44.366  28.841  26.153  1.00  0.00     0.029 A 
ATOM     53  C   UNL A   1      43.080  28.240  26.484  1.00  0.00     0.049 A 
ATOM     54  H   UNL A   1      42.299  26.585  25.395  1.00  0.00     0.167 HD
ATOM     55  C   UNL A   1      49.342  26.456  25.954  1.00  0.00     0.037 A 
ATOM     56  C   UNL A   1      42.447  28.264  27.705  1.00  0.00     0.037 A 
ATOM     57  C   UNL A   1      48.813  27.476  26.873  1.00  0.00     0.049 A 
ATOM     58  C   UNL A   1      43.459  28.183  28.842  1.00  0.00     0.074 A 
ATOM     59  C   UNL A   1      48.379  28.776  26.654  1.00  0.00     0.029 A 
ATOM     60  N   UNL A   1      48.297  27.113  28.119  1.00  0.00    -0.354 N 
ATOM     61  N   UNL A   1      44.738  28.011  28.651  1.00  0.00    -0.248 NA
ATOM     62  C   UNL A   1      43.141  28.308  30.265  1.00  0.00     0.031 C 
ATOM     63  C   UNL A   1      47.541  29.161  27.727  1.00  0.00     0.029 A 
ATOM     64  C   UNL A   1      47.459  28.102  28.611  1.00  0.00     0.049 A 
ATOM     65  H   UNL A   1      48.501  26.269  28.585  1.00  0.00     0.167 HD
ATOM     66  C   UNL A   1      45.413  28.044  29.842  1.00  0.00     0.074 A 
ATOM     67  C   UNL A   1      44.363  28.229  30.828  1.00  0.00     0.031 C 
ATOM     68  C   UNL A   1      46.779  27.961  29.894  1.00  0.00     0.037 A 
BRANCH  55  69
ATOM     69  C   UNL A   1      50.578  26.610  25.097  1.00  0.00     0.058 A 
ATOM     70  C   UNL A   1      51.789  25.956  25.401  1.00  0.00     0.135 A 
ATOM     71  C   UNL A   1      50.613  27.411  23.935  1.00  0.00     0.135 A 
ATOM     72  F   UNL A   1      51.892  25.097  26.421  1.00  0.00    -0.206 F 
ATOM     73  C   UNL A   1      52.958  26.144  24.664  1.00  0.00     0.059 A 
ATOM     74  C   UNL A   1      51.782  27.653  23.209  1.00  0.00     0.059 A 
ATOM     75  F   UNL A   1      49.491  27.965  23.447  1.00  0.00    -0.206 F 
ATOM     76  C   UNL A   1      52.953  27.006  23.577  1.00  0.00     0.060 A 
BRANCH  76  77
ATOM     77  S   UNL A   1      54.471  27.205  22.629  1.00  0.00     0.124 S 
ATOM     78  O   UNL A   1      54.581  28.656  22.518  1.00  0.00    -0.237 OA
ATOM     79  O   UNL A   1      55.451  26.558  23.495  1.00  0.00    -0.237 OA
ATOM     80  O   UNL A   1      54.186  26.507  21.378  1.00  0.00    -0.744 OA
ENDBRANCH  76  77
ENDBRANCH  55  69
BRANCH  56  81
ATOM     81  C   UNL A   1      41.067  27.604  27.692  1.00  0.00     0.058 A 
ATOM     82  C   UNL A   1      40.772  26.767  28.796  1.00  0.00     0.135 A 
ATOM     83  C   UNL A   1      40.054  28.472  27.332  1.00  0.00     0.135 A 
ATOM     84  F   UNL A   1      41.532  25.685  29.017  1.00  0.00    -0.206 F 
ATOM     85  C   UNL A   1      39.797  27.094  29.752  1.00  0.00     0.059 A 
ATOM     86  C   UNL A   1      39.202  28.908  28.343  1.00  0.00     0.059 A 
ATOM     87  F   UNL A   1      40.163  29.178  26.200  1.00  0.00    -0.206 F 
ATOM     88  C   UNL A   1      39.107  28.273  29.571  1.00  0.00     0.060 A 
BRANCH  88  89
ATOM     89  S   UNL A   1      38.354  29.199  30.934  1.00  0.00     0.124 S 
ATOM     90  O   UNL A   1      38.534  30.584  30.508  1.00  0.00    -0.237 OA
ATOM     91  O   UNL A   1      36.981  28.710  30.947  1.00  0.00    -0.237 OA
ATOM     92  O   UNL A   1      39.170  28.773  32.070  1.00  0.00    -0.744 OA
ENDBRANCH  88  89
ENDBRANCH  56  81
BRANCH  68  93
ATOM     93  C   UNL A   1      47.639  27.913  31.136  1.00  0.00     0.058 A 
ATOM     94  C   UNL A   1      47.948  29.020  31.939  1.00  0.00     0.135 A 
ATOM     95  C   UNL A   1      48.098  26.659  31.623  1.00  0.00     0.135 A 
ATOM     96  F   UNL A   1      47.486  30.244  31.648  1.00  0.00    -0.206 F 
ATOM     97  C   UNL A   1      48.716  28.903  33.101  1.00  0.00     0.059 A 
ATOM     98  C   UNL A   1      48.803  26.514  32.811  1.00  0.00     0.059 A 
ATOM     99  F   UNL A   1      47.873  25.515  30.961  1.00  0.00    -0.206 F 
ATOM    100  C   UNL A   1      49.138  27.646  33.529  1.00  0.00     0.060 A 
BRANCH 100 101
ATOM    101  S   UNL A   1      50.090  27.485  35.047  1.00  0.00     0.124 S 
ATOM    102  O   UNL A   1      49.038  27.542  36.056  1.00  0.00    -0.237 OA
ATOM    103  O   UNL A   1      50.737  26.186  34.881  1.00  0.00    -0.237 OA
ATOM    104  O   UNL A   1      50.990  28.633  35.006  1.00  0.00    -0.744 OA
ENDBRANCH 100 101
ENDBRANCH  68  93
ENDBRANCH  42  43
ENDBRANCH  35  37
ENDBRANCH  34  35
ENDBRANCH  33  34
ENDBRANCH  32  33
ENDBRANCH  31  32
ENDBRANCH  30  31
ENDBRANCH  29  30
ENDBRANCH   1  29
TORSDOF 26
ENDMDL
