MODEL 1
REMARK VINA RESULT:      -9.0      0.000      0.000
REMARK SMILES C[C@@H](C(=O)OCCOCCOCCOCCOC(=O)c1ccc(-c2c3nc(c(-c4c(F)cc(S(=O)(=O)[O-])cc4F)c4ccc([nH]4)c(-c4c(F)cc(S(=O)(=O)[O-])cc4F)c4nc(c(-c5c(F)cc(S(=O)(=O)[O-])cc5F)c5ccc2[nH]5)C=C4)C=C3)cc1)c1ccc(-c2cccc(OC(=O)NCCCc3ccccc3)c2)c(F)c1
REMARK SMILES IDX 9 1 8 2 7 3 6 4 5 5 3 6 4 7 2 8 1 9 86 10 87 11 111 12 88 13
REMARK SMILES IDX 109 14 89 15 110 16 90 17 91 18 108 19 92 20 94 21 93 22
REMARK SMILES IDX 95 23 96 24 97 25 98 26 99 28 100 29 101 30 102 31 103 32
REMARK SMILES IDX 107 33 104 34 106 35 105 36 10 37 11 38 12 39 13 40 14 41
REMARK SMILES IDX 15 42 16 43 17 44 18 45 19 46 20 47 21 48 85 49 22 50 84 51
REMARK SMILES IDX 23 52 24 53 25 54 78 55 26 56 83 57 77 58 79 59 27 60 82 61
REMARK SMILES IDX 76 62 75 63 28 65 62 66 41 67 61 68 42 69 45 70 60 71 80 72
REMARK SMILES IDX 43 73 44 74 59 76 81 77 46 78 29 79 30 80 39 81 31 82 32 83
REMARK SMILES IDX 38 84 40 85 33 86 34 87 35 88 36 89 37 90 63 91 64 92 73 93
REMARK SMILES IDX 65 94 66 95 72 96 74 97 67 98 68 99 69 100 70 101 71 102
REMARK SMILES IDX 47 103 48 104 57 105 49 106 50 107 56 108 58 109 51 110
REMARK SMILES IDX 52 111 53 112 54 113 55 114
REMARK H PARENT 98 27 79 64 45 75
REMARK Flexibility Score: inf
ROOT
ATOM      1  C   UNL A   1      45.541  19.633  24.294  1.00  0.00     0.188 C 
ENDROOT
BRANCH   1   2
ATOM      2  O   UNL A   1      44.550  18.664  24.551  1.00  0.00    -0.376 OA
BRANCH   2   3
ATOM      3  C   UNL A   1      43.738  18.738  25.713  1.00  0.00     0.202 C 
BRANCH   3   4
ATOM      4  C   UNL A   1      42.312  19.326  25.779  1.00  0.00     0.261 C 
BRANCH   4   5
ATOM      5  O   UNL A   1      41.722  19.456  27.076  1.00  0.00    -0.463 OA
BRANCH   5   6
ATOM      6  C   UNL A   1      41.119  20.626  27.388  1.00  0.00     0.313 C 
ATOM      7  O   UNL A   1      40.976  21.043  28.534  1.00  0.00    -0.252 OA
BRANCH   6   8
ATOM      8  C   UNL A   1      40.722  21.442  26.145  1.00  0.00     0.126 C 
ATOM      9  C   UNL A   1      41.276  22.876  26.179  1.00  0.00     0.025 C 
BRANCH   8  10
ATOM     10  C   UNL A   1      39.242  21.287  25.760  1.00  0.00    -0.031 A 
ATOM     11  C   UNL A   1      38.708  20.111  25.201  1.00  0.00     0.005 A 
ATOM     12  C   UNL A   1      38.336  22.325  26.039  1.00  0.00     0.044 A 
ATOM     13  C   UNL A   1      37.331  19.987  24.932  1.00  0.00     0.012 A 
ATOM     14  C   UNL A   1      36.976  22.197  25.763  1.00  0.00     0.131 A 
ATOM     15  C   UNL A   1      36.438  21.028  25.217  1.00  0.00     0.018 A 
ATOM     16  F   UNL A   1      36.176  23.234  26.063  1.00  0.00    -0.206 F 
BRANCH  15  17
ATOM     17  C   UNL A   1      34.993  20.914  24.963  1.00  0.00    -0.012 A 
ATOM     18  C   UNL A   1      34.377  19.667  24.764  1.00  0.00     0.009 A 
ATOM     19  C   UNL A   1      34.184  22.064  24.969  1.00  0.00     0.056 A 
ATOM     20  C   UNL A   1      32.992  19.570  24.591  1.00  0.00     0.004 A 
ATOM     21  C   UNL A   1      32.808  21.965  24.785  1.00  0.00     0.133 A 
ATOM     22  C   UNL A   1      32.205  20.720  24.603  1.00  0.00     0.047 A 
BRANCH  21  23
ATOM     23  O   UNL A   1      31.921  23.068  24.813  1.00  0.00    -0.410 OA
BRANCH  23  24
ATOM     24  C   UNL A   1      31.092  23.419  25.873  1.00  0.00     0.412 C 
ATOM     25  O   UNL A   1      31.165  23.007  27.029  1.00  0.00    -0.224 OA
ATOM     26  N   UNL A   1      30.138  24.333  25.533  1.00  0.00    -0.321 N 
ATOM     27  H   UNL A   1      29.449  24.537  26.207  1.00  0.00     0.167 HD
BRANCH  26  28
ATOM     28  C   UNL A   1      30.049  25.029  24.272  1.00  0.00     0.120 C 
BRANCH  28  29
ATOM     29  C   UNL A   1      29.413  26.417  24.360  1.00  0.00     0.026 C 
BRANCH  29  30
ATOM     30  C   UNL A   1      29.914  27.512  23.409  1.00  0.00     0.037 C 
BRANCH  30  31
ATOM     31  C   UNL A   1      31.378  27.887  23.361  1.00  0.00    -0.048 A 
ATOM     32  C   UNL A   1      31.978  28.861  24.164  1.00  0.00     0.004 A 
ATOM     33  C   UNL A   1      32.175  27.260  22.386  1.00  0.00     0.004 A 
ATOM     34  C   UNL A   1      33.322  29.210  23.992  1.00  0.00     0.000 A 
ATOM     35  C   UNL A   1      33.521  27.598  22.219  1.00  0.00     0.000 A 
ATOM     36  C   UNL A   1      34.092  28.582  23.019  1.00  0.00     0.000 A 
ENDBRANCH  30  31
ENDBRANCH  29  30
ENDBRANCH  28  29
ENDBRANCH  26  28
ENDBRANCH  23  24
ENDBRANCH  21  23
ENDBRANCH  15  17
ENDBRANCH   8  10
ENDBRANCH   6   8
ENDBRANCH   5   6
ENDBRANCH   4   5
ENDBRANCH   3   4
ENDBRANCH   2   3
ENDBRANCH   1   2
BRANCH   1  37
ATOM     37  C   UNL A   1      45.053  21.090  24.298  1.00  0.00     0.188 C 
BRANCH  37  38
ATOM     38  O   UNL A   1      45.482  21.904  25.376  1.00  0.00    -0.377 OA
BRANCH  38  39
ATOM     39  C   UNL A   1      46.121  23.149  25.106  1.00  0.00     0.188 C 
BRANCH  39  40
ATOM     40  C   UNL A   1      45.806  24.424  25.918  1.00  0.00     0.188 C 
BRANCH  40  41
ATOM     41  O   UNL A   1      44.535  24.445  26.545  1.00  0.00    -0.376 OA
BRANCH  41  42
ATOM     42  C   UNL A   1      44.401  25.136  27.778  1.00  0.00     0.202 C 
BRANCH  42  43
ATOM     43  C   UNL A   1      44.992  26.552  27.867  1.00  0.00     0.261 C 
BRANCH  43  44
ATOM     44  O   UNL A   1      44.735  27.276  29.080  1.00  0.00    -0.460 OA
BRANCH  44  45
ATOM     45  C   UNL A   1      45.543  28.319  29.371  1.00  0.00     0.338 C 
ATOM     46  O   UNL A   1      46.291  28.902  28.610  1.00  0.00    -0.246 OA
BRANCH  45  47
ATOM     47  C   UNL A   1      45.220  28.766  30.744  1.00  0.00     0.060 A 
ATOM     48  C   UNL A   1      44.562  27.882  31.608  1.00  0.00     0.016 A 
ATOM     49  C   UNL A   1      45.565  30.050  31.171  1.00  0.00     0.016 A 
ATOM     50  C   UNL A   1      44.209  28.296  32.894  1.00  0.00     0.010 A 
ATOM     51  C   UNL A   1      45.193  30.469  32.451  1.00  0.00     0.010 A 
ATOM     52  C   UNL A   1      44.480  29.607  33.304  1.00  0.00    -0.014 A 
BRANCH  52  53
ATOM     53  C   UNL A   1      43.841  30.140  34.534  1.00  0.00     0.031 A 
ATOM     54  C   UNL A   1      42.483  30.777  34.408  1.00  0.00     0.074 A 
ATOM     55  C   UNL A   1      44.437  30.047  35.735  1.00  0.00     0.049 A 
ATOM     56  N   UNL A   1      41.754  31.368  35.319  1.00  0.00    -0.248 NA
ATOM     57  C   UNL A   1      41.865  30.743  33.072  1.00  0.00     0.031 C 
ATOM     58  C   UNL A   1      45.731  29.414  35.990  1.00  0.00     0.029 A 
ATOM     59  N   UNL A   1      44.033  30.498  36.966  1.00  0.00    -0.354 N 
ATOM     60  C   UNL A   1      40.598  31.783  34.666  1.00  0.00     0.074 A 
ATOM     61  C   UNL A   1      40.739  31.408  33.276  1.00  0.00     0.031 C 
ATOM     62  C   UNL A   1      46.022  29.535  37.297  1.00  0.00     0.029 A 
ATOM     63  C   UNL A   1      44.956  30.283  37.963  1.00  0.00     0.049 A 
ATOM     64  H   UNL A   1      43.165  30.934  37.122  1.00  0.00     0.167 HD
ATOM     65  C   UNL A   1      39.513  32.409  35.180  1.00  0.00     0.037 A 
ATOM     66  C   UNL A   1      44.953  30.672  39.254  1.00  0.00     0.037 A 
ATOM     67  C   UNL A   1      39.385  32.785  36.565  1.00  0.00     0.049 A 
ATOM     68  C   UNL A   1      43.769  31.439  39.791  1.00  0.00     0.074 A 
ATOM     69  C   UNL A   1      38.324  33.418  37.188  1.00  0.00     0.029 A 
ATOM     70  N   UNL A   1      40.351  32.572  37.537  1.00  0.00    -0.354 N 
ATOM     71  N   UNL A   1      42.674  31.812  39.168  1.00  0.00    -0.248 NA
ATOM     72  C   UNL A   1      43.816  31.836  41.205  1.00  0.00     0.031 C 
ATOM     73  C   UNL A   1      38.674  33.641  38.524  1.00  0.00     0.029 A 
ATOM     74  C   UNL A   1      39.923  33.086  38.750  1.00  0.00     0.049 A 
ATOM     75  H   UNL A   1      41.215  32.122  37.387  1.00  0.00     0.167 HD
ATOM     76  C   UNL A   1      41.892  32.457  40.123  1.00  0.00     0.074 A 
ATOM     77  C   UNL A   1      42.634  32.414  41.366  1.00  0.00     0.031 C 
ATOM     78  C   UNL A   1      40.670  33.030  39.984  1.00  0.00     0.037 A 
BRANCH  65  79
ATOM     79  C   UNL A   1      38.396  32.755  34.234  1.00  0.00     0.058 A 
ATOM     80  C   UNL A   1      37.452  31.801  33.819  1.00  0.00     0.135 A 
ATOM     81  C   UNL A   1      38.251  34.068  33.754  1.00  0.00     0.135 A 
ATOM     82  F   UNL A   1      37.552  30.527  34.230  1.00  0.00    -0.206 F 
ATOM     83  C   UNL A   1      36.424  32.128  32.940  1.00  0.00     0.059 A 
ATOM     84  C   UNL A   1      37.212  34.424  32.900  1.00  0.00     0.059 A 
ATOM     85  F   UNL A   1      39.126  35.020  34.114  1.00  0.00    -0.206 F 
ATOM     86  C   UNL A   1      36.311  33.444  32.488  1.00  0.00     0.060 A 
BRANCH  86  87
ATOM     87  S   UNL A   1      34.970  33.851  31.351  1.00  0.00     0.124 S 
ATOM     88  O   UNL A   1      35.536  33.435  30.070  1.00  0.00    -0.237 OA
ATOM     89  O   UNL A   1      33.874  33.030  31.856  1.00  0.00    -0.237 OA
ATOM     90  O   UNL A   1      34.802  35.291  31.522  1.00  0.00    -0.744 OA
ENDBRANCH  86  87
ENDBRANCH  65  79
BRANCH  66  91
ATOM     91  C   UNL A   1      46.117  30.361  40.128  1.00  0.00     0.058 A 
ATOM     92  C   UNL A   1      46.126  29.232  40.959  1.00  0.00     0.135 A 
ATOM     93  C   UNL A   1      47.249  31.194  40.149  1.00  0.00     0.135 A 
ATOM     94  F   UNL A   1      45.064  28.413  40.989  1.00  0.00    -0.206 F 
ATOM     95  C   UNL A   1      47.206  28.943  41.788  1.00  0.00     0.059 A 
ATOM     96  C   UNL A   1      48.354  30.910  40.946  1.00  0.00     0.059 A 
ATOM     97  F   UNL A   1      47.296  32.285  39.369  1.00  0.00    -0.206 F 
ATOM     98  C   UNL A   1      48.319  29.786  41.769  1.00  0.00     0.060 A 
BRANCH  98  99
ATOM     99  S   UNL A   1      49.739  29.369  42.805  1.00  0.00     0.124 S 
ATOM    100  O   UNL A   1      49.380  30.004  44.067  1.00  0.00    -0.237 OA
ATOM    101  O   UNL A   1      49.707  27.910  42.791  1.00  0.00    -0.237 OA
ATOM    102  O   UNL A   1      50.863  29.971  42.093  1.00  0.00    -0.744 OA
ENDBRANCH  98  99
ENDBRANCH  66  91
BRANCH  78 103
ATOM    103  C   UNL A   1      40.029  33.621  41.213  1.00  0.00     0.058 A 
ATOM    104  C   UNL A   1      40.250  34.952  41.601  1.00  0.00     0.135 A 
ATOM    105  C   UNL A   1      39.130  32.859  41.979  1.00  0.00     0.135 A 
ATOM    106  F   UNL A   1      41.101  35.725  40.908  1.00  0.00    -0.206 F 
ATOM    107  C   UNL A   1      39.625  35.497  42.718  1.00  0.00     0.059 A 
ATOM    108  C   UNL A   1      38.468  33.393  43.080  1.00  0.00     0.059 A 
ATOM    109  F   UNL A   1      38.871  31.583  41.647  1.00  0.00    -0.206 F 
ATOM    110  C   UNL A   1      38.732  34.711  43.449  1.00  0.00     0.060 A 
BRANCH 110 111
ATOM    111  S   UNL A   1      37.902  35.443  44.876  1.00  0.00     0.124 S 
ATOM    112  O   UNL A   1      38.275  34.518  45.941  1.00  0.00    -0.237 OA
ATOM    113  O   UNL A   1      38.511  36.768  44.944  1.00  0.00    -0.237 OA
ATOM    114  O   UNL A   1      36.492  35.427  44.496  1.00  0.00    -0.744 OA
ENDBRANCH 110 111
ENDBRANCH  78 103
ENDBRANCH  52  53
ENDBRANCH  45  47
ENDBRANCH  44  45
ENDBRANCH  43  44
ENDBRANCH  42  43
ENDBRANCH  41  42
ENDBRANCH  40  41
ENDBRANCH  39  40
ENDBRANCH  38  39
ENDBRANCH  37  38
ENDBRANCH   1  37
TORSDOF 31
ENDMDL
MODEL 2
REMARK VINA RESULT:      -8.7      1.739      2.920
REMARK SMILES C[C@@H](C(=O)OCCOCCOCCOCCOC(=O)c1ccc(-c2c3nc(c(-c4c(F)cc(S(=O)(=O)[O-])cc4F)c4ccc([nH]4)c(-c4c(F)cc(S(=O)(=O)[O-])cc4F)c4nc(c(-c5c(F)cc(S(=O)(=O)[O-])cc5F)c5ccc2[nH]5)C=C4)C=C3)cc1)c1ccc(-c2cccc(OC(=O)NCCCc3ccccc3)c2)c(F)c1
REMARK SMILES IDX 9 1 8 2 7 3 6 4 5 5 3 6 4 7 2 8 1 9 86 10 87 11 111 12 88 13
REMARK SMILES IDX 109 14 89 15 110 16 90 17 91 18 108 19 92 20 94 21 93 22
REMARK SMILES IDX 95 23 96 24 97 25 98 26 99 28 100 29 101 30 102 31 103 32
REMARK SMILES IDX 107 33 104 34 106 35 105 36 10 37 11 38 12 39 13 40 14 41
REMARK SMILES IDX 15 42 16 43 17 44 18 45 19 46 20 47 21 48 85 49 22 50 84 51
REMARK SMILES IDX 23 52 24 53 25 54 78 55 26 56 83 57 77 58 79 59 27 60 82 61
REMARK SMILES IDX 76 62 75 63 28 65 62 66 41 67 61 68 42 69 45 70 60 71 80 72
REMARK SMILES IDX 43 73 44 74 59 76 81 77 46 78 29 79 30 80 39 81 31 82 32 83
REMARK SMILES IDX 38 84 40 85 33 86 34 87 35 88 36 89 37 90 63 91 64 92 73 93
REMARK SMILES IDX 65 94 66 95 72 96 74 97 67 98 68 99 69 100 70 101 71 102
REMARK SMILES IDX 47 103 48 104 57 105 49 106 50 107 56 108 58 109 51 110
REMARK SMILES IDX 52 111 53 112 54 113 55 114
REMARK H PARENT 98 27 79 64 45 75
REMARK Flexibility Score: inf
ROOT
ATOM      1  C   UNL A   1      45.528  19.712  24.277  1.00  0.00     0.188 C 
ENDROOT
BRANCH   1   2
ATOM      2  O   UNL A   1      44.654  18.669  24.649  1.00  0.00    -0.376 OA
BRANCH   2   3
ATOM      3  C   UNL A   1      43.802  18.796  25.776  1.00  0.00     0.202 C 
BRANCH   3   4
ATOM      4  C   UNL A   1      42.324  19.240  25.743  1.00  0.00     0.261 C 
BRANCH   4   5
ATOM      5  O   UNL A   1      41.648  19.346  26.999  1.00  0.00    -0.463 OA
BRANCH   5   6
ATOM      6  C   UNL A   1      41.075  20.530  27.317  1.00  0.00     0.313 C 
ATOM      7  O   UNL A   1      40.806  20.880  28.463  1.00  0.00    -0.252 OA
BRANCH   6   8
ATOM      8  C   UNL A   1      40.888  21.447  26.096  1.00  0.00     0.126 C 
ATOM      9  C   UNL A   1      41.984  22.521  25.992  1.00  0.00     0.025 C 
BRANCH   8  10
ATOM     10  C   UNL A   1      39.439  21.925  25.906  1.00  0.00    -0.031 A 
ATOM     11  C   UNL A   1      38.408  21.095  25.431  1.00  0.00     0.005 A 
ATOM     12  C   UNL A   1      39.079  23.227  26.292  1.00  0.00     0.044 A 
ATOM     13  C   UNL A   1      37.079  21.554  25.343  1.00  0.00     0.012 A 
ATOM     14  C   UNL A   1      37.763  23.677  26.196  1.00  0.00     0.131 A 
ATOM     15  C   UNL A   1      36.731  22.854  25.733  1.00  0.00     0.018 A 
ATOM     16  F   UNL A   1      37.500  24.934  26.589  1.00  0.00    -0.206 F 
BRANCH  15  17
ATOM     17  C   UNL A   1      35.347  23.349  25.669  1.00  0.00    -0.012 A 
ATOM     18  C   UNL A   1      34.250  22.472  25.686  1.00  0.00     0.009 A 
ATOM     19  C   UNL A   1      35.094  24.732  25.644  1.00  0.00     0.056 A 
ATOM     20  C   UNL A   1      32.940  22.960  25.693  1.00  0.00     0.004 A 
ATOM     21  C   UNL A   1      33.789  25.215  25.639  1.00  0.00     0.133 A 
ATOM     22  C   UNL A   1      32.708  24.334  25.671  1.00  0.00     0.047 A 
BRANCH  21  23
ATOM     23  O   UNL A   1      33.450  26.590  25.650  1.00  0.00    -0.410 OA
BRANCH  23  24
ATOM     24  C   UNL A   1      32.632  27.219  26.582  1.00  0.00     0.412 C 
ATOM     25  O   UNL A   1      31.572  26.791  27.034  1.00  0.00    -0.224 OA
ATOM     26  N   UNL A   1      33.124  28.416  27.012  1.00  0.00    -0.321 N 
ATOM     27  H   UNL A   1      32.539  28.965  27.584  1.00  0.00     0.167 HD
BRANCH  26  28
ATOM     28  C   UNL A   1      34.428  28.951  26.702  1.00  0.00     0.120 C 
BRANCH  28  29
ATOM     29  C   UNL A   1      35.268  29.316  27.928  1.00  0.00     0.026 C 
BRANCH  29  30
ATOM     30  C   UNL A   1      36.773  29.549  27.739  1.00  0.00     0.037 C 
BRANCH  30  31
ATOM     31  C   UNL A   1      37.769  29.053  28.764  1.00  0.00    -0.048 A 
ATOM     32  C   UNL A   1      37.999  29.651  30.006  1.00  0.00     0.004 A 
ATOM     33  C   UNL A   1      38.570  27.953  28.408  1.00  0.00     0.004 A 
ATOM     34  C   UNL A   1      39.004  29.181  30.857  1.00  0.00     0.000 A 
ATOM     35  C   UNL A   1      39.567  27.473  29.261  1.00  0.00     0.000 A 
ATOM     36  C   UNL A   1      39.790  28.095  30.485  1.00  0.00     0.000 A 
ENDBRANCH  30  31
ENDBRANCH  29  30
ENDBRANCH  28  29
ENDBRANCH  26  28
ENDBRANCH  23  24
ENDBRANCH  21  23
ENDBRANCH  15  17
ENDBRANCH   8  10
ENDBRANCH   6   8
ENDBRANCH   5   6
ENDBRANCH   4   5
ENDBRANCH   3   4
ENDBRANCH   2   3
ENDBRANCH   1   2
BRANCH   1  37
ATOM     37  C   UNL A   1      44.877  21.096  24.131  1.00  0.00     0.188 C 
BRANCH  37  38
ATOM     38  O   UNL A   1      45.206  22.063  25.113  1.00  0.00    -0.377 OA
BRANCH  38  39
ATOM     39  C   UNL A   1      45.870  23.262  24.723  1.00  0.00     0.188 C 
BRANCH  39  40
ATOM     40  C   UNL A   1      45.638  24.602  25.455  1.00  0.00     0.188 C 
BRANCH  40  41
ATOM     41  O   UNL A   1      44.391  24.723  26.117  1.00  0.00    -0.376 OA
BRANCH  41  42
ATOM     42  C   UNL A   1      44.366  25.307  27.411  1.00  0.00     0.202 C 
BRANCH  42  43
ATOM     43  C   UNL A   1      45.250  26.542  27.650  1.00  0.00     0.261 C 
BRANCH  43  44
ATOM     44  O   UNL A   1      45.077  27.217  28.905  1.00  0.00    -0.460 OA
BRANCH  44  45
ATOM     45  C   UNL A   1      46.062  28.049  29.311  1.00  0.00     0.338 C 
ATOM     46  O   UNL A   1      46.989  28.469  28.645  1.00  0.00    -0.246 OA
BRANCH  45  47
ATOM     47  C   UNL A   1      45.715  28.524  30.669  1.00  0.00     0.060 A 
ATOM     48  C   UNL A   1      45.069  27.648  31.549  1.00  0.00     0.016 A 
ATOM     49  C   UNL A   1      46.027  29.826  31.065  1.00  0.00     0.016 A 
ATOM     50  C   UNL A   1      44.695  28.086  32.821  1.00  0.00     0.010 A 
ATOM     51  C   UNL A   1      45.632  30.269  32.330  1.00  0.00     0.010 A 
ATOM     52  C   UNL A   1      44.931  29.414  33.199  1.00  0.00    -0.014 A 
BRANCH  52  53
ATOM     53  C   UNL A   1      44.268  29.964  34.408  1.00  0.00     0.031 A 
ATOM     54  C   UNL A   1      42.870  30.503  34.267  1.00  0.00     0.074 A 
ATOM     55  C   UNL A   1      44.879  29.969  35.605  1.00  0.00     0.049 A 
ATOM     56  N   UNL A   1      42.111  31.089  35.156  1.00  0.00    -0.248 NA
ATOM     57  C   UNL A   1      42.245  30.363  32.941  1.00  0.00     0.031 C 
ATOM     58  C   UNL A   1      46.213  29.436  35.877  1.00  0.00     0.029 A 
ATOM     59  N   UNL A   1      44.455  30.453  36.818  1.00  0.00    -0.354 N 
ATOM     60  C   UNL A   1      40.924  31.395  34.496  1.00  0.00     0.074 A 
ATOM     61  C   UNL A   1      41.079  30.962  33.124  1.00  0.00     0.031 C 
ATOM     62  C   UNL A   1      46.506  29.641  37.173  1.00  0.00     0.029 A 
ATOM     63  C   UNL A   1      45.398  30.348  37.814  1.00  0.00     0.049 A 
ATOM     64  H   UNL A   1      43.561  30.838  36.962  1.00  0.00     0.167 HD
ATOM     65  C   UNL A   1      39.805  31.973  34.991  1.00  0.00     0.037 A 
ATOM     66  C   UNL A   1      45.379  30.800  39.084  1.00  0.00     0.037 A 
ATOM     67  C   UNL A   1      39.663  32.408  36.357  1.00  0.00     0.049 A 
ATOM     68  C   UNL A   1      44.152  31.514  39.596  1.00  0.00     0.074 A 
ATOM     69  C   UNL A   1      38.568  32.999  36.961  1.00  0.00     0.029 A 
ATOM     70  N   UNL A   1      40.649  32.307  37.328  1.00  0.00    -0.354 N 
ATOM     71  N   UNL A   1      43.030  31.782  38.968  1.00  0.00    -0.248 NA
ATOM     72  C   UNL A   1      44.184  31.982  40.989  1.00  0.00     0.031 C 
ATOM     73  C   UNL A   1      38.912  33.311  38.280  1.00  0.00     0.029 A 
ATOM     74  C   UNL A   1      40.197  32.851  38.519  1.00  0.00     0.049 A 
ATOM     75  H   UNL A   1      41.539  31.908  37.190  1.00  0.00     0.167 HD
ATOM     76  C   UNL A   1      42.214  32.421  39.899  1.00  0.00     0.074 A 
ATOM     77  C   UNL A   1      42.967  32.489  41.134  1.00  0.00     0.031 C 
ATOM     78  C   UNL A   1      40.955  32.905  39.746  1.00  0.00     0.037 A 
BRANCH  65  79
ATOM     79  C   UNL A   1      38.659  32.198  34.042  1.00  0.00     0.058 A 
ATOM     80  C   UNL A   1      37.701  31.203  33.786  1.00  0.00     0.135 A 
ATOM     81  C   UNL A   1      38.503  33.436  33.396  1.00  0.00     0.135 A 
ATOM     82  F   UNL A   1      37.811  29.994  34.359  1.00  0.00    -0.206 F 
ATOM     83  C   UNL A   1      36.648  31.417  32.903  1.00  0.00     0.059 A 
ATOM     84  C   UNL A   1      37.439  33.683  32.535  1.00  0.00     0.059 A 
ATOM     85  F   UNL A   1      39.391  34.422  33.600  1.00  0.00    -0.206 F 
ATOM     86  C   UNL A   1      36.524  32.662  32.284  1.00  0.00     0.060 A 
BRANCH  86  87
ATOM     87  S   UNL A   1      35.149  32.924  31.143  1.00  0.00     0.124 S 
ATOM     88  O   UNL A   1      35.342  34.322  30.769  1.00  0.00    -0.237 OA
ATOM     89  O   UNL A   1      35.422  31.944  30.097  1.00  0.00    -0.237 OA
ATOM     90  O   UNL A   1      33.971  32.652  31.961  1.00  0.00    -0.744 OA
ENDBRANCH  86  87
ENDBRANCH  65  79
BRANCH  66  91
ATOM     91  C   UNL A   1      46.568  30.610  39.960  1.00  0.00     0.058 A 
ATOM     92  C   UNL A   1      47.574  31.583  40.049  1.00  0.00     0.135 A 
ATOM     93  C   UNL A   1      46.722  29.443  40.728  1.00  0.00     0.135 A 
ATOM     94  F   UNL A   1      47.483  32.709  39.324  1.00  0.00    -0.206 F 
ATOM     95  C   UNL A   1      48.693  31.405  40.856  1.00  0.00     0.059 A 
ATOM     96  C   UNL A   1      47.817  29.256  41.565  1.00  0.00     0.059 A 
ATOM     97  F   UNL A   1      45.786  28.482  40.686  1.00  0.00    -0.206 F 
ATOM     98  C   UNL A   1      48.803  30.239  41.616  1.00  0.00     0.060 A 
BRANCH  98  99
ATOM     99  S   UNL A   1      50.231  30.046  42.704  1.00  0.00     0.124 S 
ATOM    100  O   UNL A   1      51.021  29.056  41.981  1.00  0.00    -0.237 OA
ATOM    101  O   UNL A   1      50.775  31.400  42.735  1.00  0.00    -0.237 OA
ATOM    102  O   UNL A   1      49.639  29.588  43.958  1.00  0.00    -0.744 OA
ENDBRANCH  98  99
ENDBRANCH  66  91
BRANCH  78 103
ATOM    103  C   UNL A   1      40.286  33.513  40.952  1.00  0.00     0.058 A 
ATOM    104  C   UNL A   1      40.221  34.901  41.145  1.00  0.00     0.135 A 
ATOM    105  C   UNL A   1      39.648  32.691  41.896  1.00  0.00     0.135 A 
ATOM    106  F   UNL A   1      40.817  35.734  40.277  1.00  0.00    -0.206 F 
ATOM    107  C   UNL A   1      39.570  35.452  42.245  1.00  0.00     0.059 A 
ATOM    108  C   UNL A   1      38.963  33.221  42.985  1.00  0.00     0.059 A 
ATOM    109  F   UNL A   1      39.668  31.355  41.755  1.00  0.00    -0.206 F 
ATOM    110  C   UNL A   1      38.940  34.604  43.157  1.00  0.00     0.060 A 
BRANCH 110 111
ATOM    111  S   UNL A   1      38.069  35.334  44.560  1.00  0.00     0.124 S 
ATOM    112  O   UNL A   1      38.696  36.649  44.645  1.00  0.00    -0.237 OA
ATOM    113  O   UNL A   1      36.682  35.321  44.107  1.00  0.00    -0.237 OA
ATOM    114  O   UNL A   1      38.371  34.423  45.661  1.00  0.00    -0.744 OA
ENDBRANCH 110 111
ENDBRANCH  78 103
ENDBRANCH  52  53
ENDBRANCH  45  47
ENDBRANCH  44  45
ENDBRANCH  43  44
ENDBRANCH  42  43
ENDBRANCH  41  42
ENDBRANCH  40  41
ENDBRANCH  39  40
ENDBRANCH  38  39
ENDBRANCH  37  38
ENDBRANCH   1  37
TORSDOF 31
ENDMDL
MODEL 3
REMARK VINA RESULT:      -8.4      6.936     10.397
REMARK SMILES C[C@@H](C(=O)OCCOCCOCCOCCOC(=O)c1ccc(-c2c3nc(c(-c4c(F)cc(S(=O)(=O)[O-])cc4F)c4ccc([nH]4)c(-c4c(F)cc(S(=O)(=O)[O-])cc4F)c4nc(c(-c5c(F)cc(S(=O)(=O)[O-])cc5F)c5ccc2[nH]5)C=C4)C=C3)cc1)c1ccc(-c2cccc(OC(=O)NCCCc3ccccc3)c2)c(F)c1
REMARK SMILES IDX 9 1 8 2 7 3 6 4 5 5 3 6 4 7 2 8 1 9 86 10 87 11 111 12 88 13
REMARK SMILES IDX 109 14 89 15 110 16 90 17 91 18 108 19 92 20 94 21 93 22
REMARK SMILES IDX 95 23 96 24 97 25 98 26 99 28 100 29 101 30 102 31 103 32
REMARK SMILES IDX 107 33 104 34 106 35 105 36 10 37 11 38 12 39 13 40 14 41
REMARK SMILES IDX 15 42 16 43 17 44 18 45 19 46 20 47 21 48 85 49 22 50 84 51
REMARK SMILES IDX 23 52 24 53 25 54 78 55 26 56 83 57 77 58 79 59 27 60 82 61
REMARK SMILES IDX 76 62 75 63 28 65 62 66 41 67 61 68 42 69 45 70 60 71 80 72
REMARK SMILES IDX 43 73 44 74 59 76 81 77 46 78 29 79 30 80 39 81 31 82 32 83
REMARK SMILES IDX 38 84 40 85 33 86 34 87 35 88 36 89 37 90 63 91 64 92 73 93
REMARK SMILES IDX 65 94 66 95 72 96 74 97 67 98 68 99 69 100 70 101 71 102
REMARK SMILES IDX 47 103 48 104 57 105 49 106 50 107 56 108 58 109 51 110
REMARK SMILES IDX 52 111 53 112 54 113 55 114
REMARK H PARENT 98 27 79 64 45 75
REMARK Flexibility Score: inf
ROOT
ATOM      1  C   UNL A   1      45.872  19.815  24.056  1.00  0.00     0.188 C 
ENDROOT
BRANCH   1   2
ATOM      2  O   UNL A   1      45.231  18.704  24.640  1.00  0.00    -0.376 OA
BRANCH   2   3
ATOM      3  C   UNL A   1      44.414  18.853  25.792  1.00  0.00     0.202 C 
BRANCH   3   4
ATOM      4  C   UNL A   1      42.880  18.688  25.835  1.00  0.00     0.261 C 
BRANCH   4   5
ATOM      5  O   UNL A   1      42.256  18.746  27.121  1.00  0.00    -0.463 OA
BRANCH   5   6
ATOM      6  C   UNL A   1      41.373  19.745  27.357  1.00  0.00     0.313 C 
ATOM      7  O   UNL A   1      40.869  19.974  28.452  1.00  0.00    -0.252 OA
BRANCH   6   8
ATOM      8  C   UNL A   1      41.142  20.639  26.126  1.00  0.00     0.126 C 
ATOM      9  C   UNL A   1      41.925  21.961  26.201  1.00  0.00     0.025 C 
BRANCH   8  10
ATOM     10  C   UNL A   1      39.666  20.738  25.710  1.00  0.00    -0.031 A 
ATOM     11  C   UNL A   1      38.936  19.656  25.187  1.00  0.00     0.005 A 
ATOM     12  C   UNL A   1      38.961  21.935  25.925  1.00  0.00     0.044 A 
ATOM     13  C   UNL A   1      37.564  19.772  24.889  1.00  0.00     0.012 A 
ATOM     14  C   UNL A   1      37.605  22.045  25.621  1.00  0.00     0.131 A 
ATOM     15  C   UNL A   1      36.871  20.970  25.110  1.00  0.00     0.018 A 
ATOM     16  F   UNL A   1      37.003  23.221  25.859  1.00  0.00    -0.206 F 
BRANCH  15  17
ATOM     17  C   UNL A   1      35.434  21.110  24.824  1.00  0.00    -0.012 A 
ATOM     18  C   UNL A   1      34.604  19.988  24.663  1.00  0.00     0.009 A 
ATOM     19  C   UNL A   1      34.850  22.386  24.762  1.00  0.00     0.056 A 
ATOM     20  C   UNL A   1      33.228  20.136  24.460  1.00  0.00     0.004 A 
ATOM     21  C   UNL A   1      33.482  22.532  24.548  1.00  0.00     0.133 A 
ATOM     22  C   UNL A   1      32.665  21.410  24.404  1.00  0.00     0.047 A 
BRANCH  21  23
ATOM     23  O   UNL A   1      32.811  23.778  24.507  1.00  0.00    -0.410 OA
BRANCH  23  24
ATOM     24  C   UNL A   1      32.652  24.652  25.576  1.00  0.00     0.412 C 
ATOM     25  O   UNL A   1      33.158  24.545  26.692  1.00  0.00    -0.224 OA
ATOM     26  N   UNL A   1      31.864  25.726  25.284  1.00  0.00    -0.321 N 
ATOM     27  H   UNL A   1      31.619  26.321  26.029  1.00  0.00     0.167 HD
BRANCH  26  28
ATOM     28  C   UNL A   1      31.357  26.067  23.977  1.00  0.00     0.120 C 
BRANCH  28  29
ATOM     29  C   UNL A   1      30.528  27.352  23.937  1.00  0.00     0.026 C 
BRANCH  29  30
ATOM     30  C   UNL A   1      30.167  27.947  22.569  1.00  0.00     0.037 C 
BRANCH  30  31
ATOM     31  C   UNL A   1      29.326  29.199  22.465  1.00  0.00    -0.048 A 
ATOM     32  C   UNL A   1      29.563  30.246  21.570  1.00  0.00     0.004 A 
ATOM     33  C   UNL A   1      28.273  29.349  23.386  1.00  0.00     0.004 A 
ATOM     34  C   UNL A   1      28.788  31.411  21.603  1.00  0.00     0.000 A 
ATOM     35  C   UNL A   1      27.490  30.506  23.412  1.00  0.00     0.000 A 
ATOM     36  C   UNL A   1      27.754  31.542  22.524  1.00  0.00     0.000 A 
ENDBRANCH  30  31
ENDBRANCH  29  30
ENDBRANCH  28  29
ENDBRANCH  26  28
ENDBRANCH  23  24
ENDBRANCH  21  23
ENDBRANCH  15  17
ENDBRANCH   8  10
ENDBRANCH   6   8
ENDBRANCH   5   6
ENDBRANCH   4   5
ENDBRANCH   3   4
ENDBRANCH   2   3
ENDBRANCH   1   2
BRANCH   1  37
ATOM     37  C   UNL A   1      45.022  21.091  23.960  1.00  0.00     0.188 C 
BRANCH  37  38
ATOM     38  O   UNL A   1      45.530  22.247  24.603  1.00  0.00    -0.377 OA
BRANCH  38  39
ATOM     39  C   UNL A   1      44.857  23.493  24.444  1.00  0.00     0.188 C 
BRANCH  39  40
ATOM     40  C   UNL A   1      45.197  24.724  25.312  1.00  0.00     0.188 C 
BRANCH  40  41
ATOM     41  O   UNL A   1      44.660  24.709  26.623  1.00  0.00    -0.376 OA
BRANCH  41  42
ATOM     42  C   UNL A   1      45.308  25.474  27.628  1.00  0.00     0.202 C 
BRANCH  42  43
ATOM     43  C   UNL A   1      44.821  26.915  27.847  1.00  0.00     0.261 C 
BRANCH  43  44
ATOM     44  O   UNL A   1      45.703  27.960  27.407  1.00  0.00    -0.460 OA
BRANCH  44  45
ATOM     45  C   UNL A   1      45.261  28.783  26.430  1.00  0.00     0.338 C 
ATOM     46  O   UNL A   1      44.758  28.460  25.371  1.00  0.00    -0.246 OA
BRANCH  45  47
ATOM     47  C   UNL A   1      45.317  30.166  26.951  1.00  0.00     0.060 A 
ATOM     48  C   UNL A   1      46.528  30.867  26.887  1.00  0.00     0.016 A 
ATOM     49  C   UNL A   1      44.180  30.763  27.499  1.00  0.00     0.016 A 
ATOM     50  C   UNL A   1      46.616  32.158  27.410  1.00  0.00     0.010 A 
ATOM     51  C   UNL A   1      44.276  32.048  28.041  1.00  0.00     0.010 A 
ATOM     52  C   UNL A   1      45.503  32.736  28.033  1.00  0.00    -0.014 A 
BRANCH  52  53
ATOM     53  C   UNL A   1      45.672  33.962  28.853  1.00  0.00     0.031 A 
ATOM     54  C   UNL A   1      46.039  33.799  30.304  1.00  0.00     0.074 A 
ATOM     55  C   UNL A   1      45.525  35.189  28.325  1.00  0.00     0.049 A 
ATOM     56  N   UNL A   1      46.178  34.708  31.234  1.00  0.00    -0.248 NA
ATOM     57  C   UNL A   1      46.277  32.422  30.768  1.00  0.00     0.031 C 
ATOM     58  C   UNL A   1      45.214  35.476  26.926  1.00  0.00     0.029 A 
ATOM     59  N   UNL A   1      45.607  36.426  28.914  1.00  0.00    -0.354 N 
ATOM     60  C   UNL A   1      46.513  34.014  32.393  1.00  0.00     0.074 A 
ATOM     61  C   UNL A   1      46.519  32.607  32.057  1.00  0.00     0.031 C 
ATOM     62  C   UNL A   1      45.114  36.807  26.768  1.00  0.00     0.029 A 
ATOM     63  C   UNL A   1      45.317  37.464  28.059  1.00  0.00     0.049 A 
ATOM     64  H   UNL A   1      45.852  36.559  29.857  1.00  0.00     0.167 HD
ATOM     65  C   UNL A   1      46.799  34.506  33.621  1.00  0.00     0.037 A 
ATOM     66  C   UNL A   1      45.198  38.786  28.300  1.00  0.00     0.037 A 
ATOM     67  C   UNL A   1      46.783  35.908  33.948  1.00  0.00     0.049 A 
ATOM     68  C   UNL A   1      45.444  39.307  29.695  1.00  0.00     0.074 A 
ATOM     69  C   UNL A   1      47.065  36.511  35.161  1.00  0.00     0.029 A 
ATOM     70  N   UNL A   1      46.460  36.925  33.062  1.00  0.00    -0.354 N 
ATOM     71  N   UNL A   1      45.775  38.644  30.778  1.00  0.00    -0.248 NA
ATOM     72  C   UNL A   1      45.304  40.755  29.900  1.00  0.00     0.031 C 
ATOM     73  C   UNL A   1      46.852  37.886  35.025  1.00  0.00     0.029 A 
ATOM     74  C   UNL A   1      46.508  38.149  33.709  1.00  0.00     0.049 A 
ATOM     75  H   UNL A   1      46.230  36.796  32.113  1.00  0.00     0.167 HD
ATOM     76  C   UNL A   1      45.914  39.598  31.783  1.00  0.00     0.074 A 
ATOM     77  C   UNL A   1      45.641  40.884  31.176  1.00  0.00     0.031 C 
ATOM     78  C   UNL A   1      46.241  39.425  33.089  1.00  0.00     0.037 A 
BRANCH  65  79
ATOM     79  C   UNL A   1      47.122  33.517  34.709  1.00  0.00     0.058 A 
ATOM     80  C   UNL A   1      46.116  32.858  35.436  1.00  0.00     0.135 A 
ATOM     81  C   UNL A   1      48.458  33.204  35.011  1.00  0.00     0.135 A 
ATOM     82  F   UNL A   1      44.823  33.133  35.204  1.00  0.00    -0.206 F 
ATOM     83  C   UNL A   1      46.424  31.949  36.443  1.00  0.00     0.059 A 
ATOM     84  C   UNL A   1      48.787  32.273  35.992  1.00  0.00     0.059 A 
ATOM     85  F   UNL A   1      49.460  33.805  34.351  1.00  0.00    -0.206 F 
ATOM     86  C   UNL A   1      47.763  31.662  36.712  1.00  0.00     0.060 A 
BRANCH  86  87
ATOM     87  S   UNL A   1      48.143  30.476  38.020  1.00  0.00     0.124 S 
ATOM     88  O   UNL A   1      49.499  30.873  38.388  1.00  0.00    -0.237 OA
ATOM     89  O   UNL A   1      47.108  30.762  39.009  1.00  0.00    -0.237 OA
ATOM     90  O   UNL A   1      48.029  29.183  37.353  1.00  0.00    -0.744 OA
ENDBRANCH  86  87
ENDBRANCH  65  79
BRANCH  66  91
ATOM     91  C   UNL A   1      44.810  39.711  27.200  1.00  0.00     0.058 A 
ATOM     92  C   UNL A   1      45.773  40.356  26.413  1.00  0.00     0.135 A 
ATOM     93  C   UNL A   1      43.458  39.968  26.915  1.00  0.00     0.135 A 
ATOM     94  F   UNL A   1      47.078  40.157  26.654  1.00  0.00    -0.206 F 
ATOM     95  C   UNL A   1      45.416  41.231  25.392  1.00  0.00     0.059 A 
ATOM     96  C   UNL A   1      43.075  40.815  25.879  1.00  0.00     0.059 A 
ATOM     97  F   UNL A   1      42.493  39.372  27.633  1.00  0.00    -0.206 F 
ATOM     98  C   UNL A   1      44.063  41.450  25.128  1.00  0.00     0.060 A 
BRANCH  98  99
ATOM     99  S   UNL A   1      43.611  42.542  23.763  1.00  0.00     0.124 S 
ATOM    100  O   UNL A   1      42.322  41.994  23.360  1.00  0.00    -0.237 OA
ATOM    101  O   UNL A   1      43.576  43.847  24.416  1.00  0.00    -0.237 OA
ATOM    102  O   UNL A   1      44.702  42.357  22.809  1.00  0.00    -0.744 OA
ENDBRANCH  98  99
ENDBRANCH  66  91
BRANCH  78 103
ATOM    103  C   UNL A   1      46.367  40.656  33.949  1.00  0.00     0.058 A 
ATOM    104  C   UNL A   1      47.612  41.237  34.239  1.00  0.00     0.135 A 
ATOM    105  C   UNL A   1      45.218  41.299  34.439  1.00  0.00     0.135 A 
ATOM    106  F   UNL A   1      48.744  40.664  33.800  1.00  0.00    -0.206 F 
ATOM    107  C   UNL A   1      47.713  42.394  35.005  1.00  0.00     0.059 A 
ATOM    108  C   UNL A   1      45.293  42.474  35.179  1.00  0.00     0.059 A 
ATOM    109  F   UNL A   1      43.999  40.794  34.182  1.00  0.00    -0.206 F 
ATOM    110  C   UNL A   1      46.548  43.008  35.467  1.00  0.00     0.060 A 
BRANCH 110 111
ATOM    111  S   UNL A   1      46.694  44.528  36.431  1.00  0.00     0.124 S 
ATOM    112  O   UNL A   1      48.140  44.714  36.473  1.00  0.00    -0.237 OA
ATOM    113  O   UNL A   1      45.954  45.486  35.615  1.00  0.00    -0.237 OA
ATOM    114  O   UNL A   1      46.068  44.186  37.705  1.00  0.00    -0.744 OA
ENDBRANCH 110 111
ENDBRANCH  78 103
ENDBRANCH  52  53
ENDBRANCH  45  47
ENDBRANCH  44  45
ENDBRANCH  43  44
ENDBRANCH  42  43
ENDBRANCH  41  42
ENDBRANCH  40  41
ENDBRANCH  39  40
ENDBRANCH  38  39
ENDBRANCH  37  38
ENDBRANCH   1  37
TORSDOF 31
ENDMDL
