MODEL 1
REMARK VINA RESULT:      -9.3      0.000      0.000
REMARK SMILES CC1C[NH+]([C@@H](C(=O)OCCOCCOCCOCCOC(=O)c2ccc(-c3c4nc(c(-c5c(F)cc(S(=O)(=O)[O-])cc5F)c5ccc([nH]5)c(-c5c(F)cc(S(=O)(=O)[O-])cc5F)c5nc(c(-c6c(F)cc(S(=O)(=O)[O-])cc6F)c6ccc3[nH]6)C=C5)C=C4)cc2)C2CCCCC2)C1
REMARK SMILES IDX 15 1 14 2 13 3 12 4 11 5 10 6 9 7 8 8 6 9 7 10 5 11 4 12
REMARK SMILES IDX 1 13 2 14 3 15 95 16 89 18 90 19 94 20 91 21 93 22 92 23
REMARK SMILES IDX 16 24 17 25 18 26 19 27 20 28 21 29 22 30 23 31 24 32 88 33
REMARK SMILES IDX 25 34 87 35 26 36 27 37 28 38 81 39 29 40 86 41 80 42 82 43
REMARK SMILES IDX 30 44 85 45 79 46 78 47 31 49 65 50 44 51 64 52 45 53 48 54
REMARK SMILES IDX 63 55 83 56 46 57 47 58 62 60 84 61 49 62 32 63 33 64 42 65
REMARK SMILES IDX 34 66 35 67 41 68 43 69 36 70 37 71 38 72 39 73 40 74 66 75
REMARK SMILES IDX 67 76 76 77 68 78 69 79 75 80 77 81 70 82 71 83 72 84 73 85
REMARK SMILES IDX 74 86 50 87 51 88 60 89 52 90 53 91 59 92 61 93 54 94 55 95
REMARK SMILES IDX 56 96 57 97 58 98
REMARK H PARENT 4 17 82 48 48 59
REMARK Flexibility Score: inf
ROOT
ATOM      1  C   UNL A   1      35.292  23.321  24.951  1.00  0.00     0.188 C 
ENDROOT
BRANCH   1   2
ATOM      2  O   UNL A   1      34.063  22.642  24.759  1.00  0.00    -0.377 OA
BRANCH   2   3
ATOM      3  C   UNL A   1      33.512  22.505  23.466  1.00  0.00     0.188 C 
BRANCH   3   4
ATOM      4  C   UNL A   1      32.035  22.089  23.503  1.00  0.00     0.188 C 
BRANCH   4   5
ATOM      5  O   UNL A   1      31.088  23.019  22.994  1.00  0.00    -0.376 OA
BRANCH   5   6
ATOM      6  C   UNL A   1      30.715  24.102  23.850  1.00  0.00     0.202 C 
BRANCH   6   7
ATOM      7  C   UNL A   1      31.408  25.475  23.685  1.00  0.00     0.261 C 
BRANCH   7   8
ATOM      8  O   UNL A   1      30.768  26.449  22.811  1.00  0.00    -0.459 OA
BRANCH   8   9
ATOM      9  C   UNL A   1      29.929  27.328  23.411  1.00  0.00     0.365 C 
ATOM     10  O   UNL A   1      28.807  26.999  23.807  1.00  0.00    -0.245 OA
BRANCH   9  11
ATOM     11  C   UNL A   1      30.406  28.780  23.624  1.00  0.00     0.298 C 
BRANCH  11  12
ATOM     12  N   UNL A   1      31.230  29.231  24.771  1.00  0.00    -0.322 N 
ATOM     13  C   UNL A   1      33.914  28.321  26.661  1.00  0.00     0.020 C 
ATOM     14  C   UNL A   1      32.967  28.242  25.480  1.00  0.00     0.096 C 
ATOM     15  C   UNL A   1      31.491  28.325  25.878  1.00  0.00     0.272 C 
ATOM     16  C   UNL A   1      32.668  29.441  24.547  1.00  0.00     0.272 C 
ATOM     17  H   UNL A   1      30.618  30.030  24.940  1.00  0.00     0.348 HD
ENDBRANCH  11  12
BRANCH  11  18
ATOM     18  C   UNL A   1      29.301  29.807  23.141  1.00  0.00     0.059 C 
ATOM     19  C   UNL A   1      29.230  31.148  23.900  1.00  0.00     0.010 C 
ATOM     20  C   UNL A   1      29.409  30.053  21.624  1.00  0.00     0.010 C 
ATOM     21  C   UNL A   1      28.198  32.128  23.348  1.00  0.00     0.001 C 
ATOM     22  C   UNL A   1      28.352  31.033  21.113  1.00  0.00     0.001 C 
ATOM     23  C   UNL A   1      28.414  32.357  21.861  1.00  0.00     0.000 C 
ENDBRANCH  11  18
ENDBRANCH   9  11
ENDBRANCH   8   9
ENDBRANCH   7   8
ENDBRANCH   6   7
ENDBRANCH   5   6
ENDBRANCH   4   5
ENDBRANCH   3   4
ENDBRANCH   2   3
ENDBRANCH   1   2
BRANCH   1  24
ATOM     24  C   UNL A   1      36.268  23.343  23.775  1.00  0.00     0.188 C 
BRANCH  24  25
ATOM     25  O   UNL A   1      37.029  22.152  23.548  1.00  0.00    -0.376 OA
BRANCH  25  26
ATOM     26  C   UNL A   1      37.019  21.128  24.542  1.00  0.00     0.202 C 
BRANCH  26  27
ATOM     27  C   UNL A   1      38.327  20.967  25.312  1.00  0.00     0.261 C 
BRANCH  27  28
ATOM     28  O   UNL A   1      38.694  22.191  25.968  1.00  0.00    -0.460 OA
BRANCH  28  29
ATOM     29  C   UNL A   1      39.809  22.143  26.730  1.00  0.00     0.338 C 
ATOM     30  O   UNL A   1      40.561  21.195  26.888  1.00  0.00    -0.246 OA
BRANCH  29  31
ATOM     31  C   UNL A   1      40.100  23.503  27.215  1.00  0.00     0.060 A 
ATOM     32  C   UNL A   1      39.542  24.594  26.536  1.00  0.00     0.016 A 
ATOM     33  C   UNL A   1      40.942  23.699  28.311  1.00  0.00     0.016 A 
ATOM     34  C   UNL A   1      39.845  25.892  26.938  1.00  0.00     0.010 A 
ATOM     35  C   UNL A   1      41.263  25.000  28.698  1.00  0.00     0.010 A 
ATOM     36  C   UNL A   1      40.738  26.100  27.997  1.00  0.00    -0.014 A 
BRANCH  36  37
ATOM     37  C   UNL A   1      41.269  27.453  28.270  1.00  0.00     0.031 A 
ATOM     38  C   UNL A   1      42.748  27.678  28.129  1.00  0.00     0.074 A 
ATOM     39  C   UNL A   1      40.454  28.452  28.653  1.00  0.00     0.049 A 
ATOM     40  N   UNL A   1      43.463  28.720  28.458  1.00  0.00    -0.248 NA
ATOM     41  C   UNL A   1      43.527  26.575  27.538  1.00  0.00     0.031 C 
ATOM     42  C   UNL A   1      38.999  28.359  28.768  1.00  0.00     0.029 A 
ATOM     43  N   UNL A   1      40.742  29.736  29.040  1.00  0.00    -0.354 N 
ATOM     44  C   UNL A   1      44.772  28.403  28.112  1.00  0.00     0.074 A 
ATOM     45  C   UNL A   1      44.759  27.060  27.578  1.00  0.00     0.031 C 
ATOM     46  C   UNL A   1      38.525  29.528  29.234  1.00  0.00     0.029 A 
ATOM     47  C   UNL A   1      39.645  30.432  29.489  1.00  0.00     0.049 A 
ATOM     48  H   UNL A   1      41.647  30.122  29.001  1.00  0.00     0.167 HD
ATOM     49  C   UNL A   1      45.880  29.171  28.225  1.00  0.00     0.037 A 
ATOM     50  C   UNL A   1      39.566  31.639  30.085  1.00  0.00     0.037 A 
ATOM     51  C   UNL A   1      45.879  30.502  28.773  1.00  0.00     0.049 A 
ATOM     52  C   UNL A   1      40.835  32.429  30.306  1.00  0.00     0.074 A 
ATOM     53  C   UNL A   1      46.951  31.361  28.945  1.00  0.00     0.029 A 
ATOM     54  N   UNL A   1      44.755  31.165  29.238  1.00  0.00    -0.354 N 
ATOM     55  N   UNL A   1      42.067  32.126  29.970  1.00  0.00    -0.248 NA
ATOM     56  C   UNL A   1      40.704  33.723  30.991  1.00  0.00     0.031 C 
ATOM     57  C   UNL A   1      46.480  32.524  29.561  1.00  0.00     0.029 A 
ATOM     58  C   UNL A   1      45.108  32.413  29.721  1.00  0.00     0.049 A 
ATOM     59  H   UNL A   1      43.839  30.802  29.227  1.00  0.00     0.167 HD
ATOM     60  C   UNL A   1      42.850  33.201  30.380  1.00  0.00     0.074 A 
ATOM     61  C   UNL A   1      41.951  34.171  30.969  1.00  0.00     0.031 C 
ATOM     62  C   UNL A   1      44.192  33.371  30.287  1.00  0.00     0.037 A 
BRANCH  49  63
ATOM     63  C   UNL A   1      47.186  28.593  27.759  1.00  0.00     0.058 A 
ATOM     64  C   UNL A   1      47.587  28.676  26.417  1.00  0.00     0.135 A 
ATOM     65  C   UNL A   1      48.079  28.013  28.676  1.00  0.00     0.135 A 
ATOM     66  F   UNL A   1      46.761  29.199  25.496  1.00  0.00    -0.206 F 
ATOM     67  C   UNL A   1      48.825  28.203  25.998  1.00  0.00     0.059 A 
ATOM     68  C   UNL A   1      49.333  27.557  28.283  1.00  0.00     0.059 A 
ATOM     69  F   UNL A   1      47.740  27.900  29.969  1.00  0.00    -0.206 F 
ATOM     70  C   UNL A   1      49.695  27.654  26.940  1.00  0.00     0.060 A 
BRANCH  70  71
ATOM     71  S   UNL A   1      51.316  27.088  26.384  1.00  0.00     0.124 S 
ATOM     72  O   UNL A   1      51.731  26.245  27.501  1.00  0.00    -0.237 OA
ATOM     73  O   UNL A   1      50.991  26.386  25.147  1.00  0.00    -0.237 OA
ATOM     74  O   UNL A   1      52.073  28.326  26.219  1.00  0.00    -0.744 OA
ENDBRANCH  70  71
ENDBRANCH  49  63
BRANCH  50  75
ATOM     75  C   UNL A   1      38.259  32.159  30.574  1.00  0.00     0.058 A 
ATOM     76  C   UNL A   1      37.437  32.948  29.756  1.00  0.00     0.135 A 
ATOM     77  C   UNL A   1      37.833  31.924  31.892  1.00  0.00     0.135 A 
ATOM     78  F   UNL A   1      37.803  33.211  28.492  1.00  0.00    -0.206 F 
ATOM     79  C   UNL A   1      36.261  33.518  30.235  1.00  0.00     0.059 A 
ATOM     80  C   UNL A   1      36.645  32.455  32.384  1.00  0.00     0.059 A 
ATOM     81  F   UNL A   1      38.575  31.167  32.716  1.00  0.00    -0.206 F 
ATOM     82  C   UNL A   1      35.876  33.269  31.553  1.00  0.00     0.060 A 
BRANCH  82  83
ATOM     83  S   UNL A   1      34.352  34.015  32.168  1.00  0.00     0.124 S 
ATOM     84  O   UNL A   1      33.739  34.489  30.933  1.00  0.00    -0.237 OA
ATOM     85  O   UNL A   1      33.697  32.882  32.814  1.00  0.00    -0.237 OA
ATOM     86  O   UNL A   1      34.830  35.054  33.076  1.00  0.00    -0.744 OA
ENDBRANCH  82  83
ENDBRANCH  50  75
BRANCH  62  87
ATOM     87  C   UNL A   1      44.771  34.662  30.801  1.00  0.00     0.058 A 
ATOM     88  C   UNL A   1      45.277  34.773  32.105  1.00  0.00     0.135 A 
ATOM     89  C   UNL A   1      44.889  35.777  29.955  1.00  0.00     0.135 A 
ATOM     90  F   UNL A   1      45.182  33.740  32.958  1.00  0.00    -0.206 F 
ATOM     91  C   UNL A   1      45.864  35.949  32.558  1.00  0.00     0.059 A 
ATOM     92  C   UNL A   1      45.502  36.952  30.376  1.00  0.00     0.059 A 
ATOM     93  F   UNL A   1      44.432  35.719  28.694  1.00  0.00    -0.206 F 
ATOM     94  C   UNL A   1      45.980  37.031  31.683  1.00  0.00     0.060 A 
BRANCH  94  95
ATOM     95  S   UNL A   1      46.796  38.531  32.270  1.00  0.00     0.124 S 
ATOM     96  O   UNL A   1      47.916  38.640  31.341  1.00  0.00    -0.237 OA
ATOM     97  O   UNL A   1      45.747  39.535  32.118  1.00  0.00    -0.237 OA
ATOM     98  O   UNL A   1      47.152  38.209  33.648  1.00  0.00    -0.744 OA
ENDBRANCH  94  95
ENDBRANCH  62  87
ENDBRANCH  36  37
ENDBRANCH  29  31
ENDBRANCH  28  29
ENDBRANCH  27  28
ENDBRANCH  26  27
ENDBRANCH  25  26
ENDBRANCH  24  25
ENDBRANCH   1  24
TORSDOF 25
ENDMDL
MODEL 2
REMARK VINA RESULT:      -9.2      5.705     11.137
REMARK SMILES CC1C[NH+]([C@@H](C(=O)OCCOCCOCCOCCOC(=O)c2ccc(-c3c4nc(c(-c5c(F)cc(S(=O)(=O)[O-])cc5F)c5ccc([nH]5)c(-c5c(F)cc(S(=O)(=O)[O-])cc5F)c5nc(c(-c6c(F)cc(S(=O)(=O)[O-])cc6F)c6ccc3[nH]6)C=C5)C=C4)cc2)C2CCCCC2)C1
REMARK SMILES IDX 15 1 14 2 13 3 12 4 11 5 10 6 9 7 8 8 6 9 7 10 5 11 4 12
REMARK SMILES IDX 1 13 2 14 3 15 95 16 89 18 90 19 94 20 91 21 93 22 92 23
REMARK SMILES IDX 16 24 17 25 18 26 19 27 20 28 21 29 22 30 23 31 24 32 88 33
REMARK SMILES IDX 25 34 87 35 26 36 27 37 28 38 81 39 29 40 86 41 80 42 82 43
REMARK SMILES IDX 30 44 85 45 79 46 78 47 31 49 65 50 44 51 64 52 45 53 48 54
REMARK SMILES IDX 63 55 83 56 46 57 47 58 62 60 84 61 49 62 32 63 33 64 42 65
REMARK SMILES IDX 34 66 35 67 41 68 43 69 36 70 37 71 38 72 39 73 40 74 66 75
REMARK SMILES IDX 67 76 76 77 68 78 69 79 75 80 77 81 70 82 71 83 72 84 73 85
REMARK SMILES IDX 74 86 50 87 51 88 60 89 52 90 53 91 59 92 61 93 54 94 55 95
REMARK SMILES IDX 56 96 57 97 58 98
REMARK H PARENT 4 17 82 48 48 59
REMARK Flexibility Score: inf
ROOT
ATOM      1  C   UNL A   1      34.870  32.615  29.631  1.00  0.00     0.188 C 
ENDROOT
BRANCH   1   2
ATOM      2  O   UNL A   1      34.742  31.348  29.009  1.00  0.00    -0.377 OA
BRANCH   2   3
ATOM      3  C   UNL A   1      34.577  31.248  27.610  1.00  0.00     0.188 C 
BRANCH   3   4
ATOM      4  C   UNL A   1      33.225  30.632  27.226  1.00  0.00     0.188 C 
BRANCH   4   5
ATOM      5  O   UNL A   1      33.099  30.121  25.905  1.00  0.00    -0.376 OA
BRANCH   5   6
ATOM      6  C   UNL A   1      32.347  28.916  25.743  1.00  0.00     0.202 C 
BRANCH   6   7
ATOM      7  C   UNL A   1      32.435  27.813  26.824  1.00  0.00     0.261 C 
BRANCH   7   8
ATOM      8  O   UNL A   1      32.479  26.429  26.371  1.00  0.00    -0.459 OA
BRANCH   8   9
ATOM      9  C   UNL A   1      31.313  25.915  25.912  1.00  0.00     0.365 C 
ATOM     10  O   UNL A   1      30.309  25.825  26.625  1.00  0.00    -0.245 OA
BRANCH   9  11
ATOM     11  C   UNL A   1      31.238  25.447  24.444  1.00  0.00     0.298 C 
BRANCH  11  12
ATOM     12  N   UNL A   1      30.372  26.065  23.411  1.00  0.00    -0.322 N 
ATOM     13  C   UNL A   1      28.779  28.979  22.648  1.00  0.00     0.020 C 
ATOM     14  C   UNL A   1      29.742  28.091  23.411  1.00  0.00     0.096 C 
ATOM     15  C   UNL A   1      29.143  26.738  23.802  1.00  0.00     0.272 C 
ATOM     16  C   UNL A   1      30.866  27.271  22.729  1.00  0.00     0.272 C 
ATOM     17  H   UNL A   1      30.294  25.186  22.900  1.00  0.00     0.348 HD
ENDBRANCH  11  12
BRANCH  11  18
ATOM     18  C   UNL A   1      31.377  23.871  24.352  1.00  0.00     0.059 C 
ATOM     19  C   UNL A   1      31.972  23.308  23.045  1.00  0.00     0.010 C 
ATOM     20  C   UNL A   1      32.137  23.318  25.572  1.00  0.00     0.010 C 
ATOM     21  C   UNL A   1      32.152  21.792  23.039  1.00  0.00     0.001 C 
ATOM     22  C   UNL A   1      32.285  21.796  25.529  1.00  0.00     0.001 C 
ATOM     23  C   UNL A   1      32.961  21.340  24.244  1.00  0.00     0.000 C 
ENDBRANCH  11  18
ENDBRANCH   9  11
ENDBRANCH   8   9
ENDBRANCH   7   8
ENDBRANCH   6   7
ENDBRANCH   5   6
ENDBRANCH   4   5
ENDBRANCH   3   4
ENDBRANCH   2   3
ENDBRANCH   1   2
BRANCH   1  24
ATOM     24  C   UNL A   1      35.588  33.711  28.844  1.00  0.00     0.188 C 
BRANCH  24  25
ATOM     25  O   UNL A   1      34.814  34.865  28.497  1.00  0.00    -0.376 OA
BRANCH  25  26
ATOM     26  C   UNL A   1      33.405  34.842  28.718  1.00  0.00     0.202 C 
BRANCH  26  27
ATOM     27  C   UNL A   1      32.845  36.074  29.424  1.00  0.00     0.261 C 
BRANCH  27  28
ATOM     28  O   UNL A   1      33.497  36.287  30.687  1.00  0.00    -0.460 OA
BRANCH  28  29
ATOM     29  C   UNL A   1      32.997  35.596  31.735  1.00  0.00     0.338 C 
ATOM     30  O   UNL A   1      31.822  35.406  32.007  1.00  0.00    -0.246 OA
BRANCH  29  31
ATOM     31  C   UNL A   1      34.112  34.928  32.426  1.00  0.00     0.060 A 
ATOM     32  C   UNL A   1      35.409  35.431  32.256  1.00  0.00     0.016 A 
ATOM     33  C   UNL A   1      33.882  33.795  33.210  1.00  0.00     0.016 A 
ATOM     34  C   UNL A   1      36.489  34.785  32.852  1.00  0.00     0.010 A 
ATOM     35  C   UNL A   1      34.968  33.136  33.787  1.00  0.00     0.010 A 
ATOM     36  C   UNL A   1      36.276  33.612  33.588  1.00  0.00    -0.014 A 
BRANCH  36  37
ATOM     37  C   UNL A   1      37.423  32.777  34.008  1.00  0.00     0.031 A 
ATOM     38  C   UNL A   1      38.128  33.132  35.287  1.00  0.00     0.074 A 
ATOM     39  C   UNL A   1      37.836  31.741  33.258  1.00  0.00     0.049 A 
ATOM     40  N   UNL A   1      39.238  32.654  35.780  1.00  0.00    -0.248 NA
ATOM     41  C   UNL A   1      37.494  34.168  36.121  1.00  0.00     0.031 C 
ATOM     42  C   UNL A   1      37.191  31.276  32.029  1.00  0.00     0.029 A 
ATOM     43  N   UNL A   1      38.915  30.908  33.409  1.00  0.00    -0.354 N 
ATOM     44  C   UNL A   1      39.437  33.326  36.981  1.00  0.00     0.074 A 
ATOM     45  C   UNL A   1      38.350  34.267  37.128  1.00  0.00     0.031 C 
ATOM     46  C   UNL A   1      37.912  30.262  31.519  1.00  0.00     0.029 A 
ATOM     47  C   UNL A   1      39.087  30.038  32.359  1.00  0.00     0.049 A 
ATOM     48  H   UNL A   1      39.510  30.932  34.193  1.00  0.00     0.167 HD
ATOM     49  C   UNL A   1      40.434  33.162  37.881  1.00  0.00     0.037 A 
ATOM     50  C   UNL A   1      40.105  29.196  32.086  1.00  0.00     0.037 A 
ATOM     51  C   UNL A   1      41.517  32.230  37.714  1.00  0.00     0.049 A 
ATOM     52  C   UNL A   1      41.265  29.116  33.050  1.00  0.00     0.074 A 
ATOM     53  C   UNL A   1      42.587  31.995  38.560  1.00  0.00     0.029 A 
ATOM     54  N   UNL A   1      41.672  31.382  36.628  1.00  0.00    -0.354 N 
ATOM     55  N   UNL A   1      41.442  29.748  34.186  1.00  0.00    -0.248 NA
ATOM     56  C   UNL A   1      42.368  28.212  32.692  1.00  0.00     0.031 C 
ATOM     57  C   UNL A   1      43.414  31.041  37.961  1.00  0.00     0.029 A 
ATOM     58  C   UNL A   1      42.831  30.640  36.769  1.00  0.00     0.049 A 
ATOM     59  H   UNL A   1      41.048  31.317  35.868  1.00  0.00     0.167 HD
ATOM     60  C   UNL A   1      42.660  29.300  34.689  1.00  0.00     0.074 A 
ATOM     61  C   UNL A   1      43.166  28.327  33.744  1.00  0.00     0.031 C 
ATOM     62  C   UNL A   1      43.308  29.662  35.823  1.00  0.00     0.037 A 
BRANCH  49  63
ATOM     63  C   UNL A   1      40.409  34.011  39.120  1.00  0.00     0.058 A 
ATOM     64  C   UNL A   1      40.985  35.290  39.144  1.00  0.00     0.135 A 
ATOM     65  C   UNL A   1      39.739  33.571  40.274  1.00  0.00     0.135 A 
ATOM     66  F   UNL A   1      41.658  35.748  38.076  1.00  0.00    -0.206 F 
ATOM     67  C   UNL A   1      40.902  36.103  40.268  1.00  0.00     0.059 A 
ATOM     68  C   UNL A   1      39.622  34.379  41.401  1.00  0.00     0.059 A 
ATOM     69  F   UNL A   1      39.180  32.352  40.307  1.00  0.00    -0.206 F 
ATOM     70  C   UNL A   1      40.210  35.642  41.389  1.00  0.00     0.060 A 
BRANCH  70  71
ATOM     71  S   UNL A   1      40.074  36.732  42.821  1.00  0.00     0.124 S 
ATOM     72  O   UNL A   1      41.384  36.566  43.441  1.00  0.00    -0.237 OA
ATOM     73  O   UNL A   1      39.826  38.029  42.200  1.00  0.00    -0.237 OA
ATOM     74  O   UNL A   1      38.951  36.174  43.570  1.00  0.00    -0.744 OA
ENDBRANCH  70  71
ENDBRANCH  49  63
BRANCH  50  75
ATOM     75  C   UNL A   1      40.116  28.404  30.825  1.00  0.00     0.058 A 
ATOM     76  C   UNL A   1      39.310  27.268  30.671  1.00  0.00     0.135 A 
ATOM     77  C   UNL A   1      40.979  28.738  29.768  1.00  0.00     0.135 A 
ATOM     78  F   UNL A   1      38.474  26.900  31.656  1.00  0.00    -0.206 F 
ATOM     79  C   UNL A   1      39.383  26.467  29.535  1.00  0.00     0.059 A 
ATOM     80  C   UNL A   1      41.048  27.973  28.608  1.00  0.00     0.059 A 
ATOM     81  F   UNL A   1      41.766  29.821  29.855  1.00  0.00    -0.206 F 
ATOM     82  C   UNL A   1      40.261  26.826  28.510  1.00  0.00     0.060 A 
BRANCH  82  83
ATOM     83  S   UNL A   1      40.354  25.780  27.042  1.00  0.00     0.124 S 
ATOM     84  O   UNL A   1      41.368  24.810  27.438  1.00  0.00    -0.237 OA
ATOM     85  O   UNL A   1      38.989  25.274  26.941  1.00  0.00    -0.237 OA
ATOM     86  O   UNL A   1      40.748  26.714  25.990  1.00  0.00    -0.744 OA
ENDBRANCH  82  83
ENDBRANCH  50  75
BRANCH  62  87
ATOM     87  C   UNL A   1      44.616  28.985  36.128  1.00  0.00     0.058 A 
ATOM     88  C   UNL A   1      45.843  29.548  35.744  1.00  0.00     0.135 A 
ATOM     89  C   UNL A   1      44.647  27.798  36.880  1.00  0.00     0.135 A 
ATOM     90  F   UNL A   1      45.870  30.678  35.017  1.00  0.00    -0.206 F 
ATOM     91  C   UNL A   1      47.053  28.950  36.078  1.00  0.00     0.059 A 
ATOM     92  C   UNL A   1      45.846  27.200  37.253  1.00  0.00     0.059 A 
ATOM     93  F   UNL A   1      43.502  27.224  37.283  1.00  0.00    -0.206 F 
ATOM     94  C   UNL A   1      47.044  27.780  36.840  1.00  0.00     0.060 A 
BRANCH  94  95
ATOM     95  S   UNL A   1      48.626  27.048  37.313  1.00  0.00     0.124 S 
ATOM     96  O   UNL A   1      48.908  26.190  36.168  1.00  0.00    -0.237 OA
ATOM     97  O   UNL A   1      49.482  28.222  37.452  1.00  0.00    -0.237 OA
ATOM     98  O   UNL A   1      48.320  26.351  38.559  1.00  0.00    -0.744 OA
ENDBRANCH  94  95
ENDBRANCH  62  87
ENDBRANCH  36  37
ENDBRANCH  29  31
ENDBRANCH  28  29
ENDBRANCH  27  28
ENDBRANCH  26  27
ENDBRANCH  25  26
ENDBRANCH  24  25
ENDBRANCH   1  24
TORSDOF 25
ENDMDL
MODEL 3
REMARK VINA RESULT:      -9.1      5.300     10.610
REMARK SMILES CC1C[NH+]([C@@H](C(=O)OCCOCCOCCOCCOC(=O)c2ccc(-c3c4nc(c(-c5c(F)cc(S(=O)(=O)[O-])cc5F)c5ccc([nH]5)c(-c5c(F)cc(S(=O)(=O)[O-])cc5F)c5nc(c(-c6c(F)cc(S(=O)(=O)[O-])cc6F)c6ccc3[nH]6)C=C5)C=C4)cc2)C2CCCCC2)C1
REMARK SMILES IDX 15 1 14 2 13 3 12 4 11 5 10 6 9 7 8 8 6 9 7 10 5 11 4 12
REMARK SMILES IDX 1 13 2 14 3 15 95 16 89 18 90 19 94 20 91 21 93 22 92 23
REMARK SMILES IDX 16 24 17 25 18 26 19 27 20 28 21 29 22 30 23 31 24 32 88 33
REMARK SMILES IDX 25 34 87 35 26 36 27 37 28 38 81 39 29 40 86 41 80 42 82 43
REMARK SMILES IDX 30 44 85 45 79 46 78 47 31 49 65 50 44 51 64 52 45 53 48 54
REMARK SMILES IDX 63 55 83 56 46 57 47 58 62 60 84 61 49 62 32 63 33 64 42 65
REMARK SMILES IDX 34 66 35 67 41 68 43 69 36 70 37 71 38 72 39 73 40 74 66 75
REMARK SMILES IDX 67 76 76 77 68 78 69 79 75 80 77 81 70 82 71 83 72 84 73 85
REMARK SMILES IDX 74 86 50 87 51 88 60 89 52 90 53 91 59 92 61 93 54 94 55 95
REMARK SMILES IDX 56 96 57 97 58 98
REMARK H PARENT 4 17 82 48 48 59
REMARK Flexibility Score: inf
ROOT
ATOM      1  C   UNL A   1      34.611  32.461  28.586  1.00  0.00     0.188 C 
ENDROOT
BRANCH   1   2
ATOM      2  O   UNL A   1      34.877  31.345  27.753  1.00  0.00    -0.377 OA
BRANCH   2   3
ATOM      3  C   UNL A   1      33.818  30.622  27.161  1.00  0.00     0.188 C 
BRANCH   3   4
ATOM      4  C   UNL A   1      33.956  29.109  27.371  1.00  0.00     0.188 C 
BRANCH   4   5
ATOM      5  O   UNL A   1      33.075  28.270  26.635  1.00  0.00    -0.376 OA
BRANCH   5   6
ATOM      6  C   UNL A   1      33.613  27.611  25.486  1.00  0.00     0.202 C 
BRANCH   6   7
ATOM      7  C   UNL A   1      34.029  28.448  24.254  1.00  0.00     0.261 C 
BRANCH   7   8
ATOM      8  O   UNL A   1      32.990  28.787  23.290  1.00  0.00    -0.459 OA
BRANCH   8   9
ATOM      9  C   UNL A   1      32.161  27.778  22.929  1.00  0.00     0.365 C 
ATOM     10  O   UNL A   1      32.464  26.960  22.056  1.00  0.00    -0.245 OA
BRANCH   9  11
ATOM     11  C   UNL A   1      30.803  27.642  23.649  1.00  0.00     0.298 C 
BRANCH  11  12
ATOM     12  N   UNL A   1      30.194  26.350  24.051  1.00  0.00    -0.322 N 
ATOM     13  C   UNL A   1      30.799  23.577  25.936  1.00  0.00     0.020 C 
ATOM     14  C   UNL A   1      31.045  24.987  25.435  1.00  0.00     0.096 C 
ATOM     15  C   UNL A   1      30.952  25.118  23.912  1.00  0.00     0.272 C 
ATOM     16  C   UNL A   1      29.977  26.108  25.485  1.00  0.00     0.272 C 
ATOM     17  H   UNL A   1      29.397  26.495  23.431  1.00  0.00     0.348 HD
ENDBRANCH  11  12
BRANCH  11  18
ATOM     18  C   UNL A   1      29.782  28.736  23.130  1.00  0.00     0.059 C 
ATOM     19  C   UNL A   1      28.294  28.334  23.110  1.00  0.00     0.010 C 
ATOM     20  C   UNL A   1      29.970  30.063  23.891  1.00  0.00     0.010 C 
ATOM     21  C   UNL A   1      27.348  29.449  22.671  1.00  0.00     0.001 C 
ATOM     22  C   UNL A   1      29.010  31.153  23.414  1.00  0.00     0.001 C 
ATOM     23  C   UNL A   1      27.561  30.698  23.511  1.00  0.00     0.000 C 
ENDBRANCH  11  18
ENDBRANCH   9  11
ENDBRANCH   8   9
ENDBRANCH   7   8
ENDBRANCH   6   7
ENDBRANCH   5   6
ENDBRANCH   4   5
ENDBRANCH   3   4
ENDBRANCH   2   3
ENDBRANCH   1   2
BRANCH   1  24
ATOM     24  C   UNL A   1      35.162  33.814  28.139  1.00  0.00     0.188 C 
BRANCH  24  25
ATOM     25  O   UNL A   1      34.234  34.904  28.098  1.00  0.00    -0.376 OA
BRANCH  25  26
ATOM     26  C   UNL A   1      33.058  34.838  28.904  1.00  0.00     0.202 C 
BRANCH  26  27
ATOM     27  C   UNL A   1      32.560  36.183  29.425  1.00  0.00     0.261 C 
BRANCH  27  28
ATOM     28  O   UNL A   1      33.213  36.535  30.655  1.00  0.00    -0.460 OA
BRANCH  28  29
ATOM     29  C   UNL A   1      32.926  35.756  31.721  1.00  0.00     0.338 C 
ATOM     30  O   UNL A   1      31.875  35.699  32.339  1.00  0.00    -0.246 OA
BRANCH  29  31
ATOM     31  C   UNL A   1      34.043  34.818  31.927  1.00  0.00     0.060 A 
ATOM     32  C   UNL A   1      33.807  33.633  32.636  1.00  0.00     0.016 A 
ATOM     33  C   UNL A   1      35.320  35.124  31.451  1.00  0.00     0.016 A 
ATOM     34  C   UNL A   1      34.857  32.756  32.894  1.00  0.00     0.010 A 
ATOM     35  C   UNL A   1      36.375  34.255  31.731  1.00  0.00     0.010 A 
ATOM     36  C   UNL A   1      36.153  33.084  32.476  1.00  0.00    -0.014 A 
BRANCH  36  37
ATOM     37  C   UNL A   1      37.312  32.301  32.959  1.00  0.00     0.031 A 
ATOM     38  C   UNL A   1      37.963  32.719  34.247  1.00  0.00     0.074 A 
ATOM     39  C   UNL A   1      37.782  31.255  32.257  1.00  0.00     0.049 A 
ATOM     40  N   UNL A   1      39.072  32.295  34.791  1.00  0.00    -0.248 NA
ATOM     41  C   UNL A   1      37.270  33.760  35.027  1.00  0.00     0.031 C 
ATOM     42  C   UNL A   1      37.193  30.730  31.025  1.00  0.00     0.029 A 
ATOM     43  N   UNL A   1      38.881  30.464  32.470  1.00  0.00    -0.354 N 
ATOM     44  C   UNL A   1      39.209  33.010  35.974  1.00  0.00     0.074 A 
ATOM     45  C   UNL A   1      38.089  33.920  36.056  1.00  0.00     0.031 C 
ATOM     46  C   UNL A   1      37.962  29.724  30.572  1.00  0.00     0.029 A 
ATOM     47  C   UNL A   1      39.116  29.567  31.455  1.00  0.00     0.049 A 
ATOM     48  H   UNL A   1      39.449  30.532  33.271  1.00  0.00     0.167 HD
ATOM     49  C   UNL A   1      40.181  32.908  36.910  1.00  0.00     0.037 A 
ATOM     50  C   UNL A   1      40.168  28.750  31.243  1.00  0.00     0.037 A 
ATOM     51  C   UNL A   1      41.299  32.008  36.809  1.00  0.00     0.049 A 
ATOM     52  C   UNL A   1      41.298  28.739  32.245  1.00  0.00     0.074 A 
ATOM     53  C   UNL A   1      42.347  31.835  37.696  1.00  0.00     0.029 A 
ATOM     54  N   UNL A   1      41.515  31.130  35.757  1.00  0.00    -0.354 N 
ATOM     55  N   UNL A   1      41.417  29.413  33.365  1.00  0.00    -0.248 NA
ATOM     56  C   UNL A   1      42.440  27.861  31.952  1.00  0.00     0.031 C 
ATOM     57  C   UNL A   1      43.222  30.890  37.155  1.00  0.00     0.029 A 
ATOM     58  C   UNL A   1      42.692  30.432  35.959  1.00  0.00     0.049 A 
ATOM     59  H   UNL A   1      40.919  31.021  34.981  1.00  0.00     0.167 HD
ATOM     60  C   UNL A   1      42.632  29.021  33.920  1.00  0.00     0.074 A 
ATOM     61  C   UNL A   1      43.200  28.035  33.025  1.00  0.00     0.031 C 
ATOM     62  C   UNL A   1      43.230  29.440  35.062  1.00  0.00     0.037 A 
BRANCH  49  63
ATOM     63  C   UNL A   1      40.088  33.795  38.120  1.00  0.00     0.058 A 
ATOM     64  C   UNL A   1      40.763  35.024  38.180  1.00  0.00     0.135 A 
ATOM     65  C   UNL A   1      39.260  33.447  39.200  1.00  0.00     0.135 A 
ATOM     66  F   UNL A   1      41.586  35.393  37.186  1.00  0.00    -0.206 F 
ATOM     67  C   UNL A   1      40.623  35.877  39.269  1.00  0.00     0.059 A 
ATOM     68  C   UNL A   1      39.086  34.297  40.288  1.00  0.00     0.059 A 
ATOM     69  F   UNL A   1      38.601  32.278  39.196  1.00  0.00    -0.206 F 
ATOM     70  C   UNL A   1      39.774  35.508  40.314  1.00  0.00     0.060 A 
BRANCH  70  71
ATOM     71  S   UNL A   1      39.570  36.650  41.697  1.00  0.00     0.124 S 
ATOM     72  O   UNL A   1      38.994  37.814  41.032  1.00  0.00    -0.237 OA
ATOM     73  O   UNL A   1      38.669  35.912  42.576  1.00  0.00    -0.237 OA
ATOM     74  O   UNL A   1      40.929  36.825  42.200  1.00  0.00    -0.744 OA
ENDBRANCH  70  71
ENDBRANCH  49  63
BRANCH  50  75
ATOM     75  C   UNL A   1      40.246  27.919  30.010  1.00  0.00     0.058 A 
ATOM     76  C   UNL A   1      39.483  26.751  29.869  1.00  0.00     0.135 A 
ATOM     77  C   UNL A   1      41.130  28.248  28.969  1.00  0.00     0.135 A 
ATOM     78  F   UNL A   1      38.630  26.386  30.840  1.00  0.00    -0.206 F 
ATOM     79  C   UNL A   1      39.619  25.917  28.763  1.00  0.00     0.059 A 
ATOM     80  C   UNL A   1      41.260  27.449  27.837  1.00  0.00     0.059 A 
ATOM     81  F   UNL A   1      41.877  29.360  29.044  1.00  0.00    -0.206 F 
ATOM     82  C   UNL A   1      40.516  26.273  27.754  1.00  0.00     0.060 A 
BRANCH  82  83
ATOM     83  S   UNL A   1      40.690  25.184  26.325  1.00  0.00     0.124 S 
ATOM     84  O   UNL A   1      39.314  24.748  26.119  1.00  0.00    -0.237 OA
ATOM     85  O   UNL A   1      41.233  26.089  25.316  1.00  0.00    -0.237 OA
ATOM     86  O   UNL A   1      41.615  24.157  26.798  1.00  0.00    -0.744 OA
ENDBRANCH  82  83
ENDBRANCH  50  75
BRANCH  62  87
ATOM     87  C   UNL A   1      44.549  28.817  35.430  1.00  0.00     0.058 A 
ATOM     88  C   UNL A   1      44.619  27.653  36.211  1.00  0.00     0.135 A 
ATOM     89  C   UNL A   1      45.752  29.346  34.934  1.00  0.00     0.135 A 
ATOM     90  F   UNL A   1      43.500  27.109  36.718  1.00  0.00    -0.206 F 
ATOM     91  C   UNL A   1      45.836  27.046  36.501  1.00  0.00     0.059 A 
ATOM     92  C   UNL A   1      46.977  28.738  35.184  1.00  0.00     0.059 A 
ATOM     93  F   UNL A   1      45.740  30.452  34.172  1.00  0.00    -0.206 F 
ATOM     94  C   UNL A   1      47.010  27.591  35.977  1.00  0.00     0.060 A 
BRANCH  94  95
ATOM     95  S   UNL A   1      48.575  26.758  36.317  1.00  0.00     0.124 S 
ATOM     96  O   UNL A   1      48.864  27.215  37.672  1.00  0.00    -0.237 OA
ATOM     97  O   UNL A   1      48.212  25.351  36.186  1.00  0.00    -0.237 OA
ATOM     98  O   UNL A   1      49.466  27.270  35.279  1.00  0.00    -0.744 OA
ENDBRANCH  94  95
ENDBRANCH  62  87
ENDBRANCH  36  37
ENDBRANCH  29  31
ENDBRANCH  28  29
ENDBRANCH  27  28
ENDBRANCH  26  27
ENDBRANCH  25  26
ENDBRANCH  24  25
ENDBRANCH   1  24
TORSDOF 25
ENDMDL
