MODEL 1
REMARK VINA RESULT:      -8.5      0.000      0.000
REMARK SMILES O=C(CCC(=O)N1CCCn2nc(-c3ccccc3)cc21)OCCOCCOCCOCCOC(=O)c1ccc(-c2c3nc(c(-c4c(F)cc(S(=O)(=O)[O-])cc4F)c4ccc([nH]4)c(-c4c(F)cc(S(=O)(=O)[O-])cc4F)c4nc(c(-c5c(F)cc(S(=O)(=O)[O-])cc5F)c5ccc2[nH]5)C=C4)C=C3)cc1
REMARK SMILES IDX 27 1 26 2 25 3 24 4 23 5 22 6 2 7 1 8 3 9 4 10 5 11 6 12
REMARK SMILES IDX 7 13 8 14 21 15 9 16 11 17 20 18 10 19 12 20 13 21 14 22
REMARK SMILES IDX 15 23 19 24 16 25 18 26 17 27 28 28 29 29 30 30 31 31 32 32
REMARK SMILES IDX 33 33 34 34 35 35 36 36 37 37 38 38 102 39 39 40 101 41
REMARK SMILES IDX 40 42 41 43 42 44 95 45 43 46 100 47 94 48 96 49 44 50 99 51
REMARK SMILES IDX 93 52 92 53 45 55 79 56 58 57 78 58 59 59 62 60 77 61 97 62
REMARK SMILES IDX 60 63 61 64 76 66 98 67 63 68 46 69 47 70 56 71 48 72 49 73
REMARK SMILES IDX 55 74 57 75 50 76 51 77 52 78 53 79 54 80 80 81 81 82 90 83
REMARK SMILES IDX 82 84 83 85 89 86 91 87 84 88 85 89 86 90 87 91 88 92 64 93
REMARK SMILES IDX 65 94 74 95 66 96 67 97 73 98 75 99 68 100 69 101 70 102
REMARK SMILES IDX 71 103 72 104
REMARK H PARENT 96 54 62 65
REMARK Flexibility Score: inf
ROOT
ATOM      1  C   UNL A   1      36.762  22.521  25.446  1.00  0.00     0.188 C 
ENDROOT
BRANCH   1   2
ATOM      2  C   UNL A   1      35.846  22.530  24.200  1.00  0.00     0.188 C 
BRANCH   2   3
ATOM      3  O   UNL A   1      34.514  22.111  24.456  1.00  0.00    -0.376 OA
BRANCH   3   4
ATOM      4  C   UNL A   1      33.433  22.635  23.714  1.00  0.00     0.202 C 
BRANCH   4   5
ATOM      5  C   UNL A   1      33.819  23.708  22.708  1.00  0.00     0.261 C 
BRANCH   5   6
ATOM      6  O   UNL A   1      33.131  24.955  22.928  1.00  0.00    -0.463 OA
BRANCH   6   7
ATOM      7  C   UNL A   1      32.868  25.879  21.981  1.00  0.00     0.306 C 
ATOM      8  O   UNL A   1      33.762  26.331  21.273  1.00  0.00    -0.252 OA
BRANCH   7   9
ATOM      9  C   UNL A   1      31.438  26.101  21.646  1.00  0.00     0.132 C 
BRANCH   9  10
ATOM     10  C   UNL A   1      31.148  27.549  21.993  1.00  0.00     0.112 C 
BRANCH  10  11
ATOM     11  C   UNL A   1      30.343  27.614  23.257  1.00  0.00     0.228 C 
ATOM     12  O   UNL A   1      29.450  28.454  23.336  1.00  0.00    -0.274 OA
BRANCH  11  13
ATOM     13  N   UNL A   1      30.661  26.795  24.415  1.00  0.00    -0.297 N 
ATOM     14  C   UNL A   1      29.801  25.739  25.017  1.00  0.00     0.129 C 
ATOM     15  C   UNL A   1      31.814  27.086  25.146  1.00  0.00     0.134 A 
ATOM     16  C   UNL A   1      30.691  24.594  25.536  1.00  0.00     0.046 C 
ATOM     17  N   UNL A   1      32.256  26.350  26.211  1.00  0.00    -0.249 N 
ATOM     18  C   UNL A   1      32.639  28.172  25.084  1.00  0.00     0.077 A 
ATOM     19  C   UNL A   1      31.633  25.110  26.629  1.00  0.00     0.148 C 
ATOM     20  N   UNL A   1      33.164  26.985  26.960  1.00  0.00    -0.171 NA
ATOM     21  C   UNL A   1      33.346  28.148  26.314  1.00  0.00     0.095 A 
BRANCH  21  22
ATOM     22  C   UNL A   1      34.042  29.293  26.876  1.00  0.00     0.002 A 
ATOM     23  C   UNL A   1      35.381  29.232  27.253  1.00  0.00     0.010 A 
ATOM     24  C   UNL A   1      33.326  30.494  27.042  1.00  0.00     0.010 A 
ATOM     25  C   UNL A   1      36.003  30.372  27.764  1.00  0.00     0.001 A 
ATOM     26  C   UNL A   1      33.946  31.626  27.559  1.00  0.00     0.001 A 
ATOM     27  C   UNL A   1      35.290  31.565  27.913  1.00  0.00     0.000 A 
ENDBRANCH  21  22
ENDBRANCH  11  13
ENDBRANCH  10  11
ENDBRANCH   9  10
ENDBRANCH   7   9
ENDBRANCH   6   7
ENDBRANCH   5   6
ENDBRANCH   4   5
ENDBRANCH   3   4
ENDBRANCH   2   3
ENDBRANCH   1   2
BRANCH   1  28
ATOM     28  O   UNL A   1      37.850  21.600  25.411  1.00  0.00    -0.377 OA
BRANCH  28  29
ATOM     29  C   UNL A   1      37.510  20.289  24.980  1.00  0.00     0.188 C 
BRANCH  29  30
ATOM     30  C   UNL A   1      38.512  19.171  25.349  1.00  0.00     0.188 C 
BRANCH  30  31
ATOM     31  O   UNL A   1      39.921  19.347  25.258  1.00  0.00    -0.376 OA
BRANCH  31  32
ATOM     32  C   UNL A   1      40.720  19.388  26.428  1.00  0.00     0.202 C 
BRANCH  32  33
ATOM     33  C   UNL A   1      41.371  20.708  26.850  1.00  0.00     0.261 C 
BRANCH  33  34
ATOM     34  O   UNL A   1      40.901  21.871  26.161  1.00  0.00    -0.460 OA
BRANCH  34  35
ATOM     35  C   UNL A   1      41.875  22.757  25.840  1.00  0.00     0.338 C 
ATOM     36  O   UNL A   1      42.692  22.661  24.942  1.00  0.00    -0.246 OA
BRANCH  35  37
ATOM     37  C   UNL A   1      41.694  23.991  26.629  1.00  0.00     0.060 A 
ATOM     38  C   UNL A   1      42.616  25.030  26.439  1.00  0.00     0.016 A 
ATOM     39  C   UNL A   1      40.677  24.105  27.579  1.00  0.00     0.016 A 
ATOM     40  C   UNL A   1      42.562  26.167  27.234  1.00  0.00     0.010 A 
ATOM     41  C   UNL A   1      40.649  25.227  28.410  1.00  0.00     0.010 A 
ATOM     42  C   UNL A   1      41.626  26.229  28.272  1.00  0.00    -0.014 A 
BRANCH  42  43
ATOM     43  C   UNL A   1      41.881  27.172  29.381  1.00  0.00     0.031 A 
ATOM     44  C   UNL A   1      43.129  26.956  30.196  1.00  0.00     0.074 A 
ATOM     45  C   UNL A   1      41.073  28.218  29.614  1.00  0.00     0.049 A 
ATOM     46  N   UNL A   1      43.568  27.619  31.233  1.00  0.00    -0.248 NA
ATOM     47  C   UNL A   1      43.998  25.840  29.782  1.00  0.00     0.031 C 
ATOM     48  C   UNL A   1      39.884  28.559  28.835  1.00  0.00     0.029 A 
ATOM     49  N   UNL A   1      41.136  29.188  30.578  1.00  0.00    -0.354 N 
ATOM     50  C   UNL A   1      44.757  26.996  31.598  1.00  0.00     0.074 A 
ATOM     51  C   UNL A   1      44.957  25.887  30.693  1.00  0.00     0.031 C 
ATOM     52  C   UNL A   1      39.318  29.658  29.367  1.00  0.00     0.029 A 
ATOM     53  C   UNL A   1      40.088  30.073  30.538  1.00  0.00     0.049 A 
ATOM     54  H   UNL A   1      41.864  29.244  31.238  1.00  0.00     0.167 HD
ATOM     55  C   UNL A   1      45.609  27.324  32.596  1.00  0.00     0.037 A 
ATOM     56  C   UNL A   1      39.782  31.088  31.370  1.00  0.00     0.037 A 
ATOM     57  C   UNL A   1      45.394  28.426  33.493  1.00  0.00     0.049 A 
ATOM     58  C   UNL A   1      40.701  31.383  32.529  1.00  0.00     0.074 A 
ATOM     59  C   UNL A   1      46.187  28.850  34.543  1.00  0.00     0.029 A 
ATOM     60  N   UNL A   1      44.297  29.275  33.449  1.00  0.00    -0.354 N 
ATOM     61  N   UNL A   1      41.823  30.790  32.865  1.00  0.00    -0.248 NA
ATOM     62  C   UNL A   1      40.316  32.487  33.418  1.00  0.00     0.031 C 
ATOM     63  C   UNL A   1      45.543  29.924  35.167  1.00  0.00     0.029 A 
ATOM     64  C   UNL A   1      44.379  30.208  34.469  1.00  0.00     0.049 A 
ATOM     65  H   UNL A   1      43.567  29.222  32.790  1.00  0.00     0.167 HD
ATOM     66  C   UNL A   1      42.294  31.471  33.985  1.00  0.00     0.074 A 
ATOM     67  C   UNL A   1      41.338  32.525  34.260  1.00  0.00     0.031 C 
ATOM     68  C   UNL A   1      43.416  31.252  34.716  1.00  0.00     0.037 A 
BRANCH  55  69
ATOM     69  C   UNL A   1      46.818  26.452  32.790  1.00  0.00     0.058 A 
ATOM     70  C   UNL A   1      46.782  25.292  33.579  1.00  0.00     0.135 A 
ATOM     71  C   UNL A   1      48.035  26.784  32.171  1.00  0.00     0.135 A 
ATOM     72  F   UNL A   1      45.653  24.943  34.217  1.00  0.00    -0.206 F 
ATOM     73  C   UNL A   1      47.914  24.508  33.772  1.00  0.00     0.059 A 
ATOM     74  C   UNL A   1      49.172  25.998  32.325  1.00  0.00     0.059 A 
ATOM     75  F   UNL A   1      48.128  27.889  31.414  1.00  0.00    -0.206 F 
ATOM     76  C   UNL A   1      49.106  24.870  33.141  1.00  0.00     0.060 A 
BRANCH  76  77
ATOM     77  S   UNL A   1      50.569  23.845  33.403  1.00  0.00     0.124 S 
ATOM     78  O   UNL A   1      50.789  23.305  32.065  1.00  0.00    -0.237 OA
ATOM     79  O   UNL A   1      51.552  24.821  33.862  1.00  0.00    -0.237 OA
ATOM     80  O   UNL A   1      50.132  22.879  34.406  1.00  0.00    -0.744 OA
ENDBRANCH  76  77
ENDBRANCH  55  69
BRANCH  56  81
ATOM     81  C   UNL A   1      38.549  31.889  31.147  1.00  0.00     0.058 A 
ATOM     82  C   UNL A   1      38.559  33.020  30.317  1.00  0.00     0.135 A 
ATOM     83  C   UNL A   1      37.336  31.540  31.761  1.00  0.00     0.135 A 
ATOM     84  F   UNL A   1      39.696  33.399  29.715  1.00  0.00    -0.206 F 
ATOM     85  C   UNL A   1      37.415  33.784  30.113  1.00  0.00     0.059 A 
ATOM     86  C   UNL A   1      36.172  32.273  31.552  1.00  0.00     0.059 A 
ATOM     87  F   UNL A   1      37.268  30.458  32.553  1.00  0.00    -0.206 F 
ATOM     88  C   UNL A   1      36.224  33.400  30.732  1.00  0.00     0.060 A 
BRANCH  88  89
ATOM     89  S   UNL A   1      34.730  34.362  30.414  1.00  0.00     0.124 S 
ATOM     90  O   UNL A   1      35.017  34.923  29.099  1.00  0.00    -0.237 OA
ATOM     91  O   UNL A   1      33.691  33.337  30.460  1.00  0.00    -0.237 OA
ATOM     92  O   UNL A   1      34.707  35.317  31.519  1.00  0.00    -0.744 OA
ENDBRANCH  88  89
ENDBRANCH  56  81
BRANCH  68  93
ATOM     93  C   UNL A   1      43.696  32.195  35.855  1.00  0.00     0.058 A 
ATOM     94  C   UNL A   1      43.251  31.935  37.159  1.00  0.00     0.135 A 
ATOM     95  C   UNL A   1      44.465  33.351  35.641  1.00  0.00     0.135 A 
ATOM     96  F   UNL A   1      42.510  30.846  37.417  1.00  0.00    -0.206 F 
ATOM     97  C   UNL A   1      43.530  32.806  38.207  1.00  0.00     0.059 A 
ATOM     98  C   UNL A   1      44.783  34.218  36.679  1.00  0.00     0.059 A 
ATOM     99  F   UNL A   1      44.927  33.638  34.414  1.00  0.00    -0.206 F 
ATOM    100  C   UNL A   1      44.298  33.946  37.956  1.00  0.00     0.060 A 
BRANCH 100 101
ATOM    101  S   UNL A   1      44.668  35.058  39.329  1.00  0.00     0.124 S 
ATOM    102  O   UNL A   1      46.069  35.377  39.076  1.00  0.00    -0.237 OA
ATOM    103  O   UNL A   1      43.720  36.146  39.113  1.00  0.00    -0.237 OA
ATOM    104  O   UNL A   1      44.415  34.236  40.508  1.00  0.00    -0.744 OA
ENDBRANCH 100 101
ENDBRANCH  68  93
ENDBRANCH  42  43
ENDBRANCH  35  37
ENDBRANCH  34  35
ENDBRANCH  33  34
ENDBRANCH  32  33
ENDBRANCH  31  32
ENDBRANCH  30  31
ENDBRANCH  29  30
ENDBRANCH  28  29
ENDBRANCH   1  28
TORSDOF 27
ENDMDL
MODEL 2
REMARK VINA RESULT:      -8.3      5.499      8.711
REMARK SMILES O=C(CCC(=O)N1CCCn2nc(-c3ccccc3)cc21)OCCOCCOCCOCCOC(=O)c1ccc(-c2c3nc(c(-c4c(F)cc(S(=O)(=O)[O-])cc4F)c4ccc([nH]4)c(-c4c(F)cc(S(=O)(=O)[O-])cc4F)c4nc(c(-c5c(F)cc(S(=O)(=O)[O-])cc5F)c5ccc2[nH]5)C=C4)C=C3)cc1
REMARK SMILES IDX 27 1 26 2 25 3 24 4 23 5 22 6 2 7 1 8 3 9 4 10 5 11 6 12
REMARK SMILES IDX 7 13 8 14 21 15 9 16 11 17 20 18 10 19 12 20 13 21 14 22
REMARK SMILES IDX 15 23 19 24 16 25 18 26 17 27 28 28 29 29 30 30 31 31 32 32
REMARK SMILES IDX 33 33 34 34 35 35 36 36 37 37 38 38 102 39 39 40 101 41
REMARK SMILES IDX 40 42 41 43 42 44 95 45 43 46 100 47 94 48 96 49 44 50 99 51
REMARK SMILES IDX 93 52 92 53 45 55 79 56 58 57 78 58 59 59 62 60 77 61 97 62
REMARK SMILES IDX 60 63 61 64 76 66 98 67 63 68 46 69 47 70 56 71 48 72 49 73
REMARK SMILES IDX 55 74 57 75 50 76 51 77 52 78 53 79 54 80 80 81 81 82 90 83
REMARK SMILES IDX 82 84 83 85 89 86 91 87 84 88 85 89 86 90 87 91 88 92 64 93
REMARK SMILES IDX 65 94 74 95 66 96 67 97 73 98 75 99 68 100 69 101 70 102
REMARK SMILES IDX 71 103 72 104
REMARK H PARENT 96 54 62 65
REMARK Flexibility Score: inf
ROOT
ATOM      1  C   UNL A   1      46.465  27.842  24.851  1.00  0.00     0.188 C 
ENDROOT
BRANCH   1   2
ATOM      2  C   UNL A   1      45.561  26.639  25.213  1.00  0.00     0.188 C 
BRANCH   2   3
ATOM      3  O   UNL A   1      46.178  25.685  26.064  1.00  0.00    -0.376 OA
BRANCH   3   4
ATOM      4  C   UNL A   1      46.869  24.576  25.529  1.00  0.00     0.202 C 
BRANCH   4   5
ATOM      5  C   UNL A   1      46.116  23.258  25.621  1.00  0.00     0.261 C 
BRANCH   5   6
ATOM      6  O   UNL A   1      44.688  23.423  25.522  1.00  0.00    -0.463 OA
BRANCH   6   7
ATOM      7  C   UNL A   1      43.826  22.497  25.050  1.00  0.00     0.306 C 
ATOM      8  O   UNL A   1      44.229  21.514  24.438  1.00  0.00    -0.252 OA
BRANCH   7   9
ATOM      9  C   UNL A   1      42.429  22.573  25.548  1.00  0.00     0.132 C 
BRANCH   9  10
ATOM     10  C   UNL A   1      42.355  21.616  26.724  1.00  0.00     0.112 C 
BRANCH  10  11
ATOM     11  C   UNL A   1      42.019  22.376  27.973  1.00  0.00     0.228 C 
ATOM     12  O   UNL A   1      40.902  22.225  28.464  1.00  0.00    -0.274 OA
BRANCH  11  13
ATOM     13  N   UNL A   1      42.925  23.358  28.544  1.00  0.00    -0.297 N 
ATOM     14  C   UNL A   1      44.140  23.075  29.356  1.00  0.00     0.129 C 
ATOM     15  C   UNL A   1      42.588  24.710  28.463  1.00  0.00     0.134 A 
ATOM     16  C   UNL A   1      45.225  24.119  29.029  1.00  0.00     0.046 C 
ATOM     17  N   UNL A   1      43.388  25.730  28.900  1.00  0.00    -0.249 N 
ATOM     18  C   UNL A   1      41.411  25.298  28.097  1.00  0.00     0.077 A 
ATOM     19  C   UNL A   1      44.734  25.524  29.395  1.00  0.00     0.148 C 
ATOM     20  N   UNL A   1      42.742  26.893  29.039  1.00  0.00    -0.171 NA
ATOM     21  C   UNL A   1      41.497  26.614  28.622  1.00  0.00     0.095 A 
BRANCH  21  22
ATOM     22  C   UNL A   1      40.352  27.484  28.829  1.00  0.00     0.002 A 
ATOM     23  C   UNL A   1      39.376  27.207  29.783  1.00  0.00     0.010 A 
ATOM     24  C   UNL A   1      40.238  28.638  28.030  1.00  0.00     0.010 A 
ATOM     25  C   UNL A   1      38.312  28.094  29.953  1.00  0.00     0.001 A 
ATOM     26  C   UNL A   1      39.172  29.515  28.197  1.00  0.00     0.001 A 
ATOM     27  C   UNL A   1      38.212  29.245  29.166  1.00  0.00     0.000 A 
ENDBRANCH  21  22
ENDBRANCH  11  13
ENDBRANCH  10  11
ENDBRANCH   9  10
ENDBRANCH   7   9
ENDBRANCH   6   7
ENDBRANCH   5   6
ENDBRANCH   4   5
ENDBRANCH   3   4
ENDBRANCH   2   3
ENDBRANCH   1   2
BRANCH   1  28
ATOM     28  O   UNL A   1      47.493  27.582  23.899  1.00  0.00    -0.377 OA
BRANCH  28  29
ATOM     29  C   UNL A   1      48.792  27.421  24.450  1.00  0.00     0.188 C 
BRANCH  29  30
ATOM     30  C   UNL A   1      49.970  27.503  23.451  1.00  0.00     0.188 C 
BRANCH  30  31
ATOM     31  O   UNL A   1      51.111  26.659  23.545  1.00  0.00    -0.376 OA
BRANCH  31  32
ATOM     32  C   UNL A   1      52.328  27.148  24.082  1.00  0.00     0.202 C 
BRANCH  32  33
ATOM     33  C   UNL A   1      52.393  27.554  25.558  1.00  0.00     0.261 C 
BRANCH  33  34
ATOM     34  O   UNL A   1      53.058  26.625  26.419  1.00  0.00    -0.460 OA
BRANCH  34  35
ATOM     35  C   UNL A   1      52.386  25.464  26.608  1.00  0.00     0.338 C 
ATOM     36  O   UNL A   1      52.620  24.385  26.097  1.00  0.00    -0.246 OA
BRANCH  35  37
ATOM     37  C   UNL A   1      51.409  25.638  27.701  1.00  0.00     0.060 A 
ATOM     38  C   UNL A   1      50.128  25.093  27.526  1.00  0.00     0.016 A 
ATOM     39  C   UNL A   1      51.722  26.370  28.848  1.00  0.00     0.016 A 
ATOM     40  C   UNL A   1      49.136  25.322  28.470  1.00  0.00     0.010 A 
ATOM     41  C   UNL A   1      50.713  26.640  29.775  1.00  0.00     0.010 A 
ATOM     42  C   UNL A   1      49.408  26.161  29.555  1.00  0.00    -0.014 A 
BRANCH  42  43
ATOM     43  C   UNL A   1      48.265  26.780  30.258  1.00  0.00     0.031 A 
ATOM     44  C   UNL A   1      47.855  26.174  31.574  1.00  0.00     0.074 A 
ATOM     45  C   UNL A   1      47.656  27.877  29.779  1.00  0.00     0.049 A 
ATOM     46  N   UNL A   1      46.876  26.508  32.372  1.00  0.00    -0.248 NA
ATOM     47  C   UNL A   1      48.664  25.040  32.055  1.00  0.00     0.031 C 
ATOM     48  C   UNL A   1      48.025  28.583  28.554  1.00  0.00     0.029 A 
ATOM     49  N   UNL A   1      46.595  28.586  30.274  1.00  0.00    -0.354 N 
ATOM     50  C   UNL A   1      46.947  25.620  33.441  1.00  0.00     0.074 A 
ATOM     51  C   UNL A   1      48.044  24.717  33.178  1.00  0.00     0.031 C 
ATOM     52  C   UNL A   1      47.187  29.622  28.384  1.00  0.00     0.029 A 
ATOM     53  C   UNL A   1      46.209  29.630  29.471  1.00  0.00     0.049 A 
ATOM     54  H   UNL A   1      46.151  28.368  31.125  1.00  0.00     0.167 HD
ATOM     55  C   UNL A   1      46.168  25.567  34.546  1.00  0.00     0.037 A 
ATOM     56  C   UNL A   1      45.169  30.477  29.596  1.00  0.00     0.037 A 
ATOM     57  C   UNL A   1      45.076  26.468  34.792  1.00  0.00     0.049 A 
ATOM     58  C   UNL A   1      44.261  30.347  30.793  1.00  0.00     0.074 A 
ATOM     59  C   UNL A   1      44.218  26.507  35.875  1.00  0.00     0.029 A 
ATOM     60  N   UNL A   1      44.687  27.487  33.933  1.00  0.00    -0.354 N 
ATOM     61  N   UNL A   1      44.336  29.505  31.798  1.00  0.00    -0.248 NA
ATOM     62  C   UNL A   1      43.131  31.281  30.875  1.00  0.00     0.031 C 
ATOM     63  C   UNL A   1      43.276  27.516  35.646  1.00  0.00     0.029 A 
ATOM     64  C   UNL A   1      43.585  28.146  34.450  1.00  0.00     0.049 A 
ATOM     65  H   UNL A   1      45.129  27.708  33.082  1.00  0.00     0.167 HD
ATOM     66  C   UNL A   1      43.284  29.833  32.649  1.00  0.00     0.074 A 
ATOM     67  C   UNL A   1      42.594  30.953  32.042  1.00  0.00     0.031 C 
ATOM     68  C   UNL A   1      42.922  29.265  33.827  1.00  0.00     0.037 A 
BRANCH  55  69
ATOM     69  C   UNL A   1      46.449  24.475  35.540  1.00  0.00     0.058 A 
ATOM     70  C   UNL A   1      47.416  24.617  36.548  1.00  0.00     0.135 A 
ATOM     71  C   UNL A   1      45.736  23.266  35.483  1.00  0.00     0.135 A 
ATOM     72  F   UNL A   1      48.146  25.740  36.632  1.00  0.00    -0.206 F 
ATOM     73  C   UNL A   1      47.685  23.589  37.447  1.00  0.00     0.059 A 
ATOM     74  C   UNL A   1      45.968  22.237  36.390  1.00  0.00     0.059 A 
ATOM     75  F   UNL A   1      44.808  23.073  34.532  1.00  0.00    -0.206 F 
ATOM     76  C   UNL A   1      46.956  22.402  37.359  1.00  0.00     0.060 A 
BRANCH  76  77
ATOM     77  S   UNL A   1      47.320  21.076  38.528  1.00  0.00     0.124 S 
ATOM     78  O   UNL A   1      48.158  21.769  39.501  1.00  0.00    -0.237 OA
ATOM     79  O   UNL A   1      45.988  20.700  38.993  1.00  0.00    -0.237 OA
ATOM     80  O   UNL A   1      48.001  20.078  37.710  1.00  0.00    -0.744 OA
ENDBRANCH  76  77
ENDBRANCH  55  69
BRANCH  56  81
ATOM     81  C   UNL A   1      44.922  31.513  28.557  1.00  0.00     0.058 A 
ATOM     82  C   UNL A   1      44.256  31.200  27.364  1.00  0.00     0.135 A 
ATOM     83  C   UNL A   1      45.349  32.839  28.739  1.00  0.00     0.135 A 
ATOM     84  F   UNL A   1      43.837  29.946  27.140  1.00  0.00    -0.206 F 
ATOM     85  C   UNL A   1      44.032  32.159  26.380  1.00  0.00     0.059 A 
ATOM     86  C   UNL A   1      45.113  33.821  27.782  1.00  0.00     0.059 A 
ATOM     87  F   UNL A   1      45.977  33.196  29.870  1.00  0.00    -0.206 F 
ATOM     88  C   UNL A   1      44.461  33.469  26.601  1.00  0.00     0.060 A 
BRANCH  88  89
ATOM     89  S   UNL A   1      44.114  34.719  25.346  1.00  0.00     0.124 S 
ATOM     90  O   UNL A   1      45.384  34.778  24.632  1.00  0.00    -0.237 OA
ATOM     91  O   UNL A   1      42.998  34.120  24.619  1.00  0.00    -0.237 OA
ATOM     92  O   UNL A   1      43.775  35.900  26.136  1.00  0.00    -0.744 OA
ENDBRANCH  88  89
ENDBRANCH  56  81
BRANCH  68  93
ATOM     93  C   UNL A   1      41.757  29.873  34.560  1.00  0.00     0.058 A 
ATOM     94  C   UNL A   1      41.932  30.855  35.546  1.00  0.00     0.135 A 
ATOM     95  C   UNL A   1      40.443  29.498  34.232  1.00  0.00     0.135 A 
ATOM     96  F   UNL A   1      43.167  31.246  35.899  1.00  0.00    -0.206 F 
ATOM     97  C   UNL A   1      40.846  31.422  36.205  1.00  0.00     0.059 A 
ATOM     98  C   UNL A   1      39.342  30.075  34.854  1.00  0.00     0.059 A 
ATOM     99  F   UNL A   1      40.220  28.573  33.285  1.00  0.00    -0.206 F 
ATOM    100  C   UNL A   1      39.555  31.025  35.851  1.00  0.00     0.060 A 
BRANCH 100 101
ATOM    101  S   UNL A   1      38.154  31.783  36.701  1.00  0.00     0.124 S 
ATOM    102  O   UNL A   1      38.824  32.756  37.558  1.00  0.00    -0.237 OA
ATOM    103  O   UNL A   1      37.381  32.338  35.595  1.00  0.00    -0.237 OA
ATOM    104  O   UNL A   1      37.531  30.660  37.395  1.00  0.00    -0.744 OA
ENDBRANCH 100 101
ENDBRANCH  68  93
ENDBRANCH  42  43
ENDBRANCH  35  37
ENDBRANCH  34  35
ENDBRANCH  33  34
ENDBRANCH  32  33
ENDBRANCH  31  32
ENDBRANCH  30  31
ENDBRANCH  29  30
ENDBRANCH  28  29
ENDBRANCH   1  28
TORSDOF 27
ENDMDL
MODEL 3
REMARK VINA RESULT:      -8.2      3.116      7.562
REMARK SMILES O=C(CCC(=O)N1CCCn2nc(-c3ccccc3)cc21)OCCOCCOCCOCCOC(=O)c1ccc(-c2c3nc(c(-c4c(F)cc(S(=O)(=O)[O-])cc4F)c4ccc([nH]4)c(-c4c(F)cc(S(=O)(=O)[O-])cc4F)c4nc(c(-c5c(F)cc(S(=O)(=O)[O-])cc5F)c5ccc2[nH]5)C=C4)C=C3)cc1
REMARK SMILES IDX 27 1 26 2 25 3 24 4 23 5 22 6 2 7 1 8 3 9 4 10 5 11 6 12
REMARK SMILES IDX 7 13 8 14 21 15 9 16 11 17 20 18 10 19 12 20 13 21 14 22
REMARK SMILES IDX 15 23 19 24 16 25 18 26 17 27 28 28 29 29 30 30 31 31 32 32
REMARK SMILES IDX 33 33 34 34 35 35 36 36 37 37 38 38 102 39 39 40 101 41
REMARK SMILES IDX 40 42 41 43 42 44 95 45 43 46 100 47 94 48 96 49 44 50 99 51
REMARK SMILES IDX 93 52 92 53 45 55 79 56 58 57 78 58 59 59 62 60 77 61 97 62
REMARK SMILES IDX 60 63 61 64 76 66 98 67 63 68 46 69 47 70 56 71 48 72 49 73
REMARK SMILES IDX 55 74 57 75 50 76 51 77 52 78 53 79 54 80 80 81 81 82 90 83
REMARK SMILES IDX 82 84 83 85 89 86 91 87 84 88 85 89 86 90 87 91 88 92 64 93
REMARK SMILES IDX 65 94 74 95 66 96 67 97 73 98 75 99 68 100 69 101 70 102
REMARK SMILES IDX 71 103 72 104
REMARK H PARENT 96 54 62 65
REMARK Flexibility Score: inf
ROOT
ATOM      1  C   UNL A   1      36.744  22.594  25.453  1.00  0.00     0.188 C 
ENDROOT
BRANCH   1   2
ATOM      2  C   UNL A   1      35.862  22.560  24.182  1.00  0.00     0.188 C 
BRANCH   2   3
ATOM      3  O   UNL A   1      34.529  22.126  24.412  1.00  0.00    -0.376 OA
BRANCH   3   4
ATOM      4  C   UNL A   1      33.455  22.653  23.663  1.00  0.00     0.202 C 
BRANCH   4   5
ATOM      5  C   UNL A   1      33.846  23.750  22.686  1.00  0.00     0.261 C 
BRANCH   5   6
ATOM      6  O   UNL A   1      33.147  24.988  22.926  1.00  0.00    -0.463 OA
BRANCH   6   7
ATOM      7  C   UNL A   1      32.886  25.931  21.997  1.00  0.00     0.306 C 
ATOM      8  O   UNL A   1      33.786  26.412  21.316  1.00  0.00    -0.252 OA
BRANCH   7   9
ATOM      9  C   UNL A   1      31.459  26.139  21.641  1.00  0.00     0.132 C 
BRANCH   9  10
ATOM     10  C   UNL A   1      31.131  27.563  22.053  1.00  0.00     0.112 C 
BRANCH  10  11
ATOM     11  C   UNL A   1      30.241  27.546  23.260  1.00  0.00     0.228 C 
ATOM     12  O   UNL A   1      29.265  28.293  23.275  1.00  0.00    -0.274 OA
BRANCH  11  13
ATOM     13  N   UNL A   1      30.563  26.764  24.442  1.00  0.00    -0.297 N 
ATOM     14  C   UNL A   1      29.729  25.688  25.046  1.00  0.00     0.129 C 
ATOM     15  C   UNL A   1      31.685  27.114  25.194  1.00  0.00     0.134 A 
ATOM     16  C   UNL A   1      30.650  24.589  25.610  1.00  0.00     0.046 C 
ATOM     17  N   UNL A   1      32.129  26.417  26.284  1.00  0.00    -0.249 N 
ATOM     18  C   UNL A   1      32.469  28.230  25.129  1.00  0.00     0.077 A 
ATOM     19  C   UNL A   1      31.544  25.163  26.714  1.00  0.00     0.148 C 
ATOM     20  N   UNL A   1      32.993  27.102  27.041  1.00  0.00    -0.171 NA
ATOM     21  C   UNL A   1      33.146  28.259  26.376  1.00  0.00     0.095 A 
BRANCH  21  22
ATOM     22  C   UNL A   1      33.783  29.441  26.930  1.00  0.00     0.002 A 
ATOM     23  C   UNL A   1      33.090  30.633  27.122  1.00  0.00     0.010 A 
ATOM     24  C   UNL A   1      35.147  29.364  27.274  1.00  0.00     0.010 A 
ATOM     25  C   UNL A   1      33.750  31.728  27.682  1.00  0.00     0.001 A 
ATOM     26  C   UNL A   1      35.804  30.459  27.824  1.00  0.00     0.001 A 
ATOM     27  C   UNL A   1      35.100  31.641  28.035  1.00  0.00     0.000 A 
ENDBRANCH  21  22
ENDBRANCH  11  13
ENDBRANCH  10  11
ENDBRANCH   9  10
ENDBRANCH   7   9
ENDBRANCH   6   7
ENDBRANCH   5   6
ENDBRANCH   4   5
ENDBRANCH   3   4
ENDBRANCH   2   3
ENDBRANCH   1   2
BRANCH   1  28
ATOM     28  O   UNL A   1      37.868  21.717  25.452  1.00  0.00    -0.377 OA
BRANCH  28  29
ATOM     29  C   UNL A   1      37.609  20.413  24.952  1.00  0.00     0.188 C 
BRANCH  29  30
ATOM     30  C   UNL A   1      38.641  19.324  25.325  1.00  0.00     0.188 C 
BRANCH  30  31
ATOM     31  O   UNL A   1      40.041  19.575  25.353  1.00  0.00    -0.376 OA
BRANCH  31  32
ATOM     32  C   UNL A   1      40.740  19.630  26.584  1.00  0.00     0.202 C 
BRANCH  32  33
ATOM     33  C   UNL A   1      41.492  20.908  26.969  1.00  0.00     0.261 C 
BRANCH  33  34
ATOM     34  O   UNL A   1      41.230  22.045  26.139  1.00  0.00    -0.460 OA
BRANCH  34  35
ATOM     35  C   UNL A   1      42.345  22.673  25.693  1.00  0.00     0.338 C 
ATOM     36  O   UNL A   1      42.947  22.459  24.657  1.00  0.00    -0.246 OA
BRANCH  35  37
ATOM     37  C   UNL A   1      42.640  23.825  26.567  1.00  0.00     0.060 A 
ATOM     38  C   UNL A   1      43.959  24.303  26.595  1.00  0.00     0.016 A 
ATOM     39  C   UNL A   1      41.661  24.387  27.387  1.00  0.00     0.016 A 
ATOM     40  C   UNL A   1      44.319  25.309  27.482  1.00  0.00     0.010 A 
ATOM     41  C   UNL A   1      42.031  25.366  28.312  1.00  0.00     0.010 A 
ATOM     42  C   UNL A   1      43.372  25.785  28.394  1.00  0.00    -0.014 A 
BRANCH  42  43
ATOM     43  C   UNL A   1      43.861  26.465  29.611  1.00  0.00     0.031 A 
ATOM     44  C   UNL A   1      43.881  27.971  29.600  1.00  0.00     0.074 A 
ATOM     45  C   UNL A   1      44.212  25.775  30.708  1.00  0.00     0.049 A 
ATOM     46  N   UNL A   1      44.286  28.803  30.522  1.00  0.00    -0.248 NA
ATOM     47  C   UNL A   1      43.371  28.624  28.380  1.00  0.00     0.031 C 
ATOM     48  C   UNL A   1      44.157  24.321  30.848  1.00  0.00     0.029 A 
ATOM     49  N   UNL A   1      44.684  26.214  31.916  1.00  0.00    -0.354 N 
ATOM     50  C   UNL A   1      44.088  30.073  29.991  1.00  0.00     0.074 A 
ATOM     51  C   UNL A   1      43.555  29.904  28.659  1.00  0.00     0.031 C 
ATOM     52  C   UNL A   1      44.597  23.986  32.074  1.00  0.00     0.029 A 
ATOM     53  C   UNL A   1      44.993  25.199  32.788  1.00  0.00     0.049 A 
ATOM     54  H   UNL A   1      44.793  27.167  32.138  1.00  0.00     0.167 HD
ATOM     55  C   UNL A   1      44.326  31.274  30.567  1.00  0.00     0.037 A 
ATOM     56  C   UNL A   1      45.551  25.253  34.013  1.00  0.00     0.037 A 
ATOM     57  C   UNL A   1      44.862  31.426  31.892  1.00  0.00     0.049 A 
ATOM     58  C   UNL A   1      45.887  26.600  34.603  1.00  0.00     0.074 A 
ATOM     59  C   UNL A   1      45.147  32.593  32.577  1.00  0.00     0.029 A 
ATOM     60  N   UNL A   1      45.204  30.374  32.730  1.00  0.00    -0.354 N 
ATOM     61  N   UNL A   1      45.696  27.795  34.094  1.00  0.00    -0.248 NA
ATOM     62  C   UNL A   1      46.511  26.605  35.932  1.00  0.00     0.031 C 
ATOM     63  C   UNL A   1      45.710  32.246  33.810  1.00  0.00     0.029 A 
ATOM     64  C   UNL A   1      45.719  30.863  33.917  1.00  0.00     0.049 A 
ATOM     65  H   UNL A   1      45.096  29.420  32.511  1.00  0.00     0.167 HD
ATOM     66  C   UNL A   1      46.145  28.695  35.057  1.00  0.00     0.074 A 
ATOM     67  C   UNL A   1      46.608  27.904  36.179  1.00  0.00     0.031 C 
ATOM     68  C   UNL A   1      46.167  30.052  35.022  1.00  0.00     0.037 A 
BRANCH  55  69
ATOM     69  C   UNL A   1      44.047  32.503  29.748  1.00  0.00     0.058 A 
ATOM     70  C   UNL A   1      42.820  33.183  29.821  1.00  0.00     0.135 A 
ATOM     71  C   UNL A   1      45.025  33.010  28.878  1.00  0.00     0.135 A 
ATOM     72  F   UNL A   1      41.839  32.726  30.616  1.00  0.00    -0.206 F 
ATOM     73  C   UNL A   1      42.563  34.305  29.039  1.00  0.00     0.059 A 
ATOM     74  C   UNL A   1      44.801  34.148  28.109  1.00  0.00     0.059 A 
ATOM     75  F   UNL A   1      46.211  32.393  28.761  1.00  0.00    -0.206 F 
ATOM     76  C   UNL A   1      43.560  34.779  28.185  1.00  0.00     0.060 A 
BRANCH  76  77
ATOM     77  S   UNL A   1      43.212  36.233  27.173  1.00  0.00     0.124 S 
ATOM     78  O   UNL A   1      42.717  35.620  25.945  1.00  0.00    -0.237 OA
ATOM     79  O   UNL A   1      42.216  36.937  27.976  1.00  0.00    -0.237 OA
ATOM     80  O   UNL A   1      44.509  36.892  27.068  1.00  0.00    -0.744 OA
ENDBRANCH  76  77
ENDBRANCH  55  69
BRANCH  56  81
ATOM     81  C   UNL A   1      45.838  23.998  34.757  1.00  0.00     0.058 A 
ATOM     82  C   UNL A   1      44.872  23.409  35.586  1.00  0.00     0.135 A 
ATOM     83  C   UNL A   1      47.086  23.362  34.654  1.00  0.00     0.135 A 
ATOM     84  F   UNL A   1      43.668  23.984  35.724  1.00  0.00    -0.206 F 
ATOM     85  C   UNL A   1      45.135  22.243  36.298  1.00  0.00     0.059 A 
ATOM     86  C   UNL A   1      47.363  22.181  35.335  1.00  0.00     0.059 A 
ATOM     87  F   UNL A   1      48.040  23.875  33.862  1.00  0.00    -0.206 F 
ATOM     88  C   UNL A   1      46.383  21.633  36.162  1.00  0.00     0.060 A 
BRANCH  88  89
ATOM     89  S   UNL A   1      46.695  20.088  37.042  1.00  0.00     0.124 S 
ATOM     90  O   UNL A   1      46.045  20.343  38.322  1.00  0.00    -0.237 OA
ATOM     91  O   UNL A   1      46.044  19.108  36.177  1.00  0.00    -0.237 OA
ATOM     92  O   UNL A   1      48.153  20.012  37.075  1.00  0.00    -0.744 OA
ENDBRANCH  88  89
ENDBRANCH  56  81
BRANCH  68  93
ATOM     93  C   UNL A   1      46.666  30.768  36.248  1.00  0.00     0.058 A 
ATOM     94  C   UNL A   1      48.009  31.145  36.392  1.00  0.00     0.135 A 
ATOM     95  C   UNL A   1      45.771  31.123  37.271  1.00  0.00     0.135 A 
ATOM     96  F   UNL A   1      48.906  30.827  35.444  1.00  0.00    -0.206 F 
ATOM     97  C   UNL A   1      48.455  31.822  37.521  1.00  0.00     0.059 A 
ATOM     98  C   UNL A   1      46.189  31.828  38.394  1.00  0.00     0.059 A 
ATOM     99  F   UNL A   1      44.472  30.799  37.177  1.00  0.00    -0.206 F 
ATOM    100  C   UNL A   1      47.536  32.159  38.518  1.00  0.00     0.060 A 
BRANCH 100 101
ATOM    101  S   UNL A   1      48.126  33.053  39.971  1.00  0.00     0.124 S 
ATOM    102  O   UNL A   1      48.994  32.059  40.593  1.00  0.00    -0.237 OA
ATOM    103  O   UNL A   1      48.801  34.202  39.376  1.00  0.00    -0.237 OA
ATOM    104  O   UNL A   1      46.900  33.361  40.700  1.00  0.00    -0.744 OA
ENDBRANCH 100 101
ENDBRANCH  68  93
ENDBRANCH  42  43
ENDBRANCH  35  37
ENDBRANCH  34  35
ENDBRANCH  33  34
ENDBRANCH  32  33
ENDBRANCH  31  32
ENDBRANCH  30  31
ENDBRANCH  29  30
ENDBRANCH  28  29
ENDBRANCH   1  28
TORSDOF 27
ENDMDL
