MODEL 1
REMARK VINA RESULT:      -9.5      0.000      0.000
REMARK SMILES C[C@@H]1Oc2c(C(=O)OCCOCCOCCOCCOC(=O)c3ccc(-c4c5nc(c(-c6c(F)cc(S(=O)(=O)[O-])cc6F)c6ccc([nH]6)c(-c6c(F)cc(S(=O)(=O)[O-])cc6F)c6nc(c(-c7c(F)cc(S(=O)(=O)[O-])cc7F)c7ccc4[nH]7)C=C6)C=C5)cc3)cccc2[C@@H]1C
REMARK SMILES IDX 15 1 14 2 13 3 12 4 11 5 10 6 9 7 8 8 6 9 7 10 5 11 1 12
REMARK SMILES IDX 2 13 3 14 93 15 4 16 92 17 94 18 91 19 89 20 90 21 16 22
REMARK SMILES IDX 17 23 18 24 19 25 20 26 21 27 22 28 23 29 24 30 88 31 25 32
REMARK SMILES IDX 87 33 26 34 27 35 28 36 81 37 29 38 86 39 80 40 82 41 30 42
REMARK SMILES IDX 85 43 79 44 78 45 31 47 65 48 44 49 64 50 45 51 48 52 63 53
REMARK SMILES IDX 83 54 46 55 47 56 62 58 84 59 49 60 32 61 33 62 42 63 34 64
REMARK SMILES IDX 35 65 41 66 43 67 36 68 37 69 38 70 39 71 40 72 66 73 67 74
REMARK SMILES IDX 76 75 68 76 69 77 75 78 77 79 70 80 71 81 72 82 73 83 74 84
REMARK SMILES IDX 50 85 51 86 60 87 52 88 53 89 59 90 61 91 54 92 55 93 56 94
REMARK SMILES IDX 57 95 58 96
REMARK H PARENT 82 46 48 57
REMARK Flexibility Score: inf
ROOT
ATOM      1  C   UNL A   1      32.353  27.206  26.216  1.00  0.00     0.188 C 
ENDROOT
BRANCH   1   2
ATOM      2  O   UNL A   1      31.856  26.461  25.118  1.00  0.00    -0.377 OA
BRANCH   2   3
ATOM      3  C   UNL A   1      32.747  26.058  24.084  1.00  0.00     0.188 C 
BRANCH   3   4
ATOM      4  C   UNL A   1      33.712  24.856  24.209  1.00  0.00     0.188 C 
BRANCH   4   5
ATOM      5  O   UNL A   1      35.007  25.160  24.716  1.00  0.00    -0.376 OA
BRANCH   5   6
ATOM      6  C   UNL A   1      35.633  24.160  25.506  1.00  0.00     0.202 C 
BRANCH   6   7
ATOM      7  C   UNL A   1      36.649  23.326  24.725  1.00  0.00     0.261 C 
BRANCH   7   8
ATOM      8  O   UNL A   1      36.080  22.185  24.067  1.00  0.00    -0.460 OA
BRANCH   8   9
ATOM      9  C   UNL A   1      36.159  20.995  24.710  1.00  0.00     0.342 C 
ATOM     10  O   UNL A   1      37.146  20.521  25.242  1.00  0.00    -0.246 OA
BRANCH   9  11
ATOM     11  C   UNL A   1      34.799  20.417  24.739  1.00  0.00     0.102 A 
ATOM     12  C   UNL A   1      35.511  15.799  25.406  1.00  0.00     0.053 C 
ATOM     13  C   UNL A   1      34.910  16.823  24.447  1.00  0.00     0.177 C 
ATOM     14  O   UNL A   1      35.581  18.097  24.642  1.00  0.00    -0.489 OA
ATOM     15  C   UNL A   1      33.376  17.030  24.503  1.00  0.00     0.060 C 
ATOM     16  C   UNL A   1      34.595  19.046  24.661  1.00  0.00     0.137 A 
ATOM     17  C   UNL A   1      33.316  18.508  24.672  1.00  0.00     0.002 A 
ATOM     18  C   UNL A   1      32.598  16.264  25.565  1.00  0.00     0.017 C 
ATOM     19  C   UNL A   1      32.202  19.325  24.809  1.00  0.00     0.008 A 
ATOM     20  C   UNL A   1      33.680  21.250  24.891  1.00  0.00     0.019 A 
ATOM     21  C   UNL A   1      32.390  20.704  24.936  1.00  0.00     0.001 A 
ENDBRANCH   9  11
ENDBRANCH   8   9
ENDBRANCH   7   8
ENDBRANCH   6   7
ENDBRANCH   5   6
ENDBRANCH   4   5
ENDBRANCH   3   4
ENDBRANCH   2   3
ENDBRANCH   1   2
BRANCH   1  22
ATOM     22  C   UNL A   1      32.183  28.731  26.110  1.00  0.00     0.188 C 
BRANCH  22  23
ATOM     23  O   UNL A   1      33.417  29.425  25.936  1.00  0.00    -0.376 OA
BRANCH  23  24
ATOM     24  C   UNL A   1      33.581  30.617  26.691  1.00  0.00     0.202 C 
BRANCH  24  25
ATOM     25  C   UNL A   1      34.329  30.477  28.023  1.00  0.00     0.261 C 
BRANCH  25  26
ATOM     26  O   UNL A   1      35.706  30.883  28.019  1.00  0.00    -0.460 OA
BRANCH  26  27
ATOM     27  C   UNL A   1      36.356  30.969  29.199  1.00  0.00     0.338 C 
ATOM     28  O   UNL A   1      35.903  31.334  30.269  1.00  0.00    -0.246 OA
BRANCH  27  29
ATOM     29  C   UNL A   1      37.685  30.353  28.997  1.00  0.00     0.060 A 
ATOM     30  C   UNL A   1      38.061  29.907  27.727  1.00  0.00     0.016 A 
ATOM     31  C   UNL A   1      38.535  30.167  30.096  1.00  0.00     0.016 A 
ATOM     32  C   UNL A   1      39.302  29.296  27.551  1.00  0.00     0.010 A 
ATOM     33  C   UNL A   1      39.774  29.545  29.918  1.00  0.00     0.010 A 
ATOM     34  C   UNL A   1      40.176  29.130  28.640  1.00  0.00    -0.014 A 
BRANCH  34  35
ATOM     35  C   UNL A   1      41.576  28.718  28.385  1.00  0.00     0.031 A 
ATOM     36  C   UNL A   1      41.954  27.307  28.054  1.00  0.00     0.074 A 
ATOM     37  C   UNL A   1      42.518  29.680  28.444  1.00  0.00     0.049 A 
ATOM     38  N   UNL A   1      43.123  26.839  27.700  1.00  0.00    -0.248 NA
ATOM     39  C   UNL A   1      40.894  26.293  28.133  1.00  0.00     0.031 C 
ATOM     40  C   UNL A   1      42.258  31.081  28.786  1.00  0.00     0.029 A 
ATOM     41  N   UNL A   1      43.866  29.637  28.210  1.00  0.00    -0.354 N 
ATOM     42  C   UNL A   1      42.941  25.479  27.487  1.00  0.00     0.074 A 
ATOM     43  C   UNL A   1      41.555  25.190  27.798  1.00  0.00     0.031 C 
ATOM     44  C   UNL A   1      43.405  31.771  28.710  1.00  0.00     0.029 A 
ATOM     45  C   UNL A   1      44.482  30.860  28.337  1.00  0.00     0.049 A 
ATOM     46  H   UNL A   1      44.348  28.811  27.976  1.00  0.00     0.167 HD
ATOM     47  C   UNL A   1      43.848  24.567  27.053  1.00  0.00     0.037 A 
ATOM     48  C   UNL A   1      45.768  31.214  28.158  1.00  0.00     0.037 A 
ATOM     49  C   UNL A   1      45.230  24.869  26.767  1.00  0.00     0.049 A 
ATOM     50  C   UNL A   1      46.758  30.176  27.715  1.00  0.00     0.074 A 
ATOM     51  C   UNL A   1      46.214  24.020  26.290  1.00  0.00     0.029 A 
ATOM     52  N   UNL A   1      45.830  26.109  26.944  1.00  0.00    -0.354 N 
ATOM     53  N   UNL A   1      46.554  28.909  27.445  1.00  0.00    -0.248 NA
ATOM     54  C   UNL A   1      48.150  30.614  27.546  1.00  0.00     0.031 C 
ATOM     55  C   UNL A   1      47.417  24.732  26.224  1.00  0.00     0.029 A 
ATOM     56  C   UNL A   1      47.174  26.039  26.613  1.00  0.00     0.049 A 
ATOM     57  H   UNL A   1      45.368  26.919  27.259  1.00  0.00     0.167 HD
ATOM     58  C   UNL A   1      47.786  28.402  27.053  1.00  0.00     0.074 A 
ATOM     59  C   UNL A   1      48.728  29.502  27.110  1.00  0.00     0.031 C 
ATOM     60  C   UNL A   1      48.106  27.139  26.678  1.00  0.00     0.037 A 
BRANCH  47  61
ATOM     61  C   UNL A   1      43.381  23.152  26.843  1.00  0.00     0.058 A 
ATOM     62  C   UNL A   1      43.275  22.604  25.555  1.00  0.00     0.135 A 
ATOM     63  C   UNL A   1      43.128  22.306  27.936  1.00  0.00     0.135 A 
ATOM     64  F   UNL A   1      43.501  23.368  24.475  1.00  0.00    -0.206 F 
ATOM     65  C   UNL A   1      42.918  21.274  25.356  1.00  0.00     0.059 A 
ATOM     66  C   UNL A   1      42.792  20.965  27.761  1.00  0.00     0.059 A 
ATOM     67  F   UNL A   1      43.221  22.775  29.189  1.00  0.00    -0.206 F 
ATOM     68  C   UNL A   1      42.681  20.460  26.466  1.00  0.00     0.060 A 
BRANCH  68  69
ATOM     69  S   UNL A   1      42.237  18.733  26.185  1.00  0.00     0.124 S 
ATOM     70  O   UNL A   1      43.102  18.389  25.060  1.00  0.00    -0.237 OA
ATOM     71  O   UNL A   1      42.582  18.111  27.460  1.00  0.00    -0.237 OA
ATOM     72  O   UNL A   1      40.811  18.791  25.884  1.00  0.00    -0.744 OA
ENDBRANCH  68  69
ENDBRANCH  47  61
BRANCH  48  73
ATOM     73  C   UNL A   1      46.167  32.629  28.358  1.00  0.00     0.058 A 
ATOM     74  C   UNL A   1      46.123  33.544  27.297  1.00  0.00     0.135 A 
ATOM     75  C   UNL A   1      46.544  33.108  29.622  1.00  0.00     0.135 A 
ATOM     76  F   UNL A   1      45.768  33.132  26.070  1.00  0.00    -0.206 F 
ATOM     77  C   UNL A   1      46.446  34.884  27.480  1.00  0.00     0.059 A 
ATOM     78  C   UNL A   1      46.847  34.447  29.836  1.00  0.00     0.059 A 
ATOM     79  F   UNL A   1      46.580  32.273  30.674  1.00  0.00    -0.206 F 
ATOM     80  C   UNL A   1      46.801  35.327  28.754  1.00  0.00     0.060 A 
BRANCH  80  81
ATOM     81  S   UNL A   1      47.158  37.081  28.990  1.00  0.00     0.124 S 
ATOM     82  O   UNL A   1      45.909  37.696  28.554  1.00  0.00    -0.237 OA
ATOM     83  O   UNL A   1      47.435  37.146  30.421  1.00  0.00    -0.237 OA
ATOM     84  O   UNL A   1      48.309  37.310  28.123  1.00  0.00    -0.744 OA
ENDBRANCH  80  81
ENDBRANCH  48  73
BRANCH  60  85
ATOM     85  C   UNL A   1      49.534  26.871  26.289  1.00  0.00     0.058 A 
ATOM     86  C   UNL A   1      50.475  26.417  27.225  1.00  0.00     0.135 A 
ATOM     87  C   UNL A   1      49.946  26.999  24.953  1.00  0.00     0.135 A 
ATOM     88  F   UNL A   1      50.135  26.288  28.517  1.00  0.00    -0.206 F 
ATOM     89  C   UNL A   1      51.780  26.107  26.852  1.00  0.00     0.059 A 
ATOM     90  C   UNL A   1      51.238  26.672  24.553  1.00  0.00     0.059 A 
ATOM     91  F   UNL A   1      49.083  27.425  24.017  1.00  0.00    -0.206 F 
ATOM     92  C   UNL A   1      52.149  26.230  25.512  1.00  0.00     0.060 A 
BRANCH  92  93
ATOM     93  S   UNL A   1      53.829  25.769  25.035  1.00  0.00     0.124 S 
ATOM     94  O   UNL A   1      53.805  24.323  25.231  1.00  0.00    -0.237 OA
ATOM     95  O   UNL A   1      53.892  26.219  23.649  1.00  0.00    -0.237 OA
ATOM     96  O   UNL A   1      54.666  26.515  25.970  1.00  0.00    -0.744 OA
ENDBRANCH  92  93
ENDBRANCH  60  85
ENDBRANCH  34  35
ENDBRANCH  27  29
ENDBRANCH  26  27
ENDBRANCH  25  26
ENDBRANCH  24  25
ENDBRANCH  23  24
ENDBRANCH  22  23
ENDBRANCH   1  22
TORSDOF 23
ENDMDL
MODEL 2
REMARK VINA RESULT:      -9.1      2.147      8.621
REMARK SMILES C[C@@H]1Oc2c(C(=O)OCCOCCOCCOCCOC(=O)c3ccc(-c4c5nc(c(-c6c(F)cc(S(=O)(=O)[O-])cc6F)c6ccc([nH]6)c(-c6c(F)cc(S(=O)(=O)[O-])cc6F)c6nc(c(-c7c(F)cc(S(=O)(=O)[O-])cc7F)c7ccc4[nH]7)C=C6)C=C5)cc3)cccc2[C@@H]1C
REMARK SMILES IDX 15 1 14 2 13 3 12 4 11 5 10 6 9 7 8 8 6 9 7 10 5 11 1 12
REMARK SMILES IDX 2 13 3 14 93 15 4 16 92 17 94 18 91 19 89 20 90 21 16 22
REMARK SMILES IDX 17 23 18 24 19 25 20 26 21 27 22 28 23 29 24 30 88 31 25 32
REMARK SMILES IDX 87 33 26 34 27 35 28 36 81 37 29 38 86 39 80 40 82 41 30 42
REMARK SMILES IDX 85 43 79 44 78 45 31 47 65 48 44 49 64 50 45 51 48 52 63 53
REMARK SMILES IDX 83 54 46 55 47 56 62 58 84 59 49 60 32 61 33 62 42 63 34 64
REMARK SMILES IDX 35 65 41 66 43 67 36 68 37 69 38 70 39 71 40 72 66 73 67 74
REMARK SMILES IDX 76 75 68 76 69 77 75 78 77 79 70 80 71 81 72 82 73 83 74 84
REMARK SMILES IDX 50 85 51 86 60 87 52 88 53 89 59 90 61 91 54 92 55 93 56 94
REMARK SMILES IDX 57 95 58 96
REMARK H PARENT 82 46 48 57
REMARK Flexibility Score: inf
ROOT
ATOM      1  C   UNL A   1      33.095  31.674  27.775  1.00  0.00     0.188 C 
ENDROOT
BRANCH   1   2
ATOM      2  O   UNL A   1      32.445  30.524  27.262  1.00  0.00    -0.377 OA
BRANCH   2   3
ATOM      3  C   UNL A   1      32.315  30.364  25.854  1.00  0.00     0.188 C 
BRANCH   3   4
ATOM      4  C   UNL A   1      32.942  29.190  25.067  1.00  0.00     0.188 C 
BRANCH   4   5
ATOM      5  O   UNL A   1      32.407  28.969  23.766  1.00  0.00    -0.376 OA
BRANCH   5   6
ATOM      6  C   UNL A   1      33.342  28.742  22.722  1.00  0.00     0.202 C 
BRANCH   6   7
ATOM      7  C   UNL A   1      33.806  27.287  22.637  1.00  0.00     0.261 C 
BRANCH   7   8
ATOM      8  O   UNL A   1      32.797  26.334  23.001  1.00  0.00    -0.460 OA
BRANCH   8   9
ATOM      9  C   UNL A   1      33.052  25.031  22.736  1.00  0.00     0.342 C 
ATOM     10  O   UNL A   1      32.811  24.439  21.700  1.00  0.00    -0.246 OA
BRANCH   9  11
ATOM     11  C   UNL A   1      33.771  24.476  23.902  1.00  0.00     0.102 A 
ATOM     12  C   UNL A   1      30.344  22.908  26.745  1.00  0.00     0.053 C 
ATOM     13  C   UNL A   1      31.516  23.882  26.655  1.00  0.00     0.177 C 
ATOM     14  O   UNL A   1      31.748  24.208  25.259  1.00  0.00    -0.489 OA
ATOM     15  C   UNL A   1      32.849  23.448  27.316  1.00  0.00     0.060 C 
ATOM     16  C   UNL A   1      33.103  24.149  25.075  1.00  0.00     0.137 A 
ATOM     17  C   UNL A   1      33.783  23.644  26.173  1.00  0.00     0.002 A 
ATOM     18  C   UNL A   1      32.915  22.054  27.924  1.00  0.00     0.017 C 
ATOM     19  C   UNL A   1      35.149  23.406  26.115  1.00  0.00     0.008 A 
ATOM     20  C   UNL A   1      35.150  24.226  23.829  1.00  0.00     0.019 A 
ATOM     21  C   UNL A   1      35.831  23.684  24.927  1.00  0.00     0.001 A 
ENDBRANCH   9  11
ENDBRANCH   8   9
ENDBRANCH   7   8
ENDBRANCH   6   7
ENDBRANCH   5   6
ENDBRANCH   4   5
ENDBRANCH   3   4
ENDBRANCH   2   3
ENDBRANCH   1   2
BRANCH   1  22
ATOM     22  C   UNL A   1      34.559  31.471  28.201  1.00  0.00     0.188 C 
BRANCH  22  23
ATOM     23  O   UNL A   1      35.005  32.429  29.159  1.00  0.00    -0.376 OA
BRANCH  23  24
ATOM     24  C   UNL A   1      36.411  32.548  29.322  1.00  0.00     0.202 C 
BRANCH  24  25
ATOM     25  C   UNL A   1      36.918  32.674  30.765  1.00  0.00     0.261 C 
BRANCH  25  26
ATOM     26  O   UNL A   1      36.886  31.473  31.551  1.00  0.00    -0.460 OA
BRANCH  26  27
ATOM     27  C   UNL A   1      36.895  30.284  30.912  1.00  0.00     0.338 C 
ATOM     28  O   UNL A   1      35.943  29.560  30.680  1.00  0.00    -0.246 OA
BRANCH  27  29
ATOM     29  C   UNL A   1      38.259  30.105  30.369  1.00  0.00     0.060 A 
ATOM     30  C   UNL A   1      39.362  30.152  31.225  1.00  0.00     0.016 A 
ATOM     31  C   UNL A   1      38.437  29.950  28.987  1.00  0.00     0.016 A 
ATOM     32  C   UNL A   1      40.647  30.016  30.700  1.00  0.00     0.010 A 
ATOM     33  C   UNL A   1      39.727  29.824  28.463  1.00  0.00     0.010 A 
ATOM     34  C   UNL A   1      40.838  29.831  29.320  1.00  0.00    -0.014 A 
BRANCH  34  35
ATOM     35  C   UNL A   1      42.176  29.436  28.823  1.00  0.00     0.031 A 
ATOM     36  C   UNL A   1      43.333  30.386  28.781  1.00  0.00     0.074 A 
ATOM     37  C   UNL A   1      42.327  28.159  28.418  1.00  0.00     0.049 A 
ATOM     38  N   UNL A   1      44.581  30.137  28.476  1.00  0.00    -0.248 NA
ATOM     39  C   UNL A   1      43.061  31.790  29.116  1.00  0.00     0.031 C 
ATOM     40  C   UNL A   1      41.255  27.160  28.394  1.00  0.00     0.029 A 
ATOM     41  N   UNL A   1      43.428  27.481  27.967  1.00  0.00    -0.354 N 
ATOM     42  C   UNL A   1      45.255  31.344  28.606  1.00  0.00     0.074 A 
ATOM     43  C   UNL A   1      44.264  32.337  28.973  1.00  0.00     0.031 C 
ATOM     44  C   UNL A   1      41.758  25.989  27.979  1.00  0.00     0.029 A 
ATOM     45  C   UNL A   1      43.178  26.158  27.689  1.00  0.00     0.049 A 
ATOM     46  H   UNL A   1      44.312  27.899  27.852  1.00  0.00     0.167 HD
ATOM     47  C   UNL A   1      46.580  31.589  28.450  1.00  0.00     0.037 A 
ATOM     48  C   UNL A   1      44.002  25.183  27.261  1.00  0.00     0.037 A 
ATOM     49  C   UNL A   1      47.550  30.592  28.064  1.00  0.00     0.049 A 
ATOM     50  C   UNL A   1      45.457  25.492  27.060  1.00  0.00     0.074 A 
ATOM     51  C   UNL A   1      48.919  30.736  27.915  1.00  0.00     0.029 A 
ATOM     52  N   UNL A   1      47.256  29.271  27.752  1.00  0.00    -0.354 N 
ATOM     53  N   UNL A   1      46.093  26.621  27.261  1.00  0.00    -0.248 NA
ATOM     54  C   UNL A   1      46.309  24.395  26.582  1.00  0.00     0.031 C 
ATOM     55  C   UNL A   1      49.445  29.520  27.467  1.00  0.00     0.029 A 
ATOM     56  C   UNL A   1      48.413  28.600  27.384  1.00  0.00     0.049 A 
ATOM     57  H   UNL A   1      46.358  28.870  27.785  1.00  0.00     0.167 HD
ATOM     58  C   UNL A   1      47.423  26.367  26.953  1.00  0.00     0.074 A 
ATOM     59  C   UNL A   1      47.503  24.973  26.566  1.00  0.00     0.031 C 
ATOM     60  C   UNL A   1      48.482  27.213  26.993  1.00  0.00     0.037 A 
BRANCH  47  61
ATOM     61  C   UNL A   1      47.076  32.986  28.709  1.00  0.00     0.058 A 
ATOM     62  C   UNL A   1      47.057  33.963  27.702  1.00  0.00     0.135 A 
ATOM     63  C   UNL A   1      47.486  33.379  29.994  1.00  0.00     0.135 A 
ATOM     64  F   UNL A   1      46.680  33.642  26.455  1.00  0.00    -0.206 F 
ATOM     65  C   UNL A   1      47.442  35.277  27.954  1.00  0.00     0.059 A 
ATOM     66  C   UNL A   1      47.853  34.694  30.275  1.00  0.00     0.059 A 
ATOM     67  F   UNL A   1      47.517  32.487  30.996  1.00  0.00    -0.206 F 
ATOM     68  C   UNL A   1      47.835  35.634  29.246  1.00  0.00     0.060 A 
BRANCH  68  69
ATOM     69  S   UNL A   1      48.314  37.347  29.555  1.00  0.00     0.124 S 
ATOM     70  O   UNL A   1      49.267  37.582  28.474  1.00  0.00    -0.237 OA
ATOM     71  O   UNL A   1      47.041  38.052  29.439  1.00  0.00    -0.237 OA
ATOM     72  O   UNL A   1      48.886  37.306  30.897  1.00  0.00    -0.744 OA
ENDBRANCH  68  69
ENDBRANCH  47  61
BRANCH  48  73
ATOM     73  C   UNL A   1      43.462  23.819  27.043  1.00  0.00     0.058 A 
ATOM     74  C   UNL A   1      42.986  23.428  25.784  1.00  0.00     0.135 A 
ATOM     75  C   UNL A   1      43.462  22.863  28.070  1.00  0.00     0.135 A 
ATOM     76  F   UNL A   1      42.967  24.308  24.771  1.00  0.00    -0.206 F 
ATOM     77  C   UNL A   1      42.522  22.138  25.551  1.00  0.00     0.059 A 
ATOM     78  C   UNL A   1      43.027  21.560  27.856  1.00  0.00     0.059 A 
ATOM     79  F   UNL A   1      43.929  23.185  29.288  1.00  0.00    -0.206 F 
ATOM     80  C   UNL A   1      42.553  21.209  26.592  1.00  0.00     0.060 A 
BRANCH  80  81
ATOM     81  S   UNL A   1      42.005  19.522  26.259  1.00  0.00     0.124 S 
ATOM     82  O   UNL A   1      42.767  19.197  25.059  1.00  0.00    -0.237 OA
ATOM     83  O   UNL A   1      42.406  18.825  27.478  1.00  0.00    -0.237 OA
ATOM     84  O   UNL A   1      40.565  19.666  26.072  1.00  0.00    -0.744 OA
ENDBRANCH  80  81
ENDBRANCH  48  73
BRANCH  60  85
ATOM     85  C   UNL A   1      49.828  26.659  26.615  1.00  0.00     0.058 A 
ATOM     86  C   UNL A   1      50.699  26.129  27.578  1.00  0.00     0.135 A 
ATOM     87  C   UNL A   1      50.219  26.592  25.268  1.00  0.00     0.135 A 
ATOM     88  F   UNL A   1      50.378  26.178  28.881  1.00  0.00    -0.206 F 
ATOM     89  C   UNL A   1      51.917  25.558  27.220  1.00  0.00     0.059 A 
ATOM     90  C   UNL A   1      51.421  26.003  24.885  1.00  0.00     0.059 A 
ATOM     91  F   UNL A   1      49.420  27.080  24.307  1.00  0.00    -0.206 F 
ATOM     92  C   UNL A   1      52.265  25.492  25.870  1.00  0.00     0.060 A 
BRANCH  92  93
ATOM     93  S   UNL A   1      53.822  24.696  25.419  1.00  0.00     0.124 S 
ATOM     94  O   UNL A   1      53.371  23.361  25.038  1.00  0.00    -0.237 OA
ATOM     95  O   UNL A   1      54.297  25.539  24.328  1.00  0.00    -0.237 OA
ATOM     96  O   UNL A   1      54.609  24.765  26.647  1.00  0.00    -0.744 OA
ENDBRANCH  92  93
ENDBRANCH  60  85
ENDBRANCH  34  35
ENDBRANCH  27  29
ENDBRANCH  26  27
ENDBRANCH  25  26
ENDBRANCH  24  25
ENDBRANCH  23  24
ENDBRANCH  22  23
ENDBRANCH   1  22
TORSDOF 23
ENDMDL
MODEL 3
REMARK VINA RESULT:      -8.9      4.204     11.588
REMARK SMILES C[C@@H]1Oc2c(C(=O)OCCOCCOCCOCCOC(=O)c3ccc(-c4c5nc(c(-c6c(F)cc(S(=O)(=O)[O-])cc6F)c6ccc([nH]6)c(-c6c(F)cc(S(=O)(=O)[O-])cc6F)c6nc(c(-c7c(F)cc(S(=O)(=O)[O-])cc7F)c7ccc4[nH]7)C=C6)C=C5)cc3)cccc2[C@@H]1C
REMARK SMILES IDX 15 1 14 2 13 3 12 4 11 5 10 6 9 7 8 8 6 9 7 10 5 11 1 12
REMARK SMILES IDX 2 13 3 14 93 15 4 16 92 17 94 18 91 19 89 20 90 21 16 22
REMARK SMILES IDX 17 23 18 24 19 25 20 26 21 27 22 28 23 29 24 30 88 31 25 32
REMARK SMILES IDX 87 33 26 34 27 35 28 36 81 37 29 38 86 39 80 40 82 41 30 42
REMARK SMILES IDX 85 43 79 44 78 45 31 47 65 48 44 49 64 50 45 51 48 52 63 53
REMARK SMILES IDX 83 54 46 55 47 56 62 58 84 59 49 60 32 61 33 62 42 63 34 64
REMARK SMILES IDX 35 65 41 66 43 67 36 68 37 69 38 70 39 71 40 72 66 73 67 74
REMARK SMILES IDX 76 75 68 76 69 77 75 78 77 79 70 80 71 81 72 82 73 83 74 84
REMARK SMILES IDX 50 85 51 86 60 87 52 88 53 89 59 90 61 91 54 92 55 93 56 94
REMARK SMILES IDX 57 95 58 96
REMARK H PARENT 82 46 48 57
REMARK Flexibility Score: inf
ROOT
ATOM      1  C   UNL A   1      40.943  31.306  35.906  1.00  0.00     0.188 C 
ENDROOT
BRANCH   1   2
ATOM      2  O   UNL A   1      40.715  32.005  37.118  1.00  0.00    -0.377 OA
BRANCH   2   3
ATOM      3  C   UNL A   1      40.204  33.332  37.074  1.00  0.00     0.188 C 
BRANCH   3   4
ATOM      4  C   UNL A   1      41.089  34.593  37.208  1.00  0.00     0.188 C 
BRANCH   4   5
ATOM      5  O   UNL A   1      41.297  35.326  36.006  1.00  0.00    -0.376 OA
BRANCH   5   6
ATOM      6  C   UNL A   1      41.901  34.625  34.928  1.00  0.00     0.202 C 
BRANCH   6   7
ATOM      7  C   UNL A   1      41.294  34.976  33.569  1.00  0.00     0.261 C 
BRANCH   7   8
ATOM      8  O   UNL A   1      40.258  34.078  33.146  1.00  0.00    -0.460 OA
BRANCH   8   9
ATOM      9  C   UNL A   1      38.988  34.547  33.157  1.00  0.00     0.342 C 
ATOM     10  O   UNL A   1      38.445  35.155  34.061  1.00  0.00    -0.246 OA
BRANCH   9  11
ATOM     11  C   UNL A   1      38.406  34.274  31.826  1.00  0.00     0.102 A 
ATOM     12  C   UNL A   1      33.799  35.146  32.370  1.00  0.00     0.053 C 
ATOM     13  C   UNL A   1      34.809  34.062  32.002  1.00  0.00     0.177 C 
ATOM     14  O   UNL A   1      36.087  34.388  32.610  1.00  0.00    -0.489 OA
ATOM     15  C   UNL A   1      35.011  33.767  30.494  1.00  0.00     0.060 C 
ATOM     16  C   UNL A   1      37.033  34.170  31.645  1.00  0.00     0.137 A 
ATOM     17  C   UNL A   1      36.491  33.898  30.397  1.00  0.00     0.002 A 
ATOM     18  C   UNL A   1      34.256  34.635  29.496  1.00  0.00     0.017 C 
ATOM     19  C   UNL A   1      37.306  33.769  29.281  1.00  0.00     0.008 A 
ATOM     20  C   UNL A   1      39.237  34.159  30.701  1.00  0.00     0.019 A 
ATOM     21  C   UNL A   1      38.687  33.918  29.435  1.00  0.00     0.001 A 
ENDBRANCH   9  11
ENDBRANCH   8   9
ENDBRANCH   7   8
ENDBRANCH   6   7
ENDBRANCH   5   6
ENDBRANCH   4   5
ENDBRANCH   3   4
ENDBRANCH   2   3
ENDBRANCH   1   2
BRANCH   1  22
ATOM     22  C   UNL A   1      40.217  29.956  35.775  1.00  0.00     0.188 C 
BRANCH  22  23
ATOM     23  O   UNL A   1      39.169  29.971  34.808  1.00  0.00    -0.376 OA
BRANCH  23  24
ATOM     24  C   UNL A   1      38.377  31.149  34.756  1.00  0.00     0.202 C 
BRANCH  24  25
ATOM     25  C   UNL A   1      37.165  31.111  33.816  1.00  0.00     0.261 C 
BRANCH  25  26
ATOM     26  O   UNL A   1      37.440  31.315  32.423  1.00  0.00    -0.460 OA
BRANCH  26  27
ATOM     27  C   UNL A   1      37.081  30.353  31.546  1.00  0.00     0.338 C 
ATOM     28  O   UNL A   1      35.951  30.004  31.252  1.00  0.00    -0.246 OA
BRANCH  27  29
ATOM     29  C   UNL A   1      38.317  29.923  30.858  1.00  0.00     0.060 A 
ATOM     30  C   UNL A   1      38.478  30.176  29.493  1.00  0.00     0.016 A 
ATOM     31  C   UNL A   1      39.293  29.212  31.569  1.00  0.00     0.016 A 
ATOM     32  C   UNL A   1      39.632  29.738  28.843  1.00  0.00     0.010 A 
ATOM     33  C   UNL A   1      40.443  28.765  30.913  1.00  0.00     0.010 A 
ATOM     34  C   UNL A   1      40.631  29.049  29.552  1.00  0.00    -0.014 A 
BRANCH  34  35
ATOM     35  C   UNL A   1      41.947  28.823  28.909  1.00  0.00     0.031 A 
ATOM     36  C   UNL A   1      42.989  29.895  28.807  1.00  0.00     0.074 A 
ATOM     37  C   UNL A   1      42.189  27.589  28.426  1.00  0.00     0.049 A 
ATOM     38  N   UNL A   1      44.219  29.796  28.372  1.00  0.00    -0.248 NA
ATOM     39  C   UNL A   1      42.606  31.245  29.240  1.00  0.00     0.031 C 
ATOM     40  C   UNL A   1      41.230  26.481  28.452  1.00  0.00     0.029 A 
ATOM     41  N   UNL A   1      43.304  27.054  27.837  1.00  0.00    -0.354 N 
ATOM     42  C   UNL A   1      44.772  31.063  28.501  1.00  0.00     0.074 A 
ATOM     43  C   UNL A   1      43.725  31.926  29.012  1.00  0.00     0.031 C 
ATOM     44  C   UNL A   1      41.808  25.390  27.930  1.00  0.00     0.029 A 
ATOM     45  C   UNL A   1      43.167  25.724  27.515  1.00  0.00     0.049 A 
ATOM     46  H   UNL A   1      44.123  27.571  27.661  1.00  0.00     0.167 HD
ATOM     47  C   UNL A   1      46.042  31.457  28.232  1.00  0.00     0.037 A 
ATOM     48  C   UNL A   1      44.041  24.864  26.961  1.00  0.00     0.037 A 
ATOM     49  C   UNL A   1      47.067  30.589  27.704  1.00  0.00     0.049 A 
ATOM     50  C   UNL A   1      45.428  25.338  26.638  1.00  0.00     0.074 A 
ATOM     51  C   UNL A   1      48.392  30.888  27.433  1.00  0.00     0.029 A 
ATOM     52  N   UNL A   1      46.883  29.258  27.352  1.00  0.00    -0.354 N 
ATOM     53  N   UNL A   1      45.959  26.520  26.836  1.00  0.00    -0.248 NA
ATOM     54  C   UNL A   1      46.338  24.361  26.024  1.00  0.00     0.031 C 
ATOM     55  C   UNL A   1      48.995  29.756  26.874  1.00  0.00     0.029 A 
ATOM     56  C   UNL A   1      48.061  28.734  26.841  1.00  0.00     0.049 A 
ATOM     57  H   UNL A   1      46.040  28.760  27.450  1.00  0.00     0.167 HD
ATOM     58  C   UNL A   1      47.272  26.426  26.391  1.00  0.00     0.074 A 
ATOM     59  C   UNL A   1      47.457  25.066  25.925  1.00  0.00     0.031 C 
ATOM     60  C   UNL A   1      48.235  27.380  26.374  1.00  0.00     0.037 A 
BRANCH  47  61
ATOM     61  C   UNL A   1      46.413  32.888  28.516  1.00  0.00     0.058 A 
ATOM     62  C   UNL A   1      46.262  33.886  27.541  1.00  0.00     0.135 A 
ATOM     63  C   UNL A   1      46.834  33.284  29.796  1.00  0.00     0.135 A 
ATOM     64  F   UNL A   1      45.868  33.564  26.299  1.00  0.00    -0.206 F 
ATOM     65  C   UNL A   1      46.530  35.223  27.818  1.00  0.00     0.059 A 
ATOM     66  C   UNL A   1      47.086  34.619  30.104  1.00  0.00     0.059 A 
ATOM     67  F   UNL A   1      46.989  32.372  30.768  1.00  0.00    -0.206 F 
ATOM     68  C   UNL A   1      46.939  35.581  29.105  1.00  0.00     0.060 A 
BRANCH  68  69
ATOM     69  S   UNL A   1      47.264  37.323  29.449  1.00  0.00     0.124 S 
ATOM     70  O   UNL A   1      46.189  37.641  30.385  1.00  0.00    -0.237 OA
ATOM     71  O   UNL A   1      48.607  37.283  30.019  1.00  0.00    -0.237 OA
ATOM     72  O   UNL A   1      47.160  37.956  28.138  1.00  0.00    -0.744 OA
ENDBRANCH  68  69
ENDBRANCH  47  61
BRANCH  48  73
ATOM     73  C   UNL A   1      43.627  23.459  26.724  1.00  0.00     0.058 A 
ATOM     74  C   UNL A   1      43.392  22.589  27.799  1.00  0.00     0.135 A 
ATOM     75  C   UNL A   1      43.404  22.974  25.427  1.00  0.00     0.135 A 
ATOM     76  F   UNL A   1      43.592  23.010  29.058  1.00  0.00    -0.206 F 
ATOM     77  C   UNL A   1      42.956  21.286  27.595  1.00  0.00     0.059 A 
ATOM     78  C   UNL A   1      42.944  21.682  25.198  1.00  0.00     0.059 A 
ATOM     79  F   UNL A   1      43.594  23.777  24.367  1.00  0.00    -0.206 F 
ATOM     80  C   UNL A   1      42.729  20.843  26.292  1.00  0.00     0.060 A 
BRANCH  80  81
ATOM     81  S   UNL A   1      42.104  19.167  26.046  1.00  0.00     0.124 S 
ATOM     82  O   UNL A   1      40.675  19.407  25.882  1.00  0.00    -0.237 OA
ATOM     83  O   UNL A   1      42.822  18.747  24.846  1.00  0.00    -0.237 OA
ATOM     84  O   UNL A   1      42.492  18.480  27.273  1.00  0.00    -0.744 OA
ENDBRANCH  80  81
ENDBRANCH  48  73
BRANCH  60  85
ATOM     85  C   UNL A   1      49.587  26.992  25.840  1.00  0.00     0.058 A 
ATOM     86  C   UNL A   1      49.896  27.105  24.477  1.00  0.00     0.135 A 
ATOM     87  C   UNL A   1      50.604  26.572  26.712  1.00  0.00     0.135 A 
ATOM     88  F   UNL A   1      48.956  27.491  23.600  1.00  0.00    -0.206 F 
ATOM     89  C   UNL A   1      51.167  26.807  23.993  1.00  0.00     0.059 A 
ATOM     90  C   UNL A   1      51.889  26.293  26.254  1.00  0.00     0.059 A 
ATOM     91  F   UNL A   1      50.362  26.451  28.027  1.00  0.00    -0.206 F 
ATOM     92  C   UNL A   1      52.158  26.410  24.891  1.00  0.00     0.060 A 
BRANCH  92  93
ATOM     93  S   UNL A   1      53.817  26.084  24.255  1.00  0.00     0.124 S 
ATOM     94  O   UNL A   1      54.105  24.777  24.837  1.00  0.00    -0.237 OA
ATOM     95  O   UNL A   1      53.605  26.102  22.812  1.00  0.00    -0.237 OA
ATOM     96  O   UNL A   1      54.608  27.193  24.780  1.00  0.00    -0.744 OA
ENDBRANCH  92  93
ENDBRANCH  60  85
ENDBRANCH  34  35
ENDBRANCH  27  29
ENDBRANCH  26  27
ENDBRANCH  25  26
ENDBRANCH  24  25
ENDBRANCH  23  24
ENDBRANCH  22  23
ENDBRANCH   1  22
TORSDOF 23
ENDMDL
