MODEL 1
REMARK VINA RESULT:      -8.9      0.000      0.000
REMARK SMILES O=C(OCCOCCOCCOCCOC(=O)[C@@H](CCOCCO)c1cccc(F)c1)c1ccc(-c2c3nc(c(-c4c(F)cc(S(=O)(=O)[O-])cc4F)c4ccc([nH]4)c(-c4c(F)cc(S(=O)(=O)[O-])cc4F)c4nc(c(-c5c(F)cc(S(=O)(=O)[O-])cc5F)c5ccc2[nH]5)C=C4)C=C3)cc1
REMARK SMILES IDX 10 1 9 2 8 3 7 4 6 5 5 6 4 7 3 8 2 9 1 10 32 11 33 12 97 13
REMARK SMILES IDX 34 14 96 15 35 16 36 17 37 18 90 19 38 20 95 21 89 22 91 23
REMARK SMILES IDX 39 24 94 25 88 26 87 27 40 29 74 30 53 31 73 32 54 33 57 34
REMARK SMILES IDX 72 35 92 36 55 37 56 38 71 40 93 41 58 42 41 43 42 44 51 45
REMARK SMILES IDX 43 46 44 47 50 48 52 49 45 50 46 51 47 52 48 53 49 54 75 55
REMARK SMILES IDX 76 56 85 57 77 58 78 59 84 60 86 61 79 62 80 63 81 64 82 65
REMARK SMILES IDX 83 66 59 67 60 68 69 69 61 70 62 71 68 72 70 73 63 74 64 75
REMARK SMILES IDX 65 76 66 77 67 78 11 79 12 80 13 81 14 82 15 83 16 84 17 85
REMARK SMILES IDX 18 86 19 87 20 88 21 89 22 90 23 91 24 92 25 94 26 95 31 96
REMARK SMILES IDX 27 97 29 98 28 99 30 100
REMARK H PARENT 91 28 57 39 24 93
REMARK Flexibility Score: inf
ROOT
ATOM      1  C   UNL A   1      37.571  21.441  25.404  1.00  0.00     0.188 C 
ENDROOT
BRANCH   1   2
ATOM      2  O   UNL A   1      38.792  22.127  25.669  1.00  0.00    -0.377 OA
BRANCH   2   3
ATOM      3  C   UNL A   1      39.694  21.593  26.638  1.00  0.00     0.188 C 
BRANCH   3   4
ATOM      4  C   UNL A   1      41.086  21.323  26.111  1.00  0.00     0.188 C 
BRANCH   4   5
ATOM      5  O   UNL A   1      41.207  19.927  25.947  1.00  0.00    -0.376 OA
BRANCH   5   6
ATOM      6  C   UNL A   1      42.150  19.198  26.705  1.00  0.00     0.202 C 
BRANCH   6   7
ATOM      7  C   UNL A   1      43.092  18.307  25.919  1.00  0.00     0.261 C 
BRANCH   7   8
ATOM      8  O   UNL A   1      44.258  18.931  25.346  1.00  0.00    -0.460 OA
BRANCH   8   9
ATOM      9  C   UNL A   1      44.465  19.998  24.544  1.00  0.00     0.338 C 
ATOM     10  O   UNL A   1      44.640  19.786  23.344  1.00  0.00    -0.246 OA
BRANCH   9  11
ATOM     11  C   UNL A   1      44.508  21.418  24.991  1.00  0.00     0.060 A 
ATOM     12  C   UNL A   1      44.221  22.523  24.201  1.00  0.00     0.016 A 
ATOM     13  C   UNL A   1      44.755  21.653  26.353  1.00  0.00     0.016 A 
ATOM     14  C   UNL A   1      44.292  23.815  24.667  1.00  0.00     0.010 A 
ATOM     15  C   UNL A   1      44.797  22.956  26.859  1.00  0.00     0.010 A 
ATOM     16  C   UNL A   1      44.620  24.036  25.990  1.00  0.00    -0.014 A 
BRANCH  16  17
ATOM     17  C   UNL A   1      45.053  25.399  26.309  1.00  0.00     0.031 A 
ATOM     18  C   UNL A   1      44.025  26.293  26.931  1.00  0.00     0.074 A 
ATOM     19  C   UNL A   1      46.360  25.711  26.277  1.00  0.00     0.049 A 
ATOM     20  N   UNL A   1      44.105  27.551  27.247  1.00  0.00    -0.248 NA
ATOM     21  C   UNL A   1      42.725  25.672  27.258  1.00  0.00     0.031 C 
ATOM     22  C   UNL A   1      47.441  24.787  25.914  1.00  0.00     0.029 A 
ATOM     23  N   UNL A   1      47.007  26.868  26.605  1.00  0.00    -0.354 N 
ATOM     24  C   UNL A   1      42.856  27.884  27.756  1.00  0.00     0.074 A 
ATOM     25  C   UNL A   1      42.031  26.703  27.708  1.00  0.00     0.031 C 
ATOM     26  C   UNL A   1      48.619  25.414  26.059  1.00  0.00     0.029 A 
ATOM     27  C   UNL A   1      48.367  26.800  26.430  1.00  0.00     0.049 A 
ATOM     28  H   UNL A   1      46.543  27.671  26.936  1.00  0.00     0.167 HD
ATOM     29  C   UNL A   1      42.449  29.086  28.213  1.00  0.00     0.037 A 
ATOM     30  C   UNL A   1      49.287  27.778  26.514  1.00  0.00     0.037 A 
ATOM     31  C   UNL A   1      43.325  30.222  28.240  1.00  0.00     0.049 A 
ATOM     32  C   UNL A   1      48.787  29.148  26.879  1.00  0.00     0.074 A 
ATOM     33  C   UNL A   1      43.039  31.533  28.559  1.00  0.00     0.029 A 
ATOM     34  N   UNL A   1      44.682  30.162  27.934  1.00  0.00    -0.354 N 
ATOM     35  N   UNL A   1      47.567  29.516  27.206  1.00  0.00    -0.248 NA
ATOM     36  C   UNL A   1      49.764  30.240  26.866  1.00  0.00     0.031 C 
ATOM     37  C   UNL A   1      44.215  32.275  28.393  1.00  0.00     0.029 A 
ATOM     38  C   UNL A   1      45.248  31.414  28.041  1.00  0.00     0.049 A 
ATOM     39  H   UNL A   1      45.167  29.343  27.680  1.00  0.00     0.167 HD
ATOM     40  C   UNL A   1      47.630  30.877  27.460  1.00  0.00     0.074 A 
ATOM     41  C   UNL A   1      49.015  31.265  27.253  1.00  0.00     0.031 C 
ATOM     42  C   UNL A   1      46.643  31.733  27.830  1.00  0.00     0.037 A 
BRANCH  29  43
ATOM     43  C   UNL A   1      41.002  29.219  28.598  1.00  0.00     0.058 A 
ATOM     44  C   UNL A   1      40.645  29.307  29.952  1.00  0.00     0.135 A 
ATOM     45  C   UNL A   1      39.977  29.341  27.645  1.00  0.00     0.135 A 
ATOM     46  F   UNL A   1      41.585  29.227  30.907  1.00  0.00    -0.206 F 
ATOM     47  C   UNL A   1      39.327  29.508  30.349  1.00  0.00     0.059 A 
ATOM     48  C   UNL A   1      38.654  29.573  28.018  1.00  0.00     0.059 A 
ATOM     49  F   UNL A   1      40.268  29.318  26.333  1.00  0.00    -0.206 F 
ATOM     50  C   UNL A   1      38.339  29.649  29.374  1.00  0.00     0.060 A 
BRANCH  50  51
ATOM     51  S   UNL A   1      36.649  29.992  29.907  1.00  0.00     0.124 S 
ATOM     52  O   UNL A   1      36.593  29.301  31.190  1.00  0.00    -0.237 OA
ATOM     53  O   UNL A   1      36.637  31.450  29.967  1.00  0.00    -0.237 OA
ATOM     54  O   UNL A   1      35.834  29.412  28.843  1.00  0.00    -0.744 OA
ENDBRANCH  50  51
ENDBRANCH  29  43
BRANCH  30  55
ATOM     55  C   UNL A   1      50.713  27.488  26.203  1.00  0.00     0.058 A 
ATOM     56  C   UNL A   1      51.170  27.442  24.875  1.00  0.00     0.135 A 
ATOM     57  C   UNL A   1      51.632  27.179  27.214  1.00  0.00     0.135 A 
ATOM     58  F   UNL A   1      50.335  27.723  23.862  1.00  0.00    -0.206 F 
ATOM     59  C   UNL A   1      52.470  27.061  24.558  1.00  0.00     0.059 A 
ATOM     60  C   UNL A   1      52.949  26.821  26.925  1.00  0.00     0.059 A 
ATOM     61  F   UNL A   1      51.251  27.217  28.501  1.00  0.00    -0.206 F 
ATOM     62  C   UNL A   1      53.351  26.745  25.591  1.00  0.00     0.060 A 
BRANCH  62  63
ATOM     63  S   UNL A   1      55.024  26.218  25.160  1.00  0.00     0.124 S 
ATOM     64  O   UNL A   1      55.259  26.966  23.926  1.00  0.00    -0.237 OA
ATOM     65  O   UNL A   1      55.790  26.666  26.324  1.00  0.00    -0.237 OA
ATOM     66  O   UNL A   1      54.901  24.779  25.008  1.00  0.00    -0.744 OA
ENDBRANCH  62  63
ENDBRANCH  30  55
BRANCH  42  67
ATOM     67  C   UNL A   1      47.037  33.157  28.080  1.00  0.00     0.058 A 
ATOM     68  C   UNL A   1      46.997  34.085  27.026  1.00  0.00     0.135 A 
ATOM     69  C   UNL A   1      47.556  33.571  29.313  1.00  0.00     0.135 A 
ATOM     70  F   UNL A   1      46.517  33.726  25.824  1.00  0.00    -0.206 F 
ATOM     71  C   UNL A   1      47.488  35.372  27.181  1.00  0.00     0.059 A 
ATOM     72  C   UNL A   1      48.024  34.867  29.501  1.00  0.00     0.059 A 
ATOM     73  F   UNL A   1      47.604  32.718  30.349  1.00  0.00    -0.206 F 
ATOM     74  C   UNL A   1      48.004  35.751  28.421  1.00  0.00     0.060 A 
BRANCH  74  75
ATOM     75  S   UNL A   1      48.641  37.428  28.600  1.00  0.00     0.124 S 
ATOM     76  O   UNL A   1      47.873  38.147  27.589  1.00  0.00    -0.237 OA
ATOM     77  O   UNL A   1      48.308  37.735  29.988  1.00  0.00    -0.237 OA
ATOM     78  O   UNL A   1      50.066  37.281  28.322  1.00  0.00    -0.744 OA
ENDBRANCH  74  75
ENDBRANCH  42  67
ENDBRANCH  16  17
ENDBRANCH   9  11
ENDBRANCH   8   9
ENDBRANCH   7   8
ENDBRANCH   6   7
ENDBRANCH   5   6
ENDBRANCH   4   5
ENDBRANCH   3   4
ENDBRANCH   2   3
ENDBRANCH   1   2
BRANCH   1  79
ATOM     79  C   UNL A   1      36.579  22.039  24.412  1.00  0.00     0.188 C 
BRANCH  79  80
ATOM     80  O   UNL A   1      35.266  22.187  24.884  1.00  0.00    -0.376 OA
BRANCH  80  81
ATOM     81  C   UNL A   1      34.406  23.166  24.323  1.00  0.00     0.202 C 
BRANCH  81  82
ATOM     82  C   UNL A   1      34.172  23.424  22.812  1.00  0.00     0.261 C 
BRANCH  82  83
ATOM     83  O   UNL A   1      32.992  24.142  22.370  1.00  0.00    -0.463 OA
BRANCH  83  84
ATOM     84  C   UNL A   1      33.001  25.490  22.580  1.00  0.00     0.313 C 
ATOM     85  O   UNL A   1      33.652  26.269  21.885  1.00  0.00    -0.252 OA
BRANCH  84  86
ATOM     86  C   UNL A   1      32.206  26.006  23.810  1.00  0.00     0.131 C 
BRANCH  86  87
ATOM     87  C   UNL A   1      32.872  26.101  25.227  1.00  0.00     0.048 C 
BRANCH  87  88
ATOM     88  C   UNL A   1      32.102  26.166  26.558  1.00  0.00     0.161 C 
BRANCH  88  89
ATOM     89  O   UNL A   1      31.091  25.198  26.780  1.00  0.00    -0.379 OA
BRANCH  89  90
ATOM     90  C   UNL A   1      31.198  24.012  26.001  1.00  0.00     0.188 C 
BRANCH  90  91
ATOM     91  C   UNL A   1      30.479  22.757  26.494  1.00  0.00     0.184 C 
BRANCH  91  92
ATOM     92  O   UNL A   1      29.661  22.956  27.637  1.00  0.00    -0.394 OA
ATOM     93  H   UNL A   1      29.769  23.865  27.958  1.00  0.00     0.210 HD
ENDBRANCH  91  92
ENDBRANCH  90  91
ENDBRANCH  89  90
ENDBRANCH  88  89
ENDBRANCH  87  88
ENDBRANCH  86  87
BRANCH  86  94
ATOM     94  C   UNL A   1      31.296  27.189  23.470  1.00  0.00    -0.031 A 
ATOM     95  C   UNL A   1      31.831  28.329  22.845  1.00  0.00     0.005 A 
ATOM     96  C   UNL A   1      29.908  27.139  23.679  1.00  0.00     0.043 A 
ATOM     97  C   UNL A   1      30.997  29.294  22.285  1.00  0.00     0.003 A 
ATOM     98  C   UNL A   1      29.086  28.106  23.115  1.00  0.00     0.123 A 
ATOM     99  C   UNL A   1      29.618  29.161  22.390  1.00  0.00     0.039 A 
ATOM    100  F   UNL A   1      27.758  27.978  23.224  1.00  0.00    -0.207 F 
ENDBRANCH  86  94
ENDBRANCH  84  86
ENDBRANCH  83  84
ENDBRANCH  82  83
ENDBRANCH  81  82
ENDBRANCH  80  81
ENDBRANCH  79  80
ENDBRANCH   1  79
TORSDOF 30
ENDMDL
MODEL 2
REMARK VINA RESULT:      -8.6      1.251      2.170
REMARK SMILES O=C(OCCOCCOCCOCCOC(=O)[C@@H](CCOCCO)c1cccc(F)c1)c1ccc(-c2c3nc(c(-c4c(F)cc(S(=O)(=O)[O-])cc4F)c4ccc([nH]4)c(-c4c(F)cc(S(=O)(=O)[O-])cc4F)c4nc(c(-c5c(F)cc(S(=O)(=O)[O-])cc5F)c5ccc2[nH]5)C=C4)C=C3)cc1
REMARK SMILES IDX 10 1 9 2 8 3 7 4 6 5 5 6 4 7 3 8 2 9 1 10 32 11 33 12 97 13
REMARK SMILES IDX 34 14 96 15 35 16 36 17 37 18 90 19 38 20 95 21 89 22 91 23
REMARK SMILES IDX 39 24 94 25 88 26 87 27 40 29 74 30 53 31 73 32 54 33 57 34
REMARK SMILES IDX 72 35 92 36 55 37 56 38 71 40 93 41 58 42 41 43 42 44 51 45
REMARK SMILES IDX 43 46 44 47 50 48 52 49 45 50 46 51 47 52 48 53 49 54 75 55
REMARK SMILES IDX 76 56 85 57 77 58 78 59 84 60 86 61 79 62 80 63 81 64 82 65
REMARK SMILES IDX 83 66 59 67 60 68 69 69 61 70 62 71 68 72 70 73 63 74 64 75
REMARK SMILES IDX 65 76 66 77 67 78 11 79 12 80 13 81 14 82 15 83 16 84 17 85
REMARK SMILES IDX 18 86 19 87 20 88 21 89 22 90 23 91 24 92 25 94 26 95 31 96
REMARK SMILES IDX 27 97 29 98 28 99 30 100
REMARK H PARENT 91 28 57 39 24 93
REMARK Flexibility Score: inf
ROOT
ATOM      1  C   UNL A   1      37.739  22.631  25.718  1.00  0.00     0.188 C 
ENDROOT
BRANCH   1   2
ATOM      2  O   UNL A   1      39.028  23.157  26.026  1.00  0.00    -0.377 OA
BRANCH   2   3
ATOM      3  C   UNL A   1      39.771  22.590  27.104  1.00  0.00     0.188 C 
BRANCH   3   4
ATOM      4  C   UNL A   1      41.169  22.147  26.731  1.00  0.00     0.188 C 
BRANCH   4   5
ATOM      5  O   UNL A   1      41.059  20.870  26.141  1.00  0.00    -0.376 OA
BRANCH   5   6
ATOM      6  C   UNL A   1      41.668  19.750  26.747  1.00  0.00     0.202 C 
BRANCH   6   7
ATOM      7  C   UNL A   1      42.439  18.828  25.822  1.00  0.00     0.261 C 
BRANCH   7   8
ATOM      8  O   UNL A   1      43.773  19.232  25.456  1.00  0.00    -0.460 OA
BRANCH   8   9
ATOM      9  C   UNL A   1      44.291  20.251  24.737  1.00  0.00     0.338 C 
ATOM     10  O   UNL A   1      44.704  19.999  23.604  1.00  0.00    -0.246 OA
BRANCH   9  11
ATOM     11  C   UNL A   1      44.414  21.660  25.201  1.00  0.00     0.060 A 
ATOM     12  C   UNL A   1      44.094  22.787  24.456  1.00  0.00     0.016 A 
ATOM     13  C   UNL A   1      44.782  21.863  26.540  1.00  0.00     0.016 A 
ATOM     14  C   UNL A   1      44.243  24.068  24.935  1.00  0.00     0.010 A 
ATOM     15  C   UNL A   1      44.906  23.155  27.062  1.00  0.00     0.010 A 
ATOM     16  C   UNL A   1      44.687  24.256  26.228  1.00  0.00    -0.014 A 
BRANCH  16  17
ATOM     17  C   UNL A   1      45.186  25.599  26.532  1.00  0.00     0.031 A 
ATOM     18  C   UNL A   1      44.220  26.531  27.197  1.00  0.00     0.074 A 
ATOM     19  C   UNL A   1      46.502  25.861  26.446  1.00  0.00     0.049 A 
ATOM     20  N   UNL A   1      44.362  27.784  27.511  1.00  0.00    -0.248 NA
ATOM     21  C   UNL A   1      42.912  25.959  27.577  1.00  0.00     0.031 C 
ATOM     22  C   UNL A   1      47.530  24.897  26.036  1.00  0.00     0.029 A 
ATOM     23  N   UNL A   1      47.206  26.990  26.748  1.00  0.00    -0.354 N 
ATOM     24  C   UNL A   1      43.149  28.163  28.072  1.00  0.00     0.074 A 
ATOM     25  C   UNL A   1      42.278  27.015  28.057  1.00  0.00     0.031 C 
ATOM     26  C   UNL A   1      48.737  25.477  26.133  1.00  0.00     0.029 A 
ATOM     27  C   UNL A   1      48.554  26.870  26.517  1.00  0.00     0.049 A 
ATOM     28  H   UNL A   1      46.788  27.810  27.099  1.00  0.00     0.167 HD
ATOM     29  C   UNL A   1      42.808  29.379  28.548  1.00  0.00     0.037 A 
ATOM     30  C   UNL A   1      49.514  27.812  26.564  1.00  0.00     0.037 A 
ATOM     31  C   UNL A   1      43.729  30.480  28.541  1.00  0.00     0.049 A 
ATOM     32  C   UNL A   1      49.083  29.199  26.951  1.00  0.00     0.074 A 
ATOM     33  C   UNL A   1      43.508  31.800  28.873  1.00  0.00     0.029 A 
ATOM     34  N   UNL A   1      45.069  30.368  28.178  1.00  0.00    -0.354 N 
ATOM     35  N   UNL A   1      47.893  29.613  27.330  1.00  0.00    -0.248 NA
ATOM     36  C   UNL A   1      50.101  30.252  26.900  1.00  0.00     0.031 C 
ATOM     37  C   UNL A   1      44.704  32.496  28.659  1.00  0.00     0.029 A 
ATOM     38  C   UNL A   1      45.687  31.597  28.263  1.00  0.00     0.049 A 
ATOM     39  H   UNL A   1      45.511  29.532  27.903  1.00  0.00     0.167 HD
ATOM     40  C   UNL A   1      48.020  30.970  27.583  1.00  0.00     0.074 A 
ATOM     41  C   UNL A   1      49.410  31.305  27.319  1.00  0.00     0.031 C 
ATOM     42  C   UNL A   1      47.083  31.862  27.995  1.00  0.00     0.037 A 
BRANCH  29  43
ATOM     43  C   UNL A   1      41.386  29.566  28.993  1.00  0.00     0.058 A 
ATOM     44  C   UNL A   1      40.345  29.494  28.054  1.00  0.00     0.135 A 
ATOM     45  C   UNL A   1      41.034  29.735  30.343  1.00  0.00     0.135 A 
ATOM     46  F   UNL A   1      40.619  29.303  26.754  1.00  0.00    -0.206 F 
ATOM     47  C   UNL A   1      39.010  29.583  28.434  1.00  0.00     0.059 A 
ATOM     48  C   UNL A   1      39.703  29.797  30.751  1.00  0.00     0.059 A 
ATOM     49  F   UNL A   1      41.986  29.757  31.292  1.00  0.00    -0.206 F 
ATOM     50  C   UNL A   1      38.698  29.727  29.786  1.00  0.00     0.060 A 
BRANCH  50  51
ATOM     51  S   UNL A   1      36.958  29.758  30.268  1.00  0.00     0.124 S 
ATOM     52  O   UNL A   1      36.927  28.773  31.343  1.00  0.00    -0.237 OA
ATOM     53  O   UNL A   1      36.777  31.149  30.672  1.00  0.00    -0.237 OA
ATOM     54  O   UNL A   1      36.261  29.376  29.043  1.00  0.00    -0.744 OA
ENDBRANCH  50  51
ENDBRANCH  29  43
BRANCH  30  55
ATOM     55  C   UNL A   1      50.913  27.468  26.193  1.00  0.00     0.058 A 
ATOM     56  C   UNL A   1      51.298  27.348  24.846  1.00  0.00     0.135 A 
ATOM     57  C   UNL A   1      51.877  27.179  27.169  1.00  0.00     0.135 A 
ATOM     58  F   UNL A   1      50.418  27.607  23.867  1.00  0.00    -0.206 F 
ATOM     59  C   UNL A   1      52.569  26.917  24.481  1.00  0.00     0.059 A 
ATOM     60  C   UNL A   1      53.167  26.771  26.829  1.00  0.00     0.059 A 
ATOM     61  F   UNL A   1      51.566  27.286  28.470  1.00  0.00    -0.206 F 
ATOM     62  C   UNL A   1      53.495  26.623  25.480  1.00  0.00     0.060 A 
BRANCH  62  63
ATOM     63  S   UNL A   1      55.129  26.030  24.988  1.00  0.00     0.124 S 
ATOM     64  O   UNL A   1      54.918  24.584  24.956  1.00  0.00    -0.237 OA
ATOM     65  O   UNL A   1      55.302  26.671  23.684  1.00  0.00    -0.237 OA
ATOM     66  O   UNL A   1      56.001  26.514  26.044  1.00  0.00    -0.744 OA
ENDBRANCH  62  63
ENDBRANCH  30  55
BRANCH  42  67
ATOM     67  C   UNL A   1      47.542  33.269  28.230  1.00  0.00     0.058 A 
ATOM     68  C   UNL A   1      47.560  34.182  27.164  1.00  0.00     0.135 A 
ATOM     69  C   UNL A   1      48.065  33.676  29.465  1.00  0.00     0.135 A 
ATOM     70  F   UNL A   1      47.080  33.830  25.960  1.00  0.00    -0.206 F 
ATOM     71  C   UNL A   1      48.112  35.446  27.308  1.00  0.00     0.059 A 
ATOM     72  C   UNL A   1      48.592  34.950  29.641  1.00  0.00     0.059 A 
ATOM     73  F   UNL A   1      48.058  32.836  30.512  1.00  0.00    -0.206 F 
ATOM     74  C   UNL A   1      48.629  35.818  28.549  1.00  0.00     0.060 A 
BRANCH  74  75
ATOM     75  S   UNL A   1      49.344  37.465  28.714  1.00  0.00     0.124 S 
ATOM     76  O   UNL A   1      50.475  37.391  27.794  1.00  0.00    -0.237 OA
ATOM     77  O   UNL A   1      48.239  38.321  28.294  1.00  0.00    -0.237 OA
ATOM     78  O   UNL A   1      49.689  37.544  30.129  1.00  0.00    -0.744 OA
ENDBRANCH  74  75
ENDBRANCH  42  67
ENDBRANCH  16  17
ENDBRANCH   9  11
ENDBRANCH   8   9
ENDBRANCH   7   8
ENDBRANCH   6   7
ENDBRANCH   5   6
ENDBRANCH   4   5
ENDBRANCH   3   4
ENDBRANCH   2   3
ENDBRANCH   1   2
BRANCH   1  79
ATOM     79  C   UNL A   1      36.717  23.521  25.017  1.00  0.00     0.188 C 
BRANCH  79  80
ATOM     80  O   UNL A   1      35.411  23.460  25.528  1.00  0.00    -0.376 OA
BRANCH  80  81
ATOM     81  C   UNL A   1      34.404  24.327  25.031  1.00  0.00     0.202 C 
BRANCH  81  82
ATOM     82  C   UNL A   1      34.111  24.633  23.539  1.00  0.00     0.261 C 
BRANCH  82  83
ATOM     83  O   UNL A   1      32.854  25.245  23.155  1.00  0.00    -0.463 OA
BRANCH  83  84
ATOM     84  C   UNL A   1      32.798  26.604  23.253  1.00  0.00     0.313 C 
ATOM     85  O   UNL A   1      33.581  27.349  22.664  1.00  0.00    -0.252 OA
BRANCH  84  86
ATOM     86  C   UNL A   1      31.737  27.188  24.226  1.00  0.00     0.131 C 
BRANCH  86  87
ATOM     87  C   UNL A   1      32.160  28.003  25.496  1.00  0.00     0.048 C 
BRANCH  87  88
ATOM     88  C   UNL A   1      32.238  29.538  25.570  1.00  0.00     0.161 C 
BRANCH  88  89
ATOM     89  O   UNL A   1      31.721  30.167  26.730  1.00  0.00    -0.379 OA
BRANCH  89  90
ATOM     90  C   UNL A   1      32.373  31.371  27.115  1.00  0.00     0.188 C 
BRANCH  90  91
ATOM     91  C   UNL A   1      33.867  31.314  27.432  1.00  0.00     0.184 C 
BRANCH  91  92
ATOM     92  O   UNL A   1      34.173  31.217  28.816  1.00  0.00    -0.394 OA
ATOM     93  H   UNL A   1      33.463  30.737  29.271  1.00  0.00     0.210 HD
ENDBRANCH  91  92
ENDBRANCH  90  91
ENDBRANCH  89  90
ENDBRANCH  88  89
ENDBRANCH  87  88
ENDBRANCH  86  87
BRANCH  86  94
ATOM     94  C   UNL A   1      30.519  27.759  23.496  1.00  0.00    -0.031 A 
ATOM     95  C   UNL A   1      29.242  27.221  23.734  1.00  0.00     0.005 A 
ATOM     96  C   UNL A   1      30.618  28.880  22.656  1.00  0.00     0.043 A 
ATOM     97  C   UNL A   1      28.095  27.882  23.302  1.00  0.00     0.003 A 
ATOM     98  C   UNL A   1      29.468  29.533  22.232  1.00  0.00     0.123 A 
ATOM     99  C   UNL A   1      28.210  29.064  22.578  1.00  0.00     0.039 A 
ATOM    100  F   UNL A   1      29.582  30.667  21.529  1.00  0.00    -0.207 F 
ENDBRANCH  86  94
ENDBRANCH  84  86
ENDBRANCH  83  84
ENDBRANCH  82  83
ENDBRANCH  81  82
ENDBRANCH  80  81
ENDBRANCH  79  80
ENDBRANCH   1  79
TORSDOF 30
ENDMDL
MODEL 3
REMARK VINA RESULT:      -8.0      6.201     11.082
REMARK SMILES O=C(OCCOCCOCCOCCOC(=O)[C@@H](CCOCCO)c1cccc(F)c1)c1ccc(-c2c3nc(c(-c4c(F)cc(S(=O)(=O)[O-])cc4F)c4ccc([nH]4)c(-c4c(F)cc(S(=O)(=O)[O-])cc4F)c4nc(c(-c5c(F)cc(S(=O)(=O)[O-])cc5F)c5ccc2[nH]5)C=C4)C=C3)cc1
REMARK SMILES IDX 10 1 9 2 8 3 7 4 6 5 5 6 4 7 3 8 2 9 1 10 32 11 33 12 97 13
REMARK SMILES IDX 34 14 96 15 35 16 36 17 37 18 90 19 38 20 95 21 89 22 91 23
REMARK SMILES IDX 39 24 94 25 88 26 87 27 40 29 74 30 53 31 73 32 54 33 57 34
REMARK SMILES IDX 72 35 92 36 55 37 56 38 71 40 93 41 58 42 41 43 42 44 51 45
REMARK SMILES IDX 43 46 44 47 50 48 52 49 45 50 46 51 47 52 48 53 49 54 75 55
REMARK SMILES IDX 76 56 85 57 77 58 78 59 84 60 86 61 79 62 80 63 81 64 82 65
REMARK SMILES IDX 83 66 59 67 60 68 69 69 61 70 62 71 68 72 70 73 63 74 64 75
REMARK SMILES IDX 65 76 66 77 67 78 11 79 12 80 13 81 14 82 15 83 16 84 17 85
REMARK SMILES IDX 18 86 19 87 20 88 21 89 22 90 23 91 24 92 25 94 26 95 31 96
REMARK SMILES IDX 27 97 29 98 28 99 30 100
REMARK H PARENT 91 28 57 39 24 93
REMARK Flexibility Score: inf
ROOT
ATOM      1  C   UNL A   1      39.195  23.776  26.199  1.00  0.00     0.188 C 
ENDROOT
BRANCH   1   2
ATOM      2  O   UNL A   1      39.624  22.847  27.191  1.00  0.00    -0.377 OA
BRANCH   2   3
ATOM      3  C   UNL A   1      40.031  21.539  26.789  1.00  0.00     0.188 C 
BRANCH   3   4
ATOM      4  C   UNL A   1      41.169  21.520  25.792  1.00  0.00     0.188 C 
BRANCH   4   5
ATOM      5  O   UNL A   1      42.307  21.030  26.467  1.00  0.00    -0.376 OA
BRANCH   5   6
ATOM      6  C   UNL A   1      42.494  21.299  27.841  1.00  0.00     0.202 C 
BRANCH   6   7
ATOM      7  C   UNL A   1      43.139  22.629  28.178  1.00  0.00     0.261 C 
BRANCH   7   8
ATOM      8  O   UNL A   1      43.254  23.591  27.110  1.00  0.00    -0.460 OA
BRANCH   8   9
ATOM      9  C   UNL A   1      43.515  24.914  27.049  1.00  0.00     0.338 C 
ATOM     10  O   UNL A   1      44.334  25.297  26.214  1.00  0.00    -0.246 OA
BRANCH   9  11
ATOM     11  C   UNL A   1      42.899  25.956  27.917  1.00  0.00     0.060 A 
ATOM     12  C   UNL A   1      43.270  27.294  27.960  1.00  0.00     0.016 A 
ATOM     13  C   UNL A   1      41.779  25.579  28.674  1.00  0.00     0.016 A 
ATOM     14  C   UNL A   1      42.672  28.209  28.795  1.00  0.00     0.010 A 
ATOM     15  C   UNL A   1      41.131  26.500  29.503  1.00  0.00     0.010 A 
ATOM     16  C   UNL A   1      41.625  27.804  29.598  1.00  0.00    -0.014 A 
BRANCH  16  17
ATOM     17  C   UNL A   1      41.307  28.700  30.713  1.00  0.00     0.031 A 
ATOM     18  C   UNL A   1      42.291  28.727  31.842  1.00  0.00     0.074 A 
ATOM     19  C   UNL A   1      40.330  29.613  30.581  1.00  0.00     0.049 A 
ATOM     20  N   UNL A   1      42.232  29.362  32.975  1.00  0.00    -0.248 NA
ATOM     21  C   UNL A   1      43.526  27.938  31.658  1.00  0.00     0.031 C 
ATOM     22  C   UNL A   1      39.498  29.794  29.386  1.00  0.00     0.029 A 
ATOM     23  N   UNL A   1      39.909  30.594  31.432  1.00  0.00    -0.354 N 
ATOM     24  C   UNL A   1      43.389  29.006  33.657  1.00  0.00     0.074 A 
ATOM     25  C   UNL A   1      44.134  28.100  32.819  1.00  0.00     0.031 C 
ATOM     26  C   UNL A   1      38.677  30.839  29.579  1.00  0.00     0.029 A 
ATOM     27  C   UNL A   1      38.863  31.333  30.936  1.00  0.00     0.049 A 
ATOM     28  H   UNL A   1      40.316  30.756  32.314  1.00  0.00     0.167 HD
ATOM     29  C   UNL A   1      43.775  29.408  34.886  1.00  0.00     0.037 A 
ATOM     30  C   UNL A   1      38.115  32.268  31.549  1.00  0.00     0.037 A 
ATOM     31  C   UNL A   1      42.988  30.320  35.666  1.00  0.00     0.049 A 
ATOM     32  C   UNL A   1      38.469  32.593  32.974  1.00  0.00     0.074 A 
ATOM     33  C   UNL A   1      43.173  30.733  36.968  1.00  0.00     0.029 A 
ATOM     34  N   UNL A   1      41.850  30.966  35.189  1.00  0.00    -0.354 N 
ATOM     35  N   UNL A   1      39.472  32.138  33.693  1.00  0.00    -0.248 NA
ATOM     36  C   UNL A   1      37.592  33.529  33.682  1.00  0.00     0.031 C 
ATOM     37  C   UNL A   1      42.115  31.591  37.294  1.00  0.00     0.029 A 
ATOM     38  C   UNL A   1      41.311  31.766  36.174  1.00  0.00     0.049 A 
ATOM     39  H   UNL A   1      41.485  30.868  34.280  1.00  0.00     0.167 HD
ATOM     40  C   UNL A   1      39.362  32.746  34.934  1.00  0.00     0.074 A 
ATOM     41  C   UNL A   1      38.195  33.610  34.862  1.00  0.00     0.031 C 
ATOM     42  C   UNL A   1      40.147  32.613  36.034  1.00  0.00     0.037 A 
BRANCH  29  43
ATOM     43  C   UNL A   1      45.016  28.780  35.454  1.00  0.00     0.058 A 
ATOM     44  C   UNL A   1      46.257  29.415  35.292  1.00  0.00     0.135 A 
ATOM     45  C   UNL A   1      44.981  27.605  36.224  1.00  0.00     0.135 A 
ATOM     46  F   UNL A   1      46.347  30.556  34.593  1.00  0.00    -0.206 F 
ATOM     47  C   UNL A   1      47.417  28.908  35.868  1.00  0.00     0.059 A 
ATOM     48  C   UNL A   1      46.126  27.096  36.835  1.00  0.00     0.059 A 
ATOM     49  F   UNL A   1      43.812  26.984  36.457  1.00  0.00    -0.206 F 
ATOM     50  C   UNL A   1      47.341  27.752  36.645  1.00  0.00     0.060 A 
BRANCH  50  51
ATOM     51  S   UNL A   1      48.843  27.158  37.451  1.00  0.00     0.124 S 
ATOM     52  O   UNL A   1      49.868  27.976  36.815  1.00  0.00    -0.237 OA
ATOM     53  O   UNL A   1      48.573  27.451  38.856  1.00  0.00    -0.237 OA
ATOM     54  O   UNL A   1      48.870  25.738  37.112  1.00  0.00    -0.744 OA
ENDBRANCH  50  51
ENDBRANCH  29  43
BRANCH  30  55
ATOM     55  C   UNL A   1      36.968  32.890  30.833  1.00  0.00     0.058 A 
ATOM     56  C   UNL A   1      35.682  32.325  30.895  1.00  0.00     0.135 A 
ATOM     57  C   UNL A   1      37.141  34.015  30.017  1.00  0.00     0.135 A 
ATOM     58  F   UNL A   1      35.455  31.243  31.656  1.00  0.00    -0.206 F 
ATOM     59  C   UNL A   1      34.624  32.824  30.143  1.00  0.00     0.059 A 
ATOM     60  C   UNL A   1      36.089  34.552  29.274  1.00  0.00     0.059 A 
ATOM     61  F   UNL A   1      38.345  34.601  29.929  1.00  0.00    -0.206 F 
ATOM     62  C   UNL A   1      34.838  33.935  29.329  1.00  0.00     0.060 A 
BRANCH  62  63
ATOM     63  S   UNL A   1      33.462  34.547  28.333  1.00  0.00     0.124 S 
ATOM     64  O   UNL A   1      34.145  35.460  27.418  1.00  0.00    -0.237 OA
ATOM     65  O   UNL A   1      32.955  33.314  27.729  1.00  0.00    -0.237 OA
ATOM     66  O   UNL A   1      32.586  35.174  29.308  1.00  0.00    -0.744 OA
ENDBRANCH  62  63
ENDBRANCH  30  55
BRANCH  42  67
ATOM     67  C   UNL A   1      39.796  33.450  37.225  1.00  0.00     0.058 A 
ATOM     68  C   UNL A   1      40.371  34.722  37.375  1.00  0.00     0.135 A 
ATOM     69  C   UNL A   1      38.995  32.954  38.262  1.00  0.00     0.135 A 
ATOM     70  F   UNL A   1      41.155  35.231  36.411  1.00  0.00    -0.206 F 
ATOM     71  C   UNL A   1      40.184  35.465  38.531  1.00  0.00     0.059 A 
ATOM     72  C   UNL A   1      38.767  33.696  39.416  1.00  0.00     0.059 A 
ATOM     73  F   UNL A   1      38.419  31.746  38.155  1.00  0.00    -0.206 F 
ATOM     74  C   UNL A   1      39.385  34.941  39.547  1.00  0.00     0.060 A 
BRANCH  74  75
ATOM     75  S   UNL A   1      39.158  35.921  41.043  1.00  0.00     0.124 S 
ATOM     76  O   UNL A   1      39.494  37.261  40.573  1.00  0.00    -0.237 OA
ATOM     77  O   UNL A   1      37.750  35.690  41.349  1.00  0.00    -0.237 OA
ATOM     78  O   UNL A   1      40.104  35.329  41.983  1.00  0.00    -0.744 OA
ENDBRANCH  74  75
ENDBRANCH  42  67
ENDBRANCH  16  17
ENDBRANCH   9  11
ENDBRANCH   8   9
ENDBRANCH   7   8
ENDBRANCH   6   7
ENDBRANCH   5   6
ENDBRANCH   4   5
ENDBRANCH   3   4
ENDBRANCH   2   3
ENDBRANCH   1   2
BRANCH   1  79
ATOM     79  C   UNL A   1      37.795  23.642  25.606  1.00  0.00     0.188 C 
BRANCH  79  80
ATOM     80  O   UNL A   1      37.166  22.405  25.815  1.00  0.00    -0.376 OA
BRANCH  80  81
ATOM     81  C   UNL A   1      35.762  22.337  26.007  1.00  0.00     0.202 C 
BRANCH  81  82
ATOM     82  C   UNL A   1      34.812  23.534  26.268  1.00  0.00     0.261 C 
BRANCH  82  83
ATOM     83  O   UNL A   1      34.023  24.088  25.185  1.00  0.00    -0.463 OA
BRANCH  83  84
ATOM     84  C   UNL A   1      32.893  24.758  25.553  1.00  0.00     0.313 C 
ATOM     85  O   UNL A   1      32.909  25.726  26.312  1.00  0.00    -0.252 OA
BRANCH  84  86
ATOM     86  C   UNL A   1      31.546  24.186  25.033  1.00  0.00     0.131 C 
BRANCH  86  87
ATOM     87  C   UNL A   1      30.534  25.084  24.241  1.00  0.00     0.048 C 
BRANCH  87  88
ATOM     88  C   UNL A   1      30.819  26.519  23.761  1.00  0.00     0.161 C 
BRANCH  88  89
ATOM     89  O   UNL A   1      30.944  26.732  22.366  1.00  0.00    -0.379 OA
BRANCH  89  90
ATOM     90  C   UNL A   1      31.930  25.941  21.712  1.00  0.00     0.188 C 
BRANCH  90  91
ATOM     91  C   UNL A   1      33.397  26.173  22.071  1.00  0.00     0.184 C 
BRANCH  91  92
ATOM     92  O   UNL A   1      34.143  24.986  22.298  1.00  0.00    -0.394 OA
ATOM     93  H   UNL A   1      33.538  24.231  22.363  1.00  0.00     0.210 HD
ENDBRANCH  91  92
ENDBRANCH  90  91
ENDBRANCH  89  90
ENDBRANCH  88  89
ENDBRANCH  87  88
ENDBRANCH  86  87
BRANCH  86  94
ATOM     94  C   UNL A   1      31.681  22.765  24.482  1.00  0.00    -0.031 A 
ATOM     95  C   UNL A   1      31.758  22.555  23.094  1.00  0.00     0.005 A 
ATOM     96  C   UNL A   1      31.826  21.653  25.328  1.00  0.00     0.043 A 
ATOM     97  C   UNL A   1      32.148  21.322  22.578  1.00  0.00     0.003 A 
ATOM     98  C   UNL A   1      32.216  20.428  24.803  1.00  0.00     0.123 A 
ATOM     99  C   UNL A   1      32.413  20.265  23.440  1.00  0.00     0.039 A 
ATOM    100  F   UNL A   1      32.465  19.410  25.635  1.00  0.00    -0.207 F 
ENDBRANCH  86  94
ENDBRANCH  84  86
ENDBRANCH  83  84
ENDBRANCH  82  83
ENDBRANCH  81  82
ENDBRANCH  80  81
ENDBRANCH  79  80
ENDBRANCH   1  79
TORSDOF 30
ENDMDL
