MODEL 1
REMARK VINA RESULT:     -11.2      0.000      0.000
REMARK SMILES CC1(C)[C@@]2(C(=O)OCCOCCOCCOCCOC(=O)c3ccc(-c4c5nc(c(-c6c(F)cc(S(=O)(=O)[O-])cc6F)c6ccc([nH]6)c(-c6c(F)cc(S(=O)(=O)[O-])cc6F)c6nc(c(-c7c(F)cc(S(=O)(=O)[O-])cc7F)c7ccc4[nH]7)C=C6)C=C5)cc3)CC[C@]1(C)/C(=N/NC(=O)c1ccc(Cl)cc1)C2
REMARK SMILES IDX 14 1 13 2 12 3 11 4 10 5 9 6 8 7 7 8 5 9 6 10 4 11 1 12 2 13
REMARK SMILES IDX 3 14 90 15 88 16 104 17 89 18 91 19 92 20 93 21 94 22 95 23
REMARK SMILES IDX 96 25 97 26 98 27 103 28 99 29 102 30 100 31 101 32 15 33
REMARK SMILES IDX 16 34 17 35 18 36 19 37 20 38 21 39 22 40 23 41 87 42 24 43
REMARK SMILES IDX 86 44 25 45 26 46 27 47 80 48 28 49 85 50 79 51 81 52 29 53
REMARK SMILES IDX 84 54 78 55 77 56 30 58 64 59 43 60 63 61 44 62 47 63 62 64
REMARK SMILES IDX 82 65 45 66 46 67 61 69 83 70 48 71 31 72 32 73 41 74 33 75
REMARK SMILES IDX 34 76 40 77 42 78 35 79 36 80 37 81 38 82 39 83 65 84 66 85
REMARK SMILES IDX 75 86 67 87 68 88 74 89 76 90 69 91 70 92 71 93 72 94 73 95
REMARK SMILES IDX 49 96 50 97 59 98 51 99 52 100 58 101 60 102 53 103 54 104
REMARK SMILES IDX 55 105 56 106 57 107
REMARK H PARENT 94 24 81 57 47 68
REMARK Flexibility Score: inf
ROOT
ATOM      1  C   UNL A   1      44.069  19.362  25.040  1.00  0.00     0.188 C 
ENDROOT
BRANCH   1   2
ATOM      2  O   UNL A   1      42.890  20.056  25.429  1.00  0.00    -0.377 OA
BRANCH   2   3
ATOM      3  C   UNL A   1      42.180  19.512  26.542  1.00  0.00     0.188 C 
BRANCH   3   4
ATOM      4  C   UNL A   1      41.088  20.386  27.181  1.00  0.00     0.188 C 
BRANCH   4   5
ATOM      5  O   UNL A   1      40.390  21.299  26.331  1.00  0.00    -0.376 OA
BRANCH   5   6
ATOM      6  C   UNL A   1      39.175  20.860  25.729  1.00  0.00     0.202 C 
BRANCH   6   7
ATOM      7  C   UNL A   1      38.019  21.843  25.865  1.00  0.00     0.261 C 
BRANCH   7   8
ATOM      8  O   UNL A   1      37.083  21.724  24.781  1.00  0.00    -0.463 OA
BRANCH   8   9
ATOM      9  C   UNL A   1      36.110  20.783  24.922  1.00  0.00     0.313 C 
ATOM     10  O   UNL A   1      36.301  19.598  25.153  1.00  0.00    -0.252 OA
BRANCH   9  11
ATOM     11  C   UNL A   1      34.751  21.398  24.680  1.00  0.00     0.079 C 
ATOM     12  C   UNL A   1      33.947  21.384  27.164  1.00  0.00     0.013 C 
ATOM     13  C   UNL A   1      34.086  22.180  25.848  1.00  0.00    -0.008 C 
ATOM     14  C   UNL A   1      34.765  23.520  26.216  1.00  0.00     0.013 C 
ATOM     15  C   UNL A   1      32.755  22.348  25.046  1.00  0.00     0.014 C 
ATOM     16  C   UNL A   1      33.722  20.262  24.378  1.00  0.00     0.021 C 
ATOM     17  C   UNL A   1      34.698  22.424  23.516  1.00  0.00     0.073 C 
ATOM     18  C   UNL A   1      32.358  20.905  24.687  1.00  0.00     0.014 C 
ATOM     19  C   UNL A   1      31.668  23.168  25.706  1.00  0.00     0.018 C 
ATOM     20  C   UNL A   1      33.285  22.903  23.700  1.00  0.00     0.046 C 
ATOM     21  N   UNL A   1      32.512  23.649  22.980  1.00  0.00    -0.181 NA
BRANCH  21  22
ATOM     22  N   UNL A   1      32.805  24.290  21.824  1.00  0.00    -0.243 N 
ATOM     23  C   UNL A   1      32.734  25.570  21.327  1.00  0.00     0.271 C 
ATOM     24  H   UNL A   1      33.170  23.667  21.155  1.00  0.00     0.194 HD
ATOM     25  O   UNL A   1      32.977  25.749  20.131  1.00  0.00    -0.267 OA
BRANCH  23  26
ATOM     26  C   UNL A   1      32.416  26.752  22.138  1.00  0.00     0.041 A 
ATOM     27  C   UNL A   1      31.059  27.021  22.376  1.00  0.00     0.015 A 
ATOM     28  C   UNL A   1      33.405  27.599  22.651  1.00  0.00     0.015 A 
ATOM     29  C   UNL A   1      30.692  28.076  23.212  1.00  0.00     0.021 A 
ATOM     30  C   UNL A   1      33.031  28.657  23.489  1.00  0.00     0.021 A 
ATOM     31  C   UNL A   1      31.680  28.873  23.785  1.00  0.00     0.041 A 
ATOM     32  Cl  UNL A   1      31.233  30.101  24.902  1.00  0.00    -0.084 Cl
ENDBRANCH  23  26
ENDBRANCH  21  22
ENDBRANCH   9  11
ENDBRANCH   8   9
ENDBRANCH   7   8
ENDBRANCH   6   7
ENDBRANCH   5   6
ENDBRANCH   4   5
ENDBRANCH   3   4
ENDBRANCH   2   3
ENDBRANCH   1   2
BRANCH   1  33
ATOM     33  C   UNL A   1      45.309  20.232  24.829  1.00  0.00     0.188 C 
BRANCH  33  34
ATOM     34  O   UNL A   1      44.999  21.605  24.592  1.00  0.00    -0.376 OA
BRANCH  34  35
ATOM     35  C   UNL A   1      45.493  22.471  25.616  1.00  0.00     0.202 C 
BRANCH  35  36
ATOM     36  C   UNL A   1      44.932  23.904  25.563  1.00  0.00     0.261 C 
BRANCH  36  37
ATOM     37  O   UNL A   1      44.153  24.329  26.693  1.00  0.00    -0.460 OA
BRANCH  37  38
ATOM     38  C   UNL A   1      42.831  24.494  26.495  1.00  0.00     0.338 C 
ATOM     39  O   UNL A   1      42.105  23.811  25.782  1.00  0.00    -0.246 OA
BRANCH  38  40
ATOM     40  C   UNL A   1      42.353  25.604  27.341  1.00  0.00     0.060 A 
ATOM     41  C   UNL A   1      43.016  26.836  27.308  1.00  0.00     0.016 A 
ATOM     42  C   UNL A   1      41.299  25.393  28.234  1.00  0.00     0.016 A 
ATOM     43  C   UNL A   1      42.632  27.858  28.181  1.00  0.00     0.010 A 
ATOM     44  C   UNL A   1      40.933  26.409  29.123  1.00  0.00     0.010 A 
ATOM     45  C   UNL A   1      41.616  27.637  29.120  1.00  0.00    -0.014 A 
BRANCH  45  46
ATOM     46  C   UNL A   1      41.389  28.616  30.213  1.00  0.00     0.031 A 
ATOM     47  C   UNL A   1      42.252  28.538  31.443  1.00  0.00     0.074 A 
ATOM     48  C   UNL A   1      40.429  29.553  30.124  1.00  0.00     0.049 A 
ATOM     49  N   UNL A   1      42.219  29.264  32.531  1.00  0.00    -0.248 NA
ATOM     50  C   UNL A   1      43.291  27.496  31.444  1.00  0.00     0.031 C 
ATOM     51  C   UNL A   1      39.539  29.743  28.982  1.00  0.00     0.029 A 
ATOM     52  N   UNL A   1      40.033  30.510  31.026  1.00  0.00    -0.354 N 
ATOM     53  C   UNL A   1      43.236  28.774  33.343  1.00  0.00     0.074 A 
ATOM     54  C   UNL A   1      43.844  27.668  32.635  1.00  0.00     0.031 C 
ATOM     55  C   UNL A   1      38.677  30.736  29.263  1.00  0.00     0.029 A 
ATOM     56  C   UNL A   1      38.942  31.237  30.613  1.00  0.00     0.049 A 
ATOM     57  H   UNL A   1      40.487  30.662  31.887  1.00  0.00     0.167 HD
ATOM     58  C   UNL A   1      43.631  29.207  34.565  1.00  0.00     0.037 A 
ATOM     59  C   UNL A   1      38.224  32.178  31.260  1.00  0.00     0.037 A 
ATOM     60  C   UNL A   1      42.998  30.282  35.284  1.00  0.00     0.049 A 
ATOM     61  C   UNL A   1      38.635  32.606  32.646  1.00  0.00     0.074 A 
ATOM     62  C   UNL A   1      43.327  30.802  36.523  1.00  0.00     0.029 A 
ATOM     63  N   UNL A   1      41.890  30.989  34.837  1.00  0.00    -0.354 N 
ATOM     64  N   UNL A   1      39.628  32.169  33.384  1.00  0.00    -0.248 NA
ATOM     65  C   UNL A   1      37.835  33.662  33.284  1.00  0.00     0.031 C 
ATOM     66  C   UNL A   1      42.389  31.788  36.847  1.00  0.00     0.029 A 
ATOM     67  C   UNL A   1      41.505  31.921  35.787  1.00  0.00     0.049 A 
ATOM     68  H   UNL A   1      41.443  30.849  33.971  1.00  0.00     0.167 HD
ATOM     69  C   UNL A   1      39.583  32.905  34.564  1.00  0.00     0.074 A 
ATOM     70  C   UNL A   1      38.472  33.826  34.436  1.00  0.00     0.031 C 
ATOM     71  C   UNL A   1      40.392  32.829  35.651  1.00  0.00     0.037 A 
BRANCH  58  72
ATOM     72  C   UNL A   1      44.780  28.479  35.207  1.00  0.00     0.058 A 
ATOM     73  C   UNL A   1      44.572  27.406  36.089  1.00  0.00     0.135 A 
ATOM     74  C   UNL A   1      46.104  28.874  34.957  1.00  0.00     0.135 A 
ATOM     75  F   UNL A   1      43.326  26.997  36.376  1.00  0.00    -0.206 F 
ATOM     76  C   UNL A   1      45.633  26.783  36.739  1.00  0.00     0.059 A 
ATOM     77  C   UNL A   1      47.182  28.246  35.575  1.00  0.00     0.059 A 
ATOM     78  F   UNL A   1      46.360  29.892  34.122  1.00  0.00    -0.206 F 
ATOM     79  C   UNL A   1      46.934  27.217  36.483  1.00  0.00     0.060 A 
BRANCH  79  80
ATOM     80  S   UNL A   1      48.298  26.433  37.368  1.00  0.00     0.124 S 
ATOM     81  O   UNL A   1      49.438  27.214  36.897  1.00  0.00    -0.237 OA
ATOM     82  O   UNL A   1      47.925  26.636  38.764  1.00  0.00    -0.237 OA
ATOM     83  O   UNL A   1      48.252  25.049  36.906  1.00  0.00    -0.744 OA
ENDBRANCH  79  80
ENDBRANCH  58  72
BRANCH  59  84
ATOM     84  C   UNL A   1      37.028  32.764  30.598  1.00  0.00     0.058 A 
ATOM     85  C   UNL A   1      35.733  32.325  30.906  1.00  0.00     0.135 A 
ATOM     86  C   UNL A   1      37.160  33.811  29.671  1.00  0.00     0.135 A 
ATOM     87  F   UNL A   1      35.555  31.317  31.773  1.00  0.00    -0.206 F 
ATOM     88  C   UNL A   1      34.609  32.907  30.325  1.00  0.00     0.059 A 
ATOM     89  C   UNL A   1      36.052  34.424  29.094  1.00  0.00     0.059 A 
ATOM     90  F   UNL A   1      38.379  34.270  29.345  1.00  0.00    -0.206 F 
ATOM     91  C   UNL A   1      34.779  33.963  29.428  1.00  0.00     0.060 A 
BRANCH  91  92
ATOM     92  S   UNL A   1      33.312  34.773  28.753  1.00  0.00     0.124 S 
ATOM     93  O   UNL A   1      32.527  35.015  29.958  1.00  0.00    -0.237 OA
ATOM     94  O   UNL A   1      33.882  35.955  28.114  1.00  0.00    -0.237 OA
ATOM     95  O   UNL A   1      32.769  33.776  27.835  1.00  0.00    -0.744 OA
ENDBRANCH  91  92
ENDBRANCH  59  84
BRANCH  71  96
ATOM     96  C   UNL A   1      40.125  33.779  36.788  1.00  0.00     0.058 A 
ATOM     97  C   UNL A   1      40.831  34.985  36.926  1.00  0.00     0.135 A 
ATOM     98  C   UNL A   1      39.105  33.510  37.716  1.00  0.00     0.135 A 
ATOM     99  F   UNL A   1      41.818  35.291  36.070  1.00  0.00    -0.206 F 
ATOM    100  C   UNL A   1      40.549  35.880  37.955  1.00  0.00     0.059 A 
ATOM    101  C   UNL A   1      38.789  34.402  38.737  1.00  0.00     0.059 A 
ATOM    102  F   UNL A   1      38.390  32.377  37.625  1.00  0.00    -0.206 F 
ATOM    103  C   UNL A   1      39.524  35.581  38.855  1.00  0.00     0.060 A 
BRANCH 103 104
ATOM    104  S   UNL A   1      39.143  36.767  40.163  1.00  0.00     0.124 S 
ATOM    105  O   UNL A   1      40.456  36.971  40.766  1.00  0.00    -0.237 OA
ATOM    106  O   UNL A   1      38.606  37.898  39.413  1.00  0.00    -0.237 OA
ATOM    107  O   UNL A   1      38.175  36.056  40.993  1.00  0.00    -0.744 OA
ENDBRANCH 103 104
ENDBRANCH  71  96
ENDBRANCH  45  46
ENDBRANCH  38  40
ENDBRANCH  37  38
ENDBRANCH  36  37
ENDBRANCH  35  36
ENDBRANCH  34  35
ENDBRANCH  33  34
ENDBRANCH   1  33
TORSDOF 25
ENDMDL
MODEL 2
REMARK VINA RESULT:     -10.8      0.811      7.825
REMARK SMILES CC1(C)[C@@]2(C(=O)OCCOCCOCCOCCOC(=O)c3ccc(-c4c5nc(c(-c6c(F)cc(S(=O)(=O)[O-])cc6F)c6ccc([nH]6)c(-c6c(F)cc(S(=O)(=O)[O-])cc6F)c6nc(c(-c7c(F)cc(S(=O)(=O)[O-])cc7F)c7ccc4[nH]7)C=C6)C=C5)cc3)CC[C@]1(C)/C(=N/NC(=O)c1ccc(Cl)cc1)C2
REMARK SMILES IDX 14 1 13 2 12 3 11 4 10 5 9 6 8 7 7 8 5 9 6 10 4 11 1 12 2 13
REMARK SMILES IDX 3 14 90 15 88 16 104 17 89 18 91 19 92 20 93 21 94 22 95 23
REMARK SMILES IDX 96 25 97 26 98 27 103 28 99 29 102 30 100 31 101 32 15 33
REMARK SMILES IDX 16 34 17 35 18 36 19 37 20 38 21 39 22 40 23 41 87 42 24 43
REMARK SMILES IDX 86 44 25 45 26 46 27 47 80 48 28 49 85 50 79 51 81 52 29 53
REMARK SMILES IDX 84 54 78 55 77 56 30 58 64 59 43 60 63 61 44 62 47 63 62 64
REMARK SMILES IDX 82 65 45 66 46 67 61 69 83 70 48 71 31 72 32 73 41 74 33 75
REMARK SMILES IDX 34 76 40 77 42 78 35 79 36 80 37 81 38 82 39 83 65 84 66 85
REMARK SMILES IDX 75 86 67 87 68 88 74 89 76 90 69 91 70 92 71 93 72 94 73 95
REMARK SMILES IDX 49 96 50 97 59 98 51 99 52 100 58 101 60 102 53 103 54 104
REMARK SMILES IDX 55 105 56 106 57 107
REMARK H PARENT 94 24 81 57 47 68
REMARK Flexibility Score: inf
ROOT
ATOM      1  C   UNL A   1      43.569  21.728  25.744  1.00  0.00     0.188 C 
ENDROOT
BRANCH   1   2
ATOM      2  O   UNL A   1      42.815  20.580  25.374  1.00  0.00    -0.377 OA
BRANCH   2   3
ATOM      3  C   UNL A   1      42.313  19.786  26.450  1.00  0.00     0.188 C 
BRANCH   3   4
ATOM      4  C   UNL A   1      40.788  19.639  26.570  1.00  0.00     0.188 C 
BRANCH   4   5
ATOM      5  O   UNL A   1      40.072  19.202  25.412  1.00  0.00    -0.376 OA
BRANCH   5   6
ATOM      6  C   UNL A   1      38.664  19.415  25.373  1.00  0.00     0.202 C 
BRANCH   6   7
ATOM      7  C   UNL A   1      38.252  20.882  25.387  1.00  0.00     0.261 C 
BRANCH   7   8
ATOM      8  O   UNL A   1      36.873  21.049  25.755  1.00  0.00    -0.463 OA
BRANCH   8   9
ATOM      9  C   UNL A   1      36.363  22.305  25.640  1.00  0.00     0.313 C 
ATOM     10  O   UNL A   1      36.914  23.328  26.018  1.00  0.00    -0.252 OA
BRANCH   9  11
ATOM     11  C   UNL A   1      34.977  22.252  25.041  1.00  0.00     0.079 C 
ATOM     12  C   UNL A   1      33.679  21.863  27.273  1.00  0.00     0.013 C 
ATOM     13  C   UNL A   1      33.776  22.647  25.947  1.00  0.00    -0.008 C 
ATOM     14  C   UNL A   1      33.694  24.146  26.316  1.00  0.00     0.013 C 
ATOM     15  C   UNL A   1      32.744  22.211  24.856  1.00  0.00     0.014 C 
ATOM     16  C   UNL A   1      34.651  20.779  24.636  1.00  0.00     0.021 C 
ATOM     17  C   UNL A   1      34.770  23.156  23.795  1.00  0.00     0.073 C 
ATOM     18  C   UNL A   1      33.113  20.745  24.568  1.00  0.00     0.014 C 
ATOM     19  C   UNL A   1      31.285  22.455  25.171  1.00  0.00     0.018 C 
ATOM     20  C   UNL A   1      33.291  22.954  23.611  1.00  0.00     0.046 C 
ATOM     21  N   UNL A   1      32.473  23.283  22.666  1.00  0.00    -0.181 NA
BRANCH  21  22
ATOM     22  N   UNL A   1      32.731  23.996  21.545  1.00  0.00    -0.243 N 
ATOM     23  C   UNL A   1      32.738  25.316  21.160  1.00  0.00     0.271 C 
ATOM     24  H   UNL A   1      32.985  23.406  20.799  1.00  0.00     0.194 HD
ATOM     25  O   UNL A   1      32.902  25.578  19.966  1.00  0.00    -0.267 OA
BRANCH  23  26
ATOM     26  C   UNL A   1      32.594  26.445  22.088  1.00  0.00     0.041 A 
ATOM     27  C   UNL A   1      31.396  27.175  22.028  1.00  0.00     0.015 A 
ATOM     28  C   UNL A   1      33.598  26.808  22.991  1.00  0.00     0.015 A 
ATOM     29  C   UNL A   1      31.157  28.202  22.941  1.00  0.00     0.021 A 
ATOM     30  C   UNL A   1      33.354  27.841  23.905  1.00  0.00     0.021 A 
ATOM     31  C   UNL A   1      32.127  28.513  23.892  1.00  0.00     0.041 A 
ATOM     32  Cl  UNL A   1      31.787  29.703  25.086  1.00  0.00    -0.084 Cl
ENDBRANCH  23  26
ENDBRANCH  21  22
ENDBRANCH   9  11
ENDBRANCH   8   9
ENDBRANCH   7   8
ENDBRANCH   6   7
ENDBRANCH   5   6
ENDBRANCH   4   5
ENDBRANCH   3   4
ENDBRANCH   2   3
ENDBRANCH   1   2
BRANCH   1  33
ATOM     33  C   UNL A   1      44.819  21.997  24.904  1.00  0.00     0.188 C 
BRANCH  33  34
ATOM     34  O   UNL A   1      44.814  23.283  24.284  1.00  0.00    -0.376 OA
BRANCH  34  35
ATOM     35  C   UNL A   1      45.616  24.238  24.981  1.00  0.00     0.202 C 
BRANCH  35  36
ATOM     36  C   UNL A   1      44.844  25.087  26.008  1.00  0.00     0.261 C 
BRANCH  36  37
ATOM     37  O   UNL A   1      43.771  25.894  25.495  1.00  0.00    -0.460 OA
BRANCH  37  38
ATOM     38  C   UNL A   1      42.519  25.531  25.833  1.00  0.00     0.338 C 
ATOM     39  O   UNL A   1      41.879  24.591  25.373  1.00  0.00    -0.246 OA
BRANCH  38  40
ATOM     40  C   UNL A   1      42.040  26.406  26.917  1.00  0.00     0.060 A 
ATOM     41  C   UNL A   1      42.524  27.715  27.017  1.00  0.00     0.016 A 
ATOM     42  C   UNL A   1      41.173  25.898  27.889  1.00  0.00     0.016 A 
ATOM     43  C   UNL A   1      42.152  28.517  28.100  1.00  0.00     0.010 A 
ATOM     44  C   UNL A   1      40.822  26.693  28.986  1.00  0.00     0.010 A 
ATOM     45  C   UNL A   1      41.332  27.997  29.111  1.00  0.00    -0.014 A 
BRANCH  45  46
ATOM     46  C   UNL A   1      41.152  28.746  30.380  1.00  0.00     0.031 A 
ATOM     47  C   UNL A   1      40.060  29.778  30.462  1.00  0.00     0.074 A 
ATOM     48  C   UNL A   1      41.948  28.524  31.442  1.00  0.00     0.049 A 
ATOM     49  N   UNL A   1      39.735  30.569  31.452  1.00  0.00    -0.248 NA
ATOM     50  C   UNL A   1      39.224  29.937  29.262  1.00  0.00     0.031 C 
ATOM     51  C   UNL A   1      43.029  27.543  31.495  1.00  0.00     0.029 A 
ATOM     52  N   UNL A   1      41.977  29.129  32.674  1.00  0.00    -0.354 N 
ATOM     53  C   UNL A   1      38.653  31.316  30.998  1.00  0.00     0.074 A 
ATOM     54  C   UNL A   1      38.400  30.905  29.633  1.00  0.00     0.031 C 
ATOM     55  C   UNL A   1      43.638  27.633  32.690  1.00  0.00     0.029 A 
ATOM     56  C   UNL A   1      43.004  28.693  33.476  1.00  0.00     0.049 A 
ATOM     57  H   UNL A   1      41.325  29.810  32.957  1.00  0.00     0.167 HD
ATOM     58  C   UNL A   1      37.933  32.256  31.657  1.00  0.00     0.037 A 
ATOM     59  C   UNL A   1      43.402  29.117  34.694  1.00  0.00     0.037 A 
ATOM     60  C   UNL A   1      38.211  32.691  33.001  1.00  0.00     0.049 A 
ATOM     61  C   UNL A   1      42.630  30.208  35.391  1.00  0.00     0.074 A 
ATOM     62  C   UNL A   1      37.537  33.630  33.761  1.00  0.00     0.029 A 
ATOM     63  N   UNL A   1      39.266  32.232  33.779  1.00  0.00    -0.354 N 
ATOM     64  N   UNL A   1      41.579  30.873  34.970  1.00  0.00    -0.248 NA
ATOM     65  C   UNL A   1      43.092  30.602  36.730  1.00  0.00     0.031 C 
ATOM     66  C   UNL A   1      38.212  33.776  34.978  1.00  0.00     0.029 A 
ATOM     67  C   UNL A   1      39.277  32.888  34.999  1.00  0.00     0.049 A 
ATOM     68  H   UNL A   1      39.911  31.541  33.504  1.00  0.00     0.167 HD
ATOM     69  C   UNL A   1      41.243  31.750  35.998  1.00  0.00     0.074 A 
ATOM     70  C   UNL A   1      42.196  31.522  37.066  1.00  0.00     0.031 C 
ATOM     71  C   UNL A   1      40.235  32.657  36.053  1.00  0.00     0.037 A 
BRANCH  58  72
ATOM     72  C   UNL A   1      36.799  32.897  30.905  1.00  0.00     0.058 A 
ATOM     73  C   UNL A   1      37.021  33.922  29.970  1.00  0.00     0.135 A 
ATOM     74  C   UNL A   1      35.473  32.500  31.138  1.00  0.00     0.135 A 
ATOM     75  F   UNL A   1      38.268  34.352  29.720  1.00  0.00    -0.206 F 
ATOM     76  C   UNL A   1      35.965  34.564  29.331  1.00  0.00     0.059 A 
ATOM     77  C   UNL A   1      34.403  33.109  30.489  1.00  0.00     0.059 A 
ATOM     78  F   UNL A   1      35.203  31.524  32.019  1.00  0.00    -0.206 F 
ATOM     79  C   UNL A   1      34.658  34.158  29.605  1.00  0.00     0.060 A 
BRANCH  79  80
ATOM     80  S   UNL A   1      33.296  35.030  28.805  1.00  0.00     0.124 S 
ATOM     81  O   UNL A   1      32.529  35.491  29.958  1.00  0.00    -0.237 OA
ATOM     82  O   UNL A   1      33.987  36.069  28.050  1.00  0.00    -0.237 OA
ATOM     83  O   UNL A   1      32.655  33.995  27.999  1.00  0.00    -0.744 OA
ENDBRANCH  79  80
ENDBRANCH  58  72
BRANCH  59  84
ATOM     84  C   UNL A   1      44.607  28.510  35.318  1.00  0.00     0.058 A 
ATOM     85  C   UNL A   1      45.879  29.077  35.157  1.00  0.00     0.135 A 
ATOM     86  C   UNL A   1      44.499  27.367  36.127  1.00  0.00     0.135 A 
ATOM     87  F   UNL A   1      46.037  30.160  34.381  1.00  0.00    -0.206 F 
ATOM     88  C   UNL A   1      47.001  28.540  35.782  1.00  0.00     0.059 A 
ATOM     89  C   UNL A   1      45.602  26.824  36.780  1.00  0.00     0.059 A 
ATOM     90  F   UNL A   1      43.303  26.788  36.315  1.00  0.00    -0.206 F 
ATOM     91  C   UNL A   1      46.850  27.419  36.600  1.00  0.00     0.060 A 
BRANCH  91  92
ATOM     92  S   UNL A   1      48.295  26.786  37.481  1.00  0.00     0.124 S 
ATOM     93  O   UNL A   1      47.743  26.526  38.805  1.00  0.00    -0.237 OA
ATOM     94  O   UNL A   1      48.643  25.609  36.692  1.00  0.00    -0.237 OA
ATOM     95  O   UNL A   1      49.249  27.888  37.400  1.00  0.00    -0.744 OA
ENDBRANCH  91  92
ENDBRANCH  59  84
BRANCH  71  96
ATOM     96  C   UNL A   1      40.089  33.462  37.317  1.00  0.00     0.058 A 
ATOM     97  C   UNL A   1      40.841  34.626  37.544  1.00  0.00     0.135 A 
ATOM     98  C   UNL A   1      39.138  33.099  38.286  1.00  0.00     0.135 A 
ATOM     99  F   UNL A   1      41.767  35.015  36.654  1.00  0.00    -0.206 F 
ATOM    100  C   UNL A   1      40.669  35.390  38.695  1.00  0.00     0.059 A 
ATOM    101  C   UNL A   1      38.932  33.863  39.431  1.00  0.00     0.059 A 
ATOM    102  F   UNL A   1      38.383  32.003  38.115  1.00  0.00    -0.206 F 
ATOM    103  C   UNL A   1      39.711  35.002  39.633  1.00  0.00     0.060 A 
BRANCH 103 104
ATOM    104  S   UNL A   1      39.471  36.022  41.104  1.00  0.00     0.124 S 
ATOM    105  O   UNL A   1      38.135  36.560  40.874  1.00  0.00    -0.237 OA
ATOM    106  O   UNL A   1      39.585  35.046  42.184  1.00  0.00    -0.237 OA
ATOM    107  O   UNL A   1      40.561  36.991  41.026  1.00  0.00    -0.744 OA
ENDBRANCH 103 104
ENDBRANCH  71  96
ENDBRANCH  45  46
ENDBRANCH  38  40
ENDBRANCH  37  38
ENDBRANCH  36  37
ENDBRANCH  35  36
ENDBRANCH  34  35
ENDBRANCH  33  34
ENDBRANCH   1  33
TORSDOF 25
ENDMDL
MODEL 3
REMARK VINA RESULT:     -10.4      6.240     12.415
REMARK SMILES CC1(C)[C@@]2(C(=O)OCCOCCOCCOCCOC(=O)c3ccc(-c4c5nc(c(-c6c(F)cc(S(=O)(=O)[O-])cc6F)c6ccc([nH]6)c(-c6c(F)cc(S(=O)(=O)[O-])cc6F)c6nc(c(-c7c(F)cc(S(=O)(=O)[O-])cc7F)c7ccc4[nH]7)C=C6)C=C5)cc3)CC[C@]1(C)/C(=N/NC(=O)c1ccc(Cl)cc1)C2
REMARK SMILES IDX 14 1 13 2 12 3 11 4 10 5 9 6 8 7 7 8 5 9 6 10 4 11 1 12 2 13
REMARK SMILES IDX 3 14 90 15 88 16 104 17 89 18 91 19 92 20 93 21 94 22 95 23
REMARK SMILES IDX 96 25 97 26 98 27 103 28 99 29 102 30 100 31 101 32 15 33
REMARK SMILES IDX 16 34 17 35 18 36 19 37 20 38 21 39 22 40 23 41 87 42 24 43
REMARK SMILES IDX 86 44 25 45 26 46 27 47 80 48 28 49 85 50 79 51 81 52 29 53
REMARK SMILES IDX 84 54 78 55 77 56 30 58 64 59 43 60 63 61 44 62 47 63 62 64
REMARK SMILES IDX 82 65 45 66 46 67 61 69 83 70 48 71 31 72 32 73 41 74 33 75
REMARK SMILES IDX 34 76 40 77 42 78 35 79 36 80 37 81 38 82 39 83 65 84 66 85
REMARK SMILES IDX 75 86 67 87 68 88 74 89 76 90 69 91 70 92 71 93 72 94 73 95
REMARK SMILES IDX 49 96 50 97 59 98 51 99 52 100 58 101 60 102 53 103 54 104
REMARK SMILES IDX 55 105 56 106 57 107
REMARK H PARENT 94 24 81 57 47 68
REMARK Flexibility Score: inf
ROOT
ATOM      1  C   UNL A   1      32.852  29.414  25.799  1.00  0.00     0.188 C 
ENDROOT
BRANCH   1   2
ATOM      2  O   UNL A   1      31.460  29.160  25.653  1.00  0.00    -0.377 OA
BRANCH   2   3
ATOM      3  C   UNL A   1      30.856  29.647  24.454  1.00  0.00     0.188 C 
BRANCH   3   4
ATOM      4  C   UNL A   1      31.079  28.833  23.168  1.00  0.00     0.188 C 
BRANCH   4   5
ATOM      5  O   UNL A   1      30.515  27.520  23.111  1.00  0.00    -0.376 OA
BRANCH   5   6
ATOM      6  C   UNL A   1      31.350  26.417  23.453  1.00  0.00     0.202 C 
BRANCH   6   7
ATOM      7  C   UNL A   1      30.859  25.607  24.646  1.00  0.00     0.261 C 
BRANCH   7   8
ATOM      8  O   UNL A   1      31.915  25.337  25.583  1.00  0.00    -0.463 OA
BRANCH   8   9
ATOM      9  C   UNL A   1      31.731  24.275  26.413  1.00  0.00     0.313 C 
ATOM     10  O   UNL A   1      30.758  24.100  27.132  1.00  0.00    -0.252 OA
BRANCH   9  11
ATOM     11  C   UNL A   1      32.942  23.371  26.378  1.00  0.00     0.079 C 
ATOM     12  C   UNL A   1      31.809  21.370  25.140  1.00  0.00     0.013 C 
ATOM     13  C   UNL A   1      33.028  22.312  25.242  1.00  0.00    -0.008 C 
ATOM     14  C   UNL A   1      33.260  22.885  23.824  1.00  0.00     0.013 C 
ATOM     15  C   UNL A   1      34.302  21.663  25.875  1.00  0.00     0.014 C 
ATOM     16  C   UNL A   1      32.970  22.504  27.678  1.00  0.00     0.021 C 
ATOM     17  C   UNL A   1      34.303  24.108  26.255  1.00  0.00     0.073 C 
ATOM     18  C   UNL A   1      33.859  21.305  27.304  1.00  0.00     0.014 C 
ATOM     19  C   UNL A   1      34.939  20.532  25.097  1.00  0.00     0.018 C 
ATOM     20  C   UNL A   1      35.196  22.909  26.094  1.00  0.00     0.046 C 
ATOM     21  N   UNL A   1      36.481  22.768  26.098  1.00  0.00    -0.181 NA
BRANCH  21  22
ATOM     22  N   UNL A   1      37.430  23.728  26.195  1.00  0.00    -0.243 N 
ATOM     23  C   UNL A   1      38.761  23.809  26.527  1.00  0.00     0.271 C 
ATOM     24  H   UNL A   1      37.066  24.612  25.961  1.00  0.00     0.194 HD
ATOM     25  O   UNL A   1      39.273  24.927  26.635  1.00  0.00    -0.267 OA
BRANCH  23  26
ATOM     26  C   UNL A   1      39.631  22.644  26.735  1.00  0.00     0.041 A 
ATOM     27  C   UNL A   1      40.609  22.744  27.737  1.00  0.00     0.015 A 
ATOM     28  C   UNL A   1      39.521  21.479  25.968  1.00  0.00     0.015 A 
ATOM     29  C   UNL A   1      41.408  21.644  28.045  1.00  0.00     0.021 A 
ATOM     30  C   UNL A   1      40.326  20.377  26.282  1.00  0.00     0.021 A 
ATOM     31  C   UNL A   1      41.246  20.457  27.334  1.00  0.00     0.041 A 
ATOM     32  Cl  UNL A   1      42.152  19.069  27.789  1.00  0.00    -0.084 Cl
ENDBRANCH  23  26
ENDBRANCH  21  22
ENDBRANCH   9  11
ENDBRANCH   8   9
ENDBRANCH   7   8
ENDBRANCH   6   7
ENDBRANCH   5   6
ENDBRANCH   4   5
ENDBRANCH   3   4
ENDBRANCH   2   3
ENDBRANCH   1   2
BRANCH   1  33
ATOM     33  C   UNL A   1      33.228  30.430  26.879  1.00  0.00     0.188 C 
BRANCH  33  34
ATOM     34  O   UNL A   1      34.639  30.555  27.068  1.00  0.00    -0.376 OA
BRANCH  34  35
ATOM     35  C   UNL A   1      34.982  31.526  28.058  1.00  0.00     0.202 C 
BRANCH  35  36
ATOM     36  C   UNL A   1      36.479  31.886  28.103  1.00  0.00     0.261 C 
BRANCH  36  37
ATOM     37  O   UNL A   1      37.230  31.366  29.212  1.00  0.00    -0.460 OA
BRANCH  37  38
ATOM     38  C   UNL A   1      37.199  30.033  29.399  1.00  0.00     0.338 C 
ATOM     39  O   UNL A   1      36.223  29.358  29.709  1.00  0.00    -0.246 OA
BRANCH  38  40
ATOM     40  C   UNL A   1      38.530  29.474  29.099  1.00  0.00     0.060 A 
ATOM     41  C   UNL A   1      39.462  29.310  30.130  1.00  0.00     0.016 A 
ATOM     42  C   UNL A   1      38.884  29.194  27.777  1.00  0.00     0.016 A 
ATOM     43  C   UNL A   1      40.759  28.878  29.837  1.00  0.00     0.010 A 
ATOM     44  C   UNL A   1      40.189  28.785  27.482  1.00  0.00     0.010 A 
ATOM     45  C   UNL A   1      41.141  28.651  28.508  1.00  0.00    -0.014 A 
BRANCH  45  46
ATOM     46  C   UNL A   1      42.573  28.452  28.170  1.00  0.00     0.031 A 
ATOM     47  C   UNL A   1      43.515  29.618  28.304  1.00  0.00     0.074 A 
ATOM     48  C   UNL A   1      43.032  27.263  27.743  1.00  0.00     0.049 A 
ATOM     49  N   UNL A   1      44.795  29.688  28.042  1.00  0.00    -0.248 NA
ATOM     50  C   UNL A   1      42.930  30.874  28.800  1.00  0.00     0.031 C 
ATOM     51  C   UNL A   1      42.226  26.054  27.587  1.00  0.00     0.029 A 
ATOM     52  N   UNL A   1      44.291  26.885  27.345  1.00  0.00    -0.354 N 
ATOM     53  C   UNL A   1      45.171  30.991  28.347  1.00  0.00     0.074 A 
ATOM     54  C   UNL A   1      43.977  31.685  28.782  1.00  0.00     0.031 C 
ATOM     55  C   UNL A   1      43.005  25.075  27.094  1.00  0.00     0.029 A 
ATOM     56  C   UNL A   1      44.357  25.593  26.882  1.00  0.00     0.049 A 
ATOM     57  H   UNL A   1      45.072  27.483  27.386  1.00  0.00     0.167 HD
ATOM     58  C   UNL A   1      46.400  31.560  28.276  1.00  0.00     0.037 A 
ATOM     59  C   UNL A   1      45.383  24.915  26.327  1.00  0.00     0.037 A 
ATOM     60  C   UNL A   1      47.578  30.880  27.805  1.00  0.00     0.049 A 
ATOM     61  C   UNL A   1      46.729  25.581  26.194  1.00  0.00     0.074 A 
ATOM     62  C   UNL A   1      48.870  31.365  27.701  1.00  0.00     0.029 A 
ATOM     63  N   UNL A   1      47.603  29.574  27.336  1.00  0.00    -0.354 N 
ATOM     64  N   UNL A   1      47.084  26.799  26.531  1.00  0.00    -0.248 NA
ATOM     65  C   UNL A   1      47.816  24.778  25.614  1.00  0.00     0.031 C 
ATOM     66  C   UNL A   1      49.666  30.369  27.124  1.00  0.00     0.029 A 
ATOM     67  C   UNL A   1      48.882  29.244  26.917  1.00  0.00     0.049 A 
ATOM     68  H   UNL A   1      46.827  28.970  27.307  1.00  0.00     0.167 HD
ATOM     69  C   UNL A   1      48.437  26.904  26.221  1.00  0.00     0.074 A 
ATOM     70  C   UNL A   1      48.840  25.621  25.680  1.00  0.00     0.031 C 
ATOM     71  C   UNL A   1      49.270  27.964  26.374  1.00  0.00     0.037 A 
BRANCH  58  72
ATOM     72  C   UNL A   1      46.507  33.004  28.683  1.00  0.00     0.058 A 
ATOM     73  C   UNL A   1      46.804  33.377  30.005  1.00  0.00     0.135 A 
ATOM     74  C   UNL A   1      46.287  34.028  27.748  1.00  0.00     0.135 A 
ATOM     75  F   UNL A   1      47.007  32.439  30.943  1.00  0.00    -0.206 F 
ATOM     76  C   UNL A   1      46.829  34.712  30.395  1.00  0.00     0.059 A 
ATOM     77  C   UNL A   1      46.336  35.371  28.110  1.00  0.00     0.059 A 
ATOM     78  F   UNL A   1      46.003  33.729  26.471  1.00  0.00    -0.206 F 
ATOM     79  C   UNL A   1      46.583  35.702  29.443  1.00  0.00     0.060 A 
BRANCH  79  80
ATOM     80  S   UNL A   1      46.572  37.428  29.971  1.00  0.00     0.124 S 
ATOM     81  O   UNL A   1      47.990  37.663  30.227  1.00  0.00    -0.237 OA
ATOM     82  O   UNL A   1      46.018  38.110  28.807  1.00  0.00    -0.237 OA
ATOM     83  O   UNL A   1      45.715  37.417  31.153  1.00  0.00    -0.744 OA
ENDBRANCH  79  80
ENDBRANCH  58  72
BRANCH  59  84
ATOM     84  C   UNL A   1      45.160  23.528  25.840  1.00  0.00     0.058 A 
ATOM     85  C   UNL A   1      45.090  23.235  24.471  1.00  0.00     0.135 A 
ATOM     86  C   UNL A   1      45.056  22.458  26.744  1.00  0.00     0.135 A 
ATOM     87  F   UNL A   1      45.169  24.225  23.569  1.00  0.00    -0.206 F 
ATOM     88  C   UNL A   1      44.933  21.930  24.012  1.00  0.00     0.059 A 
ATOM     89  C   UNL A   1      44.921  21.142  26.309  1.00  0.00     0.059 A 
ATOM     90  F   UNL A   1      45.120  22.685  28.065  1.00  0.00    -0.206 F 
ATOM     91  C   UNL A   1      44.860  20.889  24.939  1.00  0.00     0.060 A 
BRANCH  91  92
ATOM     92  S   UNL A   1      44.751  19.191  24.332  1.00  0.00     0.124 S 
ATOM     93  O   UNL A   1      44.583  19.401  22.899  1.00  0.00    -0.237 OA
ATOM     94  O   UNL A   1      46.033  18.634  24.750  1.00  0.00    -0.237 OA
ATOM     95  O   UNL A   1      43.587  18.657  25.032  1.00  0.00    -0.744 OA
ENDBRANCH  91  92
ENDBRANCH  59  84
BRANCH  71  96
ATOM     96  C   UNL A   1      50.711  27.784  25.975  1.00  0.00     0.058 A 
ATOM     97  C   UNL A   1      51.143  27.989  24.655  1.00  0.00     0.135 A 
ATOM     98  C   UNL A   1      51.682  27.464  26.938  1.00  0.00     0.135 A 
ATOM     99  F   UNL A   1      50.257  28.293  23.693  1.00  0.00    -0.206 F 
ATOM    100  C   UNL A   1      52.484  27.865  24.301  1.00  0.00     0.059 A 
ATOM    101  C   UNL A   1      53.031  27.359  26.612  1.00  0.00     0.059 A 
ATOM    102  F   UNL A   1      51.326  27.268  28.218  1.00  0.00    -0.206 F 
ATOM    103  C   UNL A   1      53.421  27.551  25.287  1.00  0.00     0.060 A 
BRANCH 103 104
ATOM    104  S   UNL A   1      55.163  27.428  24.822  1.00  0.00     0.124 S 
ATOM    105  O   UNL A   1      55.220  28.309  23.661  1.00  0.00    -0.237 OA
ATOM    106  O   UNL A   1      55.842  27.911  26.020  1.00  0.00    -0.237 OA
ATOM    107  O   UNL A   1      55.339  26.006  24.541  1.00  0.00    -0.744 OA
ENDBRANCH 103 104
ENDBRANCH  71  96
ENDBRANCH  45  46
ENDBRANCH  38  40
ENDBRANCH  37  38
ENDBRANCH  36  37
ENDBRANCH  35  36
ENDBRANCH  34  35
ENDBRANCH  33  34
ENDBRANCH   1  33
TORSDOF 25
ENDMDL
