MODEL 1
REMARK VINA RESULT:     -10.5      0.000      0.000
REMARK SMILES Cc1ccc(C(=O)NC2CC2)cc1NC(=O)[C@@H]1[C@@H](C(=O)OCCOCCOCCOCCOC(=O)c2ccc(-c3c4nc(c(-c5c(F)cc(S(=O)(=O)[O-])cc5F)c5ccc([nH]5)c(-c5c(F)cc(S(=O)(=O)[O-])cc5F)c5nc(c(-c6c(F)cc(S(=O)(=O)[O-])cc6F)c6ccc3[nH]6)C=C5)C=C4)cc2)[C@H]2C=C[C@@H]1C2
REMARK SMILES IDX 26 1 25 2 24 3 23 4 22 5 21 6 19 7 20 8 18 9 17 10 105 11
REMARK SMILES IDX 102 12 104 13 106 14 103 15 15 16 14 17 16 19 13 20 1 21
REMARK SMILES IDX 2 22 3 23 4 24 12 25 5 26 6 27 7 28 8 29 9 31 10 32 11 33
REMARK SMILES IDX 27 34 28 35 29 36 30 37 31 38 32 39 33 40 34 41 35 42 36 43
REMARK SMILES IDX 37 44 101 45 38 46 100 47 39 48 40 49 41 50 94 51 42 52
REMARK SMILES IDX 99 53 93 54 95 55 43 56 98 57 92 58 91 59 44 61 78 62 57 63
REMARK SMILES IDX 77 64 58 65 61 66 76 67 96 68 59 69 60 70 75 72 97 73 62 74
REMARK SMILES IDX 45 75 46 76 55 77 47 78 48 79 54 80 56 81 49 82 50 83 51 84
REMARK SMILES IDX 52 85 53 86 79 87 80 88 89 89 81 90 82 91 88 92 90 93 83 94
REMARK SMILES IDX 84 95 85 96 86 97 87 98 63 99 64 100 73 101 65 102 66 103
REMARK SMILES IDX 72 104 74 105 67 106 68 107 69 108 70 109 71 110
REMARK H PARENT 14 18 8 30 95 60 61 71
REMARK Flexibility Score: inf
ROOT
ATOM      1  C   UNL A   1      40.122  22.578  26.676  1.00  0.00     0.188 C 
ENDROOT
BRANCH   1   2
ATOM      2  C   UNL A   1      38.717  22.260  26.130  1.00  0.00     0.188 C 
BRANCH   2   3
ATOM      3  O   UNL A   1      38.618  20.991  25.502  1.00  0.00    -0.376 OA
BRANCH   3   4
ATOM      4  C   UNL A   1      37.491  20.740  24.676  1.00  0.00     0.202 C 
BRANCH   4   5
ATOM      5  C   UNL A   1      36.044  20.689  25.225  1.00  0.00     0.261 C 
BRANCH   5   6
ATOM      6  O   UNL A   1      35.301  21.806  25.751  1.00  0.00    -0.463 OA
BRANCH   6   7
ATOM      7  C   UNL A   1      35.021  22.883  25.034  1.00  0.00     0.310 C 
ATOM      8  O   UNL A   1      35.799  23.735  24.598  1.00  0.00    -0.252 OA
BRANCH   7   9
ATOM      9  C   UNL A   1      33.596  23.180  24.811  1.00  0.00     0.119 C 
ATOM     10  C   UNL A   1      32.865  22.273  25.885  1.00  0.00     0.100 C 
ATOM     11  C   UNL A   1      31.676  21.744  25.064  1.00  0.00     0.025 C 
ATOM     12  C   UNL A   1      32.899  22.814  23.499  1.00  0.00     0.027 C 
ATOM     13  C   UNL A   1      32.247  20.697  24.120  1.00  0.00    -0.027 C 
ATOM     14  C   UNL A   1      31.452  22.846  24.016  1.00  0.00     0.017 C 
ATOM     15  C   UNL A   1      32.994  21.337  23.206  1.00  0.00    -0.027 C 
BRANCH  10  16
ATOM     16  C   UNL A   1      32.570  23.043  27.166  1.00  0.00     0.228 C 
ATOM     17  N   UNL A   1      32.134  24.340  27.226  1.00  0.00    -0.326 N 
ATOM     18  H   UNL A   1      32.006  24.627  28.160  1.00  0.00     0.169 HD
ATOM     19  O   UNL A   1      32.786  22.508  28.264  1.00  0.00    -0.274 OA
BRANCH  17  20
ATOM     20  C   UNL A   1      31.815  25.384  26.320  1.00  0.00     0.044 A 
ATOM     21  C   UNL A   1      29.332  24.707  26.313  1.00  0.00     0.046 C 
ATOM     22  C   UNL A   1      30.477  25.615  25.962  1.00  0.00    -0.027 A 
ATOM     23  C   UNL A   1      30.143  26.769  25.223  1.00  0.00     0.006 A 
ATOM     24  C   UNL A   1      31.118  27.650  24.767  1.00  0.00     0.014 A 
ATOM     25  C   UNL A   1      32.768  26.200  25.715  1.00  0.00     0.040 A 
ATOM     26  C   UNL A   1      32.463  27.365  24.971  1.00  0.00     0.041 A 
BRANCH  26  27
ATOM     27  C   UNL A   1      33.435  28.353  24.356  1.00  0.00     0.251 C 
ATOM     28  O   UNL A   1      33.763  28.241  23.175  1.00  0.00    -0.269 OA
ATOM     29  N   UNL A   1      33.926  29.426  25.059  1.00  0.00    -0.349 N 
ATOM     30  H   UNL A   1      34.562  30.017  24.596  1.00  0.00     0.164 HD
BRANCH  29  31
ATOM     31  C   UNL A   1      33.598  29.743  26.381  1.00  0.00     0.082 C 
ATOM     32  C   UNL A   1      34.572  29.248  27.411  1.00  0.00     0.027 C 
ATOM     33  C   UNL A   1      34.248  30.707  27.277  1.00  0.00     0.027 C 
ENDBRANCH  29  31
ENDBRANCH  26  27
ENDBRANCH  17  20
ENDBRANCH  10  16
ENDBRANCH   7   9
ENDBRANCH   6   7
ENDBRANCH   5   6
ENDBRANCH   4   5
ENDBRANCH   3   4
ENDBRANCH   2   3
ENDBRANCH   1   2
BRANCH   1  34
ATOM     34  O   UNL A   1      41.196  22.245  25.789  1.00  0.00    -0.377 OA
BRANCH  34  35
ATOM     35  C   UNL A   1      42.097  21.273  26.273  1.00  0.00     0.188 C 
BRANCH  35  36
ATOM     36  C   UNL A   1      43.501  21.357  25.655  1.00  0.00     0.188 C 
BRANCH  36  37
ATOM     37  O   UNL A   1      44.401  22.348  26.129  1.00  0.00    -0.376 OA
BRANCH  37  38
ATOM     38  C   UNL A   1      44.089  22.938  27.404  1.00  0.00     0.202 C 
BRANCH  38  39
ATOM     39  C   UNL A   1      43.952  24.479  27.508  1.00  0.00     0.261 C 
BRANCH  39  40
ATOM     40  O   UNL A   1      42.637  24.960  27.187  1.00  0.00    -0.460 OA
BRANCH  40  41
ATOM     41  C   UNL A   1      42.367  25.542  26.006  1.00  0.00     0.338 C 
ATOM     42  O   UNL A   1      42.984  25.330  24.956  1.00  0.00    -0.246 OA
BRANCH  41  43
ATOM     43  C   UNL A   1      41.345  26.625  26.238  1.00  0.00     0.060 A 
ATOM     44  C   UNL A   1      41.566  27.907  25.766  1.00  0.00     0.016 A 
ATOM     45  C   UNL A   1      40.438  26.520  27.287  1.00  0.00     0.016 A 
ATOM     46  C   UNL A   1      41.385  28.983  26.655  1.00  0.00     0.010 A 
ATOM     47  C   UNL A   1      40.352  27.571  28.197  1.00  0.00     0.010 A 
ATOM     48  C   UNL A   1      41.181  28.675  28.008  1.00  0.00    -0.014 A 
BRANCH  48  49
ATOM     49  C   UNL A   1      42.420  28.688  28.931  1.00  0.00     0.031 A 
ATOM     50  C   UNL A   1      43.773  28.109  28.526  1.00  0.00     0.074 A 
ATOM     51  C   UNL A   1      42.277  29.484  30.034  1.00  0.00     0.049 A 
ATOM     52  N   UNL A   1      44.513  27.304  29.254  1.00  0.00    -0.248 NA
ATOM     53  C   UNL A   1      44.409  28.413  27.244  1.00  0.00     0.031 C 
ATOM     54  C   UNL A   1      43.100  30.495  30.684  1.00  0.00     0.029 A 
ATOM     55  N   UNL A   1      41.240  29.357  30.960  1.00  0.00    -0.354 N 
ATOM     56  C   UNL A   1      45.756  27.117  28.614  1.00  0.00     0.074 A 
ATOM     57  C   UNL A   1      45.608  27.834  27.367  1.00  0.00     0.031 C 
ATOM     58  C   UNL A   1      42.768  30.611  31.980  1.00  0.00     0.029 A 
ATOM     59  C   UNL A   1      41.731  29.665  32.215  1.00  0.00     0.049 A 
ATOM     60  H   UNL A   1      40.314  29.093  30.755  1.00  0.00     0.167 HD
ATOM     61  C   UNL A   1      46.871  26.521  29.182  1.00  0.00     0.037 A 
ATOM     62  C   UNL A   1      41.291  29.222  33.399  1.00  0.00     0.037 A 
ATOM     63  C   UNL A   1      46.719  26.254  30.639  1.00  0.00     0.049 A 
ATOM     64  C   UNL A   1      42.133  28.028  33.818  1.00  0.00     0.074 A 
ATOM     65  C   UNL A   1      47.585  26.429  31.707  1.00  0.00     0.029 A 
ATOM     66  N   UNL A   1      45.483  25.944  31.249  1.00  0.00    -0.354 N 
ATOM     67  N   UNL A   1      43.125  27.455  33.165  1.00  0.00    -0.248 NA
ATOM     68  C   UNL A   1      41.943  27.474  35.156  1.00  0.00     0.031 C 
ATOM     69  C   UNL A   1      46.879  26.350  32.916  1.00  0.00     0.029 A 
ATOM     70  C   UNL A   1      45.583  25.990  32.629  1.00  0.00     0.049 A 
ATOM     71  H   UNL A   1      44.660  25.722  30.758  1.00  0.00     0.167 HD
ATOM     72  C   UNL A   1      43.613  26.402  33.941  1.00  0.00     0.074 A 
ATOM     73  C   UNL A   1      42.888  26.526  35.192  1.00  0.00     0.031 C 
ATOM     74  C   UNL A   1      44.603  25.511  33.592  1.00  0.00     0.037 A 
BRANCH  61  75
ATOM     75  C   UNL A   1      48.291  26.437  28.442  1.00  0.00     0.058 A 
ATOM     76  C   UNL A   1      48.777  25.307  27.725  1.00  0.00     0.135 A 
ATOM     77  C   UNL A   1      49.225  27.499  28.394  1.00  0.00     0.135 A 
ATOM     78  F   UNL A   1      47.967  24.346  27.280  1.00  0.00    -0.206 F 
ATOM     79  C   UNL A   1      50.105  25.142  27.279  1.00  0.00     0.059 A 
ATOM     80  C   UNL A   1      50.563  27.371  27.953  1.00  0.00     0.059 A 
ATOM     81  F   UNL A   1      48.845  28.754  28.677  1.00  0.00    -0.206 F 
ATOM     82  C   UNL A   1      51.016  26.166  27.440  1.00  0.00     0.060 A 
BRANCH  82  83
ATOM     83  S   UNL A   1      52.701  25.969  26.806  1.00  0.00     0.124 S 
ATOM     84  O   UNL A   1      52.620  24.690  26.109  1.00  0.00    -0.237 OA
ATOM     85  O   UNL A   1      52.866  27.146  25.958  1.00  0.00    -0.237 OA
ATOM     86  O   UNL A   1      53.518  25.965  28.018  1.00  0.00    -0.744 OA
ENDBRANCH  82  83
ENDBRANCH  61  75
BRANCH  62  87
ATOM     87  C   UNL A   1      39.807  29.430  33.442  1.00  0.00     0.058 A 
ATOM     88  C   UNL A   1      39.427  30.765  33.741  1.00  0.00     0.135 A 
ATOM     89  C   UNL A   1      38.927  28.686  32.642  1.00  0.00     0.135 A 
ATOM     90  F   UNL A   1      40.228  31.522  34.511  1.00  0.00    -0.206 F 
ATOM     91  C   UNL A   1      38.352  31.394  33.111  1.00  0.00     0.059 A 
ATOM     92  C   UNL A   1      37.834  29.297  32.009  1.00  0.00     0.059 A 
ATOM     93  F   UNL A   1      39.236  27.428  32.296  1.00  0.00    -0.206 F 
ATOM     94  C   UNL A   1      37.586  30.662  32.207  1.00  0.00     0.060 A 
BRANCH  94  95
ATOM     95  S   UNL A   1      36.392  31.546  31.153  1.00  0.00     0.124 S 
ATOM     96  O   UNL A   1      35.433  32.039  32.132  1.00  0.00    -0.237 OA
ATOM     97  O   UNL A   1      37.211  32.562  30.503  1.00  0.00    -0.237 OA
ATOM     98  O   UNL A   1      35.909  30.497  30.259  1.00  0.00    -0.744 OA
ENDBRANCH  94  95
ENDBRANCH  62  87
BRANCH  74  99
ATOM     99  C   UNL A   1      45.015  24.214  34.356  1.00  0.00     0.058 A 
ATOM    100  C   UNL A   1      44.798  22.898  33.919  1.00  0.00     0.135 A 
ATOM    101  C   UNL A   1      45.746  24.284  35.584  1.00  0.00     0.135 A 
ATOM    102  F   UNL A   1      44.332  22.635  32.692  1.00  0.00    -0.206 F 
ATOM    103  C   UNL A   1      45.129  21.770  34.690  1.00  0.00     0.059 A 
ATOM    104  C   UNL A   1      46.068  23.183  36.376  1.00  0.00     0.059 A 
ATOM    105  F   UNL A   1      46.261  25.428  36.050  1.00  0.00    -0.206 F 
ATOM    106  C   UNL A   1      45.746  21.922  35.926  1.00  0.00     0.060 A 
BRANCH 106 107
ATOM    107  S   UNL A   1      46.258  20.468  36.858  1.00  0.00     0.124 S 
ATOM    108  O   UNL A   1      45.507  19.406  36.197  1.00  0.00    -0.237 OA
ATOM    109  O   UNL A   1      47.701  20.458  36.635  1.00  0.00    -0.237 OA
ATOM    110  O   UNL A   1      45.845  20.769  38.226  1.00  0.00    -0.744 OA
ENDBRANCH 106 107
ENDBRANCH  74  99
ENDBRANCH  48  49
ENDBRANCH  41  43
ENDBRANCH  40  41
ENDBRANCH  39  40
ENDBRANCH  38  39
ENDBRANCH  37  38
ENDBRANCH  36  37
ENDBRANCH  35  36
ENDBRANCH  34  35
ENDBRANCH   1  34
TORSDOF 27
ENDMDL
MODEL 2
REMARK VINA RESULT:     -10.3      1.756      3.961
REMARK SMILES Cc1ccc(C(=O)NC2CC2)cc1NC(=O)[C@@H]1[C@@H](C(=O)OCCOCCOCCOCCOC(=O)c2ccc(-c3c4nc(c(-c5c(F)cc(S(=O)(=O)[O-])cc5F)c5ccc([nH]5)c(-c5c(F)cc(S(=O)(=O)[O-])cc5F)c5nc(c(-c6c(F)cc(S(=O)(=O)[O-])cc6F)c6ccc3[nH]6)C=C5)C=C4)cc2)[C@H]2C=C[C@@H]1C2
REMARK SMILES IDX 26 1 25 2 24 3 23 4 22 5 21 6 19 7 20 8 18 9 17 10 105 11
REMARK SMILES IDX 102 12 104 13 106 14 103 15 15 16 14 17 16 19 13 20 1 21
REMARK SMILES IDX 2 22 3 23 4 24 12 25 5 26 6 27 7 28 8 29 9 31 10 32 11 33
REMARK SMILES IDX 27 34 28 35 29 36 30 37 31 38 32 39 33 40 34 41 35 42 36 43
REMARK SMILES IDX 37 44 101 45 38 46 100 47 39 48 40 49 41 50 94 51 42 52
REMARK SMILES IDX 99 53 93 54 95 55 43 56 98 57 92 58 91 59 44 61 78 62 57 63
REMARK SMILES IDX 77 64 58 65 61 66 76 67 96 68 59 69 60 70 75 72 97 73 62 74
REMARK SMILES IDX 45 75 46 76 55 77 47 78 48 79 54 80 56 81 49 82 50 83 51 84
REMARK SMILES IDX 52 85 53 86 79 87 80 88 89 89 81 90 82 91 88 92 90 93 83 94
REMARK SMILES IDX 84 95 85 96 86 97 87 98 63 99 64 100 73 101 65 102 66 103
REMARK SMILES IDX 72 104 74 105 67 106 68 107 69 108 70 109 71 110
REMARK H PARENT 14 18 8 30 95 60 61 71
REMARK Flexibility Score: inf
ROOT
ATOM      1  C   UNL A   1      38.320  21.407  25.740  1.00  0.00     0.188 C 
ENDROOT
BRANCH   1   2
ATOM      2  C   UNL A   1      37.684  22.635  25.061  1.00  0.00     0.188 C 
BRANCH   2   3
ATOM      3  O   UNL A   1      36.793  22.311  24.005  1.00  0.00    -0.376 OA
BRANCH   3   4
ATOM      4  C   UNL A   1      35.890  23.314  23.562  1.00  0.00     0.202 C 
BRANCH   4   5
ATOM      5  C   UNL A   1      35.276  24.369  24.515  1.00  0.00     0.261 C 
BRANCH   5   6
ATOM      6  O   UNL A   1      33.959  24.943  24.403  1.00  0.00    -0.463 OA
BRANCH   6   7
ATOM      7  C   UNL A   1      33.509  25.871  25.234  1.00  0.00     0.310 C 
ATOM      8  O   UNL A   1      34.134  26.496  26.093  1.00  0.00    -0.252 OA
BRANCH   7   9
ATOM      9  C   UNL A   1      32.058  26.122  25.223  1.00  0.00     0.119 C 
ATOM     10  C   UNL A   1      31.448  24.710  24.845  1.00  0.00     0.100 C 
ATOM     11  C   UNL A   1      30.341  25.122  23.858  1.00  0.00     0.025 C 
ATOM     12  C   UNL A   1      31.419  27.072  24.208  1.00  0.00     0.027 C 
ATOM     13  C   UNL A   1      31.047  25.504  22.566  1.00  0.00    -0.027 C 
ATOM     14  C   UNL A   1      29.979  26.546  24.308  1.00  0.00     0.017 C 
ATOM     15  C   UNL A   1      31.707  26.652  22.788  1.00  0.00    -0.027 C 
BRANCH  10  16
ATOM     16  C   UNL A   1      31.050  23.918  26.083  1.00  0.00     0.228 C 
ATOM     17  N   UNL A   1      31.518  22.672  26.409  1.00  0.00    -0.326 N 
ATOM     18  H   UNL A   1      31.127  22.357  27.256  1.00  0.00     0.169 HD
ATOM     19  O   UNL A   1      30.192  24.375  26.852  1.00  0.00    -0.274 OA
BRANCH  17  20
ATOM     20  C   UNL A   1      32.409  21.711  25.867  1.00  0.00     0.044 A 
ATOM     21  C   UNL A   1      34.393  22.727  27.153  1.00  0.00     0.046 C 
ATOM     22  C   UNL A   1      33.748  21.680  26.291  1.00  0.00    -0.027 A 
ATOM     23  C   UNL A   1      34.576  20.605  25.903  1.00  0.00     0.006 A 
ATOM     24  C   UNL A   1      34.125  19.611  25.042  1.00  0.00     0.014 A 
ATOM     25  C   UNL A   1      32.048  20.788  24.887  1.00  0.00     0.040 A 
ATOM     26  C   UNL A   1      32.856  19.699  24.481  1.00  0.00     0.041 A 
BRANCH  26  27
ATOM     27  C   UNL A   1      32.508  18.604  23.493  1.00  0.00     0.251 C 
ATOM     28  O   UNL A   1      32.178  18.893  22.342  1.00  0.00    -0.269 OA
ATOM     29  N   UNL A   1      32.607  17.273  23.815  1.00  0.00    -0.349 N 
ATOM     30  H   UNL A   1      32.353  16.620  23.124  1.00  0.00     0.164 HD
BRANCH  29  31
ATOM     31  C   UNL A   1      33.037  16.771  25.047  1.00  0.00     0.082 C 
ATOM     32  C   UNL A   1      32.528  15.399  25.384  1.00  0.00     0.027 C 
ATOM     33  C   UNL A   1      33.997  15.691  25.308  1.00  0.00     0.027 C 
ENDBRANCH  29  31
ENDBRANCH  26  27
ENDBRANCH  17  20
ENDBRANCH  10  16
ENDBRANCH   7   9
ENDBRANCH   6   7
ENDBRANCH   5   6
ENDBRANCH   4   5
ENDBRANCH   3   4
ENDBRANCH   2   3
ENDBRANCH   1   2
BRANCH   1  34
ATOM     34  O   UNL A   1      39.726  21.520  25.983  1.00  0.00    -0.377 OA
BRANCH  34  35
ATOM     35  C   UNL A   1      40.336  20.373  26.534  1.00  0.00     0.188 C 
BRANCH  35  36
ATOM     36  C   UNL A   1      41.825  20.226  26.184  1.00  0.00     0.188 C 
BRANCH  36  37
ATOM     37  O   UNL A   1      42.683  21.346  26.351  1.00  0.00    -0.376 OA
BRANCH  37  38
ATOM     38  C   UNL A   1      43.605  21.610  25.279  1.00  0.00     0.202 C 
BRANCH  38  39
ATOM     39  C   UNL A   1      43.435  22.903  24.440  1.00  0.00     0.261 C 
BRANCH  39  40
ATOM     40  O   UNL A   1      42.483  23.825  24.994  1.00  0.00    -0.460 OA
BRANCH  40  41
ATOM     41  C   UNL A   1      42.846  24.764  25.883  1.00  0.00     0.338 C 
ATOM     42  O   UNL A   1      43.747  24.635  26.720  1.00  0.00    -0.246 OA
BRANCH  41  43
ATOM     43  C   UNL A   1      41.843  25.888  25.817  1.00  0.00     0.060 A 
ATOM     44  C   UNL A   1      42.140  27.047  25.124  1.00  0.00     0.016 A 
ATOM     45  C   UNL A   1      40.857  26.005  26.790  1.00  0.00     0.016 A 
ATOM     46  C   UNL A   1      41.925  28.280  25.769  1.00  0.00     0.010 A 
ATOM     47  C   UNL A   1      40.733  27.215  27.467  1.00  0.00     0.010 A 
ATOM     48  C   UNL A   1      41.609  28.247  27.135  1.00  0.00    -0.014 A 
BRANCH  48  49
ATOM     49  C   UNL A   1      42.774  28.423  28.135  1.00  0.00     0.031 A 
ATOM     50  C   UNL A   1      44.183  27.897  27.879  1.00  0.00     0.074 A 
ATOM     51  C   UNL A   1      42.504  29.303  29.146  1.00  0.00     0.049 A 
ATOM     52  N   UNL A   1      44.913  27.209  28.728  1.00  0.00    -0.248 NA
ATOM     53  C   UNL A   1      44.894  28.124  26.621  1.00  0.00     0.031 C 
ATOM     54  C   UNL A   1      43.218  30.419  29.752  1.00  0.00     0.029 A 
ATOM     55  N   UNL A   1      41.411  29.194  30.007  1.00  0.00    -0.354 N 
ATOM     56  C   UNL A   1      46.208  27.045  28.195  1.00  0.00     0.074 A 
ATOM     57  C   UNL A   1      46.112  27.636  26.878  1.00  0.00     0.031 C 
ATOM     58  C   UNL A   1      42.786  30.629  31.006  1.00  0.00     0.029 A 
ATOM     59  C   UNL A   1      41.790  29.644  31.258  1.00  0.00     0.049 A 
ATOM     60  H   UNL A   1      40.519  28.854  29.765  1.00  0.00     0.167 HD
ATOM     61  C   UNL A   1      47.311  26.575  28.891  1.00  0.00     0.037 A 
ATOM     62  C   UNL A   1      41.290  29.282  32.445  1.00  0.00     0.037 A 
ATOM     63  C   UNL A   1      47.068  26.431  30.353  1.00  0.00     0.049 A 
ATOM     64  C   UNL A   1      42.166  28.187  33.032  1.00  0.00     0.074 A 
ATOM     65  C   UNL A   1      47.841  26.756  31.456  1.00  0.00     0.029 A 
ATOM     66  N   UNL A   1      45.810  26.098  30.904  1.00  0.00    -0.354 N 
ATOM     67  N   UNL A   1      43.234  27.622  32.504  1.00  0.00    -0.248 NA
ATOM     68  C   UNL A   1      41.910  27.744  34.400  1.00  0.00     0.031 C 
ATOM     69  C   UNL A   1      47.053  26.741  32.617  1.00  0.00     0.029 A 
ATOM     70  C   UNL A   1      45.805  26.275  32.277  1.00  0.00     0.049 A 
ATOM     71  H   UNL A   1      45.038  25.782  30.381  1.00  0.00     0.167 HD
ATOM     72  C   UNL A   1      43.723  26.676  33.407  1.00  0.00     0.074 A 
ATOM     73  C   UNL A   1      42.902  26.866  34.589  1.00  0.00     0.031 C 
ATOM     74  C   UNL A   1      44.785  25.822  33.211  1.00  0.00     0.037 A 
BRANCH  61  75
ATOM     75  C   UNL A   1      48.783  26.516  28.261  1.00  0.00     0.058 A 
ATOM     76  C   UNL A   1      49.200  25.626  27.230  1.00  0.00     0.135 A 
ATOM     77  C   UNL A   1      49.845  27.369  28.643  1.00  0.00     0.135 A 
ATOM     78  F   UNL A   1      48.330  25.010  26.428  1.00  0.00    -0.206 F 
ATOM     79  C   UNL A   1      50.537  25.408  26.841  1.00  0.00     0.059 A 
ATOM     80  C   UNL A   1      51.198  27.182  28.271  1.00  0.00     0.059 A 
ATOM     81  F   UNL A   1      49.600  28.502  29.317  1.00  0.00    -0.206 F 
ATOM     82  C   UNL A   1      51.549  26.161  27.404  1.00  0.00     0.060 A 
BRANCH  82  83
ATOM     83  S   UNL A   1      53.256  25.919  26.851  1.00  0.00     0.124 S 
ATOM     84  O   UNL A   1      54.000  26.003  28.102  1.00  0.00    -0.237 OA
ATOM     85  O   UNL A   1      53.208  24.599  26.226  1.00  0.00    -0.237 OA
ATOM     86  O   UNL A   1      53.470  27.029  25.925  1.00  0.00    -0.744 OA
ENDBRANCH  82  83
ENDBRANCH  61  75
BRANCH  62  87
ATOM     87  C   UNL A   1      39.797  29.398  32.367  1.00  0.00     0.058 A 
ATOM     88  C   UNL A   1      39.324  30.734  32.457  1.00  0.00     0.135 A 
ATOM     89  C   UNL A   1      39.018  28.500  31.624  1.00  0.00     0.135 A 
ATOM     90  F   UNL A   1      40.026  31.636  33.165  1.00  0.00    -0.206 F 
ATOM     91  C   UNL A   1      38.262  31.203  31.681  1.00  0.00     0.059 A 
ATOM     92  C   UNL A   1      37.940  28.950  30.847  1.00  0.00     0.059 A 
ATOM     93  F   UNL A   1      39.420  27.229  31.472  1.00  0.00    -0.206 F 
ATOM     94  C   UNL A   1      37.603  30.310  30.841  1.00  0.00     0.060 A 
BRANCH  94  95
ATOM     95  S   UNL A   1      36.439  30.967  29.603  1.00  0.00     0.124 S 
ATOM     96  O   UNL A   1      35.414  31.569  30.445  1.00  0.00    -0.237 OA
ATOM     97  O   UNL A   1      37.258  31.901  28.840  1.00  0.00    -0.237 OA
ATOM     98  O   UNL A   1      36.039  29.772  28.866  1.00  0.00    -0.744 OA
ENDBRANCH  94  95
ENDBRANCH  62  87
BRANCH  74  99
ATOM     99  C   UNL A   1      45.214  24.629  34.121  1.00  0.00     0.058 A 
ATOM    100  C   UNL A   1      45.720  24.731  35.426  1.00  0.00     0.135 A 
ATOM    101  C   UNL A   1      45.044  23.275  33.690  1.00  0.00     0.135 A 
ATOM    102  F   UNL A   1      45.740  25.899  36.082  1.00  0.00    -0.206 F 
ATOM    103  C   UNL A   1      46.157  23.620  36.168  1.00  0.00     0.059 A 
ATOM    104  C   UNL A   1      45.486  22.159  34.397  1.00  0.00     0.059 A 
ATOM    105  F   UNL A   1      44.361  22.954  32.584  1.00  0.00    -0.206 F 
ATOM    106  C   UNL A   1      46.056  22.339  35.638  1.00  0.00     0.060 A 
BRANCH 106 107
ATOM    107  S   UNL A   1      46.524  20.914  36.637  1.00  0.00     0.124 S 
ATOM    108  O   UNL A   1      47.943  21.162  36.867  1.00  0.00    -0.237 OA
ATOM    109  O   UNL A   1      45.656  21.063  37.801  1.00  0.00    -0.237 OA
ATOM    110  O   UNL A   1      46.218  19.773  35.778  1.00  0.00    -0.744 OA
ENDBRANCH 106 107
ENDBRANCH  74  99
ENDBRANCH  48  49
ENDBRANCH  41  43
ENDBRANCH  40  41
ENDBRANCH  39  40
ENDBRANCH  38  39
ENDBRANCH  37  38
ENDBRANCH  36  37
ENDBRANCH  35  36
ENDBRANCH  34  35
ENDBRANCH   1  34
TORSDOF 27
ENDMDL
MODEL 3
REMARK VINA RESULT:      -9.8      1.524      3.605
REMARK SMILES Cc1ccc(C(=O)NC2CC2)cc1NC(=O)[C@@H]1[C@@H](C(=O)OCCOCCOCCOCCOC(=O)c2ccc(-c3c4nc(c(-c5c(F)cc(S(=O)(=O)[O-])cc5F)c5ccc([nH]5)c(-c5c(F)cc(S(=O)(=O)[O-])cc5F)c5nc(c(-c6c(F)cc(S(=O)(=O)[O-])cc6F)c6ccc3[nH]6)C=C5)C=C4)cc2)[C@H]2C=C[C@@H]1C2
REMARK SMILES IDX 26 1 25 2 24 3 23 4 22 5 21 6 19 7 20 8 18 9 17 10 105 11
REMARK SMILES IDX 102 12 104 13 106 14 103 15 15 16 14 17 16 19 13 20 1 21
REMARK SMILES IDX 2 22 3 23 4 24 12 25 5 26 6 27 7 28 8 29 9 31 10 32 11 33
REMARK SMILES IDX 27 34 28 35 29 36 30 37 31 38 32 39 33 40 34 41 35 42 36 43
REMARK SMILES IDX 37 44 101 45 38 46 100 47 39 48 40 49 41 50 94 51 42 52
REMARK SMILES IDX 99 53 93 54 95 55 43 56 98 57 92 58 91 59 44 61 78 62 57 63
REMARK SMILES IDX 77 64 58 65 61 66 76 67 96 68 59 69 60 70 75 72 97 73 62 74
REMARK SMILES IDX 45 75 46 76 55 77 47 78 48 79 54 80 56 81 49 82 50 83 51 84
REMARK SMILES IDX 52 85 53 86 79 87 80 88 89 89 81 90 82 91 88 92 90 93 83 94
REMARK SMILES IDX 84 95 85 96 86 97 87 98 63 99 64 100 73 101 65 102 66 103
REMARK SMILES IDX 72 104 74 105 67 106 68 107 69 108 70 109 71 110
REMARK H PARENT 14 18 8 30 95 60 61 71
REMARK Flexibility Score: inf
ROOT
ATOM      1  C   UNL A   1      39.272  23.410  26.975  1.00  0.00     0.188 C 
ENDROOT
BRANCH   1   2
ATOM      2  C   UNL A   1      38.018  23.819  26.179  1.00  0.00     0.188 C 
BRANCH   2   3
ATOM      3  O   UNL A   1      37.150  22.737  25.877  1.00  0.00    -0.376 OA
BRANCH   3   4
ATOM      4  C   UNL A   1      36.773  22.540  24.522  1.00  0.00     0.202 C 
BRANCH   4   5
ATOM      5  C   UNL A   1      36.572  23.712  23.530  1.00  0.00     0.261 C 
BRANCH   5   6
ATOM      6  O   UNL A   1      35.338  24.421  23.301  1.00  0.00    -0.463 OA
BRANCH   6   7
ATOM      7  C   UNL A   1      34.717  25.105  24.250  1.00  0.00     0.310 C 
ATOM      8  O   UNL A   1      34.996  25.174  25.449  1.00  0.00    -0.252 OA
BRANCH   7   9
ATOM      9  C   UNL A   1      33.469  25.785  23.867  1.00  0.00     0.119 C 
ATOM     10  C   UNL A   1      33.659  26.047  22.317  1.00  0.00     0.100 C 
ATOM     11  C   UNL A   1      33.100  27.475  22.187  1.00  0.00     0.025 C 
ATOM     12  C   UNL A   1      33.109  27.165  24.421  1.00  0.00     0.027 C 
ATOM     13  C   UNL A   1      34.153  28.397  22.783  1.00  0.00    -0.027 C 
ATOM     14  C   UNL A   1      32.090  27.564  23.343  1.00  0.00     0.017 C 
ATOM     15  C   UNL A   1      34.171  28.190  24.109  1.00  0.00    -0.027 C 
BRANCH  10  16
ATOM     16  C   UNL A   1      33.025  24.946  21.477  1.00  0.00     0.228 C 
ATOM     17  N   UNL A   1      32.451  23.805  21.972  1.00  0.00    -0.326 N 
ATOM     18  H   UNL A   1      32.102  23.240  21.244  1.00  0.00     0.169 HD
ATOM     19  O   UNL A   1      33.063  25.022  20.240  1.00  0.00    -0.274 OA
BRANCH  17  20
ATOM     20  C   UNL A   1      32.218  23.211  23.239  1.00  0.00     0.044 A 
ATOM     21  C   UNL A   1      30.024  24.525  23.525  1.00  0.00     0.046 C 
ATOM     22  C   UNL A   1      31.026  23.481  23.930  1.00  0.00    -0.027 A 
ATOM     23  C   UNL A   1      30.710  22.740  25.089  1.00  0.00     0.006 A 
ATOM     24  C   UNL A   1      31.589  21.800  25.615  1.00  0.00     0.014 A 
ATOM     25  C   UNL A   1      33.133  22.380  23.882  1.00  0.00     0.040 A 
ATOM     26  C   UNL A   1      32.843  21.623  25.042  1.00  0.00     0.041 A 
BRANCH  26  27
ATOM     27  C   UNL A   1      33.745  20.633  25.752  1.00  0.00     0.251 C 
ATOM     28  O   UNL A   1      34.342  20.966  26.776  1.00  0.00    -0.269 OA
ATOM     29  N   UNL A   1      33.878  19.334  25.327  1.00  0.00    -0.349 N 
ATOM     30  H   UNL A   1      34.491  18.753  25.833  1.00  0.00     0.164 HD
BRANCH  29  31
ATOM     31  C   UNL A   1      33.216  18.771  24.232  1.00  0.00     0.082 C 
ATOM     32  C   UNL A   1      33.824  17.503  23.708  1.00  0.00     0.027 C 
ATOM     33  C   UNL A   1      32.403  17.550  24.186  1.00  0.00     0.027 C 
ENDBRANCH  29  31
ENDBRANCH  26  27
ENDBRANCH  17  20
ENDBRANCH  10  16
ENDBRANCH   7   9
ENDBRANCH   6   7
ENDBRANCH   5   6
ENDBRANCH   4   5
ENDBRANCH   3   4
ENDBRANCH   2   3
ENDBRANCH   1   2
BRANCH   1  34
ATOM     34  O   UNL A   1      40.313  22.820  26.187  1.00  0.00    -0.377 OA
BRANCH  34  35
ATOM     35  C   UNL A   1      40.960  21.713  26.775  1.00  0.00     0.188 C 
BRANCH  35  36
ATOM     36  C   UNL A   1      42.255  21.294  26.063  1.00  0.00     0.188 C 
BRANCH  36  37
ATOM     37  O   UNL A   1      43.448  22.019  26.326  1.00  0.00    -0.376 OA
BRANCH  37  38
ATOM     38  C   UNL A   1      43.483  22.769  27.553  1.00  0.00     0.202 C 
BRANCH  38  39
ATOM     39  C   UNL A   1      43.717  24.301  27.494  1.00  0.00     0.261 C 
BRANCH  39  40
ATOM     40  O   UNL A   1      42.553  25.043  27.099  1.00  0.00    -0.460 OA
BRANCH  40  41
ATOM     41  C   UNL A   1      42.419  25.539  25.857  1.00  0.00     0.338 C 
ATOM     42  O   UNL A   1      43.080  25.178  24.877  1.00  0.00    -0.246 OA
BRANCH  41  43
ATOM     43  C   UNL A   1      41.493  26.727  25.921  1.00  0.00     0.060 A 
ATOM     44  C   UNL A   1      41.855  27.926  25.334  1.00  0.00     0.016 A 
ATOM     45  C   UNL A   1      40.534  26.814  26.924  1.00  0.00     0.016 A 
ATOM     46  C   UNL A   1      41.735  29.102  26.098  1.00  0.00     0.010 A 
ATOM     47  C   UNL A   1      40.505  27.959  27.716  1.00  0.00     0.010 A 
ATOM     48  C   UNL A   1      41.442  28.959  27.462  1.00  0.00    -0.014 A 
BRANCH  48  49
ATOM     49  C   UNL A   1      42.634  28.961  28.445  1.00  0.00     0.031 A 
ATOM     50  C   UNL A   1      44.010  28.403  28.095  1.00  0.00     0.074 A 
ATOM     51  C   UNL A   1      42.428  29.730  29.558  1.00  0.00     0.049 A 
ATOM     52  N   UNL A   1      44.721  27.587  28.840  1.00  0.00    -0.248 NA
ATOM     53  C   UNL A   1      44.706  28.741  26.853  1.00  0.00     0.031 C 
ATOM     54  C   UNL A   1      43.210  30.732  30.271  1.00  0.00     0.029 A 
ATOM     55  N   UNL A   1      41.349  29.573  30.428  1.00  0.00    -0.354 N 
ATOM     56  C   UNL A   1      45.996  27.424  28.259  1.00  0.00     0.074 A 
ATOM     57  C   UNL A   1      45.903  28.169  27.022  1.00  0.00     0.031 C 
ATOM     58  C   UNL A   1      42.813  30.815  31.551  1.00  0.00     0.029 A 
ATOM     59  C   UNL A   1      41.775  29.855  31.713  1.00  0.00     0.049 A 
ATOM     60  H   UNL A   1      40.436  29.306  30.171  1.00  0.00     0.167 HD
ATOM     61  C   UNL A   1      47.087  26.825  28.867  1.00  0.00     0.037 A 
ATOM     62  C   UNL A   1      41.280  29.382  32.863  1.00  0.00     0.037 A 
ATOM     63  C   UNL A   1      46.866  26.523  30.308  1.00  0.00     0.049 A 
ATOM     64  C   UNL A   1      42.111  28.185  33.296  1.00  0.00     0.074 A 
ATOM     65  C   UNL A   1      47.675  26.680  31.421  1.00  0.00     0.029 A 
ATOM     66  N   UNL A   1      45.604  26.188  30.849  1.00  0.00    -0.354 N 
ATOM     67  N   UNL A   1      43.140  27.635  32.680  1.00  0.00    -0.248 NA
ATOM     68  C   UNL A   1      41.861  27.598  34.610  1.00  0.00     0.031 C 
ATOM     69  C   UNL A   1      46.912  26.567  32.593  1.00  0.00     0.029 A 
ATOM     70  C   UNL A   1      45.635  26.203  32.233  1.00  0.00     0.049 A 
ATOM     71  H   UNL A   1      44.807  25.972  30.312  1.00  0.00     0.167 HD
ATOM     72  C   UNL A   1      43.598  26.569  33.454  1.00  0.00     0.074 A 
ATOM     73  C   UNL A   1      42.811  26.658  34.671  1.00  0.00     0.031 C 
ATOM     74  C   UNL A   1      44.612  25.694  33.134  1.00  0.00     0.037 A 
BRANCH  61  75
ATOM     75  C   UNL A   1      48.542  26.769  28.197  1.00  0.00     0.058 A 
ATOM     76  C   UNL A   1      49.316  27.903  27.821  1.00  0.00     0.135 A 
ATOM     77  C   UNL A   1      49.244  25.572  27.923  1.00  0.00     0.135 A 
ATOM     78  F   UNL A   1      49.082  29.120  28.317  1.00  0.00    -0.206 F 
ATOM     79  C   UNL A   1      50.479  27.862  27.025  1.00  0.00     0.059 A 
ATOM     80  C   UNL A   1      50.414  25.492  27.130  1.00  0.00     0.059 A 
ATOM     81  F   UNL A   1      48.884  24.421  28.509  1.00  0.00    -0.206 F 
ATOM     82  C   UNL A   1      51.003  26.645  26.637  1.00  0.00     0.060 A 
BRANCH  82  83
ATOM     83  S   UNL A   1      52.533  26.600  25.669  1.00  0.00     0.124 S 
ATOM     84  O   UNL A   1      52.124  27.227  24.417  1.00  0.00    -0.237 OA
ATOM     85  O   UNL A   1      53.458  27.371  26.494  1.00  0.00    -0.237 OA
ATOM     86  O   UNL A   1      52.832  25.172  25.580  1.00  0.00    -0.744 OA
ENDBRANCH  82  83
ENDBRANCH  61  75
BRANCH  62  87
ATOM     87  C   UNL A   1      39.794  29.577  32.836  1.00  0.00     0.058 A 
ATOM     88  C   UNL A   1      39.396  30.938  32.912  1.00  0.00     0.135 A 
ATOM     89  C   UNL A   1      38.941  28.706  32.143  1.00  0.00     0.135 A 
ATOM     90  F   UNL A   1      40.172  31.816  33.572  1.00  0.00    -0.206 F 
ATOM     91  C   UNL A   1      38.333  31.447  32.165  1.00  0.00     0.059 A 
ATOM     92  C   UNL A   1      37.860  29.197  31.396  1.00  0.00     0.059 A 
ATOM     93  F   UNL A   1      39.268  27.413  32.007  1.00  0.00    -0.206 F 
ATOM     94  C   UNL A   1      37.596  30.574  31.370  1.00  0.00     0.060 A 
BRANCH  94  95
ATOM     95  S   UNL A   1      36.423  31.266  30.161  1.00  0.00     0.124 S 
ATOM     96  O   UNL A   1      35.390  31.819  31.027  1.00  0.00    -0.237 OA
ATOM     97  O   UNL A   1      37.229  32.242  29.438  1.00  0.00    -0.237 OA
ATOM     98  O   UNL A   1      36.038  30.098  29.375  1.00  0.00    -0.744 OA
ENDBRANCH  94  95
ENDBRANCH  62  87
BRANCH  74  99
ATOM     99  C   UNL A   1      44.999  24.383  33.889  1.00  0.00     0.058 A 
ATOM    100  C   UNL A   1      44.852  23.078  33.396  1.00  0.00     0.135 A 
ATOM    101  C   UNL A   1      45.629  24.430  35.172  1.00  0.00     0.135 A 
ATOM    102  F   UNL A   1      44.489  22.843  32.128  1.00  0.00    -0.206 F 
ATOM    103  C   UNL A   1      45.151  21.933  34.155  1.00  0.00     0.059 A 
ATOM    104  C   UNL A   1      45.919  23.312  35.952  1.00  0.00     0.059 A 
ATOM    105  F   UNL A   1      46.077  25.571  35.712  1.00  0.00    -0.206 F 
ATOM    106  C   UNL A   1      45.666  22.059  35.440  1.00  0.00     0.060 A 
BRANCH 106 107
ATOM    107  S   UNL A   1      46.143  20.588  36.364  1.00  0.00     0.124 S 
ATOM    108  O   UNL A   1      47.573  20.509  36.087  1.00  0.00    -0.237 OA
ATOM    109  O   UNL A   1      45.780  20.958  37.730  1.00  0.00    -0.237 OA
ATOM    110  O   UNL A   1      45.330  19.529  35.774  1.00  0.00    -0.744 OA
ENDBRANCH 106 107
ENDBRANCH  74  99
ENDBRANCH  48  49
ENDBRANCH  41  43
ENDBRANCH  40  41
ENDBRANCH  39  40
ENDBRANCH  38  39
ENDBRANCH  37  38
ENDBRANCH  36  37
ENDBRANCH  35  36
ENDBRANCH  34  35
ENDBRANCH   1  34
TORSDOF 27
ENDMDL
