MODEL 1
REMARK VINA RESULT:      -7.8      0.000      0.000
REMARK SMILES Cc1ccc(OCCNc2ccc(Cl)cc2C(=O)OCCOCCOCCOCCOC(=O)c2ccc(-c3c4nc(c(-c5c(F)cc(S(=O)(=O)[O-])cc5F)c5ccc([nH]5)c(-c5c(F)cc(S(=O)(=O)[O-])cc5F)c5nc(c(-c6c(F)cc(S(=O)(=O)[O-])cc6F)c6ccc3[nH]6)C=C5)C=C4)cc2)cc1C
REMARK SMILES IDX 24 1 23 2 22 3 21 4 20 5 19 6 17 7 18 8 16 9 10 10 11 11
REMARK SMILES IDX 12 12 15 13 13 14 14 15 9 16 8 18 7 19 6 20 5 21 1 22 2 23
REMARK SMILES IDX 3 24 101 25 4 26 100 27 102 28 25 29 26 30 27 31 28 32 29 33
REMARK SMILES IDX 30 34 31 35 32 36 33 37 34 38 35 39 99 40 36 41 98 42 37 43
REMARK SMILES IDX 38 44 39 45 92 46 40 47 97 48 91 49 93 50 41 51 96 52 90 53
REMARK SMILES IDX 89 54 42 56 76 57 55 58 75 59 56 60 59 61 74 62 94 63 57 64
REMARK SMILES IDX 58 65 73 67 95 68 60 69 43 70 44 71 53 72 45 73 46 74 52 75
REMARK SMILES IDX 54 76 47 77 48 78 49 79 50 80 51 81 77 82 78 83 87 84 79 85
REMARK SMILES IDX 80 86 86 87 88 88 81 89 82 90 83 91 84 92 85 93 61 94 62 95
REMARK SMILES IDX 71 96 63 97 64 98 70 99 72 100 65 101 66 102 67 103 68 104
REMARK SMILES IDX 69 105
REMARK H PARENT 9 17 93 55 59 66
REMARK Flexibility Score: inf
ROOT
ATOM      1  C   UNL A   1      41.974  34.322  28.807  1.00  0.00     0.188 C 
ENDROOT
BRANCH   1   2
ATOM      2  C   UNL A   1      43.005  35.399  28.387  1.00  0.00     0.188 C 
BRANCH   2   3
ATOM      3  O   UNL A   1      43.835  35.991  29.366  1.00  0.00    -0.376 OA
BRANCH   3   4
ATOM      4  C   UNL A   1      43.498  37.176  30.059  1.00  0.00     0.202 C 
BRANCH   4   5
ATOM      5  C   UNL A   1      43.688  38.578  29.478  1.00  0.00     0.261 C 
BRANCH   5   6
ATOM      6  O   UNL A   1      44.770  38.722  28.545  1.00  0.00    -0.460 OA
BRANCH   6   7
ATOM      7  C   UNL A   1      44.480  39.228  27.320  1.00  0.00     0.340 C 
ATOM      8  O   UNL A   1      43.677  38.754  26.529  1.00  0.00    -0.246 OA
BRANCH   7   9
ATOM      9  C   UNL A   1      45.040  40.600  27.135  1.00  0.00     0.084 A 
ATOM     10  C   UNL A   1      44.378  41.762  26.641  1.00  0.00     0.049 A 
ATOM     11  C   UNL A   1      45.092  42.972  26.697  1.00  0.00     0.028 A 
ATOM     12  C   UNL A   1      46.408  43.037  27.164  1.00  0.00     0.022 A 
ATOM     13  C   UNL A   1      46.379  40.668  27.568  1.00  0.00     0.038 A 
ATOM     14  C   UNL A   1      47.052  41.880  27.580  1.00  0.00     0.042 A 
ATOM     15  Cl  UNL A   1      48.672  41.948  28.150  1.00  0.00    -0.084 Cl
BRANCH  10  16
ATOM     16  N   UNL A   1      43.030  41.849  26.338  1.00  0.00    -0.381 N 
ATOM     17  H   UNL A   1      42.443  42.208  27.042  1.00  0.00     0.160 HD
BRANCH  16  18
ATOM     18  C   UNL A   1      42.376  41.460  25.068  1.00  0.00     0.154 C 
BRANCH  18  19
ATOM     19  C   UNL A   1      42.606  42.446  23.880  1.00  0.00     0.250 C 
BRANCH  19  20
ATOM     20  O   UNL A   1      42.139  42.042  22.563  1.00  0.00    -0.492 OA
BRANCH  20  21
ATOM     21  C   UNL A   1      42.414  42.854  21.498  1.00  0.00     0.119 A 
ATOM     22  C   UNL A   1      43.420  45.665  18.365  1.00  0.00     0.044 C 
ATOM     23  C   UNL A   1      43.056  44.569  19.322  1.00  0.00    -0.048 A 
ATOM     24  C   UNL A   1      43.982  44.289  20.299  1.00  0.00     0.007 A 
ATOM     25  C   UNL A   1      41.822  43.893  19.365  1.00  0.00    -0.045 A 
ATOM     26  C   UNL A   1      43.595  43.543  21.392  1.00  0.00     0.047 A 
ATOM     27  C   UNL A   1      41.534  42.989  20.431  1.00  0.00     0.050 A 
ATOM     28  C   UNL A   1      40.802  44.091  18.282  1.00  0.00     0.045 C 
ENDBRANCH  20  21
ENDBRANCH  19  20
ENDBRANCH  18  19
ENDBRANCH  16  18
ENDBRANCH  10  16
ENDBRANCH   7   9
ENDBRANCH   6   7
ENDBRANCH   5   6
ENDBRANCH   4   5
ENDBRANCH   3   4
ENDBRANCH   2   3
ENDBRANCH   1   2
BRANCH   1  29
ATOM     29  O   UNL A   1      40.973  34.645  29.753  1.00  0.00    -0.377 OA
BRANCH  29  30
ATOM     30  C   UNL A   1      39.703  34.962  29.216  1.00  0.00     0.188 C 
BRANCH  30  31
ATOM     31  C   UNL A   1      38.591  33.995  29.663  1.00  0.00     0.188 C 
BRANCH  31  32
ATOM     32  O   UNL A   1      37.266  34.438  29.928  1.00  0.00    -0.376 OA
BRANCH  32  33
ATOM     33  C   UNL A   1      36.152  33.838  29.291  1.00  0.00     0.202 C 
BRANCH  33  34
ATOM     34  C   UNL A   1      35.461  32.593  29.883  1.00  0.00     0.261 C 
BRANCH  34  35
ATOM     35  O   UNL A   1      34.378  32.024  29.140  1.00  0.00    -0.460 OA
BRANCH  35  36
ATOM     36  C   UNL A   1      34.745  31.293  28.060  1.00  0.00     0.338 C 
ATOM     37  O   UNL A   1      34.242  31.305  26.957  1.00  0.00    -0.246 OA
BRANCH  36  38
ATOM     38  C   UNL A   1      35.980  30.551  28.395  1.00  0.00     0.060 A 
ATOM     39  C   UNL A   1      35.965  29.693  29.502  1.00  0.00     0.016 A 
ATOM     40  C   UNL A   1      37.154  30.745  27.664  1.00  0.00     0.016 A 
ATOM     41  C   UNL A   1      37.130  29.047  29.902  1.00  0.00     0.010 A 
ATOM     42  C   UNL A   1      38.332  30.125  28.088  1.00  0.00     0.010 A 
ATOM     43  C   UNL A   1      38.330  29.305  29.230  1.00  0.00    -0.014 A 
BRANCH  43  44
ATOM     44  C   UNL A   1      39.606  28.895  29.861  1.00  0.00     0.031 A 
ATOM     45  C   UNL A   1      40.056  29.634  31.093  1.00  0.00     0.074 A 
ATOM     46  C   UNL A   1      40.320  27.864  29.379  1.00  0.00     0.049 A 
ATOM     47  N   UNL A   1      41.152  29.492  31.791  1.00  0.00    -0.248 NA
ATOM     48  C   UNL A   1      39.149  30.675  31.603  1.00  0.00     0.031 C 
ATOM     49  C   UNL A   1      39.951  27.045  28.225  1.00  0.00     0.029 A 
ATOM     50  N   UNL A   1      41.514  27.337  29.800  1.00  0.00    -0.354 N 
ATOM     51  C   UNL A   1      41.071  30.432  32.813  1.00  0.00     0.074 A 
ATOM     52  C   UNL A   1      39.835  31.158  32.627  1.00  0.00     0.031 C 
ATOM     53  C   UNL A   1      40.911  26.126  28.021  1.00  0.00     0.029 A 
ATOM     54  C   UNL A   1      41.976  26.315  29.005  1.00  0.00     0.049 A 
ATOM     55  H   UNL A   1      41.994  27.659  30.597  1.00  0.00     0.167 HD
ATOM     56  C   UNL A   1      41.947  30.663  33.818  1.00  0.00     0.037 A 
ATOM     57  C   UNL A   1      43.139  25.636  29.053  1.00  0.00     0.037 A 
ATOM     58  C   UNL A   1      43.173  29.928  33.994  1.00  0.00     0.049 A 
ATOM     59  C   UNL A   1      44.133  25.960  30.140  1.00  0.00     0.074 A 
ATOM     60  C   UNL A   1      44.125  30.071  34.987  1.00  0.00     0.029 A 
ATOM     61  N   UNL A   1      43.621  28.920  33.153  1.00  0.00    -0.354 N 
ATOM     62  N   UNL A   1      44.042  26.839  31.110  1.00  0.00    -0.248 NA
ATOM     63  C   UNL A   1      45.389  25.197  30.141  1.00  0.00     0.031 C 
ATOM     64  C   UNL A   1      45.177  29.192  34.713  1.00  0.00     0.029 A 
ATOM     65  C   UNL A   1      44.849  28.452  33.588  1.00  0.00     0.049 A 
ATOM     66  H   UNL A   1      43.137  28.587  32.363  1.00  0.00     0.167 HD
ATOM     67  C   UNL A   1      45.211  26.712  31.855  1.00  0.00     0.074 A 
ATOM     68  C   UNL A   1      45.989  25.663  31.228  1.00  0.00     0.031 C 
ATOM     69  C   UNL A   1      45.606  27.397  32.957  1.00  0.00     0.037 A 
BRANCH  56  70
ATOM     70  C   UNL A   1      41.631  31.770  34.785  1.00  0.00     0.058 A 
ATOM     71  C   UNL A   1      40.799  31.574  35.898  1.00  0.00     0.135 A 
ATOM     72  C   UNL A   1      42.207  33.041  34.617  1.00  0.00     0.135 A 
ATOM     73  F   UNL A   1      40.204  30.386  36.096  1.00  0.00    -0.206 F 
ATOM     74  C   UNL A   1      40.533  32.601  36.799  1.00  0.00     0.059 A 
ATOM     75  C   UNL A   1      41.981  34.073  35.522  1.00  0.00     0.059 A 
ATOM     76  F   UNL A   1      43.006  33.287  33.567  1.00  0.00    -0.206 F 
ATOM     77  C   UNL A   1      41.133  33.847  36.605  1.00  0.00     0.060 A 
BRANCH  77  78
ATOM     78  S   UNL A   1      40.797  35.160  37.796  1.00  0.00     0.124 S 
ATOM     79  O   UNL A   1      42.125  35.396  38.354  1.00  0.00    -0.237 OA
ATOM     80  O   UNL A   1      40.269  36.223  36.945  1.00  0.00    -0.237 OA
ATOM     81  O   UNL A   1      39.833  34.554  38.708  1.00  0.00    -0.744 OA
ENDBRANCH  77  78
ENDBRANCH  56  70
BRANCH  57  82
ATOM     82  C   UNL A   1      43.438  24.597  28.031  1.00  0.00     0.058 A 
ATOM     83  C   UNL A   1      43.044  23.262  28.212  1.00  0.00     0.135 A 
ATOM     84  C   UNL A   1      44.134  24.915  26.853  1.00  0.00     0.135 A 
ATOM     85  F   UNL A   1      42.386  22.903  29.325  1.00  0.00    -0.206 F 
ATOM     86  C   UNL A   1      43.346  22.278  27.277  1.00  0.00     0.059 A 
ATOM     87  C   UNL A   1      44.420  23.956  25.888  1.00  0.00     0.059 A 
ATOM     88  F   UNL A   1      44.528  26.178  26.625  1.00  0.00    -0.206 F 
ATOM     89  C   UNL A   1      44.032  22.637  26.114  1.00  0.00     0.060 A 
BRANCH  89  90
ATOM     90  S   UNL A   1      44.385  21.357  24.891  1.00  0.00     0.124 S 
ATOM     91  O   UNL A   1      45.765  21.015  25.211  1.00  0.00    -0.237 OA
ATOM     92  O   UNL A   1      43.385  20.344  25.213  1.00  0.00    -0.237 OA
ATOM     93  O   UNL A   1      44.184  22.044  23.618  1.00  0.00    -0.744 OA
ENDBRANCH  89  90
ENDBRANCH  57  82
BRANCH  69  94
ATOM     94  C   UNL A   1      46.915  27.008  33.591  1.00  0.00     0.058 A 
ATOM     95  C   UNL A   1      47.000  25.996  34.561  1.00  0.00     0.135 A 
ATOM     96  C   UNL A   1      48.112  27.617  33.175  1.00  0.00     0.135 A 
ATOM     97  F   UNL A   1      45.888  25.384  34.998  1.00  0.00    -0.206 F 
ATOM     98  C   UNL A   1      48.220  25.622  35.115  1.00  0.00     0.059 A 
ATOM     99  C   UNL A   1      49.345  27.233  33.690  1.00  0.00     0.059 A 
ATOM    100  F   UNL A   1      48.090  28.581  32.240  1.00  0.00    -0.206 F 
ATOM    101  C   UNL A   1      49.389  26.243  34.669  1.00  0.00     0.060 A 
BRANCH 101 102
ATOM    102  S   UNL A   1      50.967  25.722  35.372  1.00  0.00     0.124 S 
ATOM    103  O   UNL A   1      50.534  24.949  36.530  1.00  0.00    -0.237 OA
ATOM    104  O   UNL A   1      51.556  24.952  34.279  1.00  0.00    -0.237 OA
ATOM    105  O   UNL A   1      51.639  26.983  35.674  1.00  0.00    -0.744 OA
ENDBRANCH 101 102
ENDBRANCH  69  94
ENDBRANCH  43  44
ENDBRANCH  36  38
ENDBRANCH  35  36
ENDBRANCH  34  35
ENDBRANCH  33  34
ENDBRANCH  32  33
ENDBRANCH  31  32
ENDBRANCH  30  31
ENDBRANCH  29  30
ENDBRANCH   1  29
TORSDOF 28
ENDMDL
MODEL 2
REMARK VINA RESULT:      -7.8      4.247     10.064
REMARK SMILES Cc1ccc(OCCNc2ccc(Cl)cc2C(=O)OCCOCCOCCOCCOC(=O)c2ccc(-c3c4nc(c(-c5c(F)cc(S(=O)(=O)[O-])cc5F)c5ccc([nH]5)c(-c5c(F)cc(S(=O)(=O)[O-])cc5F)c5nc(c(-c6c(F)cc(S(=O)(=O)[O-])cc6F)c6ccc3[nH]6)C=C5)C=C4)cc2)cc1C
REMARK SMILES IDX 24 1 23 2 22 3 21 4 20 5 19 6 17 7 18 8 16 9 10 10 11 11
REMARK SMILES IDX 12 12 15 13 13 14 14 15 9 16 8 18 7 19 6 20 5 21 1 22 2 23
REMARK SMILES IDX 3 24 101 25 4 26 100 27 102 28 25 29 26 30 27 31 28 32 29 33
REMARK SMILES IDX 30 34 31 35 32 36 33 37 34 38 35 39 99 40 36 41 98 42 37 43
REMARK SMILES IDX 38 44 39 45 92 46 40 47 97 48 91 49 93 50 41 51 96 52 90 53
REMARK SMILES IDX 89 54 42 56 76 57 55 58 75 59 56 60 59 61 74 62 94 63 57 64
REMARK SMILES IDX 58 65 73 67 95 68 60 69 43 70 44 71 53 72 45 73 46 74 52 75
REMARK SMILES IDX 54 76 47 77 48 78 49 79 50 80 51 81 77 82 78 83 87 84 79 85
REMARK SMILES IDX 80 86 86 87 88 88 81 89 82 90 83 91 84 92 85 93 61 94 62 95
REMARK SMILES IDX 71 96 63 97 64 98 70 99 72 100 65 101 66 102 67 103 68 104
REMARK SMILES IDX 69 105
REMARK H PARENT 9 17 93 55 59 66
REMARK Flexibility Score: inf
ROOT
ATOM      1  C   UNL A   1      45.309  31.374  26.528  1.00  0.00     0.188 C 
ENDROOT
BRANCH   1   2
ATOM      2  C   UNL A   1      44.182  32.340  26.970  1.00  0.00     0.188 C 
BRANCH   2   3
ATOM      3  O   UNL A   1      44.344  33.117  28.138  1.00  0.00    -0.376 OA
BRANCH   3   4
ATOM      4  C   UNL A   1      43.261  33.637  28.884  1.00  0.00     0.202 C 
BRANCH   4   5
ATOM      5  C   UNL A   1      42.684  35.038  28.673  1.00  0.00     0.261 C 
BRANCH   5   6
ATOM      6  O   UNL A   1      43.650  36.092  28.532  1.00  0.00    -0.460 OA
BRANCH   6   7
ATOM      7  C   UNL A   1      43.264  37.347  28.875  1.00  0.00     0.340 C 
ATOM      8  O   UNL A   1      42.261  37.916  28.470  1.00  0.00    -0.246 OA
BRANCH   7   9
ATOM      9  C   UNL A   1      44.047  37.875  30.032  1.00  0.00     0.084 A 
ATOM     10  C   UNL A   1      44.652  39.158  30.174  1.00  0.00     0.049 A 
ATOM     11  C   UNL A   1      45.216  39.460  31.426  1.00  0.00     0.028 A 
ATOM     12  C   UNL A   1      45.236  38.534  32.474  1.00  0.00     0.022 A 
ATOM     13  C   UNL A   1      44.106  36.936  31.081  1.00  0.00     0.038 A 
ATOM     14  C   UNL A   1      44.697  37.269  32.289  1.00  0.00     0.042 A 
ATOM     15  Cl  UNL A   1      44.724  36.123  33.569  1.00  0.00    -0.084 Cl
BRANCH  10  16
ATOM     16  N   UNL A   1      44.523  40.208  29.280  1.00  0.00    -0.381 N 
ATOM     17  H   UNL A   1      45.258  40.331  28.638  1.00  0.00     0.160 HD
BRANCH  16  18
ATOM     18  C   UNL A   1      43.397  41.166  29.189  1.00  0.00     0.154 C 
BRANCH  18  19
ATOM     19  C   UNL A   1      42.264  40.952  30.241  1.00  0.00     0.250 C 
BRANCH  19  20
ATOM     20  O   UNL A   1      41.950  42.057  31.134  1.00  0.00    -0.492 OA
BRANCH  20  21
ATOM     21  C   UNL A   1      42.733  42.243  32.238  1.00  0.00     0.119 A 
ATOM     22  C   UNL A   1      44.937  42.712  35.933  1.00  0.00     0.044 C 
ATOM     23  C   UNL A   1      44.331  42.564  34.569  1.00  0.00    -0.048 A 
ATOM     24  C   UNL A   1      43.639  41.397  34.340  1.00  0.00     0.007 A 
ATOM     25  C   UNL A   1      44.320  43.550  33.564  1.00  0.00    -0.045 A 
ATOM     26  C   UNL A   1      42.791  41.325  33.255  1.00  0.00     0.047 A 
ATOM     27  C   UNL A   1      43.561  43.351  32.371  1.00  0.00     0.050 A 
ATOM     28  C   UNL A   1      45.122  44.808  33.717  1.00  0.00     0.045 C 
ENDBRANCH  20  21
ENDBRANCH  19  20
ENDBRANCH  18  19
ENDBRANCH  16  18
ENDBRANCH  10  16
ENDBRANCH   7   9
ENDBRANCH   6   7
ENDBRANCH   5   6
ENDBRANCH   4   5
ENDBRANCH   3   4
ENDBRANCH   2   3
ENDBRANCH   1   2
BRANCH   1  29
ATOM     29  O   UNL A   1      45.345  30.059  27.048  1.00  0.00    -0.377 OA
BRANCH  29  30
ATOM     30  C   UNL A   1      46.187  29.152  26.363  1.00  0.00     0.188 C 
BRANCH  30  31
ATOM     31  C   UNL A   1      46.405  27.829  27.118  1.00  0.00     0.188 C 
BRANCH  31  32
ATOM     32  O   UNL A   1      46.761  26.626  26.448  1.00  0.00    -0.376 OA
BRANCH  32  33
ATOM     33  C   UNL A   1      45.837  25.951  25.613  1.00  0.00     0.202 C 
BRANCH  33  34
ATOM     34  C   UNL A   1      45.276  24.565  25.990  1.00  0.00     0.261 C 
BRANCH  34  35
ATOM     35  O   UNL A   1      44.247  24.516  26.982  1.00  0.00    -0.460 OA
BRANCH  35  36
ATOM     36  C   UNL A   1      42.999  24.781  26.526  1.00  0.00     0.338 C 
ATOM     37  O   UNL A   1      42.404  24.212  25.636  1.00  0.00    -0.246 OA
BRANCH  36  38
ATOM     38  C   UNL A   1      42.391  25.812  27.395  1.00  0.00     0.060 A 
ATOM     39  C   UNL A   1      42.808  27.141  27.246  1.00  0.00     0.016 A 
ATOM     40  C   UNL A   1      41.469  25.464  28.384  1.00  0.00     0.016 A 
ATOM     41  C   UNL A   1      42.327  28.124  28.103  1.00  0.00     0.010 A 
ATOM     42  C   UNL A   1      41.014  26.446  29.268  1.00  0.00     0.010 A 
ATOM     43  C   UNL A   1      41.473  27.771  29.153  1.00  0.00    -0.014 A 
BRANCH  43  44
ATOM     44  C   UNL A   1      41.245  28.740  30.249  1.00  0.00     0.031 A 
ATOM     45  C   UNL A   1      42.154  28.680  31.447  1.00  0.00     0.074 A 
ATOM     46  C   UNL A   1      40.288  29.679  30.160  1.00  0.00     0.049 A 
ATOM     47  N   UNL A   1      42.125  29.386  32.547  1.00  0.00    -0.248 NA
ATOM     48  C   UNL A   1      43.239  27.686  31.400  1.00  0.00     0.031 C 
ATOM     49  C   UNL A   1      39.387  29.863  29.023  1.00  0.00     0.029 A 
ATOM     50  N   UNL A   1      39.911  30.651  31.052  1.00  0.00    -0.354 N 
ATOM     51  C   UNL A   1      43.177  28.915  33.325  1.00  0.00     0.074 A 
ATOM     52  C   UNL A   1      43.806  27.843  32.587  1.00  0.00     0.031 C 
ATOM     53  C   UNL A   1      38.548  30.879  29.294  1.00  0.00     0.029 A 
ATOM     54  C   UNL A   1      38.830  31.390  30.635  1.00  0.00     0.049 A 
ATOM     55  H   UNL A   1      40.371  30.804  31.908  1.00  0.00     0.167 HD
ATOM     56  C   UNL A   1      43.583  29.342  34.544  1.00  0.00     0.037 A 
ATOM     57  C   UNL A   1      38.133  32.348  31.279  1.00  0.00     0.037 A 
ATOM     58  C   UNL A   1      42.949  30.414  35.267  1.00  0.00     0.049 A 
ATOM     59  C   UNL A   1      38.560  32.758  32.666  1.00  0.00     0.074 A 
ATOM     60  C   UNL A   1      43.291  30.936  36.501  1.00  0.00     0.029 A 
ATOM     61  N   UNL A   1      41.840  31.120  34.825  1.00  0.00    -0.354 N 
ATOM     62  N   UNL A   1      39.564  32.317  33.387  1.00  0.00    -0.248 NA
ATOM     63  C   UNL A   1      37.761  33.799  33.328  1.00  0.00     0.031 C 
ATOM     64  C   UNL A   1      42.352  31.917  36.833  1.00  0.00     0.029 A 
ATOM     65  C   UNL A   1      41.466  32.055  35.776  1.00  0.00     0.049 A 
ATOM     66  H   UNL A   1      41.386  30.978  33.964  1.00  0.00     0.167 HD
ATOM     67  C   UNL A   1      39.537  33.049  34.571  1.00  0.00     0.074 A 
ATOM     68  C   UNL A   1      38.423  33.968  34.464  1.00  0.00     0.031 C 
ATOM     69  C   UNL A   1      40.359  32.971  35.648  1.00  0.00     0.037 A 
BRANCH  56  70
ATOM     70  C   UNL A   1      44.743  28.632  35.186  1.00  0.00     0.058 A 
ATOM     71  C   UNL A   1      44.562  27.563  36.077  1.00  0.00     0.135 A 
ATOM     72  C   UNL A   1      46.061  29.002  34.869  1.00  0.00     0.135 A 
ATOM     73  F   UNL A   1      43.324  27.181  36.432  1.00  0.00    -0.206 F 
ATOM     74  C   UNL A   1      45.644  26.899  36.647  1.00  0.00     0.059 A 
ATOM     75  C   UNL A   1      47.158  28.332  35.402  1.00  0.00     0.059 A 
ATOM     76  F   UNL A   1      46.293  30.021  34.028  1.00  0.00    -0.206 F 
ATOM     77  C   UNL A   1      46.939  27.287  36.299  1.00  0.00     0.060 A 
BRANCH  77  78
ATOM     78  S   UNL A   1      48.331  26.400  37.029  1.00  0.00     0.124 S 
ATOM     79  O   UNL A   1      49.313  26.458  35.949  1.00  0.00    -0.237 OA
ATOM     80  O   UNL A   1      48.633  27.209  38.205  1.00  0.00    -0.237 OA
ATOM     81  O   UNL A   1      47.783  25.076  37.305  1.00  0.00    -0.744 OA
ENDBRANCH  77  78
ENDBRANCH  56  70
BRANCH  57  82
ATOM     82  C   UNL A   1      36.948  32.971  30.630  1.00  0.00     0.058 A 
ATOM     83  C   UNL A   1      35.645  32.549  30.935  1.00  0.00     0.135 A 
ATOM     84  C   UNL A   1      37.094  33.997  29.682  1.00  0.00     0.135 A 
ATOM     85  F   UNL A   1      35.451  31.564  31.825  1.00  0.00    -0.206 F 
ATOM     86  C   UNL A   1      34.533  33.105  30.311  1.00  0.00     0.059 A 
ATOM     87  C   UNL A   1      35.996  34.591  29.068  1.00  0.00     0.059 A 
ATOM     88  F   UNL A   1      38.317  34.445  29.359  1.00  0.00    -0.206 F 
ATOM     89  C   UNL A   1      34.719  34.129  29.381  1.00  0.00     0.060 A 
BRANCH  89  90
ATOM     90  S   UNL A   1      33.265  34.867  28.606  1.00  0.00     0.124 S 
ATOM     91  O   UNL A   1      32.707  33.730  27.884  1.00  0.00    -0.237 OA
ATOM     92  O   UNL A   1      32.503  35.325  29.764  1.00  0.00    -0.237 OA
ATOM     93  O   UNL A   1      33.828  35.927  27.775  1.00  0.00    -0.744 OA
ENDBRANCH  89  90
ENDBRANCH  57  82
BRANCH  69  94
ATOM     94  C   UNL A   1      40.120  33.933  36.781  1.00  0.00     0.058 A 
ATOM     95  C   UNL A   1      40.628  35.243  36.764  1.00  0.00     0.135 A 
ATOM     96  C   UNL A   1      39.317  33.558  37.872  1.00  0.00     0.135 A 
ATOM     97  F   UNL A   1      41.404  35.653  35.749  1.00  0.00    -0.206 F 
ATOM     98  C   UNL A   1      40.372  36.134  37.802  1.00  0.00     0.059 A 
ATOM     99  C   UNL A   1      39.020  34.444  38.901  1.00  0.00     0.059 A 
ATOM    100  F   UNL A   1      38.794  32.322  37.932  1.00  0.00    -0.206 F 
ATOM    101  C   UNL A   1      39.562  35.727  38.864  1.00  0.00     0.060 A 
BRANCH 101 102
ATOM    102  S   UNL A   1      39.211  36.906  40.185  1.00  0.00     0.124 S 
ATOM    103  O   UNL A   1      38.553  37.982  39.452  1.00  0.00    -0.237 OA
ATOM    104  O   UNL A   1      38.354  36.128  41.076  1.00  0.00    -0.237 OA
ATOM    105  O   UNL A   1      40.532  37.226  40.718  1.00  0.00    -0.744 OA
ENDBRANCH 101 102
ENDBRANCH  69  94
ENDBRANCH  43  44
ENDBRANCH  36  38
ENDBRANCH  35  36
ENDBRANCH  34  35
ENDBRANCH  33  34
ENDBRANCH  32  33
ENDBRANCH  31  32
ENDBRANCH  30  31
ENDBRANCH  29  30
ENDBRANCH   1  29
TORSDOF 28
ENDMDL
MODEL 3
REMARK VINA RESULT:      -7.6      6.347     13.134
REMARK SMILES Cc1ccc(OCCNc2ccc(Cl)cc2C(=O)OCCOCCOCCOCCOC(=O)c2ccc(-c3c4nc(c(-c5c(F)cc(S(=O)(=O)[O-])cc5F)c5ccc([nH]5)c(-c5c(F)cc(S(=O)(=O)[O-])cc5F)c5nc(c(-c6c(F)cc(S(=O)(=O)[O-])cc6F)c6ccc3[nH]6)C=C5)C=C4)cc2)cc1C
REMARK SMILES IDX 24 1 23 2 22 3 21 4 20 5 19 6 17 7 18 8 16 9 10 10 11 11
REMARK SMILES IDX 12 12 15 13 13 14 14 15 9 16 8 18 7 19 6 20 5 21 1 22 2 23
REMARK SMILES IDX 3 24 101 25 4 26 100 27 102 28 25 29 26 30 27 31 28 32 29 33
REMARK SMILES IDX 30 34 31 35 32 36 33 37 34 38 35 39 99 40 36 41 98 42 37 43
REMARK SMILES IDX 38 44 39 45 92 46 40 47 97 48 91 49 93 50 41 51 96 52 90 53
REMARK SMILES IDX 89 54 42 56 76 57 55 58 75 59 56 60 59 61 74 62 94 63 57 64
REMARK SMILES IDX 58 65 73 67 95 68 60 69 43 70 44 71 53 72 45 73 46 74 52 75
REMARK SMILES IDX 54 76 47 77 48 78 49 79 50 80 51 81 77 82 78 83 87 84 79 85
REMARK SMILES IDX 80 86 86 87 88 88 81 89 82 90 83 91 84 92 85 93 61 94 62 95
REMARK SMILES IDX 71 96 63 97 64 98 70 99 72 100 65 101 66 102 67 103 68 104
REMARK SMILES IDX 69 105
REMARK H PARENT 9 17 93 55 59 66
REMARK Flexibility Score: inf
ROOT
ATOM      1  C   UNL A   1      41.859  31.136  36.449  1.00  0.00     0.188 C 
ENDROOT
BRANCH   1   2
ATOM      2  C   UNL A   1      42.462  32.106  37.495  1.00  0.00     0.188 C 
BRANCH   2   3
ATOM      3  O   UNL A   1      43.757  31.866  38.007  1.00  0.00    -0.376 OA
BRANCH   3   4
ATOM      4  C   UNL A   1      44.730  32.880  38.168  1.00  0.00     0.202 C 
BRANCH   4   5
ATOM      5  C   UNL A   1      44.668  33.944  39.264  1.00  0.00     0.261 C 
BRANCH   5   6
ATOM      6  O   UNL A   1      43.392  34.102  39.904  1.00  0.00    -0.460 OA
BRANCH   6   7
ATOM      7  C   UNL A   1      42.771  35.303  39.779  1.00  0.00     0.340 C 
ATOM      8  O   UNL A   1      43.212  36.269  39.175  1.00  0.00    -0.246 OA
BRANCH   7   9
ATOM      9  C   UNL A   1      41.346  35.245  40.223  1.00  0.00     0.084 A 
ATOM     10  C   UNL A   1      40.715  34.255  41.031  1.00  0.00     0.049 A 
ATOM     11  C   UNL A   1      39.389  34.507  41.425  1.00  0.00     0.028 A 
ATOM     12  C   UNL A   1      38.693  35.645  41.006  1.00  0.00     0.022 A 
ATOM     13  C   UNL A   1      40.625  36.369  39.774  1.00  0.00     0.038 A 
ATOM     14  C   UNL A   1      39.310  36.562  40.166  1.00  0.00     0.042 A 
ATOM     15  Cl  UNL A   1      38.460  37.959  39.640  1.00  0.00    -0.084 Cl
BRANCH  10  16
ATOM     16  N   UNL A   1      41.359  33.199  41.655  1.00  0.00    -0.381 N 
ATOM     17  H   UNL A   1      42.085  33.433  42.278  1.00  0.00     0.160 HD
BRANCH  16  18
ATOM     18  C   UNL A   1      41.073  31.757  41.484  1.00  0.00     0.154 C 
BRANCH  18  19
ATOM     19  C   UNL A   1      40.017  31.173  42.476  1.00  0.00     0.250 C 
BRANCH  19  20
ATOM     20  O   UNL A   1      38.939  30.368  41.922  1.00  0.00    -0.492 OA
BRANCH  20  21
ATOM     21  C   UNL A   1      37.782  30.996  41.554  1.00  0.00     0.119 A 
ATOM     22  C   UNL A   1      34.300  33.119  40.106  1.00  0.00     0.044 C 
ATOM     23  C   UNL A   1      35.394  32.289  40.710  1.00  0.00    -0.048 A 
ATOM     24  C   UNL A   1      36.152  31.556  39.827  1.00  0.00     0.007 A 
ATOM     25  C   UNL A   1      35.769  32.287  42.067  1.00  0.00    -0.045 A 
ATOM     26  C   UNL A   1      37.358  31.038  40.251  1.00  0.00     0.047 A 
ATOM     27  C   UNL A   1      36.938  31.584  42.488  1.00  0.00     0.050 A 
ATOM     28  C   UNL A   1      34.937  32.999  43.093  1.00  0.00     0.045 C 
ENDBRANCH  20  21
ENDBRANCH  19  20
ENDBRANCH  18  19
ENDBRANCH  16  18
ENDBRANCH  10  16
ENDBRANCH   7   9
ENDBRANCH   6   7
ENDBRANCH   5   6
ENDBRANCH   4   5
ENDBRANCH   3   4
ENDBRANCH   2   3
ENDBRANCH   1   2
BRANCH   1  29
ATOM     29  O   UNL A   1      40.485  30.805  36.514  1.00  0.00    -0.377 OA
BRANCH  29  30
ATOM     30  C   UNL A   1      39.587  31.891  36.386  1.00  0.00     0.188 C 
BRANCH  30  31
ATOM     31  C   UNL A   1      38.143  31.457  36.076  1.00  0.00     0.188 C 
BRANCH  31  32
ATOM     32  O   UNL A   1      37.317  32.176  35.169  1.00  0.00    -0.376 OA
BRANCH  32  33
ATOM     33  C   UNL A   1      37.509  32.080  33.769  1.00  0.00     0.202 C 
BRANCH  33  34
ATOM     34  C   UNL A   1      36.686  31.101  32.908  1.00  0.00     0.261 C 
BRANCH  34  35
ATOM     35  O   UNL A   1      36.831  31.187  31.487  1.00  0.00    -0.460 OA
BRANCH  35  36
ATOM     36  C   UNL A   1      37.135  30.019  30.871  1.00  0.00     0.338 C 
ATOM     37  O   UNL A   1      36.382  29.102  30.620  1.00  0.00    -0.246 OA
BRANCH  36  38
ATOM     38  C   UNL A   1      38.538  30.084  30.409  1.00  0.00     0.060 A 
ATOM     39  C   UNL A   1      38.785  30.188  29.034  1.00  0.00     0.016 A 
ATOM     40  C   UNL A   1      39.596  29.981  31.314  1.00  0.00     0.016 A 
ATOM     41  C   UNL A   1      40.090  30.161  28.554  1.00  0.00     0.010 A 
ATOM     42  C   UNL A   1      40.905  29.918  30.828  1.00  0.00     0.010 A 
ATOM     43  C   UNL A   1      41.151  29.969  29.445  1.00  0.00    -0.014 A 
BRANCH  43  44
ATOM     44  C   UNL A   1      42.480  29.599  28.906  1.00  0.00     0.031 A 
ATOM     45  C   UNL A   1      42.680  28.189  28.420  1.00  0.00     0.074 A 
ATOM     46  C   UNL A   1      43.467  30.506  28.808  1.00  0.00     0.049 A 
ATOM     47  N   UNL A   1      43.759  27.617  27.953  1.00  0.00    -0.248 NA
ATOM     48  C   UNL A   1      41.505  27.303  28.471  1.00  0.00     0.031 C 
ATOM     49  C   UNL A   1      43.367  31.912  29.198  1.00  0.00     0.029 A 
ATOM     50  N   UNL A   1      44.755  30.371  28.355  1.00  0.00    -0.354 N 
ATOM     51  C   UNL A   1      43.396  26.305  27.667  1.00  0.00     0.074 A 
ATOM     52  C   UNL A   1      42.008  26.157  28.040  1.00  0.00     0.031 C 
ATOM     53  C   UNL A   1      44.553  32.507  28.982  1.00  0.00     0.029 A 
ATOM     54  C   UNL A   1      45.503  31.518  28.473  1.00  0.00     0.049 A 
ATOM     55  H   UNL A   1      45.110  29.533  27.981  1.00  0.00     0.167 HD
ATOM     56  C   UNL A   1      44.153  25.317  27.136  1.00  0.00     0.037 A 
ATOM     57  C   UNL A   1      46.811  31.732  28.226  1.00  0.00     0.037 A 
ATOM     58  C   UNL A   1      45.535  25.480  26.765  1.00  0.00     0.049 A 
ATOM     59  C   UNL A   1      47.653  30.595  27.703  1.00  0.00     0.074 A 
ATOM     60  C   UNL A   1      46.389  24.549  26.204  1.00  0.00     0.029 A 
ATOM     61  N   UNL A   1      46.266  26.648  26.926  1.00  0.00    -0.354 N 
ATOM     62  N   UNL A   1      47.298  29.363  27.421  1.00  0.00    -0.248 NA
ATOM     63  C   UNL A   1      49.074  30.877  27.459  1.00  0.00     0.031 C 
ATOM     64  C   UNL A   1      47.653  25.134  26.082  1.00  0.00     0.029 A 
ATOM     65  C   UNL A   1      47.569  26.452  26.502  1.00  0.00     0.049 A 
ATOM     66  H   UNL A   1      45.910  27.492  27.287  1.00  0.00     0.167 HD
ATOM     67  C   UNL A   1      48.442  28.735  26.938  1.00  0.00     0.074 A 
ATOM     68  C   UNL A   1      49.497  29.726  26.955  1.00  0.00     0.031 C 
ATOM     69  C   UNL A   1      48.606  27.456  26.515  1.00  0.00     0.037 A 
BRANCH  56  70
ATOM     70  C   UNL A   1      43.518  23.966  26.954  1.00  0.00     0.058 A 
ATOM     71  C   UNL A   1      43.610  22.962  27.931  1.00  0.00     0.135 A 
ATOM     72  C   UNL A   1      42.766  23.687  25.801  1.00  0.00     0.135 A 
ATOM     73  F   UNL A   1      44.334  23.164  29.044  1.00  0.00    -0.206 F 
ATOM     74  C   UNL A   1      42.998  21.723  27.762  1.00  0.00     0.059 A 
ATOM     75  C   UNL A   1      42.119  22.469  25.624  1.00  0.00     0.059 A 
ATOM     76  F   UNL A   1      42.649  24.609  24.832  1.00  0.00    -0.206 F 
ATOM     77  C   UNL A   1      42.250  21.488  26.606  1.00  0.00     0.060 A 
BRANCH  77  78
ATOM     78  S   UNL A   1      41.442  19.885  26.414  1.00  0.00     0.124 S 
ATOM     79  O   UNL A   1      41.595  19.319  27.752  1.00  0.00    -0.237 OA
ATOM     80  O   UNL A   1      40.084  20.265  26.038  1.00  0.00    -0.237 OA
ATOM     81  O   UNL A   1      42.222  19.234  25.367  1.00  0.00    -0.744 OA
ENDBRANCH  77  78
ENDBRANCH  56  70
BRANCH  57  82
ATOM     82  C   UNL A   1      47.411  33.067  28.490  1.00  0.00     0.058 A 
ATOM     83  C   UNL A   1      47.920  33.401  29.754  1.00  0.00     0.135 A 
ATOM     84  C   UNL A   1      47.479  34.044  27.483  1.00  0.00     0.135 A 
ATOM     85  F   UNL A   1      47.868  32.507  30.753  1.00  0.00    -0.206 F 
ATOM     86  C   UNL A   1      48.455  34.657  30.017  1.00  0.00     0.059 A 
ATOM     87  C   UNL A   1      48.039  35.297  27.712  1.00  0.00     0.059 A 
ATOM     88  F   UNL A   1      47.014  33.776  26.252  1.00  0.00    -0.206 F 
ATOM     89  C   UNL A   1      48.514  35.598  28.987  1.00  0.00     0.060 A 
BRANCH  89  90
ATOM     90  S   UNL A   1      49.245  37.212  29.333  1.00  0.00     0.124 S 
ATOM     91  O   UNL A   1      49.825  36.996  30.653  1.00  0.00    -0.237 OA
ATOM     92  O   UNL A   1      50.194  37.357  28.233  1.00  0.00    -0.237 OA
ATOM     93  O   UNL A   1      48.100  38.117  29.288  1.00  0.00    -0.744 OA
ENDBRANCH  89  90
ENDBRANCH  57  82
BRANCH  69  94
ATOM     94  C   UNL A   1      49.961  27.061  25.992  1.00  0.00     0.058 A 
ATOM     95  C   UNL A   1      50.324  27.252  24.648  1.00  0.00     0.135 A 
ATOM     96  C   UNL A   1      50.933  26.539  26.863  1.00  0.00     0.135 A 
ATOM     97  F   UNL A   1      49.434  27.744  23.772  1.00  0.00    -0.206 F 
ATOM     98  C   UNL A   1      51.591  26.915  24.183  1.00  0.00     0.059 A 
ATOM     99  C   UNL A   1      52.216  26.228  26.426  1.00  0.00     0.059 A 
ATOM    100  F   UNL A   1      50.644  26.347  28.160  1.00  0.00    -0.206 F 
ATOM    101  C   UNL A   1      52.532  26.408  25.081  1.00  0.00     0.060 A 
BRANCH 101 102
ATOM    102  S   UNL A   1      54.183  26.007  24.470  1.00  0.00     0.124 S 
ATOM    103  O   UNL A   1      54.005  26.146  23.029  1.00  0.00    -0.237 OA
ATOM    104  O   UNL A   1      55.008  27.029  25.109  1.00  0.00    -0.237 OA
ATOM    105  O   UNL A   1      54.402  24.645  24.946  1.00  0.00    -0.744 OA
ENDBRANCH 101 102
ENDBRANCH  69  94
ENDBRANCH  43  44
ENDBRANCH  36  38
ENDBRANCH  35  36
ENDBRANCH  34  35
ENDBRANCH  33  34
ENDBRANCH  32  33
ENDBRANCH  31  32
ENDBRANCH  30  31
ENDBRANCH  29  30
ENDBRANCH   1  29
TORSDOF 28
ENDMDL
