MODEL 1
REMARK VINA RESULT:      -7.6      0.000      0.000
REMARK SMILES CCCN(C(=O)NCC(=O)OCCOCCOCCOCCOC(=O)c1ccc(-c2c3nc(c(-c4c(F)cc(S(=O)(=O)[O-])cc4F)c4ccc([nH]4)c(-c4c(F)cc(S(=O)(=O)[O-])cc4F)c4nc(c(-c5c(F)cc(S(=O)(=O)[O-])cc5F)c5ccc2[nH]5)C=C4)C=C3)cc1)C(C)C
REMARK SMILES IDX 16 1 15 2 14 3 13 4 12 5 11 6 9 7 10 8 8 9 7 10 5 11 6 12
REMARK SMILES IDX 4 14 3 15 2 16 1 17 92 18 93 19 94 20 17 21 18 22 19 23
REMARK SMILES IDX 20 24 21 25 22 26 23 27 24 28 25 29 26 30 27 31 91 32 28 33
REMARK SMILES IDX 90 34 29 35 30 36 31 37 84 38 32 39 89 40 83 41 85 42 33 43
REMARK SMILES IDX 88 44 82 45 81 46 34 48 68 49 47 50 67 51 48 52 51 53 66 54
REMARK SMILES IDX 86 55 49 56 50 57 65 59 87 60 52 61 35 62 36 63 45 64 37 65
REMARK SMILES IDX 38 66 44 67 46 68 39 69 40 70 41 71 42 72 43 73 69 74 70 75
REMARK SMILES IDX 79 76 71 77 72 78 78 79 80 80 73 81 74 82 75 83 76 84 77 85
REMARK SMILES IDX 53 86 54 87 63 88 55 89 56 90 62 91 64 92 57 93 58 94 59 95
REMARK SMILES IDX 60 96 61 97
REMARK H PARENT 7 13 85 47 51 58
REMARK Flexibility Score: inf
ROOT
ATOM      1  C   UNL A   1      42.269  19.630  26.772  1.00  0.00     0.188 C 
ENDROOT
BRANCH   1   2
ATOM      2  C   UNL A   1      41.121  20.568  27.189  1.00  0.00     0.188 C 
BRANCH   2   3
ATOM      3  O   UNL A   1      39.891  20.605  26.478  1.00  0.00    -0.376 OA
BRANCH   3   4
ATOM      4  C   UNL A   1      39.262  21.839  26.155  1.00  0.00     0.202 C 
BRANCH   4   5
ATOM      5  C   UNL A   1      38.001  21.896  25.271  1.00  0.00     0.261 C 
BRANCH   5   6
ATOM      6  O   UNL A   1      36.911  21.053  25.675  1.00  0.00    -0.462 OA
BRANCH   6   7
ATOM      7  C   UNL A   1      35.666  21.555  25.498  1.00  0.00     0.325 C 
ATOM      8  O   UNL A   1      34.648  21.098  26.009  1.00  0.00    -0.250 OA
BRANCH   7   9
ATOM      9  C   UNL A   1      35.652  22.887  24.739  1.00  0.00     0.240 C 
BRANCH   9  10
ATOM     10  N   UNL A   1      34.680  23.203  23.697  1.00  0.00    -0.327 N 
ATOM     11  C   UNL A   1      33.543  23.895  23.555  1.00  0.00     0.318 C 
ATOM     12  O   UNL A   1      33.173  24.000  22.380  1.00  0.00    -0.249 OA
ATOM     13  H   UNL A   1      34.938  22.782  22.845  1.00  0.00     0.166 HD
BRANCH  11  14
ATOM     14  N   UNL A   1      32.852  24.452  24.599  1.00  0.00    -0.322 N 
BRANCH  14  15
ATOM     15  C   UNL A   1      32.307  23.716  25.740  1.00  0.00     0.121 C 
BRANCH  15  16
ATOM     16  C   UNL A   1      30.936  23.077  25.488  1.00  0.00     0.018 C 
ATOM     17  C   UNL A   1      30.209  22.615  26.734  1.00  0.00     0.006 C 
ENDBRANCH  15  16
ENDBRANCH  14  15
BRANCH  14  18
ATOM     18  C   UNL A   1      32.651  25.924  24.533  1.00  0.00     0.080 C 
ATOM     19  C   UNL A   1      31.817  26.501  25.680  1.00  0.00     0.031 C 
ATOM     20  C   UNL A   1      33.969  26.676  24.374  1.00  0.00     0.031 C 
ENDBRANCH  14  18
ENDBRANCH  11  14
ENDBRANCH   9  10
ENDBRANCH   7   9
ENDBRANCH   6   7
ENDBRANCH   5   6
ENDBRANCH   4   5
ENDBRANCH   3   4
ENDBRANCH   2   3
ENDBRANCH   1   2
BRANCH   1  21
ATOM     21  O   UNL A   1      42.612  19.689  25.406  1.00  0.00    -0.377 OA
BRANCH  21  22
ATOM     22  C   UNL A   1      43.787  18.991  25.018  1.00  0.00     0.188 C 
BRANCH  22  23
ATOM     23  C   UNL A   1      44.947  19.831  24.448  1.00  0.00     0.188 C 
BRANCH  23  24
ATOM     24  O   UNL A   1      45.534  20.725  25.389  1.00  0.00    -0.376 OA
BRANCH  24  25
ATOM     25  C   UNL A   1      46.049  21.965  24.924  1.00  0.00     0.202 C 
BRANCH  25  26
ATOM     26  C   UNL A   1      45.176  22.800  23.970  1.00  0.00     0.261 C 
BRANCH  26  27
ATOM     27  O   UNL A   1      44.428  23.876  24.555  1.00  0.00    -0.460 OA
BRANCH  27  28
ATOM     28  C   UNL A   1      43.229  23.591  25.103  1.00  0.00     0.338 C 
ATOM     29  O   UNL A   1      42.543  22.604  24.890  1.00  0.00    -0.246 OA
BRANCH  28  30
ATOM     30  C   UNL A   1      42.977  24.571  26.181  1.00  0.00     0.060 A 
ATOM     31  C   UNL A   1      43.488  25.868  26.046  1.00  0.00     0.016 A 
ATOM     32  C   UNL A   1      42.242  24.218  27.315  1.00  0.00     0.016 A 
ATOM     33  C   UNL A   1      43.304  26.805  27.064  1.00  0.00     0.010 A 
ATOM     34  C   UNL A   1      42.080  25.148  28.346  1.00  0.00     0.010 A 
ATOM     35  C   UNL A   1      42.642  26.434  28.241  1.00  0.00    -0.014 A 
BRANCH  35  36
ATOM     36  C   UNL A   1      42.719  27.316  29.432  1.00  0.00     0.031 A 
ATOM     37  C   UNL A   1      41.605  28.304  29.658  1.00  0.00     0.074 A 
ATOM     38  C   UNL A   1      43.739  27.230  30.305  1.00  0.00     0.049 A 
ATOM     39  N   UNL A   1      41.478  29.212  30.590  1.00  0.00    -0.248 NA
ATOM     40  C   UNL A   1      40.486  28.266  28.700  1.00  0.00     0.031 C 
ATOM     41  C   UNL A   1      44.856  26.290  30.213  1.00  0.00     0.029 A 
ATOM     42  N   UNL A   1      44.008  27.960  31.438  1.00  0.00    -0.354 N 
ATOM     43  C   UNL A   1      40.281  29.866  30.319  1.00  0.00     0.074 A 
ATOM     44  C   UNL A   1      39.724  29.261  29.130  1.00  0.00     0.031 C 
ATOM     45  C   UNL A   1      45.704  26.520  31.231  1.00  0.00     0.029 A 
ATOM     46  C   UNL A   1      45.210  27.643  32.026  1.00  0.00     0.049 A 
ATOM     47  H   UNL A   1      43.398  28.645  31.794  1.00  0.00     0.167 HD
ATOM     48  C   UNL A   1      39.701  30.879  31.002  1.00  0.00     0.037 A 
ATOM     49  C   UNL A   1      45.851  28.218  33.065  1.00  0.00     0.037 A 
ATOM     50  C   UNL A   1      40.253  31.462  32.197  1.00  0.00     0.049 A 
ATOM     51  C   UNL A   1      45.201  29.376  33.783  1.00  0.00     0.074 A 
ATOM     52  C   UNL A   1      39.711  32.458  32.991  1.00  0.00     0.029 A 
ATOM     53  N   UNL A   1      41.471  31.117  32.761  1.00  0.00    -0.354 N 
ATOM     54  N   UNL A   1      44.045  29.950  33.549  1.00  0.00    -0.248 NA
ATOM     55  C   UNL A   1      45.939  29.962  34.912  1.00  0.00     0.031 C 
ATOM     56  C   UNL A   1      40.634  32.764  33.995  1.00  0.00     0.029 A 
ATOM     57  C   UNL A   1      41.717  31.908  33.871  1.00  0.00     0.049 A 
ATOM     58  H   UNL A   1      42.072  30.416  32.422  1.00  0.00     0.167 HD
ATOM     59  C   UNL A   1      43.905  30.941  34.517  1.00  0.00     0.074 A 
ATOM     60  C   UNL A   1      45.086  30.878  35.351  1.00  0.00     0.031 C 
ATOM     61  C   UNL A   1      42.891  31.824  34.702  1.00  0.00     0.037 A 
BRANCH  48  62
ATOM     62  C   UNL A   1      38.420  31.457  30.468  1.00  0.00     0.058 A 
ATOM     63  C   UNL A   1      38.393  32.633  29.703  1.00  0.00     0.135 A 
ATOM     64  C   UNL A   1      37.211  30.766  30.653  1.00  0.00     0.135 A 
ATOM     65  F   UNL A   1      39.516  33.344  29.515  1.00  0.00    -0.206 F 
ATOM     66  C   UNL A   1      37.212  33.105  29.141  1.00  0.00     0.059 A 
ATOM     67  C   UNL A   1      36.023  31.205  30.078  1.00  0.00     0.059 A 
ATOM     68  F   UNL A   1      37.181  29.641  31.384  1.00  0.00    -0.206 F 
ATOM     69  C   UNL A   1      36.033  32.376  29.325  1.00  0.00     0.060 A 
BRANCH  69  70
ATOM     70  S   UNL A   1      34.521  32.971  28.538  1.00  0.00     0.124 S 
ATOM     71  O   UNL A   1      33.948  31.729  28.030  1.00  0.00    -0.237 OA
ATOM     72  O   UNL A   1      33.811  33.585  29.655  1.00  0.00    -0.237 OA
ATOM     73  O   UNL A   1      35.006  33.898  27.521  1.00  0.00    -0.744 OA
ENDBRANCH  69  70
ENDBRANCH  48  62
BRANCH  49  74
ATOM     74  C   UNL A   1      47.206  27.746  33.468  1.00  0.00     0.058 A 
ATOM     75  C   UNL A   1      48.370  28.263  32.881  1.00  0.00     0.135 A 
ATOM     76  C   UNL A   1      47.360  26.728  34.424  1.00  0.00     0.135 A 
ATOM     77  F   UNL A   1      48.280  29.229  31.954  1.00  0.00    -0.206 F 
ATOM     78  C   UNL A   1      49.632  27.769  33.199  1.00  0.00     0.059 A 
ATOM     79  C   UNL A   1      48.612  26.240  34.784  1.00  0.00     0.059 A 
ATOM     80  F   UNL A   1      46.281  26.201  35.026  1.00  0.00    -0.206 F 
ATOM     81  C   UNL A   1      49.742  26.755  34.152  1.00  0.00     0.060 A 
BRANCH  81  82
ATOM     82  S   UNL A   1      51.384  26.131  34.572  1.00  0.00     0.124 S 
ATOM     83  O   UNL A   1      51.135  25.493  35.859  1.00  0.00    -0.237 OA
ATOM     84  O   UNL A   1      51.664  25.232  33.457  1.00  0.00    -0.237 OA
ATOM     85  O   UNL A   1      52.202  27.339  34.613  1.00  0.00    -0.744 OA
ENDBRANCH  81  82
ENDBRANCH  49  74
BRANCH  61  86
ATOM     86  C   UNL A   1      42.982  32.762  35.876  1.00  0.00     0.058 A 
ATOM     87  C   UNL A   1      42.498  32.414  37.146  1.00  0.00     0.135 A 
ATOM     88  C   UNL A   1      43.621  34.007  35.738  1.00  0.00     0.135 A 
ATOM     89  F   UNL A   1      41.876  31.240  37.334  1.00  0.00    -0.206 F 
ATOM     90  C   UNL A   1      42.619  33.276  38.232  1.00  0.00     0.059 A 
ATOM     91  C   UNL A   1      43.783  34.870  36.817  1.00  0.00     0.059 A 
ATOM     92  F   UNL A   1      44.115  34.386  34.549  1.00  0.00    -0.206 F 
ATOM     93  C   UNL A   1      43.267  34.502  38.058  1.00  0.00     0.060 A 
BRANCH  93  94
ATOM     94  S   UNL A   1      43.445  35.596  39.482  1.00  0.00     0.124 S 
ATOM     95  O   UNL A   1      43.729  36.875  38.836  1.00  0.00    -0.237 OA
ATOM     96  O   UNL A   1      42.139  35.487  40.125  1.00  0.00    -0.237 OA
ATOM     97  O   UNL A   1      44.555  35.011  40.226  1.00  0.00    -0.744 OA
ENDBRANCH  93  94
ENDBRANCH  61  86
ENDBRANCH  35  36
ENDBRANCH  28  30
ENDBRANCH  27  28
ENDBRANCH  26  27
ENDBRANCH  25  26
ENDBRANCH  24  25
ENDBRANCH  23  24
ENDBRANCH  22  23
ENDBRANCH  21  22
ENDBRANCH   1  21
TORSDOF 28
ENDMDL
MODEL 2
REMARK VINA RESULT:      -7.6      2.090      3.001
REMARK SMILES CCCN(C(=O)NCC(=O)OCCOCCOCCOCCOC(=O)c1ccc(-c2c3nc(c(-c4c(F)cc(S(=O)(=O)[O-])cc4F)c4ccc([nH]4)c(-c4c(F)cc(S(=O)(=O)[O-])cc4F)c4nc(c(-c5c(F)cc(S(=O)(=O)[O-])cc5F)c5ccc2[nH]5)C=C4)C=C3)cc1)C(C)C
REMARK SMILES IDX 16 1 15 2 14 3 13 4 12 5 11 6 9 7 10 8 8 9 7 10 5 11 6 12
REMARK SMILES IDX 4 14 3 15 2 16 1 17 92 18 93 19 94 20 17 21 18 22 19 23
REMARK SMILES IDX 20 24 21 25 22 26 23 27 24 28 25 29 26 30 27 31 91 32 28 33
REMARK SMILES IDX 90 34 29 35 30 36 31 37 84 38 32 39 89 40 83 41 85 42 33 43
REMARK SMILES IDX 88 44 82 45 81 46 34 48 68 49 47 50 67 51 48 52 51 53 66 54
REMARK SMILES IDX 86 55 49 56 50 57 65 59 87 60 52 61 35 62 36 63 45 64 37 65
REMARK SMILES IDX 38 66 44 67 46 68 39 69 40 70 41 71 42 72 43 73 69 74 70 75
REMARK SMILES IDX 79 76 71 77 72 78 78 79 80 80 73 81 74 82 75 83 76 84 77 85
REMARK SMILES IDX 53 86 54 87 63 88 55 89 56 90 62 91 64 92 57 93 58 94 59 95
REMARK SMILES IDX 60 96 61 97
REMARK H PARENT 7 13 85 47 51 58
REMARK Flexibility Score: inf
ROOT
ATOM      1  C   UNL A   1      42.322  20.127  26.759  1.00  0.00     0.188 C 
ENDROOT
BRANCH   1   2
ATOM      2  C   UNL A   1      40.951  20.671  27.203  1.00  0.00     0.188 C 
BRANCH   2   3
ATOM      3  O   UNL A   1      39.835  20.692  26.323  1.00  0.00    -0.376 OA
BRANCH   3   4
ATOM      4  C   UNL A   1      39.270  21.920  25.879  1.00  0.00     0.202 C 
BRANCH   4   5
ATOM      5  C   UNL A   1      37.878  21.977  25.223  1.00  0.00     0.261 C 
BRANCH   5   6
ATOM      6  O   UNL A   1      36.790  22.344  26.085  1.00  0.00    -0.462 OA
BRANCH   6   7
ATOM      7  C   UNL A   1      35.745  22.973  25.499  1.00  0.00     0.325 C 
ATOM      8  O   UNL A   1      35.149  23.935  25.976  1.00  0.00    -0.250 OA
BRANCH   7   9
ATOM      9  C   UNL A   1      35.477  22.498  24.066  1.00  0.00     0.240 C 
BRANCH   9  10
ATOM     10  N   UNL A   1      34.211  22.720  23.374  1.00  0.00    -0.327 N 
ATOM     11  C   UNL A   1      32.898  22.664  23.631  1.00  0.00     0.318 C 
ATOM     12  O   UNL A   1      32.198  23.126  22.723  1.00  0.00    -0.249 OA
ATOM     13  H   UNL A   1      34.370  22.992  22.441  1.00  0.00     0.166 HD
BRANCH  11  14
ATOM     14  N   UNL A   1      32.367  22.161  24.789  1.00  0.00    -0.322 N 
BRANCH  14  15
ATOM     15  C   UNL A   1      32.253  20.740  25.120  1.00  0.00     0.121 C 
BRANCH  15  16
ATOM     16  C   UNL A   1      32.813  19.793  24.052  1.00  0.00     0.018 C 
ATOM     17  C   UNL A   1      32.419  18.339  24.219  1.00  0.00     0.006 C 
ENDBRANCH  15  16
ENDBRANCH  14  15
BRANCH  14  18
ATOM     18  C   UNL A   1      31.867  23.166  25.765  1.00  0.00     0.080 C 
ATOM     19  C   UNL A   1      31.844  24.602  25.238  1.00  0.00     0.031 C 
ATOM     20  C   UNL A   1      30.516  22.770  26.355  1.00  0.00     0.031 C 
ENDBRANCH  14  18
ENDBRANCH  11  14
ENDBRANCH   9  10
ENDBRANCH   7   9
ENDBRANCH   6   7
ENDBRANCH   5   6
ENDBRANCH   4   5
ENDBRANCH   3   4
ENDBRANCH   2   3
ENDBRANCH   1   2
BRANCH   1  21
ATOM     21  O   UNL A   1      42.773  20.613  25.514  1.00  0.00    -0.377 OA
BRANCH  21  22
ATOM     22  C   UNL A   1      44.129  20.346  25.185  1.00  0.00     0.188 C 
BRANCH  22  23
ATOM     23  C   UNL A   1      45.083  21.554  25.103  1.00  0.00     0.188 C 
BRANCH  23  24
ATOM     24  O   UNL A   1      45.193  22.291  26.316  1.00  0.00    -0.376 OA
BRANCH  24  25
ATOM     25  C   UNL A   1      45.504  23.676  26.248  1.00  0.00     0.202 C 
BRANCH  25  26
ATOM     26  C   UNL A   1      44.698  24.552  25.272  1.00  0.00     0.261 C 
BRANCH  26  27
ATOM     27  O   UNL A   1      43.862  25.564  25.854  1.00  0.00    -0.460 OA
BRANCH  27  28
ATOM     28  C   UNL A   1      42.641  25.202  26.296  1.00  0.00     0.338 C 
ATOM     29  O   UNL A   1      42.043  24.171  26.031  1.00  0.00    -0.246 OA
BRANCH  28  30
ATOM     30  C   UNL A   1      42.229  26.167  27.338  1.00  0.00     0.060 A 
ATOM     31  C   UNL A   1      42.816  27.439  27.349  1.00  0.00     0.016 A 
ATOM     32  C   UNL A   1      41.272  25.824  28.296  1.00  0.00     0.016 A 
ATOM     33  C   UNL A   1      42.480  28.358  28.344  1.00  0.00     0.010 A 
ATOM     34  C   UNL A   1      40.955  26.736  29.308  1.00  0.00     0.010 A 
ATOM     35  C   UNL A   1      41.586  27.993  29.357  1.00  0.00    -0.014 A 
BRANCH  35  36
ATOM     36  C   UNL A   1      41.470  28.840  30.571  1.00  0.00     0.031 A 
ATOM     37  C   UNL A   1      40.342  29.835  30.639  1.00  0.00     0.074 A 
ATOM     38  C   UNL A   1      42.330  28.716  31.599  1.00  0.00     0.049 A 
ATOM     39  N   UNL A   1      40.067  30.717  31.563  1.00  0.00    -0.248 NA
ATOM     40  C   UNL A   1      39.397  29.838  29.507  1.00  0.00     0.031 C 
ATOM     41  C   UNL A   1      43.440  27.766  31.665  1.00  0.00     0.029 A 
ATOM     42  N   UNL A   1      42.413  29.410  32.781  1.00  0.00    -0.354 N 
ATOM     43  C   UNL A   1      38.937  31.393  31.117  1.00  0.00     0.074 A 
ATOM     44  C   UNL A   1      38.582  30.829  29.835  1.00  0.00     0.031 C 
ATOM     45  C   UNL A   1      44.108  27.956  32.816  1.00  0.00     0.029 A 
ATOM     46  C   UNL A   1      43.497  29.062  33.551  1.00  0.00     0.049 A 
ATOM     47  H   UNL A   1      41.756  30.093  33.051  1.00  0.00     0.167 HD
ATOM     48  C   UNL A   1      38.259  32.394  31.725  1.00  0.00     0.037 A 
ATOM     49  C   UNL A   1      43.961  29.600  34.699  1.00  0.00     0.037 A 
ATOM     50  C   UNL A   1      38.609  32.936  33.012  1.00  0.00     0.049 A 
ATOM     51  C   UNL A   1      43.209  30.744  35.334  1.00  0.00     0.074 A 
ATOM     52  C   UNL A   1      37.950  33.915  33.734  1.00  0.00     0.029 A 
ATOM     53  N   UNL A   1      39.714  32.560  33.759  1.00  0.00    -0.354 N 
ATOM     54  N   UNL A   1      42.112  31.340  34.928  1.00  0.00    -0.248 NA
ATOM     55  C   UNL A   1      43.754  31.289  36.586  1.00  0.00     0.031 C 
ATOM     56  C   UNL A   1      38.696  34.181  34.886  1.00  0.00     0.029 A 
ATOM     57  C   UNL A   1      39.777  33.315  34.917  1.00  0.00     0.049 A 
ATOM     58  H   UNL A   1      40.358  31.861  33.503  1.00  0.00     0.167 HD
ATOM     59  C   UNL A   1      41.821  32.303  35.889  1.00  0.00     0.074 A 
ATOM     60  C   UNL A   1      42.846  32.203  36.905  1.00  0.00     0.031 C 
ATOM     61  C   UNL A   1      40.797  33.193  35.929  1.00  0.00     0.037 A 
BRANCH  48  62
ATOM     62  C   UNL A   1      37.090  33.001  31.003  1.00  0.00     0.058 A 
ATOM     63  C   UNL A   1      37.254  33.873  29.915  1.00  0.00     0.135 A 
ATOM     64  C   UNL A   1      35.781  32.630  31.354  1.00  0.00     0.135 A 
ATOM     65  F   UNL A   1      38.481  34.278  29.552  1.00  0.00    -0.206 F 
ATOM     66  C   UNL A   1      36.162  34.356  29.202  1.00  0.00     0.059 A 
ATOM     67  C   UNL A   1      34.676  33.079  30.638  1.00  0.00     0.059 A 
ATOM     68  F   UNL A   1      35.569  31.807  32.393  1.00  0.00    -0.206 F 
ATOM     69  C   UNL A   1      34.877  33.944  29.564  1.00  0.00     0.060 A 
BRANCH  69  70
ATOM     70  S   UNL A   1      33.476  34.532  28.590  1.00  0.00     0.124 S 
ATOM     71  O   UNL A   1      32.530  34.907  29.636  1.00  0.00    -0.237 OA
ATOM     72  O   UNL A   1      34.062  35.639  27.841  1.00  0.00    -0.237 OA
ATOM     73  O   UNL A   1      33.101  33.369  27.793  1.00  0.00    -0.744 OA
ENDBRANCH  69  70
ENDBRANCH  48  62
BRANCH  49  74
ATOM     74  C   UNL A   1      45.226  29.100  35.307  1.00  0.00     0.058 A 
ATOM     75  C   UNL A   1      45.226  28.090  36.280  1.00  0.00     0.135 A 
ATOM     76  C   UNL A   1      46.466  29.659  34.955  1.00  0.00     0.135 A 
ATOM     77  F   UNL A   1      44.068  27.528  36.662  1.00  0.00    -0.206 F 
ATOM     78  C   UNL A   1      46.398  27.675  36.906  1.00  0.00     0.059 A 
ATOM     79  C   UNL A   1      47.656  29.240  35.540  1.00  0.00     0.059 A 
ATOM     80  F   UNL A   1      46.528  30.623  34.023  1.00  0.00    -0.206 F 
ATOM     81  C   UNL A   1      47.609  28.259  36.529  1.00  0.00     0.060 A 
BRANCH  81  82
ATOM     82  S   UNL A   1      49.128  27.704  37.334  1.00  0.00     0.124 S 
ATOM     83  O   UNL A   1      50.126  27.998  36.311  1.00  0.00    -0.237 OA
ATOM     84  O   UNL A   1      49.168  28.545  38.526  1.00  0.00    -0.237 OA
ATOM     85  O   UNL A   1      48.878  26.288  37.584  1.00  0.00    -0.744 OA
ENDBRANCH  81  82
ENDBRANCH  49  74
BRANCH  61  86
ATOM     86  C   UNL A   1      40.698  34.097  37.130  1.00  0.00     0.058 A 
ATOM     87  C   UNL A   1      41.150  35.425  37.101  1.00  0.00     0.135 A 
ATOM     88  C   UNL A   1      40.083  33.641  38.308  1.00  0.00     0.135 A 
ATOM     89  F   UNL A   1      41.748  35.912  36.002  1.00  0.00    -0.206 F 
ATOM     90  C   UNL A   1      41.021  36.261  38.206  1.00  0.00     0.059 A 
ATOM     91  C   UNL A   1      39.913  34.470  39.413  1.00  0.00     0.059 A 
ATOM     92  F   UNL A   1      39.619  32.384  38.388  1.00  0.00    -0.206 F 
ATOM     93  C   UNL A   1      40.398  35.775  39.357  1.00  0.00     0.060 A 
BRANCH  93  94
ATOM     94  S   UNL A   1      40.209  36.879  40.772  1.00  0.00     0.124 S 
ATOM     95  O   UNL A   1      41.135  37.956  40.430  1.00  0.00    -0.237 OA
ATOM     96  O   UNL A   1      38.791  37.221  40.715  1.00  0.00    -0.237 OA
ATOM     97  O   UNL A   1      40.603  36.051  41.907  1.00  0.00    -0.744 OA
ENDBRANCH  93  94
ENDBRANCH  61  86
ENDBRANCH  35  36
ENDBRANCH  28  30
ENDBRANCH  27  28
ENDBRANCH  26  27
ENDBRANCH  25  26
ENDBRANCH  24  25
ENDBRANCH  23  24
ENDBRANCH  22  23
ENDBRANCH  21  22
ENDBRANCH   1  21
TORSDOF 28
ENDMDL
MODEL 3
REMARK VINA RESULT:      -7.3      1.983      2.970
REMARK SMILES CCCN(C(=O)NCC(=O)OCCOCCOCCOCCOC(=O)c1ccc(-c2c3nc(c(-c4c(F)cc(S(=O)(=O)[O-])cc4F)c4ccc([nH]4)c(-c4c(F)cc(S(=O)(=O)[O-])cc4F)c4nc(c(-c5c(F)cc(S(=O)(=O)[O-])cc5F)c5ccc2[nH]5)C=C4)C=C3)cc1)C(C)C
REMARK SMILES IDX 16 1 15 2 14 3 13 4 12 5 11 6 9 7 10 8 8 9 7 10 5 11 6 12
REMARK SMILES IDX 4 14 3 15 2 16 1 17 92 18 93 19 94 20 17 21 18 22 19 23
REMARK SMILES IDX 20 24 21 25 22 26 23 27 24 28 25 29 26 30 27 31 91 32 28 33
REMARK SMILES IDX 90 34 29 35 30 36 31 37 84 38 32 39 89 40 83 41 85 42 33 43
REMARK SMILES IDX 88 44 82 45 81 46 34 48 68 49 47 50 67 51 48 52 51 53 66 54
REMARK SMILES IDX 86 55 49 56 50 57 65 59 87 60 52 61 35 62 36 63 45 64 37 65
REMARK SMILES IDX 38 66 44 67 46 68 39 69 40 70 41 71 42 72 43 73 69 74 70 75
REMARK SMILES IDX 79 76 71 77 72 78 78 79 80 80 73 81 74 82 75 83 76 84 77 85
REMARK SMILES IDX 53 86 54 87 63 88 55 89 56 90 62 91 64 92 57 93 58 94 59 95
REMARK SMILES IDX 60 96 61 97
REMARK H PARENT 7 13 85 47 51 58
REMARK Flexibility Score: inf
ROOT
ATOM      1  C   UNL A   1      41.946  20.287  26.885  1.00  0.00     0.188 C 
ENDROOT
BRANCH   1   2
ATOM      2  C   UNL A   1      40.679  21.046  27.324  1.00  0.00     0.188 C 
BRANCH   2   3
ATOM      3  O   UNL A   1      39.406  20.763  26.760  1.00  0.00    -0.376 OA
BRANCH   3   4
ATOM      4  C   UNL A   1      38.940  21.453  25.608  1.00  0.00     0.202 C 
BRANCH   4   5
ATOM      5  C   UNL A   1      37.540  21.192  25.020  1.00  0.00     0.261 C 
BRANCH   5   6
ATOM      6  O   UNL A   1      36.931  22.294  24.330  1.00  0.00    -0.462 OA
BRANCH   6   7
ATOM      7  C   UNL A   1      35.654  22.583  24.670  1.00  0.00     0.325 C 
ATOM      8  O   UNL A   1      34.742  22.773  23.870  1.00  0.00    -0.250 OA
BRANCH   7   9
ATOM      9  C   UNL A   1      35.385  22.465  26.175  1.00  0.00     0.240 C 
BRANCH   9  10
ATOM     10  N   UNL A   1      34.080  22.720  26.776  1.00  0.00    -0.327 N 
ATOM     11  C   UNL A   1      33.024  23.522  26.591  1.00  0.00     0.318 C 
ATOM     12  O   UNL A   1      32.051  23.226  27.293  1.00  0.00    -0.249 OA
ATOM     13  H   UNL A   1      33.932  22.126  27.547  1.00  0.00     0.166 HD
BRANCH  11  14
ATOM     14  N   UNL A   1      33.002  24.564  25.701  1.00  0.00    -0.322 N 
BRANCH  14  15
ATOM     15  C   UNL A   1      33.901  25.718  25.729  1.00  0.00     0.121 C 
BRANCH  15  16
ATOM     16  C   UNL A   1      33.216  27.047  26.072  1.00  0.00     0.018 C 
ATOM     17  C   UNL A   1      34.154  28.151  26.516  1.00  0.00     0.006 C 
ENDBRANCH  15  16
ENDBRANCH  14  15
BRANCH  14  18
ATOM     18  C   UNL A   1      31.965  24.488  24.637  1.00  0.00     0.080 C 
ATOM     19  C   UNL A   1      31.516  23.067  24.291  1.00  0.00     0.031 C 
ATOM     20  C   UNL A   1      30.770  25.390  24.937  1.00  0.00     0.031 C 
ENDBRANCH  14  18
ENDBRANCH  11  14
ENDBRANCH   9  10
ENDBRANCH   7   9
ENDBRANCH   6   7
ENDBRANCH   5   6
ENDBRANCH   4   5
ENDBRANCH   3   4
ENDBRANCH   2   3
ENDBRANCH   1   2
BRANCH   1  21
ATOM     21  O   UNL A   1      42.396  20.597  25.584  1.00  0.00    -0.377 OA
BRANCH  21  22
ATOM     22  C   UNL A   1      43.684  20.114  25.230  1.00  0.00     0.188 C 
BRANCH  22  23
ATOM     23  C   UNL A   1      44.767  21.166  24.918  1.00  0.00     0.188 C 
BRANCH  23  24
ATOM     24  O   UNL A   1      45.042  22.054  25.996  1.00  0.00    -0.376 OA
BRANCH  24  25
ATOM     25  C   UNL A   1      45.336  23.413  25.704  1.00  0.00     0.202 C 
BRANCH  25  26
ATOM     26  C   UNL A   1      44.327  24.205  24.851  1.00  0.00     0.261 C 
BRANCH  26  27
ATOM     27  O   UNL A   1      43.545  25.197  25.533  1.00  0.00    -0.460 OA
BRANCH  27  28
ATOM     28  C   UNL A   1      42.340  24.834  26.016  1.00  0.00     0.338 C 
ATOM     29  O   UNL A   1      41.747  23.790  25.792  1.00  0.00    -0.246 OA
BRANCH  28  30
ATOM     30  C   UNL A   1      41.945  25.820  27.044  1.00  0.00     0.060 A 
ATOM     31  C   UNL A   1      42.513  27.100  27.004  1.00  0.00     0.016 A 
ATOM     32  C   UNL A   1      41.024  25.489  28.040  1.00  0.00     0.016 A 
ATOM     33  C   UNL A   1      42.194  28.040  27.985  1.00  0.00     0.010 A 
ATOM     34  C   UNL A   1      40.724  26.423  29.037  1.00  0.00     0.010 A 
ATOM     35  C   UNL A   1      41.337  27.690  29.034  1.00  0.00    -0.014 A 
BRANCH  35  36
ATOM     36  C   UNL A   1      41.245  28.566  30.228  1.00  0.00     0.031 A 
ATOM     37  C   UNL A   1      40.146  29.594  30.273  1.00  0.00     0.074 A 
ATOM     38  C   UNL A   1      42.101  28.442  31.259  1.00  0.00     0.049 A 
ATOM     39  N   UNL A   1      39.897  30.505  31.176  1.00  0.00    -0.248 NA
ATOM     40  C   UNL A   1      39.202  29.599  29.141  1.00  0.00     0.031 C 
ATOM     41  C   UNL A   1      43.183  27.462  31.347  1.00  0.00     0.029 A 
ATOM     42  N   UNL A   1      42.204  29.160  32.426  1.00  0.00    -0.354 N 
ATOM     43  C   UNL A   1      38.786  31.202  30.715  1.00  0.00     0.074 A 
ATOM     44  C   UNL A   1      38.415  30.620  29.445  1.00  0.00     0.031 C 
ATOM     45  C   UNL A   1      43.857  27.659  32.495  1.00  0.00     0.029 A 
ATOM     46  C   UNL A   1      43.278  28.798  33.204  1.00  0.00     0.049 A 
ATOM     47  H   UNL A   1      41.567  29.867  32.680  1.00  0.00     0.167 HD
ATOM     48  C   UNL A   1      38.137  32.236  31.299  1.00  0.00     0.037 A 
ATOM     49  C   UNL A   1      43.757  29.348  34.340  1.00  0.00     0.037 A 
ATOM     50  C   UNL A   1      38.502  32.797  32.574  1.00  0.00     0.049 A 
ATOM     51  C   UNL A   1      43.037  30.528  34.948  1.00  0.00     0.074 A 
ATOM     52  C   UNL A   1      37.871  33.810  33.273  1.00  0.00     0.029 A 
ATOM     53  N   UNL A   1      39.595  32.406  33.330  1.00  0.00    -0.354 N 
ATOM     54  N   UNL A   1      41.958  31.145  34.528  1.00  0.00    -0.248 NA
ATOM     55  C   UNL A   1      43.598  31.085  36.188  1.00  0.00     0.031 C 
ATOM     56  C   UNL A   1      38.624  34.081  34.420  1.00  0.00     0.029 A 
ATOM     57  C   UNL A   1      39.681  33.186  34.471  1.00  0.00     0.049 A 
ATOM     58  H   UNL A   1      40.220  31.684  33.091  1.00  0.00     0.167 HD
ATOM     59  C   UNL A   1      41.694  32.138  35.466  1.00  0.00     0.074 A 
ATOM     60  C   UNL A   1      42.716  32.031  36.485  1.00  0.00     0.031 C 
ATOM     61  C   UNL A   1      40.696  33.058  35.486  1.00  0.00     0.037 A 
BRANCH  48  62
ATOM     62  C   UNL A   1      36.985  32.860  30.563  1.00  0.00     0.058 A 
ATOM     63  C   UNL A   1      35.667  32.402  30.712  1.00  0.00     0.135 A 
ATOM     64  C   UNL A   1      37.198  33.995  29.762  1.00  0.00     0.135 A 
ATOM     65  F   UNL A   1      35.410  31.308  31.447  1.00  0.00    -0.206 F 
ATOM     66  C   UNL A   1      34.601  33.047  30.094  1.00  0.00     0.059 A 
ATOM     67  C   UNL A   1      36.145  34.672  29.157  1.00  0.00     0.059 A 
ATOM     68  F   UNL A   1      38.441  34.468  29.579  1.00  0.00    -0.206 F 
ATOM     69  C   UNL A   1      34.849  34.189  29.327  1.00  0.00     0.060 A 
BRANCH  69  70
ATOM     70  S   UNL A   1      33.448  35.048  28.581  1.00  0.00     0.124 S 
ATOM     71  O   UNL A   1      34.078  35.692  27.433  1.00  0.00    -0.237 OA
ATOM     72  O   UNL A   1      32.540  33.948  28.271  1.00  0.00    -0.237 OA
ATOM     73  O   UNL A   1      32.999  35.950  29.637  1.00  0.00    -0.744 OA
ENDBRANCH  69  70
ENDBRANCH  48  62
BRANCH  49  74
ATOM     74  C   UNL A   1      45.007  28.826  34.960  1.00  0.00     0.058 A 
ATOM     75  C   UNL A   1      46.258  29.397  34.683  1.00  0.00     0.135 A 
ATOM     76  C   UNL A   1      44.977  27.710  35.812  1.00  0.00     0.135 A 
ATOM     77  F   UNL A   1      46.346  30.457  33.866  1.00  0.00    -0.206 F 
ATOM     78  C   UNL A   1      47.436  28.863  35.200  1.00  0.00     0.059 A 
ATOM     79  C   UNL A   1      46.136  27.178  36.368  1.00  0.00     0.059 A 
ATOM     80  F   UNL A   1      43.807  27.128  36.119  1.00  0.00    -0.206 F 
ATOM     81  C   UNL A   1      47.364  27.750  36.040  1.00  0.00     0.060 A 
BRANCH  81  82
ATOM     82  S   UNL A   1      48.895  27.074  36.719  1.00  0.00     0.124 S 
ATOM     83  O   UNL A   1      49.166  28.000  37.812  1.00  0.00    -0.237 OA
ATOM     84  O   UNL A   1      48.488  25.727  37.108  1.00  0.00    -0.237 OA
ATOM     85  O   UNL A   1      49.820  27.139  35.591  1.00  0.00    -0.744 OA
ENDBRANCH  81  82
ENDBRANCH  49  74
BRANCH  61  86
ATOM     86  C   UNL A   1      40.623  33.991  36.666  1.00  0.00     0.058 A 
ATOM     87  C   UNL A   1      41.272  35.234  36.672  1.00  0.00     0.135 A 
ATOM     88  C   UNL A   1      39.837  33.657  37.782  1.00  0.00     0.135 A 
ATOM     89  F   UNL A   1      42.039  35.602  35.634  1.00  0.00    -0.206 F 
ATOM     90  C   UNL A   1      41.169  36.103  37.755  1.00  0.00     0.059 A 
ATOM     91  C   UNL A   1      39.691  34.525  38.860  1.00  0.00     0.059 A 
ATOM     92  F   UNL A   1      39.182  32.487  37.824  1.00  0.00    -0.206 F 
ATOM     93  C   UNL A   1      40.372  35.741  38.844  1.00  0.00     0.060 A 
BRANCH  93  94
ATOM     94  S   UNL A   1      40.221  36.890  40.226  1.00  0.00     0.124 S 
ATOM     95  O   UNL A   1      40.947  36.183  41.278  1.00  0.00    -0.237 OA
ATOM     96  O   UNL A   1      40.868  38.091  39.707  1.00  0.00    -0.237 OA
ATOM     97  O   UNL A   1      38.779  36.998  40.425  1.00  0.00    -0.744 OA
ENDBRANCH  93  94
ENDBRANCH  61  86
ENDBRANCH  35  36
ENDBRANCH  28  30
ENDBRANCH  27  28
ENDBRANCH  26  27
ENDBRANCH  25  26
ENDBRANCH  24  25
ENDBRANCH  23  24
ENDBRANCH  22  23
ENDBRANCH  21  22
ENDBRANCH   1  21
TORSDOF 28
ENDMDL
