MODEL 1
REMARK VINA RESULT:      -9.1      0.000      0.000
REMARK SMILES C=CCN(CC(=O)OCCOCCOCCOCCOC(=O)c1ccc(-c2c3nc(c(-c4c(F)cc(S(=O)(=O)[O-])cc4F)c4ccc([nH]4)c(-c4c(F)cc(S(=O)(=O)[O-])cc4F)c4nc(c(-c5c(F)cc(S(=O)(=O)[O-])cc5F)c5ccc2[nH]5)C=C4)C=C3)cc1)c1nccn(C)c1=O
REMARK SMILES IDX 14 1 13 2 12 3 11 4 10 5 9 6 8 7 6 8 7 9 5 10 4 11 3 12 2 13
REMARK SMILES IDX 1 14 89 15 90 16 95 17 91 18 93 19 96 20 92 21 94 22 15 23
REMARK SMILES IDX 16 24 17 25 18 26 19 27 20 28 21 29 22 30 23 31 24 32 88 33
REMARK SMILES IDX 25 34 87 35 26 36 27 37 28 38 81 39 29 40 86 41 80 42 82 43
REMARK SMILES IDX 30 44 85 45 79 46 78 47 31 49 65 50 44 51 64 52 45 53 48 54
REMARK SMILES IDX 63 55 83 56 46 57 47 58 62 60 84 61 49 62 32 63 33 64 42 65
REMARK SMILES IDX 34 66 35 67 41 68 43 69 36 70 37 71 38 72 39 73 40 74 66 75
REMARK SMILES IDX 67 76 76 77 68 78 69 79 75 80 77 81 70 82 71 83 72 84 73 85
REMARK SMILES IDX 74 86 50 87 51 88 60 89 52 90 53 91 59 92 61 93 54 94 55 95
REMARK SMILES IDX 56 96 57 97 58 98
REMARK H PARENT 82 48 48 59
REMARK Flexibility Score: inf
ROOT
ATOM      1  O   UNL A   1      38.300  22.481  25.367  1.00  0.00    -0.377 OA
ENDROOT
BRANCH   1   2
ATOM      2  C   UNL A   1      37.238  21.780  24.746  1.00  0.00     0.188 C 
BRANCH   2   3
ATOM      3  C   UNL A   1      36.202  21.285  25.768  1.00  0.00     0.188 C 
BRANCH   3   4
ATOM      4  O   UNL A   1      35.098  22.141  26.073  1.00  0.00    -0.376 OA
BRANCH   4   5
ATOM      5  C   UNL A   1      34.036  21.586  26.843  1.00  0.00     0.202 C 
BRANCH   5   6
ATOM      6  C   UNL A   1      32.865  22.529  27.150  1.00  0.00     0.261 C 
BRANCH   6   7
ATOM      7  O   UNL A   1      31.950  22.652  26.038  1.00  0.00    -0.462 OA
BRANCH   7   8
ATOM      8  C   UNL A   1      30.889  23.477  26.208  1.00  0.00     0.325 C 
ATOM      9  O   UNL A   1      30.264  23.571  27.261  1.00  0.00    -0.250 OA
BRANCH   8  10
ATOM     10  C   UNL A   1      30.536  24.338  24.985  1.00  0.00     0.241 C 
BRANCH  10  11
ATOM     11  N   UNL A   1      31.544  25.302  24.486  1.00  0.00    -0.337 N 
BRANCH  11  12
ATOM     12  C   UNL A   1      32.532  24.750  23.551  1.00  0.00     0.146 C 
BRANCH  12  13
ATOM     13  C   UNL A   1      33.896  24.712  24.188  1.00  0.00    -0.014 C 
ATOM     14  C   UNL A   1      34.253  25.466  25.240  1.00  0.00     0.006 C 
ENDBRANCH  12  13
ENDBRANCH  11  12
BRANCH  11  15
ATOM     15  C   UNL A   1      31.439  26.703  24.639  1.00  0.00     0.196 A 
ATOM     16  N   UNL A   1      31.342  27.460  23.571  1.00  0.00    -0.233 NA
ATOM     17  C   UNL A   1      31.505  27.393  26.056  1.00  0.00     0.293 A 
ATOM     18  C   UNL A   1      31.264  28.815  23.706  1.00  0.00     0.131 A 
ATOM     19  N   UNL A   1      31.606  28.785  26.029  1.00  0.00    -0.314 N 
ATOM     20  O   UNL A   1      31.519  26.726  27.082  1.00  0.00    -0.265 OA
ATOM     21  C   UNL A   1      31.415  29.473  24.856  1.00  0.00     0.109 A 
ATOM     22  C   UNL A   1      31.994  29.515  27.224  1.00  0.00     0.153 C 
ENDBRANCH  11  15
ENDBRANCH  10  11
ENDBRANCH   8  10
ENDBRANCH   7   8
ENDBRANCH   6   7
ENDBRANCH   5   6
ENDBRANCH   4   5
ENDBRANCH   3   4
ENDBRANCH   2   3
ENDBRANCH   1   2
BRANCH   1  23
ATOM     23  C   UNL A   1      39.249  21.738  26.106  1.00  0.00     0.188 C 
BRANCH  23  24
ATOM     24  C   UNL A   1      40.130  22.558  27.054  1.00  0.00     0.188 C 
BRANCH  24  25
ATOM     25  O   UNL A   1      41.466  22.102  27.291  1.00  0.00    -0.376 OA
BRANCH  25  26
ATOM     26  C   UNL A   1      42.370  21.996  26.194  1.00  0.00     0.202 C 
BRANCH  26  27
ATOM     27  C   UNL A   1      42.556  23.267  25.375  1.00  0.00     0.261 C 
BRANCH  27  28
ATOM     28  O   UNL A   1      42.991  24.297  26.264  1.00  0.00    -0.460 OA
BRANCH  28  29
ATOM     29  C   UNL A   1      42.378  25.483  26.069  1.00  0.00     0.338 C 
ATOM     30  O   UNL A   1      41.804  25.843  25.053  1.00  0.00    -0.246 OA
BRANCH  29  31
ATOM     31  C   UNL A   1      42.292  26.186  27.368  1.00  0.00     0.060 A 
ATOM     32  C   UNL A   1      41.310  25.749  28.264  1.00  0.00     0.016 A 
ATOM     33  C   UNL A   1      43.184  27.206  27.735  1.00  0.00     0.016 A 
ATOM     34  C   UNL A   1      41.165  26.377  29.493  1.00  0.00     0.010 A 
ATOM     35  C   UNL A   1      43.036  27.841  28.968  1.00  0.00     0.010 A 
ATOM     36  C   UNL A   1      41.989  27.461  29.818  1.00  0.00    -0.014 A 
BRANCH  36  37
ATOM     37  C   UNL A   1      41.549  28.346  30.912  1.00  0.00     0.031 A 
ATOM     38  C   UNL A   1      42.343  28.305  32.188  1.00  0.00     0.074 A 
ATOM     39  C   UNL A   1      40.543  29.215  30.732  1.00  0.00     0.049 A 
ATOM     40  N   UNL A   1      42.272  29.084  33.233  1.00  0.00    -0.248 NA
ATOM     41  C   UNL A   1      43.366  27.247  32.297  1.00  0.00     0.031 C 
ATOM     42  C   UNL A   1      39.719  29.324  29.528  1.00  0.00     0.029 A 
ATOM     43  N   UNL A   1      40.051  30.183  31.567  1.00  0.00    -0.354 N 
ATOM     44  C   UNL A   1      43.246  28.624  34.110  1.00  0.00     0.074 A 
ATOM     45  C   UNL A   1      43.873  27.476  33.497  1.00  0.00     0.031 C 
ATOM     46  C   UNL A   1      38.816  30.305  29.706  1.00  0.00     0.029 A 
ATOM     47  C   UNL A   1      39.004  30.892  31.031  1.00  0.00     0.049 A 
ATOM     48  H   UNL A   1      40.415  30.355  32.465  1.00  0.00     0.167 HD
ATOM     49  C   UNL A   1      43.595  29.127  35.315  1.00  0.00     0.037 A 
ATOM     50  C   UNL A   1      38.291  31.903  31.560  1.00  0.00     0.037 A 
ATOM     51  C   UNL A   1      42.953  30.264  35.913  1.00  0.00     0.049 A 
ATOM     52  C   UNL A   1      38.686  32.434  32.915  1.00  0.00     0.074 A 
ATOM     53  C   UNL A   1      43.237  30.882  37.116  1.00  0.00     0.029 A 
ATOM     54  N   UNL A   1      41.884  30.946  35.349  1.00  0.00    -0.354 N 
ATOM     55  N   UNL A   1      39.659  32.037  33.704  1.00  0.00    -0.248 NA
ATOM     56  C   UNL A   1      37.905  33.558  33.442  1.00  0.00     0.031 C 
ATOM     57  C   UNL A   1      42.309  31.912  37.301  1.00  0.00     0.029 A 
ATOM     58  C   UNL A   1      41.476  31.962  36.192  1.00  0.00     0.049 A 
ATOM     59  H   UNL A   1      41.478  30.738  34.477  1.00  0.00     0.167 HD
ATOM     60  C   UNL A   1      39.614  32.873  34.814  1.00  0.00     0.074 A 
ATOM     61  C   UNL A   1      38.534  33.811  34.581  1.00  0.00     0.031 C 
ATOM     62  C   UNL A   1      40.390  32.871  35.928  1.00  0.00     0.037 A 
BRANCH  49  63
ATOM     63  C   UNL A   1      44.695  28.435  36.065  1.00  0.00     0.058 A 
ATOM     64  C   UNL A   1      46.037  28.826  35.933  1.00  0.00     0.135 A 
ATOM     65  C   UNL A   1      44.402  27.378  36.940  1.00  0.00     0.135 A 
ATOM     66  F   UNL A   1      46.375  29.811  35.086  1.00  0.00    -0.206 F 
ATOM     67  C   UNL A   1      47.053  28.187  36.637  1.00  0.00     0.059 A 
ATOM     68  C   UNL A   1      45.399  26.738  37.670  1.00  0.00     0.059 A 
ATOM     69  F   UNL A   1      43.137  26.955  37.087  1.00  0.00    -0.206 F 
ATOM     70  C   UNL A   1      46.723  27.144  37.505  1.00  0.00     0.060 A 
BRANCH  70  71
ATOM     71  S   UNL A   1      48.047  26.337  38.430  1.00  0.00     0.124 S 
ATOM     72  O   UNL A   1      48.324  25.177  37.589  1.00  0.00    -0.237 OA
ATOM     73  O   UNL A   1      49.083  27.364  38.455  1.00  0.00    -0.237 OA
ATOM     74  O   UNL A   1      47.429  26.042  39.720  1.00  0.00    -0.744 OA
ENDBRANCH  70  71
ENDBRANCH  49  63
BRANCH  50  75
ATOM     75  C   UNL A   1      37.137  32.475  30.817  1.00  0.00     0.058 A 
ATOM     76  C   UNL A   1      35.823  32.041  31.049  1.00  0.00     0.135 A 
ATOM     77  C   UNL A   1      37.333  33.470  29.846  1.00  0.00     0.135 A 
ATOM     78  F   UNL A   1      35.584  31.089  31.964  1.00  0.00    -0.206 F 
ATOM     79  C   UNL A   1      34.748  32.554  30.330  1.00  0.00     0.059 A 
ATOM     80  C   UNL A   1      36.271  34.015  29.130  1.00  0.00     0.059 A 
ATOM     81  F   UNL A   1      38.568  33.931  29.596  1.00  0.00    -0.206 F 
ATOM     82  C   UNL A   1      34.983  33.540  29.368  1.00  0.00     0.060 A 
BRANCH  82  83
ATOM     83  S   UNL A   1      33.582  34.227  28.460  1.00  0.00     0.124 S 
ATOM     84  O   UNL A   1      34.250  35.127  27.527  1.00  0.00    -0.237 OA
ATOM     85  O   UNL A   1      32.976  33.034  27.875  1.00  0.00    -0.237 OA
ATOM     86  O   UNL A   1      32.791  34.872  29.504  1.00  0.00    -0.744 OA
ENDBRANCH  82  83
ENDBRANCH  50  75
BRANCH  62  87
ATOM     87  C   UNL A   1      40.094  33.916  36.963  1.00  0.00     0.058 A 
ATOM     88  C   UNL A   1      39.119  33.709  37.952  1.00  0.00     0.135 A 
ATOM     89  C   UNL A   1      40.815  35.119  36.987  1.00  0.00     0.135 A 
ATOM     90  F   UNL A   1      38.404  32.572  37.968  1.00  0.00    -0.206 F 
ATOM     91  C   UNL A   1      38.844  34.677  38.909  1.00  0.00     0.059 A 
ATOM     92  C   UNL A   1      40.574  36.091  37.952  1.00  0.00     0.059 A 
ATOM     93  F   UNL A   1      41.769  35.355  36.073  1.00  0.00    -0.206 F 
ATOM     94  C   UNL A   1      39.573  35.868  38.897  1.00  0.00     0.060 A 
BRANCH  94  95
ATOM     95  S   UNL A   1      39.213  37.119  40.146  1.00  0.00     0.124 S 
ATOM     96  O   UNL A   1      40.555  37.556  40.515  1.00  0.00    -0.237 OA
ATOM     97  O   UNL A   1      38.412  38.088  39.403  1.00  0.00    -0.237 OA
ATOM     98  O   UNL A   1      38.489  36.375  41.171  1.00  0.00    -0.744 OA
ENDBRANCH  94  95
ENDBRANCH  62  87
ENDBRANCH  36  37
ENDBRANCH  29  31
ENDBRANCH  28  29
ENDBRANCH  27  28
ENDBRANCH  26  27
ENDBRANCH  25  26
ENDBRANCH  24  25
ENDBRANCH  23  24
ENDBRANCH   1  23
TORSDOF 27
ENDMDL
MODEL 2
REMARK VINA RESULT:      -9.0      1.143      2.142
REMARK SMILES C=CCN(CC(=O)OCCOCCOCCOCCOC(=O)c1ccc(-c2c3nc(c(-c4c(F)cc(S(=O)(=O)[O-])cc4F)c4ccc([nH]4)c(-c4c(F)cc(S(=O)(=O)[O-])cc4F)c4nc(c(-c5c(F)cc(S(=O)(=O)[O-])cc5F)c5ccc2[nH]5)C=C4)C=C3)cc1)c1nccn(C)c1=O
REMARK SMILES IDX 14 1 13 2 12 3 11 4 10 5 9 6 8 7 6 8 7 9 5 10 4 11 3 12 2 13
REMARK SMILES IDX 1 14 89 15 90 16 95 17 91 18 93 19 96 20 92 21 94 22 15 23
REMARK SMILES IDX 16 24 17 25 18 26 19 27 20 28 21 29 22 30 23 31 24 32 88 33
REMARK SMILES IDX 25 34 87 35 26 36 27 37 28 38 81 39 29 40 86 41 80 42 82 43
REMARK SMILES IDX 30 44 85 45 79 46 78 47 31 49 65 50 44 51 64 52 45 53 48 54
REMARK SMILES IDX 63 55 83 56 46 57 47 58 62 60 84 61 49 62 32 63 33 64 42 65
REMARK SMILES IDX 34 66 35 67 41 68 43 69 36 70 37 71 38 72 39 73 40 74 66 75
REMARK SMILES IDX 67 76 76 77 68 78 69 79 75 80 77 81 70 82 71 83 72 84 73 85
REMARK SMILES IDX 74 86 50 87 51 88 60 89 52 90 53 91 59 92 61 93 54 94 55 95
REMARK SMILES IDX 56 96 57 97 58 98
REMARK H PARENT 82 48 48 59
REMARK Flexibility Score: inf
ROOT
ATOM      1  O   UNL A   1      38.141  21.851  25.457  1.00  0.00    -0.377 OA
ENDROOT
BRANCH   1   2
ATOM      2  C   UNL A   1      37.046  20.986  25.219  1.00  0.00     0.188 C 
BRANCH   2   3
ATOM      3  C   UNL A   1      35.722  21.583  25.723  1.00  0.00     0.188 C 
BRANCH   3   4
ATOM      4  O   UNL A   1      34.784  22.052  24.752  1.00  0.00    -0.376 OA
BRANCH   4   5
ATOM      5  C   UNL A   1      35.312  22.629  23.562  1.00  0.00     0.202 C 
BRANCH   5   6
ATOM      6  C   UNL A   1      34.321  23.434  22.709  1.00  0.00     0.261 C 
BRANCH   6   7
ATOM      7  O   UNL A   1      34.270  24.827  23.089  1.00  0.00    -0.462 OA
BRANCH   7   8
ATOM      8  C   UNL A   1      33.284  25.575  22.539  1.00  0.00     0.325 C 
ATOM      9  O   UNL A   1      33.487  26.472  21.724  1.00  0.00    -0.250 OA
BRANCH   8  10
ATOM     10  C   UNL A   1      31.862  25.195  22.977  1.00  0.00     0.241 C 
BRANCH  10  11
ATOM     11  N   UNL A   1      31.296  25.847  24.180  1.00  0.00    -0.337 N 
BRANCH  11  12
ATOM     12  C   UNL A   1      30.598  24.951  25.111  1.00  0.00     0.146 C 
BRANCH  12  13
ATOM     13  C   UNL A   1      31.415  23.710  25.360  1.00  0.00    -0.014 C 
ATOM     14  C   UNL A   1      31.793  23.294  26.578  1.00  0.00     0.006 C 
ENDBRANCH  12  13
ENDBRANCH  11  12
BRANCH  11  15
ATOM     15  C   UNL A   1      31.616  27.161  24.590  1.00  0.00     0.196 A 
ATOM     16  N   UNL A   1      30.969  28.174  24.061  1.00  0.00    -0.233 NA
ATOM     17  C   UNL A   1      32.777  27.454  25.616  1.00  0.00     0.293 A 
ATOM     18  C   UNL A   1      31.285  29.448  24.432  1.00  0.00     0.131 A 
ATOM     19  N   UNL A   1      33.114  28.802  25.756  1.00  0.00    -0.314 N 
ATOM     20  O   UNL A   1      33.355  26.541  26.191  1.00  0.00    -0.265 OA
ATOM     21  C   UNL A   1      32.315  29.777  25.211  1.00  0.00     0.109 A 
ATOM     22  C   UNL A   1      34.355  29.183  26.407  1.00  0.00     0.153 C 
ENDBRANCH  11  15
ENDBRANCH  10  11
ENDBRANCH   8  10
ENDBRANCH   7   8
ENDBRANCH   6   7
ENDBRANCH   5   6
ENDBRANCH   4   5
ENDBRANCH   3   4
ENDBRANCH   2   3
ENDBRANCH   1   2
BRANCH   1  23
ATOM     23  C   UNL A   1      39.279  21.323  26.109  1.00  0.00     0.188 C 
BRANCH  23  24
ATOM     24  C   UNL A   1      40.144  22.349  26.851  1.00  0.00     0.188 C 
BRANCH  24  25
ATOM     25  O   UNL A   1      41.562  22.151  26.856  1.00  0.00    -0.376 OA
BRANCH  25  26
ATOM     26  C   UNL A   1      42.319  22.508  25.702  1.00  0.00     0.202 C 
BRANCH  26  27
ATOM     27  C   UNL A   1      43.778  22.861  25.960  1.00  0.00     0.261 C 
BRANCH  27  28
ATOM     28  O   UNL A   1      43.808  23.870  26.972  1.00  0.00    -0.460 OA
BRANCH  28  29
ATOM     29  C   UNL A   1      43.801  25.129  26.489  1.00  0.00     0.338 C 
ATOM     30  O   UNL A   1      44.175  25.482  25.381  1.00  0.00    -0.246 OA
BRANCH  29  31
ATOM     31  C   UNL A   1      43.034  25.985  27.420  1.00  0.00     0.060 A 
ATOM     32  C   UNL A   1      43.442  27.318  27.543  1.00  0.00     0.016 A 
ATOM     33  C   UNL A   1      41.904  25.524  28.113  1.00  0.00     0.016 A 
ATOM     34  C   UNL A   1      42.776  28.169  28.412  1.00  0.00     0.010 A 
ATOM     35  C   UNL A   1      41.236  26.377  28.990  1.00  0.00     0.010 A 
ATOM     36  C   UNL A   1      41.711  27.682  29.179  1.00  0.00    -0.014 A 
BRANCH  36  37
ATOM     37  C   UNL A   1      41.308  28.466  30.360  1.00  0.00     0.031 A 
ATOM     38  C   UNL A   1      42.122  28.290  31.612  1.00  0.00     0.074 A 
ATOM     39  C   UNL A   1      40.315  29.366  30.282  1.00  0.00     0.049 A 
ATOM     40  N   UNL A   1      42.084  28.966  32.727  1.00  0.00    -0.248 NA
ATOM     41  C   UNL A   1      43.125  27.208  31.601  1.00  0.00     0.031 C 
ATOM     42  C   UNL A   1      39.473  29.604  29.110  1.00  0.00     0.029 A 
ATOM     43  N   UNL A   1      39.857  30.259  31.214  1.00  0.00    -0.354 N 
ATOM     44  C   UNL A   1      43.063  28.408  33.538  1.00  0.00     0.074 A 
ATOM     45  C   UNL A   1      43.657  27.312  32.808  1.00  0.00     0.031 C 
ATOM     46  C   UNL A   1      38.593  30.579  29.396  1.00  0.00     0.029 A 
ATOM     47  C   UNL A   1      38.815  31.034  30.767  1.00  0.00     0.049 A 
ATOM     48  H   UNL A   1      40.239  30.338  32.118  1.00  0.00     0.167 HD
ATOM     49  C   UNL A   1      43.442  28.787  34.779  1.00  0.00     0.037 A 
ATOM     50  C   UNL A   1      38.130  32.003  31.404  1.00  0.00     0.037 A 
ATOM     51  C   UNL A   1      42.833  29.874  35.493  1.00  0.00     0.049 A 
ATOM     52  C   UNL A   1      38.559  32.395  32.795  1.00  0.00     0.074 A 
ATOM     53  C   UNL A   1      43.149  30.369  36.744  1.00  0.00     0.029 A 
ATOM     54  N   UNL A   1      41.768  30.626  35.017  1.00  0.00    -0.354 N 
ATOM     55  N   UNL A   1      39.537  31.908  33.524  1.00  0.00    -0.248 NA
ATOM     56  C   UNL A   1      37.809  33.478  33.441  1.00  0.00     0.031 C 
ATOM     57  C   UNL A   1      42.245  31.394  37.043  1.00  0.00     0.029 A 
ATOM     58  C   UNL A   1      41.394  31.564  35.960  1.00  0.00     0.049 A 
ATOM     59  H   UNL A   1      41.343  30.509  34.137  1.00  0.00     0.167 HD
ATOM     60  C   UNL A   1      39.527  32.635  34.709  1.00  0.00     0.074 A 
ATOM     61  C   UNL A   1      38.462  33.610  34.587  1.00  0.00     0.031 C 
ATOM     62  C   UNL A   1      40.321  32.513  35.803  1.00  0.00     0.037 A 
BRANCH  49  63
ATOM     63  C   UNL A   1      44.541  28.008  35.439  1.00  0.00     0.058 A 
ATOM     64  C   UNL A   1      45.889  28.379  35.310  1.00  0.00     0.135 A 
ATOM     65  C   UNL A   1      44.242  26.885  36.225  1.00  0.00     0.135 A 
ATOM     66  F   UNL A   1      46.232  29.427  34.544  1.00  0.00    -0.206 F 
ATOM     67  C   UNL A   1      46.904  27.657  35.931  1.00  0.00     0.059 A 
ATOM     68  C   UNL A   1      45.238  26.161  36.872  1.00  0.00     0.059 A 
ATOM     69  F   UNL A   1      42.970  26.479  36.365  1.00  0.00    -0.206 F 
ATOM     70  C   UNL A   1      46.568  26.551  36.712  1.00  0.00     0.060 A 
BRANCH  70  71
ATOM     71  S   UNL A   1      47.891  25.636  37.532  1.00  0.00     0.124 S 
ATOM     72  O   UNL A   1      48.099  26.438  38.733  1.00  0.00    -0.237 OA
ATOM     73  O   UNL A   1      47.283  24.326  37.742  1.00  0.00    -0.237 OA
ATOM     74  O   UNL A   1      48.980  25.670  36.559  1.00  0.00    -0.744 OA
ENDBRANCH  70  71
ENDBRANCH  49  63
BRANCH  50  75
ATOM     75  C   UNL A   1      36.976  32.663  30.739  1.00  0.00     0.058 A 
ATOM     76  C   UNL A   1      37.135  33.824  29.968  1.00  0.00     0.135 A 
ATOM     77  C   UNL A   1      35.679  32.143  30.874  1.00  0.00     0.135 A 
ATOM     78  F   UNL A   1      38.354  34.363  29.813  1.00  0.00    -0.206 F 
ATOM     79  C   UNL A   1      36.048  34.460  29.374  1.00  0.00     0.059 A 
ATOM     80  C   UNL A   1      34.580  32.747  30.271  1.00  0.00     0.059 A 
ATOM     81  F   UNL A   1      35.473  31.026  31.589  1.00  0.00    -0.206 F 
ATOM     82  C   UNL A   1      34.772  33.914  29.534  1.00  0.00     0.060 A 
BRANCH  82  83
ATOM     83  S   UNL A   1      33.370  34.722  28.735  1.00  0.00     0.124 S 
ATOM     84  O   UNL A   1      32.870  33.658  27.872  1.00  0.00    -0.237 OA
ATOM     85  O   UNL A   1      32.524  35.073  29.872  1.00  0.00    -0.237 OA
ATOM     86  O   UNL A   1      33.984  35.856  28.050  1.00  0.00    -0.744 OA
ENDBRANCH  82  83
ENDBRANCH  50  75
BRANCH  62  87
ATOM     87  C   UNL A   1      40.064  33.460  36.938  1.00  0.00     0.058 A 
ATOM     88  C   UNL A   1      40.825  34.628  37.102  1.00  0.00     0.135 A 
ATOM     89  C   UNL A   1      39.026  33.214  37.849  1.00  0.00     0.135 A 
ATOM     90  F   UNL A   1      41.829  34.904  36.254  1.00  0.00    -0.206 F 
ATOM     91  C   UNL A   1      40.588  35.503  38.154  1.00  0.00     0.059 A 
ATOM     92  C   UNL A   1      38.755  34.091  38.894  1.00  0.00     0.059 A 
ATOM     93  F   UNL A   1      38.259  32.120  37.724  1.00  0.00    -0.206 F 
ATOM     94  C   UNL A   1      39.554  35.222  39.049  1.00  0.00     0.060 A 
BRANCH  94  95
ATOM     95  S   UNL A   1      39.249  36.367  40.411  1.00  0.00     0.124 S 
ATOM     96  O   UNL A   1      38.556  37.453  39.727  1.00  0.00    -0.237 OA
ATOM     97  O   UNL A   1      38.434  35.567  41.320  1.00  0.00    -0.237 OA
ATOM     98  O   UNL A   1      40.590  36.681  40.894  1.00  0.00    -0.744 OA
ENDBRANCH  94  95
ENDBRANCH  62  87
ENDBRANCH  36  37
ENDBRANCH  29  31
ENDBRANCH  28  29
ENDBRANCH  27  28
ENDBRANCH  26  27
ENDBRANCH  25  26
ENDBRANCH  24  25
ENDBRANCH  23  24
ENDBRANCH   1  23
TORSDOF 27
ENDMDL
MODEL 3
REMARK VINA RESULT:      -8.8      5.939      8.332
REMARK SMILES C=CCN(CC(=O)OCCOCCOCCOCCOC(=O)c1ccc(-c2c3nc(c(-c4c(F)cc(S(=O)(=O)[O-])cc4F)c4ccc([nH]4)c(-c4c(F)cc(S(=O)(=O)[O-])cc4F)c4nc(c(-c5c(F)cc(S(=O)(=O)[O-])cc5F)c5ccc2[nH]5)C=C4)C=C3)cc1)c1nccn(C)c1=O
REMARK SMILES IDX 14 1 13 2 12 3 11 4 10 5 9 6 8 7 6 8 7 9 5 10 4 11 3 12 2 13
REMARK SMILES IDX 1 14 89 15 90 16 95 17 91 18 93 19 96 20 92 21 94 22 15 23
REMARK SMILES IDX 16 24 17 25 18 26 19 27 20 28 21 29 22 30 23 31 24 32 88 33
REMARK SMILES IDX 25 34 87 35 26 36 27 37 28 38 81 39 29 40 86 41 80 42 82 43
REMARK SMILES IDX 30 44 85 45 79 46 78 47 31 49 65 50 44 51 64 52 45 53 48 54
REMARK SMILES IDX 63 55 83 56 46 57 47 58 62 60 84 61 49 62 32 63 33 64 42 65
REMARK SMILES IDX 34 66 35 67 41 68 43 69 36 70 37 71 38 72 39 73 40 74 66 75
REMARK SMILES IDX 67 76 76 77 68 78 69 79 75 80 77 81 70 82 71 83 72 84 73 85
REMARK SMILES IDX 74 86 50 87 51 88 60 89 52 90 53 91 59 92 61 93 54 94 55 95
REMARK SMILES IDX 56 96 57 97 58 98
REMARK H PARENT 82 48 48 59
REMARK Flexibility Score: inf
ROOT
ATOM      1  O   UNL A   1      36.067  23.171  26.032  1.00  0.00    -0.377 OA
ENDROOT
BRANCH   1   2
ATOM      2  C   UNL A   1      35.543  21.946  25.551  1.00  0.00     0.188 C 
BRANCH   2   3
ATOM      3  C   UNL A   1      34.920  22.097  24.154  1.00  0.00     0.188 C 
BRANCH   3   4
ATOM      4  O   UNL A   1      33.555  21.711  23.983  1.00  0.00    -0.376 OA
BRANCH   4   5
ATOM      5  C   UNL A   1      32.702  22.619  23.291  1.00  0.00     0.202 C 
BRANCH   5   6
ATOM      6  C   UNL A   1      33.252  23.187  21.976  1.00  0.00     0.261 C 
BRANCH   6   7
ATOM      7  O   UNL A   1      33.624  24.579  22.088  1.00  0.00    -0.462 OA
BRANCH   7   8
ATOM      8  C   UNL A   1      32.906  25.465  21.358  1.00  0.00     0.325 C 
ATOM      9  O   UNL A   1      33.197  25.791  20.210  1.00  0.00    -0.250 OA
BRANCH   8  10
ATOM     10  C   UNL A   1      31.654  26.015  22.057  1.00  0.00     0.241 C 
BRANCH  10  11
ATOM     11  N   UNL A   1      31.803  26.608  23.406  1.00  0.00    -0.337 N 
BRANCH  11  12
ATOM     12  C   UNL A   1      31.502  28.042  23.499  1.00  0.00     0.146 C 
BRANCH  12  13
ATOM     13  C   UNL A   1      31.298  28.444  24.936  1.00  0.00    -0.014 C 
ATOM     14  C   UNL A   1      31.967  29.439  25.539  1.00  0.00     0.006 C 
ENDBRANCH  12  13
ENDBRANCH  11  12
BRANCH  11  15
ATOM     15  C   UNL A   1      31.940  25.849  24.591  1.00  0.00     0.196 A 
ATOM     16  N   UNL A   1      33.139  25.639  25.083  1.00  0.00    -0.233 NA
ATOM     17  C   UNL A   1      30.699  25.188  25.305  1.00  0.00     0.293 A 
ATOM     18  C   UNL A   1      33.285  24.889  26.213  1.00  0.00     0.131 A 
ATOM     19  N   UNL A   1      31.015  24.297  26.332  1.00  0.00    -0.314 N 
ATOM     20  O   UNL A   1      29.558  25.419  24.927  1.00  0.00    -0.265 OA
ATOM     21  C   UNL A   1      32.300  24.217  26.810  1.00  0.00     0.109 A 
ATOM     22  C   UNL A   1      30.008  23.388  26.850  1.00  0.00     0.153 C 
ENDBRANCH  11  15
ENDBRANCH  10  11
ENDBRANCH   8  10
ENDBRANCH   7   8
ENDBRANCH   6   7
ENDBRANCH   5   6
ENDBRANCH   4   5
ENDBRANCH   3   4
ENDBRANCH   2   3
ENDBRANCH   1   2
BRANCH   1  23
ATOM     23  C   UNL A   1      37.207  23.707  25.390  1.00  0.00     0.188 C 
BRANCH  23  24
ATOM     24  C   UNL A   1      38.327  24.174  26.325  1.00  0.00     0.188 C 
BRANCH  24  25
ATOM     25  O   UNL A   1      39.556  23.439  26.319  1.00  0.00    -0.376 OA
BRANCH  25  26
ATOM     26  C   UNL A   1      39.604  22.156  26.936  1.00  0.00     0.202 C 
BRANCH  26  27
ATOM     27  C   UNL A   1      39.774  20.978  25.985  1.00  0.00     0.261 C 
BRANCH  27  28
ATOM     28  O   UNL A   1      40.598  20.010  26.637  1.00  0.00    -0.460 OA
BRANCH  28  29
ATOM     29  C   UNL A   1      41.820  19.871  26.085  1.00  0.00     0.338 C 
ATOM     30  O   UNL A   1      42.177  18.982  25.327  1.00  0.00    -0.246 OA
BRANCH  29  31
ATOM     31  C   UNL A   1      42.593  21.107  26.340  1.00  0.00     0.060 A 
ATOM     32  C   UNL A   1      42.865  21.423  27.675  1.00  0.00     0.016 A 
ATOM     33  C   UNL A   1      43.098  21.909  25.304  1.00  0.00     0.016 A 
ATOM     34  C   UNL A   1      43.571  22.577  27.984  1.00  0.00     0.010 A 
ATOM     35  C   UNL A   1      43.804  23.071  25.613  1.00  0.00     0.010 A 
ATOM     36  C   UNL A   1      43.988  23.430  26.955  1.00  0.00    -0.014 A 
BRANCH  36  37
ATOM     37  C   UNL A   1      44.353  24.811  27.321  1.00  0.00     0.031 A 
ATOM     38  C   UNL A   1      45.793  25.208  27.148  1.00  0.00     0.074 A 
ATOM     39  C   UNL A   1      43.416  25.694  27.699  1.00  0.00     0.049 A 
ATOM     40  N   UNL A   1      46.344  26.387  27.241  1.00  0.00    -0.248 NA
ATOM     41  C   UNL A   1      46.741  24.128  26.814  1.00  0.00     0.031 C 
ATOM     42  C   UNL A   1      41.997  25.396  27.893  1.00  0.00     0.029 A 
ATOM     43  N   UNL A   1      43.522  27.030  27.978  1.00  0.00    -0.354 N 
ATOM     44  C   UNL A   1      47.690  26.195  26.961  1.00  0.00     0.074 A 
ATOM     45  C   UNL A   1      47.887  24.783  26.731  1.00  0.00     0.031 C 
ATOM     46  C   UNL A   1      41.363  26.522  28.266  1.00  0.00     0.029 A 
ATOM     47  C   UNL A   1      42.331  27.615  28.331  1.00  0.00     0.049 A 
ATOM     48  H   UNL A   1      44.371  27.525  27.928  1.00  0.00     0.167 HD
ATOM     49  C   UNL A   1      48.672  27.121  26.889  1.00  0.00     0.037 A 
ATOM     50  C   UNL A   1      42.065  28.892  28.663  1.00  0.00     0.037 A 
ATOM     51  C   UNL A   1      48.459  28.521  27.130  1.00  0.00     0.049 A 
ATOM     52  C   UNL A   1      43.182  29.902  28.593  1.00  0.00     0.074 A 
ATOM     53  C   UNL A   1      49.370  29.557  27.059  1.00  0.00     0.029 A 
ATOM     54  N   UNL A   1      47.243  29.074  27.503  1.00  0.00    -0.354 N 
ATOM     55  N   UNL A   1      44.438  29.721  28.255  1.00  0.00    -0.248 NA
ATOM     56  C   UNL A   1      42.844  31.291  28.930  1.00  0.00     0.031 C 
ATOM     57  C   UNL A   1      48.714  30.734  27.433  1.00  0.00     0.029 A 
ATOM     58  C   UNL A   1      47.384  30.435  27.695  1.00  0.00     0.049 A 
ATOM     59  H   UNL A   1      46.404  28.572  27.614  1.00  0.00     0.167 HD
ATOM     60  C   UNL A   1      45.036  30.974  28.324  1.00  0.00     0.074 A 
ATOM     61  C   UNL A   1      43.997  31.907  28.713  1.00  0.00     0.031 C 
ATOM     62  C   UNL A   1      46.325  31.329  28.091  1.00  0.00     0.037 A 
BRANCH  49  63
ATOM     63  C   UNL A   1      50.056  26.642  26.561  1.00  0.00     0.058 A 
ATOM     64  C   UNL A   1      50.990  26.339  27.565  1.00  0.00     0.135 A 
ATOM     65  C   UNL A   1      50.449  26.467  25.225  1.00  0.00     0.135 A 
ATOM     66  F   UNL A   1      50.675  26.518  28.858  1.00  0.00    -0.206 F 
ATOM     67  C   UNL A   1      52.269  25.887  27.255  1.00  0.00     0.059 A 
ATOM     68  C   UNL A   1      51.715  25.997  24.893  1.00  0.00     0.059 A 
ATOM     69  F   UNL A   1      49.599  26.759  24.228  1.00  0.00    -0.206 F 
ATOM     70  C   UNL A   1      52.622  25.717  25.916  1.00  0.00     0.060 A 
BRANCH  70  71
ATOM     71  S   UNL A   1      54.276  25.109  25.527  1.00  0.00     0.124 S 
ATOM     72  O   UNL A   1      54.904  25.109  26.845  1.00  0.00    -0.237 OA
ATOM     73  O   UNL A   1      54.001  23.795  24.957  1.00  0.00    -0.237 OA
ATOM     74  O   UNL A   1      54.791  26.102  24.589  1.00  0.00    -0.744 OA
ENDBRANCH  70  71
ENDBRANCH  49  63
BRANCH  50  75
ATOM     75  C   UNL A   1      40.696  29.286  29.090  1.00  0.00     0.058 A 
ATOM     76  C   UNL A   1      40.359  29.425  30.444  1.00  0.00     0.135 A 
ATOM     77  C   UNL A   1      39.691  29.525  28.139  1.00  0.00     0.135 A 
ATOM     78  F   UNL A   1      41.283  29.203  31.391  1.00  0.00    -0.206 F 
ATOM     79  C   UNL A   1      39.068  29.763  30.843  1.00  0.00     0.059 A 
ATOM     80  C   UNL A   1      38.400  29.885  28.512  1.00  0.00     0.059 A 
ATOM     81  F   UNL A   1      39.965  29.420  26.829  1.00  0.00    -0.206 F 
ATOM     82  C   UNL A   1      38.094  29.988  29.868  1.00  0.00     0.060 A 
BRANCH  82  83
ATOM     83  S   UNL A   1      36.430  30.457  30.388  1.00  0.00     0.124 S 
ATOM     84  O   UNL A   1      35.606  29.706  29.447  1.00  0.00    -0.237 OA
ATOM     85  O   UNL A   1      36.396  29.998  31.773  1.00  0.00    -0.237 OA
ATOM     86  O   UNL A   1      36.423  31.907  30.217  1.00  0.00    -0.744 OA
ENDBRANCH  82  83
ENDBRANCH  50  75
BRANCH  62  87
ATOM     87  C   UNL A   1      46.669  32.782  28.247  1.00  0.00     0.058 A 
ATOM     88  C   UNL A   1      47.256  33.271  29.424  1.00  0.00     0.135 A 
ATOM     89  C   UNL A   1      46.439  33.685  27.198  1.00  0.00     0.135 A 
ATOM     90  F   UNL A   1      47.494  32.443  30.455  1.00  0.00    -0.206 F 
ATOM     91  C   UNL A   1      47.572  34.615  29.570  1.00  0.00     0.059 A 
ATOM     92  C   UNL A   1      46.772  35.030  27.313  1.00  0.00     0.059 A 
ATOM     93  F   UNL A   1      45.896  33.261  26.046  1.00  0.00    -0.206 F 
ATOM     94  C   UNL A   1      47.320  35.489  28.510  1.00  0.00     0.060 A 
BRANCH  94  95
ATOM     95  S   UNL A   1      47.737  37.234  28.704  1.00  0.00     0.124 S 
ATOM     96  O   UNL A   1      47.476  37.438  30.126  1.00  0.00    -0.237 OA
ATOM     97  O   UNL A   1      49.141  37.270  28.305  1.00  0.00    -0.237 OA
ATOM     98  O   UNL A   1      46.816  37.905  27.793  1.00  0.00    -0.744 OA
ENDBRANCH  94  95
ENDBRANCH  62  87
ENDBRANCH  36  37
ENDBRANCH  29  31
ENDBRANCH  28  29
ENDBRANCH  27  28
ENDBRANCH  26  27
ENDBRANCH  25  26
ENDBRANCH  24  25
ENDBRANCH  23  24
ENDBRANCH   1  23
TORSDOF 27
ENDMDL
