MODEL 1
REMARK VINA RESULT:     -10.5      0.000      0.000
REMARK SMILES O=C(OCCOCCOCCOCCOC(=O)c1ccc([C@@H]2CC(O)=Nc3c2ncn3-c2cccc(Cl)c2)cc1)c1ccc(-c2c3nc(c(-c4c(F)cc(S(=O)(=O)[O-])cc4F)c4ccc([nH]4)c(-c4c(F)cc(S(=O)(=O)[O-])cc4F)c4nc(c(-c5c(F)cc(S(=O)(=O)[O-])cc5F)c5ccc2[nH]5)C=C4)C=C3)cc1
REMARK SMILES IDX 8 1 7 2 6 3 5 4 4 5 3 6 2 7 1 8 41 9 42 10 106 11 43 12
REMARK SMILES IDX 105 13 44 14 45 15 46 16 99 17 47 18 104 19 98 20 100 21
REMARK SMILES IDX 48 22 103 23 97 24 96 25 49 27 83 28 62 29 82 30 63 31 66 32
REMARK SMILES IDX 81 33 101 34 64 35 65 36 80 38 102 39 67 40 50 41 51 42
REMARK SMILES IDX 60 43 52 44 53 45 59 46 61 47 54 48 55 49 56 50 57 51 58 52
REMARK SMILES IDX 84 53 85 54 94 55 86 56 87 57 93 58 95 59 88 60 89 61 90 62
REMARK SMILES IDX 91 63 92 64 68 65 69 66 78 67 70 68 71 69 77 70 79 71 72 72
REMARK SMILES IDX 73 73 74 74 75 75 76 76 9 77 10 78 11 79 12 80 13 81 14 82
REMARK SMILES IDX 15 83 16 84 17 85 18 86 19 87 40 88 20 89 39 90 21 91 22 92
REMARK SMILES IDX 23 93 28 94 24 95 27 96 29 97 26 98 31 99 30 100 25 101
REMARK SMILES IDX 32 103 33 104 38 105 34 106 36 107 35 108 37 109
REMARK H PARENT 100 26 66 37 25 102
REMARK Flexibility Score: inf
ROOT
ATOM      1  C   UNL A   1      35.636  23.654  25.164  1.00  0.00     0.188 C 
ENDROOT
BRANCH   1   2
ATOM      2  C   UNL A   1      36.707  22.563  24.962  1.00  0.00     0.188 C 
BRANCH   2   3
ATOM      3  O   UNL A   1      38.072  22.622  25.347  1.00  0.00    -0.376 OA
BRANCH   3   4
ATOM      4  C   UNL A   1      38.954  21.640  25.850  1.00  0.00     0.202 C 
BRANCH   4   5
ATOM      5  C   UNL A   1      40.130  21.890  26.790  1.00  0.00     0.261 C 
BRANCH   5   6
ATOM      6  O   UNL A   1      41.345  22.262  26.169  1.00  0.00    -0.460 OA
BRANCH   6   7
ATOM      7  C   UNL A   1      41.835  23.508  26.021  1.00  0.00     0.338 C 
ATOM      8  O   UNL A   1      42.721  23.687  25.185  1.00  0.00    -0.246 OA
BRANCH   7   9
ATOM      9  C   UNL A   1      41.455  24.658  26.887  1.00  0.00     0.060 A 
ATOM     10  C   UNL A   1      40.761  25.806  26.495  1.00  0.00     0.016 A 
ATOM     11  C   UNL A   1      41.893  24.546  28.221  1.00  0.00     0.016 A 
ATOM     12  C   UNL A   1      40.740  26.910  27.313  1.00  0.00     0.010 A 
ATOM     13  C   UNL A   1      41.830  25.630  29.066  1.00  0.00     0.010 A 
ATOM     14  C   UNL A   1      41.376  26.832  28.542  1.00  0.00    -0.014 A 
BRANCH  14  15
ATOM     15  C   UNL A   1      41.618  28.079  29.227  1.00  0.00     0.031 A 
ATOM     16  C   UNL A   1      42.750  28.859  28.668  1.00  0.00     0.074 A 
ATOM     17  C   UNL A   1      40.815  28.406  30.259  1.00  0.00     0.049 A 
ATOM     18  N   UNL A   1      43.844  29.220  29.253  1.00  0.00    -0.248 NA
ATOM     19  C   UNL A   1      42.749  29.093  27.212  1.00  0.00     0.031 C 
ATOM     20  C   UNL A   1      39.593  27.719  30.704  1.00  0.00     0.029 A 
ATOM     21  N   UNL A   1      40.847  29.504  31.054  1.00  0.00    -0.354 N 
ATOM     22  C   UNL A   1      44.546  29.958  28.303  1.00  0.00     0.074 A 
ATOM     23  C   UNL A   1      43.938  29.669  27.034  1.00  0.00     0.031 C 
ATOM     24  C   UNL A   1      38.871  28.549  31.485  1.00  0.00     0.029 A 
ATOM     25  C   UNL A   1      39.641  29.754  31.709  1.00  0.00     0.049 A 
ATOM     26  H   UNL A   1      41.644  30.072  31.157  1.00  0.00     0.167 HD
ATOM     27  C   UNL A   1      45.376  30.969  28.680  1.00  0.00     0.037 A 
ATOM     28  C   UNL A   1      39.293  30.944  32.262  1.00  0.00     0.037 A 
ATOM     29  C   UNL A   1      45.833  30.781  30.034  1.00  0.00     0.049 A 
ATOM     30  C   UNL A   1      40.568  31.683  32.493  1.00  0.00     0.074 A 
ATOM     31  C   UNL A   1      46.559  29.796  30.676  1.00  0.00     0.029 A 
ATOM     32  N   UNL A   1      45.218  31.500  31.030  1.00  0.00    -0.354 N 
ATOM     33  N   UNL A   1      41.492  31.277  33.327  1.00  0.00    -0.248 NA
ATOM     34  C   UNL A   1      41.037  32.560  31.428  1.00  0.00     0.031 C 
ATOM     35  C   UNL A   1      45.956  29.671  31.961  1.00  0.00     0.029 A 
ATOM     36  C   UNL A   1      44.952  30.635  32.062  1.00  0.00     0.049 A 
ATOM     37  H   UNL A   1      45.006  32.462  31.008  1.00  0.00     0.167 HD
ATOM     38  C   UNL A   1      42.697  31.503  32.671  1.00  0.00     0.074 A 
ATOM     39  C   UNL A   1      42.353  32.343  31.525  1.00  0.00     0.031 C 
ATOM     40  C   UNL A   1      43.811  30.758  32.944  1.00  0.00     0.037 A 
BRANCH  27  41
ATOM     41  C   UNL A   1      45.406  32.313  27.981  1.00  0.00     0.058 A 
ATOM     42  C   UNL A   1      46.642  32.818  27.529  1.00  0.00     0.135 A 
ATOM     43  C   UNL A   1      44.346  33.251  28.013  1.00  0.00     0.135 A 
ATOM     44  F   UNL A   1      47.714  32.018  27.433  1.00  0.00    -0.206 F 
ATOM     45  C   UNL A   1      46.837  34.171  27.247  1.00  0.00     0.059 A 
ATOM     46  C   UNL A   1      44.509  34.592  27.694  1.00  0.00     0.059 A 
ATOM     47  F   UNL A   1      43.117  32.947  28.443  1.00  0.00    -0.206 F 
ATOM     48  C   UNL A   1      45.768  35.054  27.361  1.00  0.00     0.060 A 
BRANCH  48  49
ATOM     49  S   UNL A   1      46.043  36.819  27.145  1.00  0.00     0.124 S 
ATOM     50  O   UNL A   1      46.846  36.839  25.929  1.00  0.00    -0.237 OA
ATOM     51  O   UNL A   1      44.679  37.322  27.022  1.00  0.00    -0.237 OA
ATOM     52  O   UNL A   1      46.739  37.202  28.371  1.00  0.00    -0.744 OA
ENDBRANCH  48  49
ENDBRANCH  27  41
BRANCH  28  53
ATOM     53  C   UNL A   1      37.963  31.601  32.138  1.00  0.00     0.058 A 
ATOM     54  C   UNL A   1      37.122  31.769  33.250  1.00  0.00     0.135 A 
ATOM     55  C   UNL A   1      37.593  32.308  30.971  1.00  0.00     0.135 A 
ATOM     56  F   UNL A   1      37.412  31.157  34.409  1.00  0.00    -0.206 F 
ATOM     57  C   UNL A   1      35.999  32.607  33.217  1.00  0.00     0.059 A 
ATOM     58  C   UNL A   1      36.475  33.137  30.912  1.00  0.00     0.059 A 
ATOM     59  F   UNL A   1      38.358  32.283  29.870  1.00  0.00    -0.206 F 
ATOM     60  C   UNL A   1      35.693  33.301  32.046  1.00  0.00     0.060 A 
BRANCH  60  61
ATOM     61  S   UNL A   1      34.341  34.501  32.039  1.00  0.00     0.124 S 
ATOM     62  O   UNL A   1      34.074  34.648  30.611  1.00  0.00    -0.237 OA
ATOM     63  O   UNL A   1      33.312  33.813  32.812  1.00  0.00    -0.237 OA
ATOM     64  O   UNL A   1      34.923  35.674  32.685  1.00  0.00    -0.744 OA
ENDBRANCH  60  61
ENDBRANCH  28  53
BRANCH  40  65
ATOM     65  C   UNL A   1      43.779  29.824  34.130  1.00  0.00     0.058 A 
ATOM     66  C   UNL A   1      43.391  28.473  34.064  1.00  0.00     0.135 A 
ATOM     67  C   UNL A   1      44.339  30.266  35.336  1.00  0.00     0.135 A 
ATOM     68  F   UNL A   1      42.948  27.942  32.915  1.00  0.00    -0.206 F 
ATOM     69  C   UNL A   1      43.520  27.612  35.157  1.00  0.00     0.059 A 
ATOM     70  C   UNL A   1      44.507  29.420  36.429  1.00  0.00     0.059 A 
ATOM     71  F   UNL A   1      44.796  31.525  35.442  1.00  0.00    -0.206 F 
ATOM     72  C   UNL A   1      44.085  28.096  36.337  1.00  0.00     0.060 A 
BRANCH  72  73
ATOM     73  S   UNL A   1      44.332  26.965  37.724  1.00  0.00     0.124 S 
ATOM     74  O   UNL A   1      45.402  26.103  37.232  1.00  0.00    -0.237 OA
ATOM     75  O   UNL A   1      44.695  27.869  38.811  1.00  0.00    -0.237 OA
ATOM     76  O   UNL A   1      43.030  26.318  37.873  1.00  0.00    -0.744 OA
ENDBRANCH  72  73
ENDBRANCH  40  65
ENDBRANCH  14  15
ENDBRANCH   7   9
ENDBRANCH   6   7
ENDBRANCH   5   6
ENDBRANCH   4   5
ENDBRANCH   3   4
ENDBRANCH   2   3
ENDBRANCH   1   2
BRANCH   1  77
ATOM     77  O   UNL A   1      35.051  23.784  26.447  1.00  0.00    -0.377 OA
BRANCH  77  78
ATOM     78  C   UNL A   1      33.644  23.733  26.429  1.00  0.00     0.188 C 
BRANCH  78  79
ATOM     79  C   UNL A   1      33.080  22.454  27.077  1.00  0.00     0.188 C 
BRANCH  79  80
ATOM     80  O   UNL A   1      33.583  21.173  26.738  1.00  0.00    -0.376 OA
BRANCH  80  81
ATOM     81  C   UNL A   1      32.928  20.362  25.776  1.00  0.00     0.202 C 
BRANCH  81  82
ATOM     82  C   UNL A   1      33.455  20.168  24.341  1.00  0.00     0.261 C 
BRANCH  82  83
ATOM     83  O   UNL A   1      33.534  21.324  23.499  1.00  0.00    -0.460 OA
BRANCH  83  84
ATOM     84  C   UNL A   1      32.412  21.657  22.827  1.00  0.00     0.338 C 
ATOM     85  O   UNL A   1      31.729  20.943  22.106  1.00  0.00    -0.246 OA
BRANCH  84  86
ATOM     86  C   UNL A   1      32.015  23.016  23.242  1.00  0.00     0.060 A 
ATOM     87  C   UNL A   1      30.946  23.171  24.134  1.00  0.00     0.016 A 
ATOM     88  C   UNL A   1      32.716  24.128  22.783  1.00  0.00     0.016 A 
ATOM     89  C   UNL A   1      30.597  24.436  24.591  1.00  0.00     0.005 A 
ATOM     90  C   UNL A   1      32.313  25.404  23.185  1.00  0.00     0.005 A 
ATOM     91  C   UNL A   1      31.251  25.575  24.095  1.00  0.00    -0.038 A 
BRANCH  91  92
ATOM     92  C   UNL A   1      30.648  26.928  24.439  1.00  0.00     0.081 C 
ATOM     93  C   UNL A   1      30.774  27.862  23.218  1.00  0.00     0.111 C 
ATOM     94  C   UNL A   1      31.360  27.477  25.614  1.00  0.00     0.093 A 
ATOM     95  C   UNL A   1      31.911  28.866  23.311  1.00  0.00     0.188 C 
ATOM     96  C   UNL A   1      32.177  28.580  25.500  1.00  0.00     0.164 A 
ATOM     97  N   UNL A   1      31.372  26.959  26.876  1.00  0.00    -0.238 NA
ATOM     98  N   UNL A   1      32.524  29.261  24.380  1.00  0.00    -0.198 NA
ATOM     99  N   UNL A   1      32.746  28.731  26.750  1.00  0.00    -0.283 N 
ATOM    100  C   UNL A   1      32.249  27.701  27.523  1.00  0.00     0.206 A 
BRANCH  95 101
ATOM    101  O   UNL A   1      32.250  29.426  22.134  1.00  0.00    -0.496 OA
ATOM    102  H   UNL A   1      31.632  29.955  21.671  1.00  0.00     0.294 HD
ENDBRANCH  95 101
BRANCH  99 103
ATOM    103  C   UNL A   1      33.690  29.707  27.134  1.00  0.00     0.050 A 
ATOM    104  C   UNL A   1      33.273  31.017  27.398  1.00  0.00     0.027 A 
ATOM    105  C   UNL A   1      35.033  29.341  27.282  1.00  0.00     0.047 A 
ATOM    106  C   UNL A   1      34.205  31.950  27.857  1.00  0.00     0.004 A 
ATOM    107  C   UNL A   1      35.960  30.296  27.690  1.00  0.00     0.043 A 
ATOM    108  C   UNL A   1      35.549  31.593  27.995  1.00  0.00     0.020 A 
ATOM    109  Cl  UNL A   1      37.624  29.876  27.808  1.00  0.00    -0.084 Cl
ENDBRANCH  99 103
ENDBRANCH  91  92
ENDBRANCH  84  86
ENDBRANCH  83  84
ENDBRANCH  82  83
ENDBRANCH  81  82
ENDBRANCH  80  81
ENDBRANCH  79  80
ENDBRANCH  78  79
ENDBRANCH  77  78
ENDBRANCH   1  77
TORSDOF 26
ENDMDL
MODEL 2
REMARK VINA RESULT:     -10.1      1.453      2.509
REMARK SMILES O=C(OCCOCCOCCOCCOC(=O)c1ccc([C@@H]2CC(O)=Nc3c2ncn3-c2cccc(Cl)c2)cc1)c1ccc(-c2c3nc(c(-c4c(F)cc(S(=O)(=O)[O-])cc4F)c4ccc([nH]4)c(-c4c(F)cc(S(=O)(=O)[O-])cc4F)c4nc(c(-c5c(F)cc(S(=O)(=O)[O-])cc5F)c5ccc2[nH]5)C=C4)C=C3)cc1
REMARK SMILES IDX 8 1 7 2 6 3 5 4 4 5 3 6 2 7 1 8 41 9 42 10 106 11 43 12
REMARK SMILES IDX 105 13 44 14 45 15 46 16 99 17 47 18 104 19 98 20 100 21
REMARK SMILES IDX 48 22 103 23 97 24 96 25 49 27 83 28 62 29 82 30 63 31 66 32
REMARK SMILES IDX 81 33 101 34 64 35 65 36 80 38 102 39 67 40 50 41 51 42
REMARK SMILES IDX 60 43 52 44 53 45 59 46 61 47 54 48 55 49 56 50 57 51 58 52
REMARK SMILES IDX 84 53 85 54 94 55 86 56 87 57 93 58 95 59 88 60 89 61 90 62
REMARK SMILES IDX 91 63 92 64 68 65 69 66 78 67 70 68 71 69 77 70 79 71 72 72
REMARK SMILES IDX 73 73 74 74 75 75 76 76 9 77 10 78 11 79 12 80 13 81 14 82
REMARK SMILES IDX 15 83 16 84 17 85 18 86 19 87 40 88 20 89 39 90 21 91 22 92
REMARK SMILES IDX 23 93 28 94 24 95 27 96 29 97 26 98 31 99 30 100 25 101
REMARK SMILES IDX 32 103 33 104 38 105 34 106 36 107 35 108 37 109
REMARK H PARENT 100 26 66 37 25 102
REMARK Flexibility Score: inf
ROOT
ATOM      1  C   UNL A   1      41.514  20.028  27.310  1.00  0.00     0.188 C 
ENDROOT
BRANCH   1   2
ATOM      2  C   UNL A   1      42.145  19.552  25.985  1.00  0.00     0.188 C 
BRANCH   2   3
ATOM      3  O   UNL A   1      43.076  20.257  25.178  1.00  0.00    -0.376 OA
BRANCH   3   4
ATOM      4  C   UNL A   1      43.688  21.520  25.328  1.00  0.00     0.202 C 
BRANCH   4   5
ATOM      5  C   UNL A   1      42.964  22.861  25.425  1.00  0.00     0.261 C 
BRANCH   5   6
ATOM      6  O   UNL A   1      42.385  23.157  26.682  1.00  0.00    -0.460 OA
BRANCH   6   7
ATOM      7  C   UNL A   1      41.587  24.198  26.985  1.00  0.00     0.338 C 
ATOM      8  O   UNL A   1      40.369  24.033  26.916  1.00  0.00    -0.246 OA
BRANCH   7   9
ATOM      9  C   UNL A   1      42.086  25.568  27.282  1.00  0.00     0.060 A 
ATOM     10  C   UNL A   1      43.219  25.902  28.031  1.00  0.00     0.016 A 
ATOM     11  C   UNL A   1      41.282  26.602  26.764  1.00  0.00     0.016 A 
ATOM     12  C   UNL A   1      43.394  27.189  28.476  1.00  0.00     0.010 A 
ATOM     13  C   UNL A   1      41.480  27.903  27.162  1.00  0.00     0.010 A 
ATOM     14  C   UNL A   1      42.454  28.144  28.121  1.00  0.00    -0.014 A 
BRANCH  14  15
ATOM     15  C   UNL A   1      42.482  29.386  28.856  1.00  0.00     0.031 A 
ATOM     16  C   UNL A   1      43.419  30.391  28.297  1.00  0.00     0.074 A 
ATOM     17  C   UNL A   1      41.675  29.510  29.929  1.00  0.00     0.049 A 
ATOM     18  N   UNL A   1      44.448  30.932  28.862  1.00  0.00    -0.248 NA
ATOM     19  C   UNL A   1      43.312  30.680  26.855  1.00  0.00     0.031 C 
ATOM     20  C   UNL A   1      40.627  28.583  30.382  1.00  0.00     0.029 A 
ATOM     21  N   UNL A   1      41.530  30.560  30.774  1.00  0.00    -0.354 N 
ATOM     22  C   UNL A   1      44.955  31.830  27.925  1.00  0.00     0.074 A 
ATOM     23  C   UNL A   1      44.360  31.481  26.665  1.00  0.00     0.031 C 
ATOM     24  C   UNL A   1      39.794  29.225  31.225  1.00  0.00     0.029 A 
ATOM     25  C   UNL A   1      40.328  30.546  31.480  1.00  0.00     0.049 A 
ATOM     26  H   UNL A   1      42.209  31.267  30.877  1.00  0.00     0.167 HD
ATOM     27  C   UNL A   1      45.592  32.966  28.321  1.00  0.00     0.037 A 
ATOM     28  C   UNL A   1      39.783  31.623  32.101  1.00  0.00     0.037 A 
ATOM     29  C   UNL A   1      46.133  32.815  29.649  1.00  0.00     0.049 A 
ATOM     30  C   UNL A   1      40.901  32.585  32.324  1.00  0.00     0.074 A 
ATOM     31  C   UNL A   1      47.060  31.964  30.218  1.00  0.00     0.029 A 
ATOM     32  N   UNL A   1      45.434  33.361  30.698  1.00  0.00    -0.354 N 
ATOM     33  N   UNL A   1      41.921  32.330  33.107  1.00  0.00    -0.248 NA
ATOM     34  C   UNL A   1      41.149  33.578  31.287  1.00  0.00     0.031 C 
ATOM     35  C   UNL A   1      46.547  31.672  31.515  1.00  0.00     0.029 A 
ATOM     36  C   UNL A   1      45.383  32.420  31.696  1.00  0.00     0.049 A 
ATOM     37  H   UNL A   1      45.041  34.265  30.729  1.00  0.00     0.167 HD
ATOM     38  C   UNL A   1      43.031  32.811  32.422  1.00  0.00     0.074 A 
ATOM     39  C   UNL A   1      42.485  33.614  31.329  1.00  0.00     0.031 C 
ATOM     40  C   UNL A   1      44.277  32.285  32.621  1.00  0.00     0.037 A 
BRANCH  27  41
ATOM     41  C   UNL A   1      45.334  34.318  27.687  1.00  0.00     0.058 A 
ATOM     42  C   UNL A   1      46.435  35.129  27.344  1.00  0.00     0.135 A 
ATOM     43  C   UNL A   1      44.079  34.972  27.688  1.00  0.00     0.135 A 
ATOM     44  F   UNL A   1      47.673  34.615  27.287  1.00  0.00    -0.206 F 
ATOM     45  C   UNL A   1      46.312  36.504  27.137  1.00  0.00     0.059 A 
ATOM     46  C   UNL A   1      43.930  36.330  27.441  1.00  0.00     0.059 A 
ATOM     47  F   UNL A   1      42.938  34.358  28.019  1.00  0.00    -0.206 F 
ATOM     48  C   UNL A   1      45.056  37.098  27.217  1.00  0.00     0.060 A 
BRANCH  48  49
ATOM     49  S   UNL A   1      44.908  38.887  27.099  1.00  0.00     0.124 S 
ATOM     50  O   UNL A   1      45.781  39.176  25.967  1.00  0.00    -0.237 OA
ATOM     51  O   UNL A   1      43.478  39.055  26.866  1.00  0.00    -0.237 OA
ATOM     52  O   UNL A   1      45.384  39.349  28.400  1.00  0.00    -0.744 OA
ENDBRANCH  48  49
ENDBRANCH  27  41
BRANCH  28  53
ATOM     53  C   UNL A   1      38.348  32.016  32.053  1.00  0.00     0.058 A 
ATOM     54  C   UNL A   1      37.608  32.234  33.227  1.00  0.00     0.135 A 
ATOM     55  C   UNL A   1      37.734  32.433  30.851  1.00  0.00     0.135 A 
ATOM     56  F   UNL A   1      38.125  31.894  34.419  1.00  0.00    -0.206 F 
ATOM     57  C   UNL A   1      36.351  32.854  33.214  1.00  0.00     0.059 A 
ATOM     58  C   UNL A   1      36.481  33.039  30.811  1.00  0.00     0.059 A 
ATOM     59  F   UNL A   1      38.373  32.343  29.675  1.00  0.00    -0.206 F 
ATOM     60  C   UNL A   1      35.801  33.268  32.000  1.00  0.00     0.060 A 
BRANCH  60  61
ATOM     61  S   UNL A   1      34.255  34.205  31.985  1.00  0.00     0.124 S 
ATOM     62  O   UNL A   1      33.787  33.994  30.619  1.00  0.00    -0.237 OA
ATOM     63  O   UNL A   1      33.484  33.543  33.032  1.00  0.00    -0.237 OA
ATOM     64  O   UNL A   1      34.679  35.568  32.293  1.00  0.00    -0.744 OA
ENDBRANCH  60  61
ENDBRANCH  28  53
BRANCH  40  65
ATOM     65  C   UNL A   1      44.475  31.315  33.761  1.00  0.00     0.058 A 
ATOM     66  C   UNL A   1      44.670  31.697  35.102  1.00  0.00     0.135 A 
ATOM     67  C   UNL A   1      44.274  29.950  33.512  1.00  0.00     0.135 A 
ATOM     68  F   UNL A   1      44.761  32.991  35.440  1.00  0.00    -0.206 F 
ATOM     69  C   UNL A   1      44.699  30.762  36.140  1.00  0.00     0.059 A 
ATOM     70  C   UNL A   1      44.268  29.004  34.533  1.00  0.00     0.059 A 
ATOM     71  F   UNL A   1      44.012  29.528  32.264  1.00  0.00    -0.206 F 
ATOM     72  C   UNL A   1      44.492  29.415  35.844  1.00  0.00     0.060 A 
BRANCH  72  73
ATOM     73  S   UNL A   1      44.445  28.214  37.193  1.00  0.00     0.124 S 
ATOM     74  O   UNL A   1      43.070  27.733  37.130  1.00  0.00    -0.237 OA
ATOM     75  O   UNL A   1      45.472  27.254  36.800  1.00  0.00    -0.237 OA
ATOM     76  O   UNL A   1      44.772  29.012  38.373  1.00  0.00    -0.744 OA
ENDBRANCH  72  73
ENDBRANCH  40  65
ENDBRANCH  14  15
ENDBRANCH   7   9
ENDBRANCH   6   7
ENDBRANCH   5   6
ENDBRANCH   4   5
ENDBRANCH   3   4
ENDBRANCH   2   3
ENDBRANCH   1   2
BRANCH   1  77
ATOM     77  O   UNL A   1      40.259  20.681  27.254  1.00  0.00    -0.377 OA
BRANCH  77  78
ATOM     78  C   UNL A   1      39.677  20.665  25.971  1.00  0.00     0.188 C 
BRANCH  78  79
ATOM     79  C   UNL A   1      38.523  21.676  25.821  1.00  0.00     0.188 C 
BRANCH  79  80
ATOM     80  O   UNL A   1      37.445  21.435  24.934  1.00  0.00    -0.376 OA
BRANCH  80  81
ATOM     81  C   UNL A   1      36.136  21.191  25.424  1.00  0.00     0.202 C 
BRANCH  81  82
ATOM     82  C   UNL A   1      35.228  20.073  24.876  1.00  0.00     0.261 C 
BRANCH  82  83
ATOM     83  O   UNL A   1      33.845  20.096  25.246  1.00  0.00    -0.460 OA
BRANCH  83  84
ATOM     84  C   UNL A   1      32.951  20.113  24.234  1.00  0.00     0.338 C 
ATOM     85  O   UNL A   1      32.423  19.156  23.685  1.00  0.00    -0.246 OA
BRANCH  84  86
ATOM     86  C   UNL A   1      32.556  21.514  23.994  1.00  0.00     0.060 A 
ATOM     87  C   UNL A   1      31.725  22.156  24.920  1.00  0.00     0.016 A 
ATOM     88  C   UNL A   1      33.032  22.201  22.879  1.00  0.00     0.016 A 
ATOM     89  C   UNL A   1      31.395  23.495  24.749  1.00  0.00     0.005 A 
ATOM     90  C   UNL A   1      32.634  23.523  22.671  1.00  0.00     0.005 A 
ATOM     91  C   UNL A   1      31.813  24.188  23.603  1.00  0.00    -0.038 A 
BRANCH  91  92
ATOM     92  C   UNL A   1      31.202  25.559  23.357  1.00  0.00     0.081 C 
ATOM     93  C   UNL A   1      31.900  26.213  22.147  1.00  0.00     0.111 C 
ATOM     94  C   UNL A   1      31.365  26.375  24.580  1.00  0.00     0.093 A 
ATOM     95  C   UNL A   1      32.941  27.258  22.514  1.00  0.00     0.188 C 
ATOM     96  C   UNL A   1      32.214  27.459  24.606  1.00  0.00     0.164 A 
ATOM     97  N   UNL A   1      30.798  26.140  25.800  1.00  0.00    -0.238 NA
ATOM     98  N   UNL A   1      33.053  27.897  23.634  1.00  0.00    -0.198 NA
ATOM     99  N   UNL A   1      32.193  27.896  25.916  1.00  0.00    -0.283 N 
ATOM    100  C   UNL A   1      31.350  27.037  26.592  1.00  0.00     0.206 A 
BRANCH  95 101
ATOM    101  O   UNL A   1      33.790  27.565  21.514  1.00  0.00    -0.496 OA
ATOM    102  H   UNL A   1      33.674  27.184  20.667  1.00  0.00     0.294 HD
ENDBRANCH  95 101
BRANCH  99 103
ATOM    103  C   UNL A   1      32.932  28.968  26.459  1.00  0.00     0.050 A 
ATOM    104  C   UNL A   1      32.352  30.238  26.560  1.00  0.00     0.027 A 
ATOM    105  C   UNL A   1      34.233  28.737  26.925  1.00  0.00     0.047 A 
ATOM    106  C   UNL A   1      33.066  31.268  27.175  1.00  0.00     0.004 A 
ATOM    107  C   UNL A   1      34.952  29.788  27.488  1.00  0.00     0.043 A 
ATOM    108  C   UNL A   1      34.369  31.046  27.631  1.00  0.00     0.020 A 
ATOM    109  Cl  UNL A   1      36.575  29.533  28.000  1.00  0.00    -0.084 Cl
ENDBRANCH  99 103
ENDBRANCH  91  92
ENDBRANCH  84  86
ENDBRANCH  83  84
ENDBRANCH  82  83
ENDBRANCH  81  82
ENDBRANCH  80  81
ENDBRANCH  79  80
ENDBRANCH  78  79
ENDBRANCH  77  78
ENDBRANCH   1  77
TORSDOF 26
ENDMDL
MODEL 3
REMARK VINA RESULT:      -9.2      2.444      3.768
REMARK SMILES O=C(OCCOCCOCCOCCOC(=O)c1ccc([C@@H]2CC(O)=Nc3c2ncn3-c2cccc(Cl)c2)cc1)c1ccc(-c2c3nc(c(-c4c(F)cc(S(=O)(=O)[O-])cc4F)c4ccc([nH]4)c(-c4c(F)cc(S(=O)(=O)[O-])cc4F)c4nc(c(-c5c(F)cc(S(=O)(=O)[O-])cc5F)c5ccc2[nH]5)C=C4)C=C3)cc1
REMARK SMILES IDX 8 1 7 2 6 3 5 4 4 5 3 6 2 7 1 8 41 9 42 10 106 11 43 12
REMARK SMILES IDX 105 13 44 14 45 15 46 16 99 17 47 18 104 19 98 20 100 21
REMARK SMILES IDX 48 22 103 23 97 24 96 25 49 27 83 28 62 29 82 30 63 31 66 32
REMARK SMILES IDX 81 33 101 34 64 35 65 36 80 38 102 39 67 40 50 41 51 42
REMARK SMILES IDX 60 43 52 44 53 45 59 46 61 47 54 48 55 49 56 50 57 51 58 52
REMARK SMILES IDX 84 53 85 54 94 55 86 56 87 57 93 58 95 59 88 60 89 61 90 62
REMARK SMILES IDX 91 63 92 64 68 65 69 66 78 67 70 68 71 69 77 70 79 71 72 72
REMARK SMILES IDX 73 73 74 74 75 75 76 76 9 77 10 78 11 79 12 80 13 81 14 82
REMARK SMILES IDX 15 83 16 84 17 85 18 86 19 87 40 88 20 89 39 90 21 91 22 92
REMARK SMILES IDX 23 93 28 94 24 95 27 96 29 97 26 98 31 99 30 100 25 101
REMARK SMILES IDX 32 103 33 104 38 105 34 106 36 107 35 108 37 109
REMARK H PARENT 100 26 66 37 25 102
REMARK Flexibility Score: inf
ROOT
ATOM      1  C   UNL A   1      41.747  20.649  27.507  1.00  0.00     0.188 C 
ENDROOT
BRANCH   1   2
ATOM      2  C   UNL A   1      42.737  20.781  26.331  1.00  0.00     0.188 C 
BRANCH   2   3
ATOM      3  O   UNL A   1      43.104  21.971  25.651  1.00  0.00    -0.376 OA
BRANCH   3   4
ATOM      4  C   UNL A   1      42.794  23.328  25.888  1.00  0.00     0.202 C 
BRANCH   4   5
ATOM      5  C   UNL A   1      43.335  24.521  25.105  1.00  0.00     0.261 C 
BRANCH   5   6
ATOM      6  O   UNL A   1      42.388  25.520  24.777  1.00  0.00    -0.460 OA
BRANCH   6   7
ATOM      7  C   UNL A   1      42.497  26.846  24.991  1.00  0.00     0.338 C 
ATOM      8  O   UNL A   1      43.165  27.507  24.196  1.00  0.00    -0.246 OA
BRANCH   7   9
ATOM      9  C   UNL A   1      41.960  27.540  26.192  1.00  0.00     0.060 A 
ATOM     10  C   UNL A   1      41.026  28.580  26.209  1.00  0.00     0.016 A 
ATOM     11  C   UNL A   1      42.505  27.092  27.411  1.00  0.00     0.016 A 
ATOM     12  C   UNL A   1      40.845  29.323  27.350  1.00  0.00     0.010 A 
ATOM     13  C   UNL A   1      42.289  27.799  28.571  1.00  0.00     0.010 A 
ATOM     14  C   UNL A   1      41.569  28.982  28.482  1.00  0.00    -0.014 A 
BRANCH  14  15
ATOM     15  C   UNL A   1      41.607  29.957  29.545  1.00  0.00     0.031 A 
ATOM     16  C   UNL A   1      42.790  30.850  29.496  1.00  0.00     0.074 A 
ATOM     17  C   UNL A   1      40.596  29.968  30.436  1.00  0.00     0.049 A 
ATOM     18  N   UNL A   1      43.724  30.997  30.377  1.00  0.00    -0.248 NA
ATOM     19  C   UNL A   1      43.075  31.517  28.212  1.00  0.00     0.031 C 
ATOM     20  C   UNL A   1      39.343  29.199  30.389  1.00  0.00     0.029 A 
ATOM     21  N   UNL A   1      40.413  30.771  31.514  1.00  0.00    -0.354 N 
ATOM     22  C   UNL A   1      44.569  31.977  29.862  1.00  0.00     0.074 A 
ATOM     23  C   UNL A   1      44.246  32.100  28.468  1.00  0.00     0.031 C 
ATOM     24  C   UNL A   1      38.439  29.763  31.215  1.00  0.00     0.029 A 
ATOM     25  C   UNL A   1      39.088  30.829  31.947  1.00  0.00     0.049 A 
ATOM     26  H   UNL A   1      41.145  31.266  31.947  1.00  0.00     0.167 HD
ATOM     27  C   UNL A   1      45.256  32.811  30.690  1.00  0.00     0.037 A 
ATOM     28  C   UNL A   1      38.579  31.800  32.748  1.00  0.00     0.037 A 
ATOM     29  C   UNL A   1      45.435  32.212  31.989  1.00  0.00     0.049 A 
ATOM     30  C   UNL A   1      39.744  32.412  33.451  1.00  0.00     0.074 A 
ATOM     31  C   UNL A   1      46.062  31.066  32.440  1.00  0.00     0.029 A 
ATOM     32  N   UNL A   1      44.597  32.604  33.004  1.00  0.00    -0.354 N 
ATOM     33  N   UNL A   1      40.497  31.754  34.298  1.00  0.00    -0.248 NA
ATOM     34  C   UNL A   1      40.378  33.564  32.823  1.00  0.00     0.031 C 
ATOM     35  C   UNL A   1      45.217  30.565  33.473  1.00  0.00     0.029 A 
ATOM     36  C   UNL A   1      44.168  31.470  33.648  1.00  0.00     0.049 A 
ATOM     37  H   UNL A   1      44.348  33.530  33.230  1.00  0.00     0.167 HD
ATOM     38  C   UNL A   1      41.798  32.149  34.007  1.00  0.00     0.074 A 
ATOM     39  C   UNL A   1      41.655  33.304  33.122  1.00  0.00     0.031 C 
ATOM     40  C   UNL A   1      42.867  31.338  34.268  1.00  0.00     0.037 A 
BRANCH  27  41
ATOM     41  C   UNL A   1      45.363  34.304  30.452  1.00  0.00     0.058 A 
ATOM     42  C   UNL A   1      46.628  34.919  30.541  1.00  0.00     0.135 A 
ATOM     43  C   UNL A   1      44.260  35.191  30.448  1.00  0.00     0.135 A 
ATOM     44  F   UNL A   1      47.750  34.181  30.531  1.00  0.00    -0.206 F 
ATOM     45  C   UNL A   1      46.779  36.293  30.734  1.00  0.00     0.059 A 
ATOM     46  C   UNL A   1      44.390  36.565  30.593  1.00  0.00     0.059 A 
ATOM     47  F   UNL A   1      42.990  34.775  30.399  1.00  0.00    -0.206 F 
ATOM     48  C   UNL A   1      45.649  37.103  30.786  1.00  0.00     0.060 A 
BRANCH  48  49
ATOM     49  S   UNL A   1      45.823  38.850  31.181  1.00  0.00     0.124 S 
ATOM     50  O   UNL A   1      44.658  39.073  32.027  1.00  0.00    -0.237 OA
ATOM     51  O   UNL A   1      47.118  38.877  31.852  1.00  0.00    -0.237 OA
ATOM     52  O   UNL A   1      45.788  39.494  29.871  1.00  0.00    -0.744 OA
ENDBRANCH  48  49
ENDBRANCH  27  41
BRANCH  28  53
ATOM     53  C   UNL A   1      37.273  32.486  32.554  1.00  0.00     0.058 A 
ATOM     54  C   UNL A   1      36.445  32.808  33.642  1.00  0.00     0.135 A 
ATOM     55  C   UNL A   1      36.919  33.069  31.316  1.00  0.00     0.135 A 
ATOM     56  F   UNL A   1      36.721  32.321  34.862  1.00  0.00    -0.206 F 
ATOM     57  C   UNL A   1      35.352  33.677  33.518  1.00  0.00     0.059 A 
ATOM     58  C   UNL A   1      35.832  33.925  31.165  1.00  0.00     0.059 A 
ATOM     59  F   UNL A   1      37.676  32.893  30.223  1.00  0.00    -0.206 F 
ATOM     60  C   UNL A   1      35.063  34.245  32.276  1.00  0.00     0.060 A 
BRANCH  60  61
ATOM     61  S   UNL A   1      33.754  35.485  32.136  1.00  0.00     0.124 S 
ATOM     62  O   UNL A   1      33.671  35.675  30.692  1.00  0.00    -0.237 OA
ATOM     63  O   UNL A   1      32.620  34.807  32.756  1.00  0.00    -0.237 OA
ATOM     64  O   UNL A   1      34.282  36.623  32.884  1.00  0.00    -0.744 OA
ENDBRANCH  60  61
ENDBRANCH  28  53
BRANCH  40  65
ATOM     65  C   UNL A   1      42.639  30.087  35.083  1.00  0.00     0.058 A 
ATOM     66  C   UNL A   1      42.018  28.924  34.592  1.00  0.00     0.135 A 
ATOM     67  C   UNL A   1      43.237  30.003  36.348  1.00  0.00     0.135 A 
ATOM     68  F   UNL A   1      41.518  28.886  33.349  1.00  0.00    -0.206 F 
ATOM     69  C   UNL A   1      41.964  27.744  35.338  1.00  0.00     0.059 A 
ATOM     70  C   UNL A   1      43.223  28.830  37.097  1.00  0.00     0.059 A 
ATOM     71  F   UNL A   1      43.907  31.056  36.845  1.00  0.00    -0.206 F 
ATOM     72  C   UNL A   1      42.576  27.706  36.591  1.00  0.00     0.060 A 
BRANCH  72  73
ATOM     73  S   UNL A   1      42.582  26.157  37.522  1.00  0.00     0.124 S 
ATOM     74  O   UNL A   1      43.368  26.509  38.700  1.00  0.00    -0.237 OA
ATOM     75  O   UNL A   1      41.160  25.921  37.756  1.00  0.00    -0.237 OA
ATOM     76  O   UNL A   1      43.219  25.211  36.609  1.00  0.00    -0.744 OA
ENDBRANCH  72  73
ENDBRANCH  40  65
ENDBRANCH  14  15
ENDBRANCH   7   9
ENDBRANCH   6   7
ENDBRANCH   5   6
ENDBRANCH   4   5
ENDBRANCH   3   4
ENDBRANCH   2   3
ENDBRANCH   1   2
BRANCH   1  77
ATOM     77  O   UNL A   1      40.529  21.368  27.436  1.00  0.00    -0.377 OA
BRANCH  77  78
ATOM     78  C   UNL A   1      39.791  21.104  26.266  1.00  0.00     0.188 C 
BRANCH  78  79
ATOM     79  C   UNL A   1      38.747  22.194  25.955  1.00  0.00     0.188 C 
BRANCH  79  80
ATOM     80  O   UNL A   1      37.550  21.890  25.259  1.00  0.00    -0.376 OA
BRANCH  80  81
ATOM     81  C   UNL A   1      36.780  20.748  25.597  1.00  0.00     0.202 C 
BRANCH  81  82
ATOM     82  C   UNL A   1      35.575  20.270  24.763  1.00  0.00     0.261 C 
BRANCH  82  83
ATOM     83  O   UNL A   1      34.275  20.361  25.358  1.00  0.00    -0.460 OA
BRANCH  83  84
ATOM     84  C   UNL A   1      33.316  20.962  24.621  1.00  0.00     0.338 C 
ATOM     85  O   UNL A   1      32.341  20.445  24.095  1.00  0.00    -0.246 OA
BRANCH  84  86
ATOM     86  C   UNL A   1      33.531  22.420  24.690  1.00  0.00     0.060 A 
ATOM     87  C   UNL A   1      33.398  23.071  25.923  1.00  0.00     0.016 A 
ATOM     88  C   UNL A   1      33.897  23.135  23.553  1.00  0.00     0.016 A 
ATOM     89  C   UNL A   1      33.661  24.431  26.026  1.00  0.00     0.005 A 
ATOM     90  C   UNL A   1      34.084  24.516  23.645  1.00  0.00     0.005 A 
ATOM     91  C   UNL A   1      33.971  25.182  24.881  1.00  0.00    -0.038 A 
BRANCH  91  92
ATOM     92  C   UNL A   1      33.989  26.696  25.026  1.00  0.00     0.081 C 
ATOM     93  C   UNL A   1      33.430  27.077  26.412  1.00  0.00     0.111 C 
ATOM     94  C   UNL A   1      33.178  27.284  23.937  1.00  0.00     0.093 A 
ATOM     95  C   UNL A   1      31.989  27.562  26.395  1.00  0.00     0.188 C 
ATOM     96  C   UNL A   1      31.978  27.907  24.198  1.00  0.00     0.164 A 
ATOM     97  N   UNL A   1      33.444  27.227  22.599  1.00  0.00    -0.238 NA
ATOM     98  N   UNL A   1      31.325  28.018  25.382  1.00  0.00    -0.198 NA
ATOM     99  N   UNL A   1      31.463  28.224  22.956  1.00  0.00    -0.283 N 
ATOM    100  C   UNL A   1      32.376  27.754  22.034  1.00  0.00     0.206 A 
BRANCH  95 101
ATOM    101  O   UNL A   1      31.390  27.551  27.601  1.00  0.00    -0.496 OA
ATOM    102  H   UNL A   1      31.907  27.559  28.382  1.00  0.00     0.294 HD
ENDBRANCH  95 101
BRANCH  99 103
ATOM    103  C   UNL A   1      30.226  28.848  22.690  1.00  0.00     0.050 A 
ATOM    104  C   UNL A   1      30.182  30.009  21.911  1.00  0.00     0.027 A 
ATOM    105  C   UNL A   1      29.049  28.272  23.184  1.00  0.00     0.047 A 
ATOM    106  C   UNL A   1      28.944  30.568  21.588  1.00  0.00     0.004 A 
ATOM    107  C   UNL A   1      27.825  28.871  22.897  1.00  0.00     0.043 A 
ATOM    108  C   UNL A   1      27.766  30.005  22.087  1.00  0.00     0.020 A 
ATOM    109  Cl  UNL A   1      26.378  28.213  23.554  1.00  0.00    -0.084 Cl
ENDBRANCH  99 103
ENDBRANCH  91  92
ENDBRANCH  84  86
ENDBRANCH  83  84
ENDBRANCH  82  83
ENDBRANCH  81  82
ENDBRANCH  80  81
ENDBRANCH  79  80
ENDBRANCH  78  79
ENDBRANCH  77  78
ENDBRANCH   1  77
TORSDOF 26
ENDMDL
