MODEL 1
REMARK VINA RESULT:      -8.6      0.000      0.000
REMARK SMILES Cc1coc2c(C)c3oc(=O)c(CCC(=O)N[C@H](CC(C)C)C(=O)OCCOCCOCCOCCOC(=O)c4ccc(-c5c6nc(c(-c7c(F)cc(S(=O)(=O)[O-])cc7F)c7ccc([nH]7)c(-c7c(F)cc(S(=O)(=O)[O-])cc7F)c7nc(c(-c8c(F)cc(S(=O)(=O)[O-])cc8F)c8ccc5[nH]8)C=C7)C=C6)cc4)c(C)c3cc12
REMARK SMILES IDX 30 1 29 2 28 3 27 4 26 5 25 6 23 7 24 8 18 9 17 10 15 11
REMARK SMILES IDX 16 12 14 14 13 15 12 16 1 17 2 18 3 19 110 20 4 21 5 22
REMARK SMILES IDX 109 23 6 24 108 25 7 26 8 27 106 28 9 29 107 30 10 31 11 32
REMARK SMILES IDX 19 33 20 34 21 35 22 36 31 37 32 38 33 39 34 40 35 41 36 42
REMARK SMILES IDX 37 43 38 44 39 45 40 46 41 47 105 48 42 49 104 50 43 51
REMARK SMILES IDX 44 52 45 53 98 54 46 55 103 56 97 57 99 58 47 59 102 60
REMARK SMILES IDX 96 61 95 62 48 64 82 65 61 66 81 67 62 68 65 69 80 70 100 71
REMARK SMILES IDX 63 72 64 73 79 75 101 76 66 77 49 78 50 79 59 80 51 81 52 82
REMARK SMILES IDX 58 83 60 84 53 85 54 86 55 87 56 88 57 89 83 90 84 91 93 92
REMARK SMILES IDX 85 93 86 94 92 95 94 96 87 97 88 98 89 99 90 100 91 101
REMARK SMILES IDX 67 102 68 103 77 104 69 105 70 106 76 107 78 108 71 109
REMARK SMILES IDX 72 110 73 111 74 112 75 113
REMARK H PARENT 17 13 99 63 65 74
REMARK Flexibility Score: inf
ROOT
ATOM      1  C   UNL A   1      49.455  25.800  28.407  1.00  0.00     0.188 C 
ENDROOT
BRANCH   1   2
ATOM      2  C   UNL A   1      48.210  25.257  27.717  1.00  0.00     0.188 C 
BRANCH   2   3
ATOM      3  O   UNL A   1      46.970  25.512  28.381  1.00  0.00    -0.376 OA
BRANCH   3   4
ATOM      4  C   UNL A   1      46.024  24.447  28.469  1.00  0.00     0.202 C 
BRANCH   4   5
ATOM      5  C   UNL A   1      45.293  24.081  27.167  1.00  0.00     0.261 C 
BRANCH   5   6
ATOM      6  O   UNL A   1      44.069  24.824  26.980  1.00  0.00    -0.462 OA
BRANCH   6   7
ATOM      7  C   UNL A   1      43.182  24.325  26.099  1.00  0.00     0.328 C 
ATOM      8  O   UNL A   1      43.158  24.630  24.904  1.00  0.00    -0.250 OA
BRANCH   7   9
ATOM      9  C   UNL A   1      42.200  23.260  26.652  1.00  0.00     0.192 C 
BRANCH   9  10
ATOM     10  N   UNL A   1      41.243  23.973  27.518  1.00  0.00    -0.343 N 
ATOM     11  C   UNL A   1      39.912  24.228  27.472  1.00  0.00     0.221 C 
ATOM     12  O   UNL A   1      39.485  25.150  28.172  1.00  0.00    -0.275 OA
ATOM     13  H   UNL A   1      41.670  24.353  28.320  1.00  0.00     0.164 HD
BRANCH  11  14
ATOM     14  C   UNL A   1      38.960  23.360  26.683  1.00  0.00     0.105 C 
BRANCH  14  15
ATOM     15  C   UNL A   1      37.893  23.963  25.724  1.00  0.00     0.053 C 
BRANCH  15  16
ATOM     16  C   UNL A   1      36.611  23.197  25.406  1.00  0.00     0.042 A 
ATOM     17  C   UNL A   1      34.724  16.770  23.930  1.00  0.00     0.048 C 
ATOM     18  C   UNL A   1      33.756  17.819  24.330  1.00  0.00    -0.005 A 
ATOM     19  C   UNL A   1      32.378  17.804  24.281  1.00  0.00     0.199 A 
ATOM     20  C   UNL A   1      34.099  19.125  24.761  1.00  0.00     0.024 A 
ATOM     21  O   UNL A   1      31.862  19.003  24.673  1.00  0.00    -0.464 OA
ATOM     22  C   UNL A   1      32.918  19.833  24.918  1.00  0.00     0.140 A 
ATOM     23  C   UNL A   1      35.320  19.770  24.966  1.00  0.00     0.024 A 
ATOM     24  C   UNL A   1      32.857  21.190  25.247  1.00  0.00     0.036 A 
ATOM     25  C   UNL A   1      35.337  21.154  25.092  1.00  0.00     0.022 A 
ATOM     26  C   UNL A   1      31.576  21.912  25.523  1.00  0.00     0.052 C 
ATOM     27  C   UNL A   1      34.121  21.825  25.230  1.00  0.00     0.145 A 
ATOM     28  C   UNL A   1      36.611  21.885  25.109  1.00  0.00    -0.030 A 
ATOM     29  O   UNL A   1      34.132  23.226  25.351  1.00  0.00    -0.422 OA
ATOM     30  C   UNL A   1      37.865  21.104  24.812  1.00  0.00     0.046 C 
ATOM     31  C   UNL A   1      35.310  23.953  25.446  1.00  0.00     0.339 A 
ATOM     32  O   UNL A   1      35.256  25.168  25.581  1.00  0.00    -0.246 OA
ENDBRANCH  15  16
ENDBRANCH  14  15
ENDBRANCH  11  14
ENDBRANCH   9  10
BRANCH   9  33
ATOM     33  C   UNL A   1      42.538  21.789  26.952  1.00  0.00     0.040 C 
BRANCH  33  34
ATOM     34  C   UNL A   1      42.125  20.490  26.231  1.00  0.00    -0.015 C 
ATOM     35  C   UNL A   1      43.213  19.670  25.585  1.00  0.00     0.007 C 
ATOM     36  C   UNL A   1      41.184  19.544  27.008  1.00  0.00     0.007 C 
ENDBRANCH  33  34
ENDBRANCH   9  33
ENDBRANCH   7   9
ENDBRANCH   6   7
ENDBRANCH   5   6
ENDBRANCH   4   5
ENDBRANCH   3   4
ENDBRANCH   2   3
ENDBRANCH   1   2
BRANCH   1  37
ATOM     37  O   UNL A   1      50.634  25.327  27.766  1.00  0.00    -0.377 OA
BRANCH  37  38
ATOM     38  C   UNL A   1      51.289  26.113  26.777  1.00  0.00     0.188 C 
BRANCH  38  39
ATOM     39  C   UNL A   1      52.773  26.372  26.928  1.00  0.00     0.188 C 
BRANCH  39  40
ATOM     40  O   UNL A   1      53.448  25.720  28.011  1.00  0.00    -0.376 OA
BRANCH  40  41
ATOM     41  C   UNL A   1      53.824  26.452  29.180  1.00  0.00     0.202 C 
BRANCH  41  42
ATOM     42  C   UNL A   1      52.825  26.378  30.310  1.00  0.00     0.261 C 
BRANCH  42  43
ATOM     43  O   UNL A   1      53.430  25.612  31.336  1.00  0.00    -0.460 OA
BRANCH  43  44
ATOM     44  C   UNL A   1      52.559  24.984  32.154  1.00  0.00     0.338 C 
ATOM     45  O   UNL A   1      52.504  23.803  32.413  1.00  0.00    -0.246 OA
BRANCH  44  46
ATOM     46  C   UNL A   1      51.559  25.975  32.573  1.00  0.00     0.060 A 
ATOM     47  C   UNL A   1      51.804  26.501  33.838  1.00  0.00     0.016 A 
ATOM     48  C   UNL A   1      50.269  25.835  32.043  1.00  0.00     0.016 A 
ATOM     49  C   UNL A   1      50.758  26.476  34.719  1.00  0.00     0.010 A 
ATOM     50  C   UNL A   1      49.231  25.788  32.928  1.00  0.00     0.010 A 
ATOM     51  C   UNL A   1      49.521  25.993  34.270  1.00  0.00    -0.014 A 
BRANCH  51  52
ATOM     52  C   UNL A   1      48.450  25.900  35.226  1.00  0.00     0.031 A 
ATOM     53  C   UNL A   1      48.055  24.489  35.371  1.00  0.00     0.074 A 
ATOM     54  C   UNL A   1      47.977  26.951  35.918  1.00  0.00     0.049 A 
ATOM     55  N   UNL A   1      47.063  23.907  34.783  1.00  0.00    -0.248 NA
ATOM     56  C   UNL A   1      49.053  23.556  35.927  1.00  0.00     0.031 C 
ATOM     57  C   UNL A   1      48.493  28.319  35.990  1.00  0.00     0.029 A 
ATOM     58  N   UNL A   1      46.933  26.975  36.786  1.00  0.00    -0.354 N 
ATOM     59  C   UNL A   1      47.156  22.582  35.180  1.00  0.00     0.074 A 
ATOM     60  C   UNL A   1      48.521  22.385  35.577  1.00  0.00     0.031 C 
ATOM     61  C   UNL A   1      47.900  28.967  37.022  1.00  0.00     0.029 A 
ATOM     62  C   UNL A   1      46.872  28.112  37.590  1.00  0.00     0.049 A 
ATOM     63  H   UNL A   1      46.271  26.248  36.842  1.00  0.00     0.167 HD
ATOM     64  C   UNL A   1      46.030  21.900  35.516  1.00  0.00     0.037 A 
ATOM     65  C   UNL A   1      46.066  28.257  38.678  1.00  0.00     0.037 A 
ATOM     66  C   UNL A   1      44.864  22.548  34.954  1.00  0.00     0.049 A 
ATOM     67  C   UNL A   1      44.960  27.267  38.514  1.00  0.00     0.074 A 
ATOM     68  C   UNL A   1      44.469  22.890  33.675  1.00  0.00     0.029 A 
ATOM     69  N   UNL A   1      44.105  23.323  35.802  1.00  0.00    -0.354 N 
ATOM     70  N   UNL A   1      44.071  27.335  37.557  1.00  0.00    -0.248 NA
ATOM     71  C   UNL A   1      45.156  25.944  39.089  1.00  0.00     0.031 C 
ATOM     72  C   UNL A   1      43.829  24.158  33.804  1.00  0.00     0.029 A 
ATOM     73  C   UNL A   1      43.785  24.491  35.159  1.00  0.00     0.049 A 
ATOM     74  H   UNL A   1      43.838  23.079  36.717  1.00  0.00     0.167 HD
ATOM     75  C   UNL A   1      43.913  26.025  37.122  1.00  0.00     0.074 A 
ATOM     76  C   UNL A   1      44.562  25.207  38.145  1.00  0.00     0.031 C 
ATOM     77  C   UNL A   1      43.542  25.748  35.836  1.00  0.00     0.037 A 
BRANCH  64  78
ATOM     78  C   UNL A   1      45.956  20.967  36.708  1.00  0.00     0.058 A 
ATOM     79  C   UNL A   1      46.297  21.478  37.975  1.00  0.00     0.135 A 
ATOM     80  C   UNL A   1      45.845  19.557  36.639  1.00  0.00     0.135 A 
ATOM     81  F   UNL A   1      46.421  22.802  38.167  1.00  0.00    -0.206 F 
ATOM     82  C   UNL A   1      46.600  20.653  39.057  1.00  0.00     0.059 A 
ATOM     83  C   UNL A   1      46.094  18.720  37.717  1.00  0.00     0.059 A 
ATOM     84  F   UNL A   1      45.572  18.889  35.516  1.00  0.00    -0.206 F 
ATOM     85  C   UNL A   1      46.512  19.273  38.910  1.00  0.00     0.060 A 
BRANCH  85  86
ATOM     86  S   UNL A   1      46.986  18.200  40.270  1.00  0.00     0.124 S 
ATOM     87  O   UNL A   1      46.536  18.976  41.420  1.00  0.00    -0.237 OA
ATOM     88  O   UNL A   1      46.225  16.991  39.970  1.00  0.00    -0.237 OA
ATOM     89  O   UNL A   1      48.432  18.079  40.115  1.00  0.00    -0.744 OA
ENDBRANCH  85  86
ENDBRANCH  64  78
BRANCH  65  90
ATOM     90  C   UNL A   1      46.403  28.861  40.000  1.00  0.00     0.058 A 
ATOM     91  C   UNL A   1      47.500  28.400  40.756  1.00  0.00     0.135 A 
ATOM     92  C   UNL A   1      45.849  30.088  40.417  1.00  0.00     0.135 A 
ATOM     93  F   UNL A   1      48.108  27.249  40.426  1.00  0.00    -0.206 F 
ATOM     94  C   UNL A   1      48.048  29.136  41.816  1.00  0.00     0.059 A 
ATOM     95  C   UNL A   1      46.372  30.836  41.474  1.00  0.00     0.059 A 
ATOM     96  F   UNL A   1      44.831  30.651  39.748  1.00  0.00    -0.206 F 
ATOM     97  C   UNL A   1      47.490  30.367  42.154  1.00  0.00     0.060 A 
BRANCH  97  98
ATOM     98  S   UNL A   1      48.291  31.401  43.406  1.00  0.00     0.124 S 
ATOM     99  O   UNL A   1      47.366  31.291  44.528  1.00  0.00    -0.237 OA
ATOM    100  O   UNL A   1      49.579  30.739  43.574  1.00  0.00    -0.237 OA
ATOM    101  O   UNL A   1      48.347  32.717  42.773  1.00  0.00    -0.744 OA
ENDBRANCH  97  98
ENDBRANCH  65  90
BRANCH  77 102
ATOM    102  C   UNL A   1      43.012  26.874  34.981  1.00  0.00     0.058 A 
ATOM    103  C   UNL A   1      43.809  27.800  34.283  1.00  0.00     0.135 A 
ATOM    104  C   UNL A   1      41.634  26.893  34.719  1.00  0.00     0.135 A 
ATOM    105  F   UNL A   1      45.144  27.791  34.406  1.00  0.00    -0.206 F 
ATOM    106  C   UNL A   1      43.254  28.716  33.382  1.00  0.00     0.059 A 
ATOM    107  C   UNL A   1      41.065  27.774  33.803  1.00  0.00     0.059 A 
ATOM    108  F   UNL A   1      40.826  25.998  35.311  1.00  0.00    -0.206 F 
ATOM    109  C   UNL A   1      41.879  28.689  33.143  1.00  0.00     0.060 A 
BRANCH 109 110
ATOM    110  S   UNL A   1      41.168  29.811  31.918  1.00  0.00     0.124 S 
ATOM    111  O   UNL A   1      41.968  29.523  30.733  1.00  0.00    -0.237 OA
ATOM    112  O   UNL A   1      39.775  29.378  31.864  1.00  0.00    -0.237 OA
ATOM    113  O   UNL A   1      41.378  31.134  32.503  1.00  0.00    -0.744 OA
ENDBRANCH 109 110
ENDBRANCH  77 102
ENDBRANCH  51  52
ENDBRANCH  44  46
ENDBRANCH  43  44
ENDBRANCH  42  43
ENDBRANCH  41  42
ENDBRANCH  40  41
ENDBRANCH  39  40
ENDBRANCH  38  39
ENDBRANCH  37  38
ENDBRANCH   1  37
TORSDOF 29
ENDMDL
MODEL 2
REMARK VINA RESULT:      -8.3      3.810      7.315
REMARK SMILES Cc1coc2c(C)c3oc(=O)c(CCC(=O)N[C@H](CC(C)C)C(=O)OCCOCCOCCOCCOC(=O)c4ccc(-c5c6nc(c(-c7c(F)cc(S(=O)(=O)[O-])cc7F)c7ccc([nH]7)c(-c7c(F)cc(S(=O)(=O)[O-])cc7F)c7nc(c(-c8c(F)cc(S(=O)(=O)[O-])cc8F)c8ccc5[nH]8)C=C7)C=C6)cc4)c(C)c3cc12
REMARK SMILES IDX 30 1 29 2 28 3 27 4 26 5 25 6 23 7 24 8 18 9 17 10 15 11
REMARK SMILES IDX 16 12 14 14 13 15 12 16 1 17 2 18 3 19 110 20 4 21 5 22
REMARK SMILES IDX 109 23 6 24 108 25 7 26 8 27 106 28 9 29 107 30 10 31 11 32
REMARK SMILES IDX 19 33 20 34 21 35 22 36 31 37 32 38 33 39 34 40 35 41 36 42
REMARK SMILES IDX 37 43 38 44 39 45 40 46 41 47 105 48 42 49 104 50 43 51
REMARK SMILES IDX 44 52 45 53 98 54 46 55 103 56 97 57 99 58 47 59 102 60
REMARK SMILES IDX 96 61 95 62 48 64 82 65 61 66 81 67 62 68 65 69 80 70 100 71
REMARK SMILES IDX 63 72 64 73 79 75 101 76 66 77 49 78 50 79 59 80 51 81 52 82
REMARK SMILES IDX 58 83 60 84 53 85 54 86 55 87 56 88 57 89 83 90 84 91 93 92
REMARK SMILES IDX 85 93 86 94 92 95 94 96 87 97 88 98 89 99 90 100 91 101
REMARK SMILES IDX 67 102 68 103 77 104 69 105 70 106 76 107 78 108 71 109
REMARK SMILES IDX 72 110 73 111 74 112 75 113
REMARK H PARENT 17 13 99 63 65 74
REMARK Flexibility Score: inf
ROOT
ATOM      1  C   UNL A   1      49.405  25.674  28.253  1.00  0.00     0.188 C 
ENDROOT
BRANCH   1   2
ATOM      2  C   UNL A   1      48.296  24.812  27.662  1.00  0.00     0.188 C 
BRANCH   2   3
ATOM      3  O   UNL A   1      46.963  25.282  27.878  1.00  0.00    -0.376 OA
BRANCH   3   4
ATOM      4  C   UNL A   1      45.933  24.314  28.075  1.00  0.00     0.202 C 
BRANCH   4   5
ATOM      5  C   UNL A   1      45.598  23.426  26.866  1.00  0.00     0.261 C 
BRANCH   5   6
ATOM      6  O   UNL A   1      45.400  24.179  25.651  1.00  0.00    -0.462 OA
BRANCH   6   7
ATOM      7  C   UNL A   1      44.380  23.800  24.857  1.00  0.00     0.328 C 
ATOM      8  O   UNL A   1      44.502  23.012  23.916  1.00  0.00    -0.250 OA
BRANCH   7   9
ATOM      9  C   UNL A   1      42.983  24.359  25.230  1.00  0.00     0.192 C 
BRANCH   9  10
ATOM     10  N   UNL A   1      42.929  25.742  24.720  1.00  0.00    -0.343 N 
ATOM     11  C   UNL A   1      43.183  26.967  25.241  1.00  0.00     0.221 C 
ATOM     12  O   UNL A   1      42.702  27.944  24.660  1.00  0.00    -0.275 OA
ATOM     13  H   UNL A   1      42.640  25.786  23.780  1.00  0.00     0.164 HD
BRANCH  11  14
ATOM     14  C   UNL A   1      44.105  27.156  26.424  1.00  0.00     0.105 C 
BRANCH  14  15
ATOM     15  C   UNL A   1      44.400  28.560  27.026  1.00  0.00     0.053 C 
BRANCH  15  16
ATOM     16  C   UNL A   1      45.835  29.004  27.301  1.00  0.00     0.042 A 
ATOM     17  C   UNL A   1      49.857  30.234  32.720  1.00  0.00     0.048 C 
ATOM     18  C   UNL A   1      50.389  30.066  31.346  1.00  0.00    -0.005 A 
ATOM     19  C   UNL A   1      51.654  30.318  30.861  1.00  0.00     0.199 A 
ATOM     20  C   UNL A   1      49.623  29.693  30.214  1.00  0.00     0.024 A 
ATOM     21  O   UNL A   1      51.713  30.102  29.516  1.00  0.00    -0.464 OA
ATOM     22  C   UNL A   1      50.454  29.769  29.108  1.00  0.00     0.140 A 
ATOM     23  C   UNL A   1      48.278  29.360  30.042  1.00  0.00     0.024 A 
ATOM     24  C   UNL A   1      50.029  29.561  27.793  1.00  0.00     0.036 A 
ATOM     25  C   UNL A   1      47.748  29.342  28.756  1.00  0.00     0.022 A 
ATOM     26  C   UNL A   1      50.960  29.536  26.622  1.00  0.00     0.052 C 
ATOM     27  C   UNL A   1      48.624  29.440  27.674  1.00  0.00     0.145 A 
ATOM     28  C   UNL A   1      46.302  29.193  28.548  1.00  0.00    -0.030 A 
ATOM     29  O   UNL A   1      48.093  29.428  26.372  1.00  0.00    -0.422 OA
ATOM     30  C   UNL A   1      45.416  29.239  29.767  1.00  0.00     0.046 C 
ATOM     31  C   UNL A   1      46.745  29.217  26.123  1.00  0.00     0.339 A 
ATOM     32  O   UNL A   1      46.346  29.188  24.966  1.00  0.00    -0.246 OA
ENDBRANCH  15  16
ENDBRANCH  14  15
ENDBRANCH  11  14
ENDBRANCH   9  10
BRANCH   9  33
ATOM     33  C   UNL A   1      42.162  23.982  26.475  1.00  0.00     0.040 C 
BRANCH  33  34
ATOM     34  C   UNL A   1      42.108  24.616  27.880  1.00  0.00    -0.015 C 
ATOM     35  C   UNL A   1      40.840  25.327  28.281  1.00  0.00     0.007 C 
ATOM     36  C   UNL A   1      42.570  23.724  29.053  1.00  0.00     0.007 C 
ENDBRANCH  33  34
ENDBRANCH   9  33
ENDBRANCH   7   9
ENDBRANCH   6   7
ENDBRANCH   5   6
ENDBRANCH   4   5
ENDBRANCH   3   4
ENDBRANCH   2   3
ENDBRANCH   1   2
BRANCH   1  37
ATOM     37  O   UNL A   1      50.682  25.210  27.831  1.00  0.00    -0.377 OA
BRANCH  37  38
ATOM     38  C   UNL A   1      51.301  25.745  26.667  1.00  0.00     0.188 C 
BRANCH  38  39
ATOM     39  C   UNL A   1      52.782  26.061  26.719  1.00  0.00     0.188 C 
BRANCH  39  40
ATOM     40  O   UNL A   1      53.492  25.691  27.906  1.00  0.00    -0.376 OA
BRANCH  40  41
ATOM     41  C   UNL A   1      53.836  26.676  28.884  1.00  0.00     0.202 C 
BRANCH  41  42
ATOM     42  C   UNL A   1      52.820  26.838  29.990  1.00  0.00     0.261 C 
BRANCH  42  43
ATOM     43  O   UNL A   1      53.348  26.180  31.127  1.00  0.00    -0.460 OA
BRANCH  43  44
ATOM     44  C   UNL A   1      52.434  25.514  31.864  1.00  0.00     0.338 C 
ATOM     45  O   UNL A   1      52.313  24.317  31.991  1.00  0.00    -0.246 OA
BRANCH  44  46
ATOM     46  C   UNL A   1      51.483  26.507  32.382  1.00  0.00     0.060 A 
ATOM     47  C   UNL A   1      51.750  26.890  33.693  1.00  0.00     0.016 A 
ATOM     48  C   UNL A   1      50.190  26.484  31.843  1.00  0.00     0.016 A 
ATOM     49  C   UNL A   1      50.701  26.828  34.569  1.00  0.00     0.010 A 
ATOM     50  C   UNL A   1      49.148  26.400  32.720  1.00  0.00     0.010 A 
ATOM     51  C   UNL A   1      49.443  26.455  34.076  1.00  0.00    -0.014 A 
BRANCH  51  52
ATOM     52  C   UNL A   1      48.365  26.319  35.020  1.00  0.00     0.031 A 
ATOM     53  C   UNL A   1      48.036  24.891  35.172  1.00  0.00     0.074 A 
ATOM     54  C   UNL A   1      47.835  27.352  35.697  1.00  0.00     0.049 A 
ATOM     55  N   UNL A   1      47.080  24.259  34.577  1.00  0.00    -0.248 NA
ATOM     56  C   UNL A   1      49.069  24.012  35.749  1.00  0.00     0.031 C 
ATOM     57  C   UNL A   1      48.285  28.743  35.763  1.00  0.00     0.029 A 
ATOM     58  N   UNL A   1      46.780  27.334  36.551  1.00  0.00    -0.354 N 
ATOM     59  C   UNL A   1      47.230  22.943  34.986  1.00  0.00     0.074 A 
ATOM     60  C   UNL A   1      48.598  22.814  35.402  1.00  0.00     0.031 C 
ATOM     61  C   UNL A   1      47.649  29.371  36.782  1.00  0.00     0.029 A 
ATOM     62  C   UNL A   1      46.655  28.473  37.344  1.00  0.00     0.049 A 
ATOM     63  H   UNL A   1      46.153  26.577  36.606  1.00  0.00     0.167 HD
ATOM     64  C   UNL A   1      46.133  22.211  35.315  1.00  0.00     0.037 A 
ATOM     65  C   UNL A   1      45.830  28.589  38.421  1.00  0.00     0.037 A 
ATOM     66  C   UNL A   1      44.945  22.799  34.733  1.00  0.00     0.049 A 
ATOM     67  C   UNL A   1      44.774  27.547  38.252  1.00  0.00     0.074 A 
ATOM     68  C   UNL A   1      44.551  23.112  33.446  1.00  0.00     0.029 A 
ATOM     69  N   UNL A   1      44.140  23.544  35.565  1.00  0.00    -0.354 N 
ATOM     70  N   UNL A   1      43.894  27.564  37.284  1.00  0.00    -0.248 NA
ATOM     71  C   UNL A   1      45.024  26.239  38.841  1.00  0.00     0.031 C 
ATOM     72  C   UNL A   1      43.850  24.348  33.556  1.00  0.00     0.029 A 
ATOM     73  C   UNL A   1      43.773  24.690  34.908  1.00  0.00     0.049 A 
ATOM     74  H   UNL A   1      43.873  23.295  36.479  1.00  0.00     0.167 HD
ATOM     75  C   UNL A   1      43.804  26.245  36.859  1.00  0.00     0.074 A 
ATOM     76  C   UNL A   1      44.478  25.466  37.897  1.00  0.00     0.031 C 
ATOM     77  C   UNL A   1      43.463  25.940  35.570  1.00  0.00     0.037 A 
BRANCH  64  78
ATOM     78  C   UNL A   1      46.089  21.285  36.514  1.00  0.00     0.058 A 
ATOM     79  C   UNL A   1      46.383  21.824  37.781  1.00  0.00     0.135 A 
ATOM     80  C   UNL A   1      46.050  19.871  36.456  1.00  0.00     0.135 A 
ATOM     81  F   UNL A   1      46.436  23.154  37.963  1.00  0.00    -0.206 F 
ATOM     82  C   UNL A   1      46.711  21.024  38.875  1.00  0.00     0.059 A 
ATOM     83  C   UNL A   1      46.325  19.057  37.545  1.00  0.00     0.059 A 
ATOM     84  F   UNL A   1      45.829  19.180  35.335  1.00  0.00    -0.206 F 
ATOM     85  C   UNL A   1      46.695  19.640  38.740  1.00  0.00     0.060 A 
BRANCH  85  86
ATOM     86  S   UNL A   1      47.202  18.605  40.116  1.00  0.00     0.124 S 
ATOM     87  O   UNL A   1      46.327  17.450  39.946  1.00  0.00    -0.237 OA
ATOM     88  O   UNL A   1      48.614  18.392  39.821  1.00  0.00    -0.237 OA
ATOM     89  O   UNL A   1      46.929  19.438  41.284  1.00  0.00    -0.744 OA
ENDBRANCH  85  86
ENDBRANCH  64  78
BRANCH  65  90
ATOM     90  C   UNL A   1      46.121  29.219  39.742  1.00  0.00     0.058 A 
ATOM     91  C   UNL A   1      45.343  30.289  40.228  1.00  0.00     0.135 A 
ATOM     92  C   UNL A   1      46.970  28.605  40.685  1.00  0.00     0.135 A 
ATOM     93  F   UNL A   1      44.489  30.926  39.411  1.00  0.00    -0.206 F 
ATOM     94  C   UNL A   1      45.360  30.684  41.573  1.00  0.00     0.059 A 
ATOM     95  C   UNL A   1      47.011  28.985  42.028  1.00  0.00     0.059 A 
ATOM     96  F   UNL A   1      47.726  27.548  40.351  1.00  0.00    -0.206 F 
ATOM     97  C   UNL A   1      46.183  30.009  42.473  1.00  0.00     0.060 A 
BRANCH  97  98
ATOM     98  S   UNL A   1      46.089  30.397  44.238  1.00  0.00     0.124 S 
ATOM     99  O   UNL A   1      47.344  31.106  44.461  1.00  0.00    -0.237 OA
ATOM    100  O   UNL A   1      44.877  31.206  44.312  1.00  0.00    -0.237 OA
ATOM    101  O   UNL A   1      45.997  29.083  44.870  1.00  0.00    -0.744 OA
ENDBRANCH  97  98
ENDBRANCH  65  90
BRANCH  77 102
ATOM    102  C   UNL A   1      42.891  27.033  34.700  1.00  0.00     0.058 A 
ATOM    103  C   UNL A   1      43.653  27.934  33.933  1.00  0.00     0.135 A 
ATOM    104  C   UNL A   1      41.503  27.039  34.498  1.00  0.00     0.135 A 
ATOM    105  F   UNL A   1      44.992  27.932  33.996  1.00  0.00    -0.206 F 
ATOM    106  C   UNL A   1      43.055  28.815  33.024  1.00  0.00     0.059 A 
ATOM    107  C   UNL A   1      40.890  27.885  33.577  1.00  0.00     0.059 A 
ATOM    108  F   UNL A   1      40.725  26.165  35.158  1.00  0.00    -0.206 F 
ATOM    109  C   UNL A   1      41.671  28.776  32.848  1.00  0.00     0.060 A 
BRANCH 109 110
ATOM    110  S   UNL A   1      40.902  29.851  31.615  1.00  0.00     0.124 S 
ATOM    111  O   UNL A   1      41.959  29.986  30.620  1.00  0.00    -0.237 OA
ATOM    112  O   UNL A   1      39.737  29.075  31.203  1.00  0.00    -0.237 OA
ATOM    113  O   UNL A   1      40.595  31.067  32.366  1.00  0.00    -0.744 OA
ENDBRANCH 109 110
ENDBRANCH  77 102
ENDBRANCH  51  52
ENDBRANCH  44  46
ENDBRANCH  43  44
ENDBRANCH  42  43
ENDBRANCH  41  42
ENDBRANCH  40  41
ENDBRANCH  39  40
ENDBRANCH  38  39
ENDBRANCH  37  38
ENDBRANCH   1  37
TORSDOF 29
ENDMDL
MODEL 3
REMARK VINA RESULT:      -8.1      6.949     15.371
REMARK SMILES Cc1coc2c(C)c3oc(=O)c(CCC(=O)N[C@H](CC(C)C)C(=O)OCCOCCOCCOCCOC(=O)c4ccc(-c5c6nc(c(-c7c(F)cc(S(=O)(=O)[O-])cc7F)c7ccc([nH]7)c(-c7c(F)cc(S(=O)(=O)[O-])cc7F)c7nc(c(-c8c(F)cc(S(=O)(=O)[O-])cc8F)c8ccc5[nH]8)C=C7)C=C6)cc4)c(C)c3cc12
REMARK SMILES IDX 30 1 29 2 28 3 27 4 26 5 25 6 23 7 24 8 18 9 17 10 15 11
REMARK SMILES IDX 16 12 14 14 13 15 12 16 1 17 2 18 3 19 110 20 4 21 5 22
REMARK SMILES IDX 109 23 6 24 108 25 7 26 8 27 106 28 9 29 107 30 10 31 11 32
REMARK SMILES IDX 19 33 20 34 21 35 22 36 31 37 32 38 33 39 34 40 35 41 36 42
REMARK SMILES IDX 37 43 38 44 39 45 40 46 41 47 105 48 42 49 104 50 43 51
REMARK SMILES IDX 44 52 45 53 98 54 46 55 103 56 97 57 99 58 47 59 102 60
REMARK SMILES IDX 96 61 95 62 48 64 82 65 61 66 81 67 62 68 65 69 80 70 100 71
REMARK SMILES IDX 63 72 64 73 79 75 101 76 66 77 49 78 50 79 59 80 51 81 52 82
REMARK SMILES IDX 58 83 60 84 53 85 54 86 55 87 56 88 57 89 83 90 84 91 93 92
REMARK SMILES IDX 85 93 86 94 92 95 94 96 87 97 88 98 89 99 90 100 91 101
REMARK SMILES IDX 67 102 68 103 77 104 69 105 70 106 76 107 78 108 71 109
REMARK SMILES IDX 72 110 73 111 74 112 75 113
REMARK H PARENT 17 13 99 63 65 74
REMARK Flexibility Score: inf
ROOT
ATOM      1  C   UNL A   1      33.470  36.855  31.679  1.00  0.00     0.188 C 
ENDROOT
BRANCH   1   2
ATOM      2  C   UNL A   1      33.211  35.625  32.542  1.00  0.00     0.188 C 
BRANCH   2   3
ATOM      3  O   UNL A   1      34.291  34.693  32.634  1.00  0.00    -0.376 OA
BRANCH   3   4
ATOM      4  C   UNL A   1      35.598  35.204  32.896  1.00  0.00     0.202 C 
BRANCH   4   5
ATOM      5  C   UNL A   1      36.622  34.195  33.439  1.00  0.00     0.261 C 
BRANCH   5   6
ATOM      6  O   UNL A   1      37.491  34.759  34.444  1.00  0.00    -0.462 OA
BRANCH   6   7
ATOM      7  C   UNL A   1      38.804  34.478  34.342  1.00  0.00     0.328 C 
ATOM      8  O   UNL A   1      39.532  34.922  33.451  1.00  0.00    -0.250 OA
BRANCH   7   9
ATOM      9  C   UNL A   1      39.402  33.599  35.471  1.00  0.00     0.192 C 
BRANCH   9  10
ATOM     10  N   UNL A   1      40.765  34.103  35.726  1.00  0.00    -0.343 N 
ATOM     11  C   UNL A   1      41.289  35.133  36.433  1.00  0.00     0.221 C 
ATOM     12  O   UNL A   1      42.439  35.487  36.155  1.00  0.00    -0.275 OA
ATOM     13  H   UNL A   1      41.456  33.564  35.278  1.00  0.00     0.164 HD
BRANCH  11  14
ATOM     14  C   UNL A   1      40.551  35.765  37.591  1.00  0.00     0.105 C 
BRANCH  14  15
ATOM     15  C   UNL A   1      39.317  35.087  38.253  1.00  0.00     0.053 C 
BRANCH  15  16
ATOM     16  C   UNL A   1      39.451  34.363  39.591  1.00  0.00     0.042 A 
ATOM     17  C   UNL A   1      37.638  35.337  46.134  1.00  0.00     0.048 C 
ATOM     18  C   UNL A   1      38.085  34.023  45.612  1.00  0.00    -0.005 A 
ATOM     19  C   UNL A   1      38.422  32.876  46.299  1.00  0.00     0.199 A 
ATOM     20  C   UNL A   1      38.356  33.735  44.251  1.00  0.00     0.024 A 
ATOM     21  O   UNL A   1      38.856  31.905  45.445  1.00  0.00    -0.464 OA
ATOM     22  C   UNL A   1      38.866  32.448  44.193  1.00  0.00     0.140 A 
ATOM     23  C   UNL A   1      38.263  34.492  43.081  1.00  0.00     0.024 A 
ATOM     24  C   UNL A   1      39.337  31.844  43.024  1.00  0.00     0.036 A 
ATOM     25  C   UNL A   1      38.897  34.033  41.931  1.00  0.00     0.022 A 
ATOM     26  C   UNL A   1      39.780  30.417  42.957  1.00  0.00     0.052 C 
ATOM     27  C   UNL A   1      39.411  32.735  41.927  1.00  0.00     0.145 A 
ATOM     28  C   UNL A   1      38.992  34.888  40.741  1.00  0.00    -0.030 A 
ATOM     29  O   UNL A   1      40.058  32.268  40.769  1.00  0.00    -0.422 OA
ATOM     30  C   UNL A   1      38.540  36.320  40.876  1.00  0.00     0.046 C 
ATOM     31  C   UNL A   1      40.109  33.010  39.598  1.00  0.00     0.339 A 
ATOM     32  O   UNL A   1      40.660  32.539  38.612  1.00  0.00    -0.246 OA
ENDBRANCH  15  16
ENDBRANCH  14  15
ENDBRANCH  11  14
ENDBRANCH   9  10
BRANCH   9  33
ATOM     33  C   UNL A   1      39.089  32.113  35.720  1.00  0.00     0.040 C 
BRANCH  33  34
ATOM     34  C   UNL A   1      38.897  30.942  34.734  1.00  0.00    -0.015 C 
ATOM     35  C   UNL A   1      37.662  30.949  33.869  1.00  0.00     0.007 C 
ATOM     36  C   UNL A   1      40.116  30.576  33.859  1.00  0.00     0.007 C 
ENDBRANCH  33  34
ENDBRANCH   9  33
ENDBRANCH   7   9
ENDBRANCH   6   7
ENDBRANCH   5   6
ENDBRANCH   4   5
ENDBRANCH   3   4
ENDBRANCH   2   3
ENDBRANCH   1   2
BRANCH   1  37
ATOM     37  O   UNL A   1      32.633  36.848  30.528  1.00  0.00    -0.377 OA
BRANCH  37  38
ATOM     38  C   UNL A   1      32.792  35.856  29.520  1.00  0.00     0.188 C 
BRANCH  38  39
ATOM     39  C   UNL A   1      34.154  35.691  28.879  1.00  0.00     0.188 C 
BRANCH  39  40
ATOM     40  O   UNL A   1      35.059  34.761  29.486  1.00  0.00    -0.376 OA
BRANCH  40  41
ATOM     41  C   UNL A   1      34.952  33.361  29.216  1.00  0.00     0.202 C 
BRANCH  41  42
ATOM     42  C   UNL A   1      35.678  32.909  27.972  1.00  0.00     0.261 C 
BRANCH  42  43
ATOM     43  O   UNL A   1      36.628  31.944  28.384  1.00  0.00    -0.460 OA
BRANCH  43  44
ATOM     44  C   UNL A   1      36.332  30.677  28.024  1.00  0.00     0.338 C 
ATOM     45  O   UNL A   1      35.340  30.280  27.456  1.00  0.00    -0.246 OA
BRANCH  44  46
ATOM     46  C   UNL A   1      37.372  29.807  28.589  1.00  0.00     0.060 A 
ATOM     47  C   UNL A   1      37.438  29.861  29.978  1.00  0.00     0.016 A 
ATOM     48  C   UNL A   1      38.489  29.550  27.782  1.00  0.00     0.016 A 
ATOM     49  C   UNL A   1      38.674  30.090  30.518  1.00  0.00     0.010 A 
ATOM     50  C   UNL A   1      39.718  29.802  28.318  1.00  0.00     0.010 A 
ATOM     51  C   UNL A   1      39.772  30.184  29.652  1.00  0.00    -0.014 A 
BRANCH  51  52
ATOM     52  C   UNL A   1      41.053  30.501  30.225  1.00  0.00     0.031 A 
ATOM     53  C   UNL A   1      41.252  31.960  30.182  1.00  0.00     0.074 A 
ATOM     54  C   UNL A   1      41.867  29.586  30.780  1.00  0.00     0.049 A 
ATOM     55  N   UNL A   1      41.920  32.616  29.293  1.00  0.00    -0.248 NA
ATOM     56  C   UNL A   1      40.337  32.796  30.981  1.00  0.00     0.031 C 
ATOM     57  C   UNL A   1      41.612  28.174  31.064  1.00  0.00     0.029 A 
ATOM     58  N   UNL A   1      43.114  29.777  31.281  1.00  0.00    -0.354 N 
ATOM     59  C   UNL A   1      41.748  33.946  29.643  1.00  0.00     0.074 A 
ATOM     60  C   UNL A   1      40.553  33.993  30.435  1.00  0.00     0.031 C 
ATOM     61  C   UNL A   1      42.580  27.702  31.888  1.00  0.00     0.029 A 
ATOM     62  C   UNL A   1      43.587  28.732  32.073  1.00  0.00     0.049 A 
ATOM     63  H   UNL A   1      43.643  30.587  31.100  1.00  0.00     0.167 HD
ATOM     64  C   UNL A   1      42.806  34.798  29.586  1.00  0.00     0.037 A 
ATOM     65  C   UNL A   1      44.695  28.790  32.863  1.00  0.00     0.037 A 
ATOM     66  C   UNL A   1      43.834  34.265  28.718  1.00  0.00     0.049 A 
ATOM     67  C   UNL A   1      45.535  29.900  32.324  1.00  0.00     0.074 A 
ATOM     68  C   UNL A   1      43.874  33.869  27.394  1.00  0.00     0.029 A 
ATOM     69  N   UNL A   1      44.921  33.675  29.320  1.00  0.00    -0.354 N 
ATOM     70  N   UNL A   1      46.096  29.870  31.143  1.00  0.00    -0.248 NA
ATOM     71  C   UNL A   1      45.321  31.231  32.876  1.00  0.00     0.031 C 
ATOM     72  C   UNL A   1      44.709  32.714  27.371  1.00  0.00     0.029 A 
ATOM     73  C   UNL A   1      45.209  32.509  28.658  1.00  0.00     0.049 A 
ATOM     74  H   UNL A   1      45.411  34.030  30.097  1.00  0.00     0.167 HD
ATOM     75  C   UNL A   1      45.913  31.146  30.627  1.00  0.00     0.074 A 
ATOM     76  C   UNL A   1      45.483  31.956  31.766  1.00  0.00     0.031 C 
ATOM     77  C   UNL A   1      45.834  31.358  29.278  1.00  0.00     0.037 A 
BRANCH  64  78
ATOM     78  C   UNL A   1      43.089  35.833  30.656  1.00  0.00     0.058 A 
ATOM     79  C   UNL A   1      43.464  37.127  30.247  1.00  0.00     0.135 A 
ATOM     80  C   UNL A   1      43.285  35.558  32.031  1.00  0.00     0.135 A 
ATOM     81  F   UNL A   1      43.316  37.509  28.968  1.00  0.00    -0.206 F 
ATOM     82  C   UNL A   1      44.075  38.036  31.109  1.00  0.00     0.059 A 
ATOM     83  C   UNL A   1      43.845  36.466  32.918  1.00  0.00     0.059 A 
ATOM     84  F   UNL A   1      43.028  34.374  32.594  1.00  0.00    -0.206 F 
ATOM     85  C   UNL A   1      44.276  37.687  32.440  1.00  0.00     0.060 A 
BRANCH  85  86
ATOM     86  S   UNL A   1      45.141  38.815  33.537  1.00  0.00     0.124 S 
ATOM     87  O   UNL A   1      45.905  39.614  32.585  1.00  0.00    -0.237 OA
ATOM     88  O   UNL A   1      44.031  39.490  34.200  1.00  0.00    -0.237 OA
ATOM     89  O   UNL A   1      45.925  37.924  34.387  1.00  0.00    -0.744 OA
ENDBRANCH  85  86
ENDBRANCH  64  78
BRANCH  65  90
ATOM     90  C   UNL A   1      44.867  28.263  34.249  1.00  0.00     0.058 A 
ATOM     91  C   UNL A   1      46.077  27.666  34.657  1.00  0.00     0.135 A 
ATOM     92  C   UNL A   1      43.969  28.593  35.284  1.00  0.00     0.135 A 
ATOM     93  F   UNL A   1      47.004  27.332  33.746  1.00  0.00    -0.206 F 
ATOM     94  C   UNL A   1      46.401  27.466  36.007  1.00  0.00     0.059 A 
ATOM     95  C   UNL A   1      44.266  28.396  36.634  1.00  0.00     0.059 A 
ATOM     96  F   UNL A   1      42.805  29.206  35.022  1.00  0.00    -0.206 F 
ATOM     97  C   UNL A   1      45.496  27.856  36.992  1.00  0.00     0.060 A 
BRANCH  97  98
ATOM     98  S   UNL A   1      45.971  27.758  38.736  1.00  0.00     0.124 S 
ATOM     99  O   UNL A   1      47.372  28.164  38.692  1.00  0.00    -0.237 OA
ATOM    100  O   UNL A   1      45.053  28.704  39.359  1.00  0.00    -0.237 OA
ATOM    101  O   UNL A   1      45.740  26.355  39.073  1.00  0.00    -0.744 OA
ENDBRANCH  97  98
ENDBRANCH  65  90
BRANCH  77 102
ATOM    102  C   UNL A   1      46.248  30.243  28.349  1.00  0.00     0.058 A 
ATOM    103  C   UNL A   1      45.411  29.195  27.923  1.00  0.00     0.135 A 
ATOM    104  C   UNL A   1      47.499  30.354  27.724  1.00  0.00     0.135 A 
ATOM    105  F   UNL A   1      44.165  29.070  28.402  1.00  0.00    -0.206 F 
ATOM    106  C   UNL A   1      45.813  28.288  26.935  1.00  0.00     0.059 A 
ATOM    107  C   UNL A   1      47.907  29.483  26.718  1.00  0.00     0.059 A 
ATOM    108  F   UNL A   1      48.323  31.366  28.046  1.00  0.00    -0.206 F 
ATOM    109  C   UNL A   1      47.061  28.447  26.332  1.00  0.00     0.060 A 
BRANCH 109 110
ATOM    110  S   UNL A   1      47.551  27.331  24.997  1.00  0.00     0.124 S 
ATOM    111  O   UNL A   1      46.562  27.628  23.967  1.00  0.00    -0.237 OA
ATOM    112  O   UNL A   1      48.916  27.762  24.710  1.00  0.00    -0.237 OA
ATOM    113  O   UNL A   1      47.441  26.005  25.601  1.00  0.00    -0.744 OA
ENDBRANCH 109 110
ENDBRANCH  77 102
ENDBRANCH  51  52
ENDBRANCH  44  46
ENDBRANCH  43  44
ENDBRANCH  42  43
ENDBRANCH  41  42
ENDBRANCH  40  41
ENDBRANCH  39  40
ENDBRANCH  38  39
ENDBRANCH  37  38
ENDBRANCH   1  37
TORSDOF 29
ENDMDL
