MODEL 1
REMARK VINA RESULT:      -9.3      0.000      0.000
REMARK SMILES Cc1nc2scc(C)n2c1CNc1ccc(C(=O)OCCOCCOCCOCCOC(=O)c2ccc(-c3c4nc(c(-c5c(F)cc(S(=O)(=O)[O-])cc5F)c5ccc([nH]5)c(-c5c(F)cc(S(=O)(=O)[O-])cc5F)c5nc(c(-c6c(F)cc(S(=O)(=O)[O-])cc6F)c6ccc3[nH]6)C=C5)C=C4)cc2)cc1
REMARK SMILES IDX 25 1 24 2 23 3 22 4 21 5 20 6 19 7 17 8 18 9 16 10 13 11
REMARK SMILES IDX 14 12 101 13 15 14 100 15 12 16 11 18 10 19 1 20 2 21 3 22
REMARK SMILES IDX 4 23 9 24 5 25 7 26 6 27 8 28 26 29 27 30 28 31 29 32 30 33
REMARK SMILES IDX 31 34 32 35 33 36 34 37 35 38 99 39 36 40 98 41 37 42 38 43
REMARK SMILES IDX 39 44 92 45 40 46 97 47 91 48 93 49 41 50 96 51 90 52 89 53
REMARK SMILES IDX 42 55 76 56 55 57 75 58 56 59 59 60 74 61 94 62 57 63 58 64
REMARK SMILES IDX 73 66 95 67 60 68 43 69 44 70 53 71 45 72 46 73 52 74 54 75
REMARK SMILES IDX 47 76 48 77 49 78 50 79 51 80 77 81 78 82 87 83 79 84 80 85
REMARK SMILES IDX 86 86 88 87 81 88 82 89 83 90 84 91 85 92 61 93 62 94 71 95
REMARK SMILES IDX 63 96 64 97 70 98 72 99 65 100 66 101 67 102 68 103 69 104
REMARK H PARENT 12 17 93 54 59 65
REMARK Flexibility Score: inf
ROOT
ATOM      1  O   UNL A   1      34.341  36.595  33.488  1.00  0.00    -0.377 OA
ENDROOT
BRANCH   1   2
ATOM      2  C   UNL A   1      33.029  36.610  32.958  1.00  0.00     0.188 C 
BRANCH   2   3
ATOM      3  C   UNL A   1      32.979  36.790  31.425  1.00  0.00     0.188 C 
BRANCH   3   4
ATOM      4  O   UNL A   1      32.486  35.754  30.594  1.00  0.00    -0.376 OA
BRANCH   4   5
ATOM      5  C   UNL A   1      33.283  35.055  29.656  1.00  0.00     0.202 C 
BRANCH   5   6
ATOM      6  C   UNL A   1      34.261  33.907  29.965  1.00  0.00     0.261 C 
BRANCH   6   7
ATOM      7  O   UNL A   1      34.060  32.667  29.299  1.00  0.00    -0.460 OA
BRANCH   7   8
ATOM      8  C   UNL A   1      34.716  32.515  28.133  1.00  0.00     0.338 C 
ATOM      9  O   UNL A   1      35.616  33.211  27.689  1.00  0.00    -0.246 OA
BRANCH   8  10
ATOM     10  C   UNL A   1      34.302  31.227  27.543  1.00  0.00     0.060 A 
ATOM     11  C   UNL A   1      33.370  28.758  26.641  1.00  0.00     0.034 A 
ATOM     12  C   UNL A   1      32.516  29.863  26.654  1.00  0.00     0.026 A 
ATOM     13  C   UNL A   1      34.733  28.951  26.914  1.00  0.00     0.026 A 
ATOM     14  C   UNL A   1      32.969  31.084  27.146  1.00  0.00     0.018 A 
ATOM     15  C   UNL A   1      35.208  30.185  27.355  1.00  0.00     0.018 A 
BRANCH  11  16
ATOM     16  N   UNL A   1      32.811  27.487  26.601  1.00  0.00    -0.379 N 
ATOM     17  H   UNL A   1      31.881  27.333  26.882  1.00  0.00     0.160 HD
BRANCH  16  18
ATOM     18  C   UNL A   1      33.644  26.392  26.130  1.00  0.00     0.169 C 
BRANCH  18  19
ATOM     19  C   UNL A   1      33.190  25.764  24.863  1.00  0.00     0.066 A 
ATOM     20  C   UNL A   1      33.639  27.629  23.104  1.00  0.00     0.069 C 
ATOM     21  C   UNL A   1      33.196  26.292  23.569  1.00  0.00     0.062 A 
ATOM     22  N   UNL A   1      32.736  25.380  22.645  1.00  0.00    -0.224 NA
ATOM     23  C   UNL A   1      32.481  24.327  23.364  1.00  0.00     0.194 A 
ATOM     24  N   UNL A   1      32.750  24.464  24.700  1.00  0.00    -0.290 N 
ATOM     25  S   UNL A   1      31.917  22.735  22.962  1.00  0.00    -0.105 S 
ATOM     26  C   UNL A   1      32.530  23.300  25.438  1.00  0.00     0.032 A 
ATOM     27  C   UNL A   1      32.088  22.296  24.654  1.00  0.00     0.090 A 
ATOM     28  C   UNL A   1      32.770  23.128  26.891  1.00  0.00     0.066 C 
ENDBRANCH  18  19
ENDBRANCH  16  18
ENDBRANCH  11  16
ENDBRANCH   8  10
ENDBRANCH   7   8
ENDBRANCH   6   7
ENDBRANCH   5   6
ENDBRANCH   4   5
ENDBRANCH   3   4
ENDBRANCH   2   3
ENDBRANCH   1   2
BRANCH   1  29
ATOM     29  C   UNL A   1      35.220  35.578  33.013  1.00  0.00     0.188 C 
BRANCH  29  30
ATOM     30  C   UNL A   1      35.211  34.162  33.653  1.00  0.00     0.188 C 
BRANCH  30  31
ATOM     31  O   UNL A   1      36.425  33.436  33.541  1.00  0.00    -0.376 OA
BRANCH  31  32
ATOM     32  C   UNL A   1      37.676  33.941  33.968  1.00  0.00     0.202 C 
BRANCH  32  33
ATOM     33  C   UNL A   1      38.583  34.577  32.923  1.00  0.00     0.261 C 
BRANCH  33  34
ATOM     34  O   UNL A   1      38.231  34.240  31.599  1.00  0.00    -0.460 OA
BRANCH  34  35
ATOM     35  C   UNL A   1      38.815  33.127  31.134  1.00  0.00     0.338 C 
ATOM     36  O   UNL A   1      38.659  31.977  31.549  1.00  0.00    -0.246 OA
BRANCH  35  37
ATOM     37  C   UNL A   1      39.793  33.519  30.131  1.00  0.00     0.060 A 
ATOM     38  C   UNL A   1      41.043  32.911  30.226  1.00  0.00     0.016 A 
ATOM     39  C   UNL A   1      39.582  34.731  29.451  1.00  0.00     0.016 A 
ATOM     40  C   UNL A   1      42.135  33.674  29.907  1.00  0.00     0.010 A 
ATOM     41  C   UNL A   1      40.672  35.501  29.166  1.00  0.00     0.010 A 
ATOM     42  C   UNL A   1      41.924  34.996  29.498  1.00  0.00    -0.014 A 
BRANCH  42  43
ATOM     43  C   UNL A   1      43.081  35.832  29.311  1.00  0.00     0.031 A 
ATOM     44  C   UNL A   1      43.443  36.518  30.565  1.00  0.00     0.074 A 
ATOM     45  C   UNL A   1      43.762  35.858  28.151  1.00  0.00     0.049 A 
ATOM     46  N   UNL A   1      43.288  37.766  30.849  1.00  0.00    -0.248 NA
ATOM     47  C   UNL A   1      43.773  35.672  31.727  1.00  0.00     0.031 C 
ATOM     48  C   UNL A   1      43.608  34.985  26.983  1.00  0.00     0.029 A 
ATOM     49  N   UNL A   1      44.826  36.627  27.812  1.00  0.00    -0.354 N 
ATOM     50  C   UNL A   1      43.782  37.897  32.140  1.00  0.00     0.074 A 
ATOM     51  C   UNL A   1      43.800  36.576  32.705  1.00  0.00     0.031 C 
ATOM     52  C   UNL A   1      44.690  35.121  26.181  1.00  0.00     0.029 A 
ATOM     53  C   UNL A   1      45.543  36.173  26.710  1.00  0.00     0.049 A 
ATOM     54  H   UNL A   1      45.072  37.442  28.306  1.00  0.00     0.167 HD
ATOM     55  C   UNL A   1      44.462  39.016  32.504  1.00  0.00     0.037 A 
ATOM     56  C   UNL A   1      46.784  36.592  26.349  1.00  0.00     0.037 A 
ATOM     57  C   UNL A   1      44.152  40.119  31.626  1.00  0.00     0.049 A 
ATOM     58  C   UNL A   1      47.020  37.892  27.041  1.00  0.00     0.074 A 
ATOM     59  C   UNL A   1      42.979  40.743  31.243  1.00  0.00     0.029 A 
ATOM     60  N   UNL A   1      45.087  40.467  30.680  1.00  0.00    -0.354 N 
ATOM     61  N   UNL A   1      46.367  38.989  26.768  1.00  0.00    -0.248 NA
ATOM     62  C   UNL A   1      47.630  37.848  28.363  1.00  0.00     0.031 C 
ATOM     63  C   UNL A   1      43.144  41.031  29.856  1.00  0.00     0.029 A 
ATOM     64  C   UNL A   1      44.431  40.640  29.486  1.00  0.00     0.049 A 
ATOM     65  H   UNL A   1      46.053  40.572  30.832  1.00  0.00     0.167 HD
ATOM     66  C   UNL A   1      46.119  39.575  28.001  1.00  0.00     0.074 A 
ATOM     67  C   UNL A   1      46.982  38.863  28.941  1.00  0.00     0.031 C 
ATOM     68  C   UNL A   1      45.030  40.377  28.196  1.00  0.00     0.037 A 
BRANCH  55  69
ATOM     69  C   UNL A   1      45.698  38.969  33.370  1.00  0.00     0.058 A 
ATOM     70  C   UNL A   1      45.779  39.818  34.489  1.00  0.00     0.135 A 
ATOM     71  C   UNL A   1      46.908  38.330  33.003  1.00  0.00     0.135 A 
ATOM     72  F   UNL A   1      44.699  40.492  34.912  1.00  0.00    -0.206 F 
ATOM     73  C   UNL A   1      46.981  40.060  35.153  1.00  0.00     0.059 A 
ATOM     74  C   UNL A   1      48.100  38.508  33.689  1.00  0.00     0.059 A 
ATOM     75  F   UNL A   1      47.030  37.575  31.906  1.00  0.00    -0.206 F 
ATOM     76  C   UNL A   1      48.138  39.405  34.738  1.00  0.00     0.060 A 
BRANCH  76  77
ATOM     77  S   UNL A   1      49.706  39.770  35.537  1.00  0.00     0.124 S 
ATOM     78  O   UNL A   1      49.773  38.712  36.539  1.00  0.00    -0.237 OA
ATOM     79  O   UNL A   1      50.642  39.661  34.423  1.00  0.00    -0.237 OA
ATOM     80  O   UNL A   1      49.512  41.122  36.053  1.00  0.00    -0.744 OA
ENDBRANCH  76  77
ENDBRANCH  55  69
BRANCH  56  81
ATOM     81  C   UNL A   1      47.905  35.795  25.777  1.00  0.00     0.058 A 
ATOM     82  C   UNL A   1      48.882  36.403  24.967  1.00  0.00     0.135 A 
ATOM     83  C   UNL A   1      48.212  34.504  26.253  1.00  0.00     0.135 A 
ATOM     84  F   UNL A   1      48.683  37.637  24.482  1.00  0.00    -0.206 F 
ATOM     85  C   UNL A   1      50.114  35.796  24.698  1.00  0.00     0.059 A 
ATOM     86  C   UNL A   1      49.429  33.876  25.989  1.00  0.00     0.059 A 
ATOM     87  F   UNL A   1      47.377  33.851  27.073  1.00  0.00    -0.206 F 
ATOM     88  C   UNL A   1      50.389  34.540  25.235  1.00  0.00     0.060 A 
BRANCH  88  89
ATOM     89  S   UNL A   1      52.046  33.836  25.056  1.00  0.00     0.124 S 
ATOM     90  O   UNL A   1      51.964  32.650  25.901  1.00  0.00    -0.237 OA
ATOM     91  O   UNL A   1      52.123  33.590  23.618  1.00  0.00    -0.237 OA
ATOM     92  O   UNL A   1      52.919  34.897  25.550  1.00  0.00    -0.744 OA
ENDBRANCH  88  89
ENDBRANCH  56  81
BRANCH  68  93
ATOM     93  C   UNL A   1      44.284  40.870  26.980  1.00  0.00     0.058 A 
ATOM     94  C   UNL A   1      43.094  40.313  26.478  1.00  0.00     0.135 A 
ATOM     95  C   UNL A   1      44.747  42.044  26.364  1.00  0.00     0.135 A 
ATOM     96  F   UNL A   1      42.519  39.258  27.075  1.00  0.00    -0.206 F 
ATOM     97  C   UNL A   1      42.434  40.860  25.374  1.00  0.00     0.059 A 
ATOM     98  C   UNL A   1      44.087  42.627  25.288  1.00  0.00     0.059 A 
ATOM     99  F   UNL A   1      45.841  42.664  26.836  1.00  0.00    -0.206 F 
ATOM    100  C   UNL A   1      42.942  42.016  24.782  1.00  0.00     0.060 A 
BRANCH 100 101
ATOM    101  S   UNL A   1      42.080  42.745  23.372  1.00  0.00     0.124 S 
ATOM    102  O   UNL A   1      40.680  42.518  23.718  1.00  0.00    -0.237 OA
ATOM    103  O   UNL A   1      42.526  44.134  23.411  1.00  0.00    -0.237 OA
ATOM    104  O   UNL A   1      42.574  41.973  22.234  1.00  0.00    -0.744 OA
ENDBRANCH 100 101
ENDBRANCH  68  93
ENDBRANCH  42  43
ENDBRANCH  35  37
ENDBRANCH  34  35
ENDBRANCH  33  34
ENDBRANCH  32  33
ENDBRANCH  31  32
ENDBRANCH  30  31
ENDBRANCH  29  30
ENDBRANCH   1  29
TORSDOF 26
ENDMDL
MODEL 2
REMARK VINA RESULT:      -9.2      5.841     11.253
REMARK SMILES Cc1nc2scc(C)n2c1CNc1ccc(C(=O)OCCOCCOCCOCCOC(=O)c2ccc(-c3c4nc(c(-c5c(F)cc(S(=O)(=O)[O-])cc5F)c5ccc([nH]5)c(-c5c(F)cc(S(=O)(=O)[O-])cc5F)c5nc(c(-c6c(F)cc(S(=O)(=O)[O-])cc6F)c6ccc3[nH]6)C=C5)C=C4)cc2)cc1
REMARK SMILES IDX 25 1 24 2 23 3 22 4 21 5 20 6 19 7 17 8 18 9 16 10 13 11
REMARK SMILES IDX 14 12 101 13 15 14 100 15 12 16 11 18 10 19 1 20 2 21 3 22
REMARK SMILES IDX 4 23 9 24 5 25 7 26 6 27 8 28 26 29 27 30 28 31 29 32 30 33
REMARK SMILES IDX 31 34 32 35 33 36 34 37 35 38 99 39 36 40 98 41 37 42 38 43
REMARK SMILES IDX 39 44 92 45 40 46 97 47 91 48 93 49 41 50 96 51 90 52 89 53
REMARK SMILES IDX 42 55 76 56 55 57 75 58 56 59 59 60 74 61 94 62 57 63 58 64
REMARK SMILES IDX 73 66 95 67 60 68 43 69 44 70 53 71 45 72 46 73 52 74 54 75
REMARK SMILES IDX 47 76 48 77 49 78 50 79 51 80 77 81 78 82 87 83 79 84 80 85
REMARK SMILES IDX 86 86 88 87 81 88 82 89 83 90 84 91 85 92 61 93 62 94 71 95
REMARK SMILES IDX 63 96 64 97 70 98 72 99 65 100 66 101 67 102 68 103 69 104
REMARK H PARENT 12 17 93 54 59 65
REMARK Flexibility Score: inf
ROOT
ATOM      1  O   UNL A   1      40.774  20.219  27.281  1.00  0.00    -0.377 OA
ENDROOT
BRANCH   1   2
ATOM      2  C   UNL A   1      40.127  19.717  26.126  1.00  0.00     0.188 C 
BRANCH   2   3
ATOM      3  C   UNL A   1      39.090  20.689  25.523  1.00  0.00     0.188 C 
BRANCH   3   4
ATOM      4  O   UNL A   1      38.906  21.980  26.077  1.00  0.00    -0.376 OA
BRANCH   4   5
ATOM      5  C   UNL A   1      37.720  22.738  25.923  1.00  0.00     0.202 C 
BRANCH   5   6
ATOM      6  C   UNL A   1      37.041  23.109  24.592  1.00  0.00     0.261 C 
BRANCH   6   7
ATOM      7  O   UNL A   1      36.318  22.093  23.910  1.00  0.00    -0.460 OA
BRANCH   7   8
ATOM      8  C   UNL A   1      35.400  21.435  24.642  1.00  0.00     0.338 C 
ATOM      9  O   UNL A   1      35.519  20.345  25.182  1.00  0.00    -0.246 OA
BRANCH   8  10
ATOM     10  C   UNL A   1      34.258  22.343  24.863  1.00  0.00     0.060 A 
ATOM     11  C   UNL A   1      31.975  23.857  25.389  1.00  0.00     0.034 A 
ATOM     12  C   UNL A   1      32.807  23.463  26.439  1.00  0.00     0.026 A 
ATOM     13  C   UNL A   1      32.397  23.636  24.070  1.00  0.00     0.026 A 
ATOM     14  C   UNL A   1      33.922  22.670  26.180  1.00  0.00     0.018 A 
ATOM     15  C   UNL A   1      33.543  22.890  23.798  1.00  0.00     0.018 A 
BRANCH  11  16
ATOM     16  N   UNL A   1      30.668  24.225  25.680  1.00  0.00    -0.379 N 
ATOM     17  H   UNL A   1      29.942  23.560  25.683  1.00  0.00     0.160 HD
BRANCH  16  18
ATOM     18  C   UNL A   1      30.405  25.623  25.980  1.00  0.00     0.169 C 
BRANCH  18  19
ATOM     19  C   UNL A   1      30.535  26.544  24.822  1.00  0.00     0.066 A 
ATOM     20  C   UNL A   1      28.112  26.625  23.876  1.00  0.00     0.069 C 
ATOM     21  C   UNL A   1      29.551  26.978  23.928  1.00  0.00     0.062 A 
ATOM     22  N   UNL A   1      30.057  27.872  23.011  1.00  0.00    -0.224 NA
ATOM     23  C   UNL A   1      31.304  27.989  23.359  1.00  0.00     0.194 A 
ATOM     24  N   UNL A   1      31.667  27.246  24.451  1.00  0.00    -0.290 N 
ATOM     25  S   UNL A   1      32.611  28.954  22.751  1.00  0.00    -0.105 S 
ATOM     26  C   UNL A   1      32.992  27.438  24.844  1.00  0.00     0.032 A 
ATOM     27  C   UNL A   1      33.622  28.318  24.039  1.00  0.00     0.090 A 
ATOM     28  C   UNL A   1      33.659  26.809  26.009  1.00  0.00     0.066 C 
ENDBRANCH  18  19
ENDBRANCH  16  18
ENDBRANCH  11  16
ENDBRANCH   8  10
ENDBRANCH   7   8
ENDBRANCH   6   7
ENDBRANCH   5   6
ENDBRANCH   4   5
ENDBRANCH   3   4
ENDBRANCH   2   3
ENDBRANCH   1   2
BRANCH   1  29
ATOM     29  C   UNL A   1      42.184  20.419  27.198  1.00  0.00     0.188 C 
BRANCH  29  30
ATOM     30  C   UNL A   1      42.763  21.723  26.585  1.00  0.00     0.188 C 
BRANCH  30  31
ATOM     31  O   UNL A   1      43.375  21.577  25.312  1.00  0.00    -0.376 OA
BRANCH  31  32
ATOM     32  C   UNL A   1      43.732  22.673  24.492  1.00  0.00     0.202 C 
BRANCH  32  33
ATOM     33  C   UNL A   1      44.603  23.765  25.098  1.00  0.00     0.261 C 
BRANCH  33  34
ATOM     34  O   UNL A   1      44.074  25.061  24.925  1.00  0.00    -0.460 OA
BRANCH  34  35
ATOM     35  C   UNL A   1      43.415  25.540  25.988  1.00  0.00     0.338 C 
ATOM     36  O   UNL A   1      42.612  24.934  26.701  1.00  0.00    -0.246 OA
BRANCH  35  37
ATOM     37  C   UNL A   1      43.694  26.965  26.086  1.00  0.00     0.060 A 
ATOM     38  C   UNL A   1      44.657  27.336  27.022  1.00  0.00     0.016 A 
ATOM     39  C   UNL A   1      42.728  27.856  25.588  1.00  0.00     0.016 A 
ATOM     40  C   UNL A   1      44.457  28.514  27.691  1.00  0.00     0.010 A 
ATOM     41  C   UNL A   1      42.511  29.013  26.279  1.00  0.00     0.010 A 
ATOM     42  C   UNL A   1      43.317  29.266  27.384  1.00  0.00    -0.014 A 
BRANCH  42  43
ATOM     43  C   UNL A   1      43.038  30.422  28.195  1.00  0.00     0.031 A 
ATOM     44  C   UNL A   1      43.772  31.601  27.700  1.00  0.00     0.074 A 
ATOM     45  C   UNL A   1      42.138  30.393  29.193  1.00  0.00     0.049 A 
ATOM     46  N   UNL A   1      44.796  32.172  28.238  1.00  0.00    -0.248 NA
ATOM     47  C   UNL A   1      43.498  32.036  26.318  1.00  0.00     0.031 C 
ATOM     48  C   UNL A   1      41.186  29.330  29.533  1.00  0.00     0.029 A 
ATOM     49  N   UNL A   1      41.812  31.376  30.069  1.00  0.00    -0.354 N 
ATOM     50  C   UNL A   1      45.101  33.224  27.386  1.00  0.00     0.074 A 
ATOM     51  C   UNL A   1      44.471  32.925  26.128  1.00  0.00     0.031 C 
ATOM     52  C   UNL A   1      40.248  29.825  30.374  1.00  0.00     0.029 A 
ATOM     53  C   UNL A   1      40.602  31.189  30.728  1.00  0.00     0.049 A 
ATOM     54  H   UNL A   1      42.387  32.159  30.226  1.00  0.00     0.167 HD
ATOM     55  C   UNL A   1      45.540  34.408  27.887  1.00  0.00     0.037 A 
ATOM     56  C   UNL A   1      39.929  32.142  31.425  1.00  0.00     0.037 A 
ATOM     57  C   UNL A   1      46.086  34.239  29.212  1.00  0.00     0.049 A 
ATOM     58  C   UNL A   1      40.905  33.227  31.729  1.00  0.00     0.074 A 
ATOM     59  C   UNL A   1      47.081  33.442  29.748  1.00  0.00     0.029 A 
ATOM     60  N   UNL A   1      45.319  34.646  30.278  1.00  0.00    -0.354 N 
ATOM     61  N   UNL A   1      41.918  33.086  32.541  1.00  0.00    -0.248 NA
ATOM     62  C   UNL A   1      41.036  34.305  30.758  1.00  0.00     0.031 C 
ATOM     63  C   UNL A   1      46.584  33.028  31.019  1.00  0.00     0.029 A 
ATOM     64  C   UNL A   1      45.354  33.653  31.225  1.00  0.00     0.049 A 
ATOM     65  H   UNL A   1      44.832  35.498  30.348  1.00  0.00     0.167 HD
ATOM     66  C   UNL A   1      42.969  33.748  31.922  1.00  0.00     0.074 A 
ATOM     67  C   UNL A   1      42.347  34.540  30.862  1.00  0.00     0.031 C 
ATOM     68  C   UNL A   1      44.264  33.371  32.133  1.00  0.00     0.037 A 
BRANCH  55  69
ATOM     69  C   UNL A   1      45.079  35.740  27.345  1.00  0.00     0.058 A 
ATOM     70  C   UNL A   1      46.039  36.728  27.059  1.00  0.00     0.135 A 
ATOM     71  C   UNL A   1      43.733  36.182  27.348  1.00  0.00     0.135 A 
ATOM     72  F   UNL A   1      47.346  36.427  27.050  1.00  0.00    -0.206 F 
ATOM     73  C   UNL A   1      45.691  38.063  26.851  1.00  0.00     0.059 A 
ATOM     74  C   UNL A   1      43.363  37.492  27.083  1.00  0.00     0.059 A 
ATOM     75  F   UNL A   1      42.709  35.399  27.703  1.00  0.00    -0.206 F 
ATOM     76  C   UNL A   1      44.350  38.435  26.875  1.00  0.00     0.060 A 
BRANCH  76  77
ATOM     77  S   UNL A   1      43.899  40.165  26.689  1.00  0.00     0.124 S 
ATOM     78  O   UNL A   1      44.464  40.742  27.904  1.00  0.00    -0.237 OA
ATOM     79  O   UNL A   1      44.568  40.516  25.440  1.00  0.00    -0.237 OA
ATOM     80  O   UNL A   1      42.442  40.126  26.623  1.00  0.00    -0.744 OA
ENDBRANCH  76  77
ENDBRANCH  55  69
BRANCH  56  81
ATOM     81  C   UNL A   1      38.458  32.365  31.512  1.00  0.00     0.058 A 
ATOM     82  C   UNL A   1      37.817  32.471  32.761  1.00  0.00     0.135 A 
ATOM     83  C   UNL A   1      37.706  32.779  30.394  1.00  0.00     0.135 A 
ATOM     84  F   UNL A   1      38.462  32.114  33.881  1.00  0.00    -0.206 F 
ATOM     85  C   UNL A   1      36.535  33.013  32.901  1.00  0.00     0.059 A 
ATOM     86  C   UNL A   1      36.423  33.313  30.508  1.00  0.00     0.059 A 
ATOM     87  F   UNL A   1      38.233  32.768  29.162  1.00  0.00    -0.206 F 
ATOM     88  C   UNL A   1      35.853  33.455  31.768  1.00  0.00     0.060 A 
BRANCH  88  89
ATOM     89  S   UNL A   1      34.283  34.333  31.958  1.00  0.00     0.124 S 
ATOM     90  O   UNL A   1      33.559  33.463  32.877  1.00  0.00    -0.237 OA
ATOM     91  O   UNL A   1      34.711  35.619  32.501  1.00  0.00    -0.237 OA
ATOM     92  O   UNL A   1      33.755  34.382  30.597  1.00  0.00    -0.744 OA
ENDBRANCH  88  89
ENDBRANCH  56  81
BRANCH  68  93
ATOM     93  C   UNL A   1      44.555  32.440  33.285  1.00  0.00     0.058 A 
ATOM     94  C   UNL A   1      44.462  31.036  33.236  1.00  0.00     0.135 A 
ATOM     95  C   UNL A   1      45.064  33.003  34.465  1.00  0.00     0.135 A 
ATOM     96  F   UNL A   1      44.093  30.408  32.110  1.00  0.00    -0.206 F 
ATOM     97  C   UNL A   1      44.798  30.238  34.333  1.00  0.00     0.059 A 
ATOM     98  C   UNL A   1      45.439  32.227  35.556  1.00  0.00     0.059 A 
ATOM     99  F   UNL A   1      45.240  34.332  34.554  1.00  0.00    -0.206 F 
ATOM    100  C   UNL A   1      45.282  30.845  35.492  1.00  0.00     0.060 A 
BRANCH 100 101
ATOM    101  S   UNL A   1      45.744  29.818  36.905  1.00  0.00     0.124 S 
ATOM    102  O   UNL A   1      45.279  28.498  36.490  1.00  0.00    -0.237 OA
ATOM    103  O   UNL A   1      47.193  29.992  36.962  1.00  0.00    -0.237 OA
ATOM    104  O   UNL A   1      45.009  30.417  38.016  1.00  0.00    -0.744 OA
ENDBRANCH 100 101
ENDBRANCH  68  93
ENDBRANCH  42  43
ENDBRANCH  35  37
ENDBRANCH  34  35
ENDBRANCH  33  34
ENDBRANCH  32  33
ENDBRANCH  31  32
ENDBRANCH  30  31
ENDBRANCH  29  30
ENDBRANCH   1  29
TORSDOF 26
ENDMDL
MODEL 3
REMARK VINA RESULT:      -9.1      6.754     12.099
REMARK SMILES Cc1nc2scc(C)n2c1CNc1ccc(C(=O)OCCOCCOCCOCCOC(=O)c2ccc(-c3c4nc(c(-c5c(F)cc(S(=O)(=O)[O-])cc5F)c5ccc([nH]5)c(-c5c(F)cc(S(=O)(=O)[O-])cc5F)c5nc(c(-c6c(F)cc(S(=O)(=O)[O-])cc6F)c6ccc3[nH]6)C=C5)C=C4)cc2)cc1
REMARK SMILES IDX 25 1 24 2 23 3 22 4 21 5 20 6 19 7 17 8 18 9 16 10 13 11
REMARK SMILES IDX 14 12 101 13 15 14 100 15 12 16 11 18 10 19 1 20 2 21 3 22
REMARK SMILES IDX 4 23 9 24 5 25 7 26 6 27 8 28 26 29 27 30 28 31 29 32 30 33
REMARK SMILES IDX 31 34 32 35 33 36 34 37 35 38 99 39 36 40 98 41 37 42 38 43
REMARK SMILES IDX 39 44 92 45 40 46 97 47 91 48 93 49 41 50 96 51 90 52 89 53
REMARK SMILES IDX 42 55 76 56 55 57 75 58 56 59 59 60 74 61 94 62 57 63 58 64
REMARK SMILES IDX 73 66 95 67 60 68 43 69 44 70 53 71 45 72 46 73 52 74 54 75
REMARK SMILES IDX 47 76 48 77 49 78 50 79 51 80 77 81 78 82 87 83 79 84 80 85
REMARK SMILES IDX 86 86 88 87 81 88 82 89 83 90 84 91 85 92 61 93 62 94 71 95
REMARK SMILES IDX 63 96 64 97 70 98 72 99 65 100 66 101 67 102 68 103 69 104
REMARK H PARENT 12 17 93 54 59 65
REMARK Flexibility Score: inf
ROOT
ATOM      1  O   UNL A   1      40.056  20.856  26.817  1.00  0.00    -0.377 OA
ENDROOT
BRANCH   1   2
ATOM      2  C   UNL A   1      39.139  21.448  25.915  1.00  0.00     0.188 C 
BRANCH   2   3
ATOM      3  C   UNL A   1      38.849  22.936  26.210  1.00  0.00     0.188 C 
BRANCH   3   4
ATOM      4  O   UNL A   1      37.543  23.358  26.560  1.00  0.00    -0.376 OA
BRANCH   4   5
ATOM      5  C   UNL A   1      36.663  24.013  25.665  1.00  0.00     0.202 C 
BRANCH   5   6
ATOM      6  C   UNL A   1      36.336  23.576  24.225  1.00  0.00     0.261 C 
BRANCH   6   7
ATOM      7  O   UNL A   1      36.150  22.187  23.979  1.00  0.00    -0.460 OA
BRANCH   7   8
ATOM      8  C   UNL A   1      35.274  21.562  24.788  1.00  0.00     0.338 C 
ATOM      9  O   UNL A   1      35.522  20.894  25.780  1.00  0.00    -0.246 OA
BRANCH   8  10
ATOM     10  C   UNL A   1      33.914  21.976  24.392  1.00  0.00     0.060 A 
ATOM     11  C   UNL A   1      31.427  23.009  23.665  1.00  0.00     0.034 A 
ATOM     12  C   UNL A   1      32.500  23.084  22.775  1.00  0.00     0.026 A 
ATOM     13  C   UNL A   1      31.572  22.256  24.840  1.00  0.00     0.026 A 
ATOM     14  C   UNL A   1      33.752  22.608  23.156  1.00  0.00     0.018 A 
ATOM     15  C   UNL A   1      32.809  21.727  25.205  1.00  0.00     0.018 A 
BRANCH  11  16
ATOM     16  N   UNL A   1      30.351  23.868  23.483  1.00  0.00    -0.379 N 
ATOM     17  H   UNL A   1      29.427  23.530  23.480  1.00  0.00     0.160 HD
BRANCH  16  18
ATOM     18  C   UNL A   1      30.633  25.282  23.298  1.00  0.00     0.169 C 
BRANCH  18  19
ATOM     19  C   UNL A   1      31.114  25.986  24.514  1.00  0.00     0.066 A 
ATOM     20  C   UNL A   1      29.480  25.140  26.354  1.00  0.00     0.069 C 
ATOM     21  C   UNL A   1      30.625  25.918  25.822  1.00  0.00     0.062 A 
ATOM     22  N   UNL A   1      31.373  26.687  26.685  1.00  0.00    -0.224 NA
ATOM     23  C   UNL A   1      32.299  27.186  25.920  1.00  0.00     0.194 A 
ATOM     24  N   UNL A   1      32.232  26.795  24.609  1.00  0.00    -0.290 N 
ATOM     25  S   UNL A   1      33.660  28.214  26.236  1.00  0.00    -0.105 S 
ATOM     26  C   UNL A   1      33.273  27.290  23.823  1.00  0.00     0.032 A 
ATOM     27  C   UNL A   1      34.113  28.059  24.546  1.00  0.00     0.090 A 
ATOM     28  C   UNL A   1      33.492  27.009  22.384  1.00  0.00     0.066 C 
ENDBRANCH  18  19
ENDBRANCH  16  18
ENDBRANCH  11  16
ENDBRANCH   8  10
ENDBRANCH   7   8
ENDBRANCH   6   7
ENDBRANCH   5   6
ENDBRANCH   4   5
ENDBRANCH   3   4
ENDBRANCH   2   3
ENDBRANCH   1   2
BRANCH   1  29
ATOM     29  C   UNL A   1      41.241  20.294  26.259  1.00  0.00     0.188 C 
BRANCH  29  30
ATOM     30  C   UNL A   1      42.560  21.113  26.212  1.00  0.00     0.188 C 
BRANCH  30  31
ATOM     31  O   UNL A   1      43.651  20.476  25.565  1.00  0.00    -0.376 OA
BRANCH  31  32
ATOM     32  C   UNL A   1      44.485  21.126  24.625  1.00  0.00     0.202 C 
BRANCH  32  33
ATOM     33  C   UNL A   1      44.368  22.638  24.493  1.00  0.00     0.261 C 
BRANCH  33  34
ATOM     34  O   UNL A   1      45.488  23.331  24.999  1.00  0.00    -0.460 OA
BRANCH  34  35
ATOM     35  C   UNL A   1      45.435  23.591  26.312  1.00  0.00     0.338 C 
ATOM     36  O   UNL A   1      45.320  22.773  27.227  1.00  0.00    -0.246 OA
BRANCH  35  37
ATOM     37  C   UNL A   1      45.393  25.035  26.483  1.00  0.00     0.060 A 
ATOM     38  C   UNL A   1      46.151  25.549  27.533  1.00  0.00     0.016 A 
ATOM     39  C   UNL A   1      44.316  25.729  25.906  1.00  0.00     0.016 A 
ATOM     40  C   UNL A   1      45.634  26.622  28.209  1.00  0.00     0.010 A 
ATOM     41  C   UNL A   1      43.786  26.777  26.601  1.00  0.00     0.010 A 
ATOM     42  C   UNL A   1      44.399  27.134  27.797  1.00  0.00    -0.014 A 
BRANCH  42  43
ATOM     43  C   UNL A   1      43.796  28.162  28.606  1.00  0.00     0.031 A 
ATOM     44  C   UNL A   1      44.685  29.333  28.716  1.00  0.00     0.074 A 
ATOM     45  C   UNL A   1      42.544  28.052  29.082  1.00  0.00     0.049 A 
ATOM     46  N   UNL A   1      45.364  29.710  29.745  1.00  0.00    -0.248 NA
ATOM     47  C   UNL A   1      45.064  30.012  27.463  1.00  0.00     0.031 C 
ATOM     48  C   UNL A   1      41.532  27.040  28.762  1.00  0.00     0.029 A 
ATOM     49  N   UNL A   1      41.869  28.903  29.894  1.00  0.00    -0.354 N 
ATOM     50  C   UNL A   1      46.029  30.855  29.329  1.00  0.00     0.074 A 
ATOM     51  C   UNL A   1      46.027  30.827  27.892  1.00  0.00     0.031 C 
ATOM     52  C   UNL A   1      40.320  27.475  29.182  1.00  0.00     0.029 A 
ATOM     53  C   UNL A   1      40.490  28.723  29.907  1.00  0.00     0.049 A 
ATOM     54  H   UNL A   1      42.319  29.593  30.432  1.00  0.00     0.167 HD
ATOM     55  C   UNL A   1      46.207  31.895  30.186  1.00  0.00     0.037 A 
ATOM     56  C   UNL A   1      39.584  29.606  30.403  1.00  0.00     0.037 A 
ATOM     57  C   UNL A   1      46.099  31.460  31.557  1.00  0.00     0.049 A 
ATOM     58  C   UNL A   1      40.330  30.532  31.304  1.00  0.00     0.074 A 
ATOM     59  C   UNL A   1      46.740  30.497  32.315  1.00  0.00     0.029 A 
ATOM     60  N   UNL A   1      44.939  31.755  32.234  1.00  0.00    -0.354 N 
ATOM     61  N   UNL A   1      40.870  30.166  32.434  1.00  0.00    -0.248 NA
ATOM     62  C   UNL A   1      40.893  31.738  30.711  1.00  0.00     0.031 C 
ATOM     63  C   UNL A   1      45.723  29.927  33.135  1.00  0.00     0.029 A 
ATOM     64  C   UNL A   1      44.537  30.621  32.894  1.00  0.00     0.049 A 
ATOM     65  H   UNL A   1      44.480  32.626  32.242  1.00  0.00     0.167 HD
ATOM     66  C   UNL A   1      42.093  30.821  32.477  1.00  0.00     0.074 A 
ATOM     67  C   UNL A   1      42.020  31.830  31.422  1.00  0.00     0.031 C 
ATOM     68  C   UNL A   1      43.153  30.295  33.160  1.00  0.00     0.037 A 
BRANCH  55  69
ATOM     69  C   UNL A   1      46.050  33.335  29.758  1.00  0.00     0.058 A 
ATOM     70  C   UNL A   1      44.855  33.733  29.133  1.00  0.00     0.135 A 
ATOM     71  C   UNL A   1      47.113  34.269  29.691  1.00  0.00     0.135 A 
ATOM     72  F   UNL A   1      43.789  32.918  29.117  1.00  0.00    -0.206 F 
ATOM     73  C   UNL A   1      44.744  34.941  28.443  1.00  0.00     0.059 A 
ATOM     74  C   UNL A   1      47.003  35.501  29.064  1.00  0.00     0.059 A 
ATOM     75  F   UNL A   1      48.345  34.006  30.140  1.00  0.00    -0.206 F 
ATOM     76  C   UNL A   1      45.828  35.813  28.408  1.00  0.00     0.060 A 
BRANCH  76  77
ATOM     77  S   UNL A   1      45.721  37.333  27.454  1.00  0.00     0.124 S 
ATOM     78  O   UNL A   1      46.284  36.912  26.177  1.00  0.00    -0.237 OA
ATOM     79  O   UNL A   1      44.286  37.594  27.469  1.00  0.00    -0.237 OA
ATOM     80  O   UNL A   1      46.530  38.270  28.227  1.00  0.00    -0.744 OA
ENDBRANCH  76  77
ENDBRANCH  55  69
BRANCH  56  81
ATOM     81  C   UNL A   1      38.233  29.948  29.876  1.00  0.00     0.058 A 
ATOM     82  C   UNL A   1      37.173  30.251  30.751  1.00  0.00     0.135 A 
ATOM     83  C   UNL A   1      38.030  30.279  28.521  1.00  0.00     0.135 A 
ATOM     84  F   UNL A   1      37.284  29.985  32.061  1.00  0.00    -0.206 F 
ATOM     85  C   UNL A   1      36.010  30.900  30.322  1.00  0.00     0.059 A 
ATOM     86  C   UNL A   1      36.875  30.916  28.068  1.00  0.00     0.059 A 
ATOM     87  F   UNL A   1      38.990  30.080  27.608  1.00  0.00    -0.206 F 
ATOM     88  C   UNL A   1      35.881  31.252  28.979  1.00  0.00     0.060 A 
BRANCH  88  89
ATOM     89  S   UNL A   1      34.474  32.261  28.454  1.00  0.00     0.124 S 
ATOM     90  O   UNL A   1      35.094  33.168  27.494  1.00  0.00    -0.237 OA
ATOM     91  O   UNL A   1      33.569  31.262  27.894  1.00  0.00    -0.237 OA
ATOM     92  O   UNL A   1      34.020  32.881  29.696  1.00  0.00    -0.744 OA
ENDBRANCH  88  89
ENDBRANCH  56  81
BRANCH  68  93
ATOM     93  C   UNL A   1      42.887  29.164  34.123  1.00  0.00     0.058 A 
ATOM     94  C   UNL A   1      42.516  29.319  35.472  1.00  0.00     0.135 A 
ATOM     95  C   UNL A   1      42.902  27.857  33.613  1.00  0.00     0.135 A 
ATOM     96  F   UNL A   1      42.366  30.538  36.011  1.00  0.00    -0.206 F 
ATOM     97  C   UNL A   1      42.236  28.219  36.288  1.00  0.00     0.059 A 
ATOM     98  C   UNL A   1      42.592  26.751  34.397  1.00  0.00     0.059 A 
ATOM     99  F   UNL A   1      43.183  27.644  32.317  1.00  0.00    -0.206 F 
ATOM    100  C   UNL A   1      42.282  26.937  35.741  1.00  0.00     0.060 A 
BRANCH 100 101
ATOM    101  S   UNL A   1      41.895  25.513  36.784  1.00  0.00     0.124 S 
ATOM    102  O   UNL A   1      40.641  25.921  37.408  1.00  0.00    -0.237 OA
ATOM    103  O   UNL A   1      41.797  24.427  35.813  1.00  0.00    -0.237 OA
ATOM    104  O   UNL A   1      43.041  25.429  37.685  1.00  0.00    -0.744 OA
ENDBRANCH 100 101
ENDBRANCH  68  93
ENDBRANCH  42  43
ENDBRANCH  35  37
ENDBRANCH  34  35
ENDBRANCH  33  34
ENDBRANCH  32  33
ENDBRANCH  31  32
ENDBRANCH  30  31
ENDBRANCH  29  30
ENDBRANCH   1  29
TORSDOF 26
ENDMDL
