MODEL 1
REMARK VINA RESULT:      -7.8      0.000      0.000
REMARK SMILES COc1ccc(-n2c(SCc3cn(-c4ccc(C(=O)OCCOCCOCCOCCOC(=O)c5ccc(-c6c7nc(c(-c8c(F)cc(S(=O)(=O)[O-])cc8F)c8ccc([nH]8)c(-c8c(F)cc(S(=O)(=O)[O-])cc8F)c8nc(c(-c9c(F)cc(S(=O)(=O)[O-])cc9F)c9ccc6[nH]9)C=C8)C=C7)cc5)cc4)nn3)nc3ccccc3c2=O)cc1
REMARK SMILES IDX 24 1 23 2 22 3 21 4 20 5 18 6 19 7 17 8 14 9 15 10 102 11
REMARK SMILES IDX 16 12 101 13 13 14 11 15 12 16 104 17 103 18 10 19 9 20 8 21
REMARK SMILES IDX 7 22 112 23 105 24 111 25 113 26 106 27 110 28 107 29 109 30
REMARK SMILES IDX 108 31 6 32 3 33 4 34 115 35 5 36 114 37 2 38 1 39 25 40
REMARK SMILES IDX 26 41 27 42 28 43 29 44 30 45 31 46 32 47 33 48 34 49 35 50
REMARK SMILES IDX 36 51 100 52 37 53 99 54 38 55 39 56 40 57 93 58 41 59 98 60
REMARK SMILES IDX 92 61 94 62 42 63 97 64 91 65 90 66 43 68 77 69 56 70 76 71
REMARK SMILES IDX 57 72 60 73 75 74 95 75 58 76 59 77 74 79 96 80 61 81 44 82
REMARK SMILES IDX 45 83 54 84 46 85 47 86 53 87 55 88 48 89 49 90 50 91 51 92
REMARK SMILES IDX 52 93 78 94 79 95 88 96 80 97 81 98 87 99 89 100 82 101
REMARK SMILES IDX 83 102 84 103 85 104 86 105 62 106 63 107 72 108 64 109
REMARK SMILES IDX 65 110 71 111 73 112 66 113 67 114 68 115 69 116 70 117
REMARK H PARENT 94 67 60 78
REMARK Flexibility Score: inf
ROOT
ATOM      1  C   UNL A   1      50.638  26.006  37.002  1.00  0.00     0.188 C 
ENDROOT
BRANCH   1   2
ATOM      2  O   UNL A   1      49.412  25.324  37.203  1.00  0.00    -0.376 OA
BRANCH   2   3
ATOM      3  C   UNL A   1      49.276  23.920  37.082  1.00  0.00     0.202 C 
BRANCH   3   4
ATOM      4  C   UNL A   1      50.373  22.941  36.619  1.00  0.00     0.261 C 
BRANCH   4   5
ATOM      5  O   UNL A   1      50.494  21.706  37.314  1.00  0.00    -0.460 OA
BRANCH   5   6
ATOM      6  C   UNL A   1      50.123  20.593  36.657  1.00  0.00     0.338 C 
ATOM      7  O   UNL A   1      50.711  20.040  35.731  1.00  0.00    -0.246 OA
BRANCH   6   8
ATOM      8  C   UNL A   1      48.994  20.007  37.407  1.00  0.00     0.060 A 
ATOM      9  C   UNL A   1      46.916  19.120  39.005  1.00  0.00     0.066 A 
ATOM     10  C   UNL A   1      48.223  18.963  39.460  1.00  0.00     0.029 A 
ATOM     11  C   UNL A   1      46.634  19.718  37.766  1.00  0.00     0.029 A 
ATOM     12  C   UNL A   1      49.266  19.386  38.640  1.00  0.00     0.018 A 
ATOM     13  C   UNL A   1      47.677  20.190  36.976  1.00  0.00     0.018 A 
BRANCH   9  14
ATOM     14  N   UNL A   1      45.907  18.373  39.615  1.00  0.00    -0.220 N 
ATOM     15  C   UNL A   1      44.634  17.581  41.180  1.00  0.00     0.093 A 
ATOM     16  C   UNL A   1      45.697  18.402  40.958  1.00  0.00     0.141 A 
ATOM     17  N   UNL A   1      44.163  17.152  39.963  1.00  0.00    -0.134 NA
ATOM     18  N   UNL A   1      44.905  17.719  39.007  1.00  0.00    -0.062 NA
BRANCH  15  19
ATOM     19  C   UNL A   1      44.078  17.163  42.474  1.00  0.00     0.138 C 
BRANCH  19  20
ATOM     20  S   UNL A   1      44.040  15.401  42.743  1.00  0.00    -0.081 SA
BRANCH  20  21
ATOM     21  C   UNL A   1      43.580  15.076  44.444  1.00  0.00     0.176 A 
ATOM     22  N   UNL A   1      44.522  14.365  45.184  1.00  0.00    -0.255 N 
ATOM     23  C   UNL A   1      44.301  13.009  45.390  1.00  0.00     0.266 A 
ATOM     24  N   UNL A   1      42.319  14.779  44.575  1.00  0.00    -0.223 NA
ATOM     25  C   UNL A   1      43.137  12.482  44.635  1.00  0.00     0.066 A 
ATOM     26  O   UNL A   1      44.987  12.250  46.067  1.00  0.00    -0.268 OA
ATOM     27  C   UNL A   1      42.119  13.400  44.331  1.00  0.00     0.079 A 
ATOM     28  C   UNL A   1      43.166  11.219  44.047  1.00  0.00     0.016 A 
ATOM     29  C   UNL A   1      41.066  13.009  43.506  1.00  0.00     0.029 A 
ATOM     30  C   UNL A   1      42.157  10.872  43.147  1.00  0.00     0.001 A 
ATOM     31  C   UNL A   1      41.098  11.752  42.898  1.00  0.00     0.002 A 
BRANCH  22  32
ATOM     32  C   UNL A   1      45.596  15.031  45.816  1.00  0.00     0.052 A 
ATOM     33  C   UNL A   1      47.676  15.549  47.585  1.00  0.00     0.119 A 
ATOM     34  C   UNL A   1      47.971  15.097  46.299  1.00  0.00     0.048 A 
ATOM     35  C   UNL A   1      46.379  15.953  47.898  1.00  0.00     0.048 A 
ATOM     36  C   UNL A   1      46.922  14.814  45.411  1.00  0.00     0.030 A 
ATOM     37  C   UNL A   1      45.338  15.712  47.003  1.00  0.00     0.030 A 
BRANCH  33  38
ATOM     38  O   UNL A   1      48.685  15.554  48.511  1.00  0.00    -0.497 OA
ATOM     39  C   UNL A   1      48.456  16.495  49.571  1.00  0.00     0.278 C 
ENDBRANCH  33  38
ENDBRANCH  22  32
ENDBRANCH  20  21
ENDBRANCH  19  20
ENDBRANCH  15  19
ENDBRANCH   9  14
ENDBRANCH   6   8
ENDBRANCH   5   6
ENDBRANCH   4   5
ENDBRANCH   3   4
ENDBRANCH   2   3
ENDBRANCH   1   2
BRANCH   1  40
ATOM     40  C   UNL A   1      50.934  27.316  37.761  1.00  0.00     0.188 C 
BRANCH  40  41
ATOM     41  O   UNL A   1      49.915  28.289  37.613  1.00  0.00    -0.377 OA
BRANCH  41  42
ATOM     42  C   UNL A   1      50.080  29.217  36.544  1.00  0.00     0.188 C 
BRANCH  42  43
ATOM     43  C   UNL A   1      50.260  30.733  36.838  1.00  0.00     0.188 C 
BRANCH  43  44
ATOM     44  O   UNL A   1      50.325  31.571  35.690  1.00  0.00    -0.376 OA
BRANCH  44  45
ATOM     45  C   UNL A   1      49.233  32.340  35.219  1.00  0.00     0.202 C 
BRANCH  45  46
ATOM     46  C   UNL A   1      49.067  33.746  35.787  1.00  0.00     0.261 C 
BRANCH  46  47
ATOM     47  O   UNL A   1      48.386  34.609  34.901  1.00  0.00    -0.460 OA
BRANCH  47  48
ATOM     48  C   UNL A   1      47.331  35.239  35.441  1.00  0.00     0.338 C 
ATOM     49  O   UNL A   1      47.228  35.656  36.591  1.00  0.00    -0.246 OA
BRANCH  48  50
ATOM     50  C   UNL A   1      46.259  35.256  34.444  1.00  0.00     0.060 A 
ATOM     51  C   UNL A   1      44.992  35.047  34.978  1.00  0.00     0.016 A 
ATOM     52  C   UNL A   1      46.601  34.921  33.122  1.00  0.00     0.016 A 
ATOM     53  C   UNL A   1      44.221  34.114  34.346  1.00  0.00     0.010 A 
ATOM     54  C   UNL A   1      45.837  33.977  32.501  1.00  0.00     0.010 A 
ATOM     55  C   UNL A   1      44.733  33.502  33.196  1.00  0.00    -0.014 A 
BRANCH  55  56
ATOM     56  C   UNL A   1      44.027  32.356  32.696  1.00  0.00     0.031 A 
ATOM     57  C   UNL A   1      42.574  32.562  32.777  1.00  0.00     0.074 A 
ATOM     58  C   UNL A   1      44.661  31.289  32.183  1.00  0.00     0.049 A 
ATOM     59  N   UNL A   1      41.761  32.060  33.643  1.00  0.00    -0.248 NA
ATOM     60  C   UNL A   1      42.015  33.671  31.987  1.00  0.00     0.031 C 
ATOM     61  C   UNL A   1      46.075  31.136  31.831  1.00  0.00     0.029 A 
ATOM     62  N   UNL A   1      44.116  30.120  31.772  1.00  0.00    -0.354 N 
ATOM     63  C   UNL A   1      40.525  32.598  33.316  1.00  0.00     0.074 A 
ATOM     64  C   UNL A   1      40.789  33.753  32.503  1.00  0.00     0.031 C 
ATOM     65  C   UNL A   1      46.218  30.040  31.047  1.00  0.00     0.029 A 
ATOM     66  C   UNL A   1      44.939  29.356  30.957  1.00  0.00     0.049 A 
ATOM     67  H   UNL A   1      43.210  29.834  32.031  1.00  0.00     0.167 HD
ATOM     68  C   UNL A   1      39.394  31.861  33.463  1.00  0.00     0.037 A 
ATOM     69  C   UNL A   1      44.517  28.319  30.188  1.00  0.00     0.037 A 
ATOM     70  C   UNL A   1      39.608  30.756  34.368  1.00  0.00     0.049 A 
ATOM     71  C   UNL A   1      43.215  27.863  30.762  1.00  0.00     0.074 A 
ATOM     72  C   UNL A   1      40.009  30.651  35.686  1.00  0.00     0.029 A 
ATOM     73  N   UNL A   1      39.795  29.508  33.820  1.00  0.00    -0.354 N 
ATOM     74  N   UNL A   1      43.098  27.319  31.946  1.00  0.00    -0.248 NA
ATOM     75  C   UNL A   1      41.995  28.465  30.237  1.00  0.00     0.031 C 
ATOM     76  C   UNL A   1      40.840  29.495  35.735  1.00  0.00     0.029 A 
ATOM     77  C   UNL A   1      40.856  28.921  34.462  1.00  0.00     0.049 A 
ATOM     78  H   UNL A   1      39.262  29.107  33.095  1.00  0.00     0.167 HD
ATOM     79  C   UNL A   1      41.935  27.861  32.483  1.00  0.00     0.074 A 
ATOM     80  C   UNL A   1      41.264  28.507  31.357  1.00  0.00     0.031 C 
ATOM     81  C   UNL A   1      41.768  27.989  33.834  1.00  0.00     0.037 A 
BRANCH  68  82
ATOM     82  C   UNL A   1      38.258  31.899  32.468  1.00  0.00     0.058 A 
ATOM     83  C   UNL A   1      38.545  31.663  31.110  1.00  0.00     0.135 A 
ATOM     84  C   UNL A   1      36.972  32.427  32.735  1.00  0.00     0.135 A 
ATOM     85  F   UNL A   1      39.733  31.158  30.741  1.00  0.00    -0.206 F 
ATOM     86  C   UNL A   1      37.662  32.018  30.093  1.00  0.00     0.059 A 
ATOM     87  C   UNL A   1      36.056  32.732  31.741  1.00  0.00     0.059 A 
ATOM     88  F   UNL A   1      36.562  32.773  33.960  1.00  0.00    -0.206 F 
ATOM     89  C   UNL A   1      36.428  32.573  30.420  1.00  0.00     0.060 A 
BRANCH  89  90
ATOM     90  S   UNL A   1      35.339  33.156  29.116  1.00  0.00     0.124 S 
ATOM     91  O   UNL A   1      34.438  32.020  28.966  1.00  0.00    -0.237 OA
ATOM     92  O   UNL A   1      34.768  34.356  29.718  1.00  0.00    -0.237 OA
ATOM     93  O   UNL A   1      36.250  33.393  28.000  1.00  0.00    -0.744 OA
ENDBRANCH  89  90
ENDBRANCH  68  82
BRANCH  69  94
ATOM     94  C   UNL A   1      44.936  28.021  28.791  1.00  0.00     0.058 A 
ATOM     95  C   UNL A   1      44.674  28.920  27.743  1.00  0.00     0.135 A 
ATOM     96  C   UNL A   1      45.839  26.976  28.497  1.00  0.00     0.135 A 
ATOM     97  F   UNL A   1      43.848  29.960  27.939  1.00  0.00    -0.206 F 
ATOM     98  C   UNL A   1      45.299  28.816  26.493  1.00  0.00     0.059 A 
ATOM     99  C   UNL A   1      46.464  26.846  27.259  1.00  0.00     0.059 A 
ATOM    100  F   UNL A   1      46.216  26.098  29.437  1.00  0.00    -0.206 F 
ATOM    101  C   UNL A   1      46.208  27.782  26.268  1.00  0.00     0.060 A 
BRANCH 101 102
ATOM    102  S   UNL A   1      47.145  27.733  24.721  1.00  0.00     0.124 S 
ATOM    103  O   UNL A   1      46.857  26.388  24.236  1.00  0.00    -0.237 OA
ATOM    104  O   UNL A   1      46.549  28.827  23.963  1.00  0.00    -0.237 OA
ATOM    105  O   UNL A   1      48.523  27.958  25.152  1.00  0.00    -0.744 OA
ENDBRANCH 101 102
ENDBRANCH  69  94
BRANCH  81 106
ATOM    106  C   UNL A   1      42.744  27.282  34.742  1.00  0.00     0.058 A 
ATOM    107  C   UNL A   1      43.978  27.817  35.153  1.00  0.00     0.135 A 
ATOM    108  C   UNL A   1      42.336  26.084  35.345  1.00  0.00     0.135 A 
ATOM    109  F   UNL A   1      44.393  29.011  34.707  1.00  0.00    -0.206 F 
ATOM    110  C   UNL A   1      44.788  27.167  36.088  1.00  0.00     0.059 A 
ATOM    111  C   UNL A   1      43.112  25.434  36.302  1.00  0.00     0.059 A 
ATOM    112  F   UNL A   1      41.138  25.554  35.046  1.00  0.00    -0.206 F 
ATOM    113  C   UNL A   1      44.344  25.975  36.659  1.00  0.00     0.060 A 
BRANCH 113 114
ATOM    114  S   UNL A   1      45.356  25.169  37.921  1.00  0.00     0.124 S 
ATOM    115  O   UNL A   1      44.556  25.363  39.125  1.00  0.00    -0.237 OA
ATOM    116  O   UNL A   1      45.442  23.797  37.429  1.00  0.00    -0.237 OA
ATOM    117  O   UNL A   1      46.612  25.915  37.879  1.00  0.00    -0.744 OA
ENDBRANCH 113 114
ENDBRANCH  81 106
ENDBRANCH  55  56
ENDBRANCH  48  50
ENDBRANCH  47  48
ENDBRANCH  46  47
ENDBRANCH  45  46
ENDBRANCH  44  45
ENDBRANCH  43  44
ENDBRANCH  42  43
ENDBRANCH  41  42
ENDBRANCH  40  41
ENDBRANCH   1  40
TORSDOF 29
ENDMDL
MODEL 2
REMARK VINA RESULT:      -7.6     11.491     15.571
REMARK SMILES COc1ccc(-n2c(SCc3cn(-c4ccc(C(=O)OCCOCCOCCOCCOC(=O)c5ccc(-c6c7nc(c(-c8c(F)cc(S(=O)(=O)[O-])cc8F)c8ccc([nH]8)c(-c8c(F)cc(S(=O)(=O)[O-])cc8F)c8nc(c(-c9c(F)cc(S(=O)(=O)[O-])cc9F)c9ccc6[nH]9)C=C8)C=C7)cc5)cc4)nn3)nc3ccccc3c2=O)cc1
REMARK SMILES IDX 24 1 23 2 22 3 21 4 20 5 18 6 19 7 17 8 14 9 15 10 102 11
REMARK SMILES IDX 16 12 101 13 13 14 11 15 12 16 104 17 103 18 10 19 9 20 8 21
REMARK SMILES IDX 7 22 112 23 105 24 111 25 113 26 106 27 110 28 107 29 109 30
REMARK SMILES IDX 108 31 6 32 3 33 4 34 115 35 5 36 114 37 2 38 1 39 25 40
REMARK SMILES IDX 26 41 27 42 28 43 29 44 30 45 31 46 32 47 33 48 34 49 35 50
REMARK SMILES IDX 36 51 100 52 37 53 99 54 38 55 39 56 40 57 93 58 41 59 98 60
REMARK SMILES IDX 92 61 94 62 42 63 97 64 91 65 90 66 43 68 77 69 56 70 76 71
REMARK SMILES IDX 57 72 60 73 75 74 95 75 58 76 59 77 74 79 96 80 61 81 44 82
REMARK SMILES IDX 45 83 54 84 46 85 47 86 53 87 55 88 48 89 49 90 50 91 51 92
REMARK SMILES IDX 52 93 78 94 79 95 88 96 80 97 81 98 87 99 89 100 82 101
REMARK SMILES IDX 83 102 84 103 85 104 86 105 62 106 63 107 72 108 64 109
REMARK SMILES IDX 65 110 71 111 73 112 66 113 67 114 68 115 69 116 70 117
REMARK H PARENT 94 67 60 78
REMARK Flexibility Score: inf
ROOT
ATOM      1  C   UNL A   1      50.617  44.499  35.286  1.00  0.00     0.188 C 
ENDROOT
BRANCH   1   2
ATOM      2  O   UNL A   1      49.473  43.666  35.200  1.00  0.00    -0.376 OA
BRANCH   2   3
ATOM      3  C   UNL A   1      48.569  43.698  34.110  1.00  0.00     0.202 C 
BRANCH   3   4
ATOM      4  C   UNL A   1      47.085  44.109  34.177  1.00  0.00     0.261 C 
BRANCH   4   5
ATOM      5  O   UNL A   1      46.109  43.082  34.055  1.00  0.00    -0.460 OA
BRANCH   5   6
ATOM      6  C   UNL A   1      45.854  42.345  35.151  1.00  0.00     0.338 C 
ATOM      7  O   UNL A   1      45.926  42.701  36.324  1.00  0.00    -0.246 OA
BRANCH   6   8
ATOM      8  C   UNL A   1      45.234  41.088  34.689  1.00  0.00     0.060 A 
ATOM      9  C   UNL A   1      43.827  38.822  33.950  1.00  0.00     0.066 A 
ATOM     10  C   UNL A   1      44.167  38.990  35.290  1.00  0.00     0.029 A 
ATOM     11  C   UNL A   1      44.176  39.772  32.976  1.00  0.00     0.029 A 
ATOM     12  C   UNL A   1      44.898  40.118  35.652  1.00  0.00     0.018 A 
ATOM     13  C   UNL A   1      44.857  40.925  33.352  1.00  0.00     0.018 A 
BRANCH   9  14
ATOM     14  N   UNL A   1      43.449  37.550  33.516  1.00  0.00    -0.220 N 
ATOM     15  C   UNL A   1      42.365  35.675  33.431  1.00  0.00     0.093 A 
ATOM     16  C   UNL A   1      42.472  36.835  34.136  1.00  0.00     0.141 A 
ATOM     17  N   UNL A   1      43.205  35.753  32.349  1.00  0.00    -0.134 NA
ATOM     18  N   UNL A   1      43.800  36.950  32.369  1.00  0.00    -0.062 NA
BRANCH  15  19
ATOM     19  C   UNL A   1      41.544  34.501  33.757  1.00  0.00     0.138 C 
BRANCH  19  20
ATOM     20  S   UNL A   1      40.609  34.633  35.269  1.00  0.00    -0.081 SA
BRANCH  20  21
ATOM     21  C   UNL A   1      39.752  33.087  35.566  1.00  0.00     0.176 A 
ATOM     22  N   UNL A   1      38.362  33.167  35.528  1.00  0.00    -0.255 N 
ATOM     23  C   UNL A   1      37.677  33.201  36.736  1.00  0.00     0.266 A 
ATOM     24  N   UNL A   1      40.318  32.371  36.495  1.00  0.00    -0.223 NA
ATOM     25  C   UNL A   1      38.571  33.307  37.915  1.00  0.00     0.066 A 
ATOM     26  O   UNL A   1      36.460  33.205  36.887  1.00  0.00    -0.268 OA
ATOM     27  C   UNL A   1      39.867  32.786  37.769  1.00  0.00     0.079 A 
ATOM     28  C   UNL A   1      38.233  34.096  39.013  1.00  0.00     0.016 A 
ATOM     29  C   UNL A   1      40.801  32.975  38.785  1.00  0.00     0.029 A 
ATOM     30  C   UNL A   1      39.207  34.360  39.978  1.00  0.00     0.001 A 
ATOM     31  C   UNL A   1      40.477  33.781  39.878  1.00  0.00     0.002 A 
BRANCH  22  32
ATOM     32  C   UNL A   1      37.668  33.079  34.300  1.00  0.00     0.052 A 
ATOM     33  C   UNL A   1      35.577  32.794  32.491  1.00  0.00     0.119 A 
ATOM     34  C   UNL A   1      36.067  34.070  32.773  1.00  0.00     0.048 A 
ATOM     35  C   UNL A   1      36.275  31.671  32.931  1.00  0.00     0.048 A 
ATOM     36  C   UNL A   1      37.108  34.218  33.702  1.00  0.00     0.030 A 
ATOM     37  C   UNL A   1      37.337  31.813  33.823  1.00  0.00     0.030 A 
BRANCH  33  38
ATOM     38  O   UNL A   1      34.397  32.697  31.804  1.00  0.00    -0.497 OA
ATOM     39  C   UNL A   1      34.548  32.985  30.405  1.00  0.00     0.278 C 
ENDBRANCH  33  38
ENDBRANCH  22  32
ENDBRANCH  20  21
ENDBRANCH  19  20
ENDBRANCH  15  19
ENDBRANCH   9  14
ENDBRANCH   6   8
ENDBRANCH   5   6
ENDBRANCH   4   5
ENDBRANCH   3   4
ENDBRANCH   2   3
ENDBRANCH   1   2
BRANCH   1  40
ATOM     40  C   UNL A   1      51.631  44.313  36.433  1.00  0.00     0.188 C 
BRANCH  40  41
ATOM     41  O   UNL A   1      51.232  43.336  37.378  1.00  0.00    -0.377 OA
BRANCH  41  42
ATOM     42  C   UNL A   1      52.234  42.408  37.787  1.00  0.00     0.188 C 
BRANCH  42  43
ATOM     43  C   UNL A   1      52.924  41.483  36.745  1.00  0.00     0.188 C 
BRANCH  43  44
ATOM     44  O   UNL A   1      52.210  41.299  35.529  1.00  0.00    -0.376 OA
BRANCH  44  45
ATOM     45  C   UNL A   1      50.959  40.640  35.447  1.00  0.00     0.202 C 
BRANCH  45  46
ATOM     46  C   UNL A   1      50.730  39.451  36.374  1.00  0.00     0.261 C 
BRANCH  46  47
ATOM     47  O   UNL A   1      49.430  38.914  36.252  1.00  0.00    -0.460 OA
BRANCH  47  48
ATOM     48  C   UNL A   1      49.309  37.960  35.315  1.00  0.00     0.338 C 
ATOM     49  O   UNL A   1      50.053  36.999  35.138  1.00  0.00    -0.246 OA
BRANCH  48  50
ATOM     50  C   UNL A   1      48.179  38.315  34.454  1.00  0.00     0.060 A 
ATOM     51  C   UNL A   1      47.438  37.222  34.020  1.00  0.00     0.016 A 
ATOM     52  C   UNL A   1      48.272  39.518  33.732  1.00  0.00     0.016 A 
ATOM     53  C   UNL A   1      47.166  37.174  32.682  1.00  0.00     0.010 A 
ATOM     54  C   UNL A   1      48.015  39.462  32.393  1.00  0.00     0.010 A 
ATOM     55  C   UNL A   1      47.593  38.242  31.883  1.00  0.00    -0.014 A 
BRANCH  55  56
ATOM     56  C   UNL A   1      47.525  38.060  30.460  1.00  0.00     0.031 A 
ATOM     57  C   UNL A   1      46.404  38.820  29.889  1.00  0.00     0.074 A 
ATOM     58  C   UNL A   1      48.425  37.326  29.786  1.00  0.00     0.049 A 
ATOM     59  N   UNL A   1      45.265  38.358  29.499  1.00  0.00    -0.248 NA
ATOM     60  C   UNL A   1      46.449  40.284  30.037  1.00  0.00     0.031 C 
ATOM     61  C   UNL A   1      49.700  36.774  30.252  1.00  0.00     0.029 A 
ATOM     62  N   UNL A   1      48.415  37.003  28.471  1.00  0.00    -0.354 N 
ATOM     63  C   UNL A   1      44.554  39.477  29.094  1.00  0.00     0.074 A 
ATOM     64  C   UNL A   1      45.204  40.609  29.694  1.00  0.00     0.031 C 
ATOM     65  C   UNL A   1      50.436  36.397  29.178  1.00  0.00     0.029 A 
ATOM     66  C   UNL A   1      49.635  36.563  27.977  1.00  0.00     0.049 A 
ATOM     67  H   UNL A   1      47.608  37.075  27.912  1.00  0.00     0.167 HD
ATOM     68  C   UNL A   1      43.699  39.404  28.041  1.00  0.00     0.037 A 
ATOM     69  C   UNL A   1      49.947  36.477  26.658  1.00  0.00     0.037 A 
ATOM     70  C   UNL A   1      43.326  38.037  27.768  1.00  0.00     0.049 A 
ATOM     71  C   UNL A   1      48.653  36.434  25.913  1.00  0.00     0.074 A 
ATOM     72  C   UNL A   1      42.717  37.037  28.503  1.00  0.00     0.029 A 
ATOM     73  N   UNL A   1      43.944  37.402  26.714  1.00  0.00    -0.354 N 
ATOM     74  N   UNL A   1      47.801  35.446  26.000  1.00  0.00    -0.248 NA
ATOM     75  C   UNL A   1      48.083  37.702  25.473  1.00  0.00     0.031 C 
ATOM     76  C   UNL A   1      43.382  35.835  28.124  1.00  0.00     0.029 A 
ATOM     77  C   UNL A   1      44.317  36.151  27.137  1.00  0.00     0.049 A 
ATOM     78  H   UNL A   1      44.092  37.779  25.817  1.00  0.00     0.167 HD
ATOM     79  C   UNL A   1      46.547  36.047  26.031  1.00  0.00     0.074 A 
ATOM     80  C   UNL A   1      46.783  37.433  25.633  1.00  0.00     0.031 C 
ATOM     81  C   UNL A   1      45.486  35.449  26.653  1.00  0.00     0.037 A 
BRANCH  68  82
ATOM     82  C   UNL A   1      43.562  40.511  27.022  1.00  0.00     0.058 A 
ATOM     83  C   UNL A   1      42.284  40.796  26.505  1.00  0.00     0.135 A 
ATOM     84  C   UNL A   1      44.645  41.103  26.327  1.00  0.00     0.135 A 
ATOM     85  F   UNL A   1      41.185  40.293  27.088  1.00  0.00    -0.206 F 
ATOM     86  C   UNL A   1      42.104  41.528  25.334  1.00  0.00     0.059 A 
ATOM     87  C   UNL A   1      44.483  41.885  25.194  1.00  0.00     0.059 A 
ATOM     88  F   UNL A   1      45.926  40.882  26.641  1.00  0.00    -0.206 F 
ATOM     89  C   UNL A   1      43.213  42.049  24.674  1.00  0.00     0.060 A 
BRANCH  89  90
ATOM     90  S   UNL A   1      43.003  42.880  23.095  1.00  0.00     0.124 S 
ATOM     91  O   UNL A   1      43.377  44.247  23.438  1.00  0.00    -0.237 OA
ATOM     92  O   UNL A   1      43.939  42.149  22.247  1.00  0.00    -0.237 OA
ATOM     93  O   UNL A   1      41.591  42.667  22.790  1.00  0.00    -0.744 OA
ENDBRANCH  89  90
ENDBRANCH  68  82
BRANCH  69  94
ATOM     94  C   UNL A   1      51.236  36.868  26.024  1.00  0.00     0.058 A 
ATOM     95  C   UNL A   1      51.868  38.082  26.346  1.00  0.00     0.135 A 
ATOM     96  C   UNL A   1      52.011  35.943  25.293  1.00  0.00     0.135 A 
ATOM     97  F   UNL A   1      51.216  39.011  27.062  1.00  0.00    -0.206 F 
ATOM     98  C   UNL A   1      53.200  38.346  26.000  1.00  0.00     0.059 A 
ATOM     99  C   UNL A   1      53.334  36.188  24.928  1.00  0.00     0.059 A 
ATOM    100  F   UNL A   1      51.537  34.727  24.987  1.00  0.00    -0.206 F 
ATOM    101  C   UNL A   1      53.930  37.383  25.306  1.00  0.00     0.060 A 
BRANCH 101 102
ATOM    102  S   UNL A   1      55.695  37.642  25.000  1.00  0.00     0.124 S 
ATOM    103  O   UNL A   1      55.738  39.062  24.668  1.00  0.00    -0.237 OA
ATOM    104  O   UNL A   1      56.289  37.267  26.278  1.00  0.00    -0.237 OA
ATOM    105  O   UNL A   1      55.984  36.734  23.893  1.00  0.00    -0.744 OA
ENDBRANCH 101 102
ENDBRANCH  69  94
BRANCH  81 106
ATOM    106  C   UNL A   1      45.625  34.004  27.066  1.00  0.00     0.058 A 
ATOM    107  C   UNL A   1      45.139  32.914  26.321  1.00  0.00     0.135 A 
ATOM    108  C   UNL A   1      46.422  33.710  28.181  1.00  0.00     0.135 A 
ATOM    109  F   UNL A   1      44.460  33.107  25.182  1.00  0.00    -0.206 F 
ATOM    110  C   UNL A   1      45.399  31.592  26.694  1.00  0.00     0.059 A 
ATOM    111  C   UNL A   1      46.720  32.401  28.554  1.00  0.00     0.059 A 
ATOM    112  F   UNL A   1      46.971  34.705  28.896  1.00  0.00    -0.206 F 
ATOM    113  C   UNL A   1      46.194  31.346  27.813  1.00  0.00     0.060 A 
BRANCH 113 114
ATOM    114  S   UNL A   1      46.591  29.640  28.257  1.00  0.00     0.124 S 
ATOM    115  O   UNL A   1      46.675  29.713  29.711  1.00  0.00    -0.237 OA
ATOM    116  O   UNL A   1      45.451  28.900  27.722  1.00  0.00    -0.237 OA
ATOM    117  O   UNL A   1      47.858  29.395  27.570  1.00  0.00    -0.744 OA
ENDBRANCH 113 114
ENDBRANCH  81 106
ENDBRANCH  55  56
ENDBRANCH  48  50
ENDBRANCH  47  48
ENDBRANCH  46  47
ENDBRANCH  45  46
ENDBRANCH  44  45
ENDBRANCH  43  44
ENDBRANCH  42  43
ENDBRANCH  41  42
ENDBRANCH  40  41
ENDBRANCH   1  40
TORSDOF 29
ENDMDL
MODEL 3
REMARK VINA RESULT:      -7.5      6.475     10.958
REMARK SMILES COc1ccc(-n2c(SCc3cn(-c4ccc(C(=O)OCCOCCOCCOCCOC(=O)c5ccc(-c6c7nc(c(-c8c(F)cc(S(=O)(=O)[O-])cc8F)c8ccc([nH]8)c(-c8c(F)cc(S(=O)(=O)[O-])cc8F)c8nc(c(-c9c(F)cc(S(=O)(=O)[O-])cc9F)c9ccc6[nH]9)C=C8)C=C7)cc5)cc4)nn3)nc3ccccc3c2=O)cc1
REMARK SMILES IDX 24 1 23 2 22 3 21 4 20 5 18 6 19 7 17 8 14 9 15 10 102 11
REMARK SMILES IDX 16 12 101 13 13 14 11 15 12 16 104 17 103 18 10 19 9 20 8 21
REMARK SMILES IDX 7 22 112 23 105 24 111 25 113 26 106 27 110 28 107 29 109 30
REMARK SMILES IDX 108 31 6 32 3 33 4 34 115 35 5 36 114 37 2 38 1 39 25 40
REMARK SMILES IDX 26 41 27 42 28 43 29 44 30 45 31 46 32 47 33 48 34 49 35 50
REMARK SMILES IDX 36 51 100 52 37 53 99 54 38 55 39 56 40 57 93 58 41 59 98 60
REMARK SMILES IDX 92 61 94 62 42 63 97 64 91 65 90 66 43 68 77 69 56 70 76 71
REMARK SMILES IDX 57 72 60 73 75 74 95 75 58 76 59 77 74 79 96 80 61 81 44 82
REMARK SMILES IDX 45 83 54 84 46 85 47 86 53 87 55 88 48 89 49 90 50 91 51 92
REMARK SMILES IDX 52 93 78 94 79 95 88 96 80 97 81 98 87 99 89 100 82 101
REMARK SMILES IDX 83 102 84 103 85 104 86 105 62 106 63 107 72 108 64 109
REMARK SMILES IDX 65 110 71 111 73 112 66 113 67 114 68 115 69 116 70 117
REMARK H PARENT 94 67 60 78
REMARK Flexibility Score: inf
ROOT
ATOM      1  C   UNL A   1      40.862  31.405  33.811  1.00  0.00     0.188 C 
ENDROOT
BRANCH   1   2
ATOM      2  O   UNL A   1      41.928  30.662  34.377  1.00  0.00    -0.376 OA
BRANCH   2   3
ATOM      3  C   UNL A   1      41.737  29.635  35.334  1.00  0.00     0.202 C 
BRANCH   3   4
ATOM      4  C   UNL A   1      40.823  28.404  35.169  1.00  0.00     0.261 C 
BRANCH   4   5
ATOM      5  O   UNL A   1      41.383  27.240  34.573  1.00  0.00    -0.460 OA
BRANCH   5   6
ATOM      6  C   UNL A   1      41.581  26.177  35.373  1.00  0.00     0.338 C 
ATOM      7  O   UNL A   1      40.730  25.426  35.843  1.00  0.00    -0.246 OA
BRANCH   6   8
ATOM      8  C   UNL A   1      43.036  25.921  35.396  1.00  0.00     0.060 A 
ATOM      9  C   UNL A   1      45.729  25.370  35.716  1.00  0.00     0.066 A 
ATOM     10  C   UNL A   1      45.205  26.515  36.313  1.00  0.00     0.029 A 
ATOM     11  C   UNL A   1      44.924  24.497  34.966  1.00  0.00     0.029 A 
ATOM     12  C   UNL A   1      43.855  26.801  36.126  1.00  0.00     0.018 A 
ATOM     13  C   UNL A   1      43.566  24.758  34.830  1.00  0.00     0.018 A 
BRANCH   9  14
ATOM     14  N   UNL A   1      47.114  25.275  35.567  1.00  0.00    -0.220 N 
ATOM     15  C   UNL A   1      49.120  24.470  35.722  1.00  0.00     0.093 A 
ATOM     16  C   UNL A   1      47.826  24.238  36.080  1.00  0.00     0.141 A 
ATOM     17  N   UNL A   1      49.148  25.584  34.921  1.00  0.00    -0.134 NA
ATOM     18  N   UNL A   1      47.893  26.017  34.765  1.00  0.00    -0.062 NA
BRANCH  15  19
ATOM     19  C   UNL A   1      50.313  23.716  36.130  1.00  0.00     0.138 C 
BRANCH  19  20
ATOM     20  S   UNL A   1      50.019  22.441  37.341  1.00  0.00    -0.081 SA
BRANCH  20  21
ATOM     21  C   UNL A   1      50.207  20.838  36.563  1.00  0.00     0.176 A 
ATOM     22  N   UNL A   1      50.444  20.873  35.192  1.00  0.00    -0.255 N 
ATOM     23  C   UNL A   1      49.381  20.604  34.339  1.00  0.00     0.266 A 
ATOM     24  N   UNL A   1      49.383  19.949  37.039  1.00  0.00    -0.223 NA
ATOM     25  C   UNL A   1      48.082  20.470  35.044  1.00  0.00     0.066 A 
ATOM     26  O   UNL A   1      49.425  20.528  33.115  1.00  0.00    -0.268 OA
ATOM     27  C   UNL A   1      48.135  20.044  36.381  1.00  0.00     0.079 A 
ATOM     28  C   UNL A   1      46.904  20.974  34.495  1.00  0.00     0.016 A 
ATOM     29  C   UNL A   1      46.969  20.031  37.143  1.00  0.00     0.029 A 
ATOM     30  C   UNL A   1      45.764  21.045  35.298  1.00  0.00     0.001 A 
ATOM     31  C   UNL A   1      45.790  20.552  36.607  1.00  0.00     0.002 A 
BRANCH  22  32
ATOM     32  C   UNL A   1      51.754  21.043  34.689  1.00  0.00     0.052 A 
ATOM     33  C   UNL A   1      53.829  21.585  32.921  1.00  0.00     0.119 A 
ATOM     34  C   UNL A   1      53.448  22.558  33.846  1.00  0.00     0.048 A 
ATOM     35  C   UNL A   1      53.334  20.287  33.037  1.00  0.00     0.048 A 
ATOM     36  C   UNL A   1      52.387  22.295  34.725  1.00  0.00     0.030 A 
ATOM     37  C   UNL A   1      52.307  20.009  33.938  1.00  0.00     0.030 A 
BRANCH  33  38
ATOM     38  O   UNL A   1      54.667  21.959  31.905  1.00  0.00    -0.497 OA
ATOM     39  C   UNL A   1      55.305  23.221  32.152  1.00  0.00     0.278 C 
ENDBRANCH  33  38
ENDBRANCH  22  32
ENDBRANCH  20  21
ENDBRANCH  19  20
ENDBRANCH  15  19
ENDBRANCH   9  14
ENDBRANCH   6   8
ENDBRANCH   5   6
ENDBRANCH   4   5
ENDBRANCH   3   4
ENDBRANCH   2   3
ENDBRANCH   1   2
BRANCH   1  40
ATOM     40  C   UNL A   1      40.979  32.934  33.647  1.00  0.00     0.188 C 
BRANCH  40  41
ATOM     41  O   UNL A   1      40.231  33.657  34.608  1.00  0.00    -0.377 OA
BRANCH  41  42
ATOM     42  C   UNL A   1      40.394  35.073  34.598  1.00  0.00     0.188 C 
BRANCH  42  43
ATOM     43  C   UNL A   1      40.138  35.905  35.887  1.00  0.00     0.188 C 
BRANCH  43  44
ATOM     44  O   UNL A   1      40.502  35.266  37.104  1.00  0.00    -0.376 OA
BRANCH  44  45
ATOM     45  C   UNL A   1      41.436  35.805  38.022  1.00  0.00     0.202 C 
BRANCH  45  46
ATOM     46  C   UNL A   1      42.907  35.790  37.617  1.00  0.00     0.261 C 
BRANCH  46  47
ATOM     47  O   UNL A   1      43.363  37.056  37.193  1.00  0.00    -0.460 OA
BRANCH  47  48
ATOM     48  C   UNL A   1      44.419  37.018  36.364  1.00  0.00     0.338 C 
ATOM     49  O   UNL A   1      45.473  36.414  36.539  1.00  0.00    -0.246 OA
BRANCH  48  50
ATOM     50  C   UNL A   1      44.143  37.916  35.242  1.00  0.00     0.060 A 
ATOM     51  C   UNL A   1      43.199  37.425  34.348  1.00  0.00     0.016 A 
ATOM     52  C   UNL A   1      45.157  38.818  34.872  1.00  0.00     0.016 A 
ATOM     53  C   UNL A   1      43.537  37.482  33.026  1.00  0.00     0.010 A 
ATOM     54  C   UNL A   1      45.502  38.860  33.553  1.00  0.00     0.010 A 
ATOM     55  C   UNL A   1      44.756  38.078  32.681  1.00  0.00    -0.014 A 
BRANCH  55  56
ATOM     56  C   UNL A   1      45.208  37.905  31.329  1.00  0.00     0.031 A 
ATOM     57  C   UNL A   1      44.373  38.675  30.396  1.00  0.00     0.074 A 
ATOM     58  C   UNL A   1      46.290  37.171  31.022  1.00  0.00     0.049 A 
ATOM     59  N   UNL A   1      43.453  38.222  29.616  1.00  0.00    -0.248 NA
ATOM     60  C   UNL A   1      44.367  40.138  30.562  1.00  0.00     0.031 C 
ATOM     61  C   UNL A   1      47.307  36.608  31.914  1.00  0.00     0.029 A 
ATOM     62  N   UNL A   1      46.756  36.856  29.790  1.00  0.00    -0.354 N 
ATOM     63  C   UNL A   1      42.940  39.348  28.989  1.00  0.00     0.074 A 
ATOM     64  C   UNL A   1      43.332  40.473  29.793  1.00  0.00     0.031 C 
ATOM     65  C   UNL A   1      48.381  36.233  31.177  1.00  0.00     0.029 A 
ATOM     66  C   UNL A   1      48.070  36.411  29.769  1.00  0.00     0.049 A 
ATOM     67  H   UNL A   1      46.207  36.936  28.977  1.00  0.00     0.167 HD
ATOM     68  C   UNL A   1      42.526  39.287  27.697  1.00  0.00     0.037 A 
ATOM     69  C   UNL A   1      48.840  36.331  28.653  1.00  0.00     0.037 A 
ATOM     70  C   UNL A   1      42.272  37.923  27.297  1.00  0.00     0.049 A 
ATOM     71  C   UNL A   1      47.904  36.301  27.488  1.00  0.00     0.074 A 
ATOM     72  C   UNL A   1      41.435  36.923  27.753  1.00  0.00     0.029 A 
ATOM     73  N   UNL A   1      43.228  37.292  26.534  1.00  0.00    -0.354 N 
ATOM     74  N   UNL A   1      47.075  35.317  27.253  1.00  0.00    -0.248 NA
ATOM     75  C   UNL A   1      47.537  37.574  26.881  1.00  0.00     0.031 C 
ATOM     76  C   UNL A   1      42.188  35.719  27.631  1.00  0.00     0.029 A 
ATOM     77  C   UNL A   1      43.419  36.036  27.054  1.00  0.00     0.049 A 
ATOM     78  H   UNL A   1      43.693  37.674  25.755  1.00  0.00     0.167 HD
ATOM     79  C   UNL A   1      45.898  35.925  26.831  1.00  0.00     0.074 A 
ATOM     80  C   UNL A   1      46.266  37.312  26.557  1.00  0.00     0.031 C 
ATOM     81  C   UNL A   1      44.682  35.330  27.021  1.00  0.00     0.037 A 
BRANCH  68  82
ATOM     82  C   UNL A   1      42.771  40.401  26.707  1.00  0.00     0.058 A 
ATOM     83  C   UNL A   1      41.688  40.873  25.942  1.00  0.00     0.135 A 
ATOM     84  C   UNL A   1      44.052  40.824  26.274  1.00  0.00     0.135 A 
ATOM     85  F   UNL A   1      40.428  40.539  26.265  1.00  0.00    -0.206 F 
ATOM     86  C   UNL A   1      41.869  41.622  24.782  1.00  0.00     0.059 A 
ATOM     87  C   UNL A   1      44.249  41.620  25.156  1.00  0.00     0.059 A 
ATOM     88  F   UNL A   1      45.190  40.415  26.843  1.00  0.00    -0.206 F 
ATOM     89  C   UNL A   1      43.157  41.971  24.387  1.00  0.00     0.060 A 
BRANCH  89  90
ATOM     90  S   UNL A   1      43.411  42.822  22.825  1.00  0.00     0.124 S 
ATOM     91  O   UNL A   1      42.493  42.099  21.953  1.00  0.00    -0.237 OA
ATOM     92  O   UNL A   1      43.033  44.190  23.166  1.00  0.00    -0.237 OA
ATOM     93  O   UNL A   1      44.832  42.618  22.558  1.00  0.00    -0.744 OA
ENDBRANCH  89  90
ENDBRANCH  68  82
BRANCH  69  94
ATOM     94  C   UNL A   1      50.272  36.719  28.532  1.00  0.00     0.058 A 
ATOM     95  C   UNL A   1      50.697  38.032  28.799  1.00  0.00     0.135 A 
ATOM     96  C   UNL A   1      51.293  35.752  28.415  1.00  0.00     0.135 A 
ATOM     97  F   UNL A   1      49.794  39.014  28.952  1.00  0.00    -0.206 F 
ATOM     98  C   UNL A   1      52.047  38.360  28.980  1.00  0.00     0.059 A 
ATOM     99  C   UNL A   1      52.643  36.055  28.580  1.00  0.00     0.059 A 
ATOM    100  F   UNL A   1      51.005  34.456  28.227  1.00  0.00    -0.206 F 
ATOM    101  C   UNL A   1      53.012  37.357  28.886  1.00  0.00     0.060 A 
BRANCH 101 102
ATOM    102  S   UNL A   1      54.737  37.733  29.281  1.00  0.00     0.124 S 
ATOM    103  O   UNL A   1      54.659  39.137  29.668  1.00  0.00    -0.237 OA
ATOM    104  O   UNL A   1      55.021  36.790  30.356  1.00  0.00    -0.237 OA
ATOM    105  O   UNL A   1      55.438  37.470  28.026  1.00  0.00    -0.744 OA
ENDBRANCH 101 102
ENDBRANCH  69  94
BRANCH  81 106
ATOM    106  C   UNL A   1      44.657  33.881  27.445  1.00  0.00     0.058 A 
ATOM    107  C   UNL A   1      44.703  33.443  28.781  1.00  0.00     0.135 A 
ATOM    108  C   UNL A   1      44.416  32.910  26.463  1.00  0.00     0.135 A 
ATOM    109  F   UNL A   1      44.822  34.319  29.788  1.00  0.00    -0.206 F 
ATOM    110  C   UNL A   1      44.559  32.095  29.120  1.00  0.00     0.059 A 
ATOM    111  C   UNL A   1      44.238  31.565  26.780  1.00  0.00     0.059 A 
ATOM    112  F   UNL A   1      44.294  33.271  25.175  1.00  0.00    -0.206 F 
ATOM    113  C   UNL A   1      44.325  31.163  28.110  1.00  0.00     0.060 A 
BRANCH 113 114
ATOM    114  S   UNL A   1      44.067  29.429  28.551  1.00  0.00     0.124 S 
ATOM    115  O   UNL A   1      42.672  29.426  28.978  1.00  0.00    -0.237 OA
ATOM    116  O   UNL A   1      44.348  28.738  27.296  1.00  0.00    -0.237 OA
ATOM    117  O   UNL A   1      45.044  29.197  29.611  1.00  0.00    -0.744 OA
ENDBRANCH 113 114
ENDBRANCH  81 106
ENDBRANCH  55  56
ENDBRANCH  48  50
ENDBRANCH  47  48
ENDBRANCH  46  47
ENDBRANCH  45  46
ENDBRANCH  44  45
ENDBRANCH  43  44
ENDBRANCH  42  43
ENDBRANCH  41  42
ENDBRANCH  40  41
ENDBRANCH   1  40
TORSDOF 29
ENDMDL
