MODEL 1
REMARK VINA RESULT:      -8.2      0.000      0.000
REMARK SMILES COC(=O)N[C@@H](C(=O)OCCOCCOCCOCCOC(=O)c1ccc(-c2c3nc(c(-c4c(F)cc(S(=O)(=O)[O-])cc4F)c4ccc([nH]4)c(-c4c(F)cc(S(=O)(=O)[O-])cc4F)c4nc(c(-c5c(F)cc(S(=O)(=O)[O-])cc5F)c5ccc2[nH]5)C=C4)C=C3)cc1)C1COC1
REMARK SMILES IDX 16 1 15 2 14 3 13 4 12 5 11 6 10 7 9 8 7 9 8 10 6 11 5 12
REMARK SMILES IDX 3 13 4 14 2 16 1 17 90 18 91 19 93 20 92 21 17 22 18 23
REMARK SMILES IDX 19 24 20 25 21 26 22 27 23 28 24 29 25 30 89 31 26 32 88 33
REMARK SMILES IDX 27 34 28 35 29 36 82 37 30 38 87 39 81 40 83 41 31 42 86 43
REMARK SMILES IDX 80 44 79 45 32 47 66 48 45 49 65 50 46 51 49 52 64 53 84 54
REMARK SMILES IDX 47 55 48 56 63 58 85 59 50 60 33 61 34 62 43 63 35 64 36 65
REMARK SMILES IDX 42 66 44 67 37 68 38 69 39 70 40 71 41 72 67 73 68 74 77 75
REMARK SMILES IDX 69 76 70 77 76 78 78 79 71 80 72 81 73 82 74 83 75 84 51 85
REMARK SMILES IDX 52 86 61 87 53 88 54 89 60 90 62 91 55 92 56 93 57 94 58 95
REMARK SMILES IDX 59 96
REMARK H PARENT 5 15 83 46 49 57
REMARK Flexibility Score: inf
ROOT
ATOM      1  C   UNL A   1      32.041  22.250  23.920  1.00  0.00     0.188 C 
ENDROOT
BRANCH   1   2
ATOM      2  O   UNL A   1      32.101  23.414  23.106  1.00  0.00    -0.377 OA
BRANCH   2   3
ATOM      3  C   UNL A   1      32.977  23.352  22.004  1.00  0.00     0.188 C 
BRANCH   3   4
ATOM      4  C   UNL A   1      32.909  24.575  21.085  1.00  0.00     0.188 C 
BRANCH   4   5
ATOM      5  O   UNL A   1      32.865  25.885  21.620  1.00  0.00    -0.376 OA
BRANCH   5   6
ATOM      6  C   UNL A   1      33.869  26.307  22.536  1.00  0.00     0.202 C 
BRANCH   6   7
ATOM      7  C   UNL A   1      33.620  26.440  24.056  1.00  0.00     0.261 C 
BRANCH   7   8
ATOM      8  O   UNL A   1      33.059  27.680  24.532  1.00  0.00    -0.462 OA
BRANCH   8   9
ATOM      9  C   UNL A   1      31.735  27.679  24.835  1.00  0.00     0.329 C 
ATOM     10  O   UNL A   1      31.129  26.711  25.283  1.00  0.00    -0.250 OA
BRANCH   9  11
ATOM     11  C   UNL A   1      31.053  29.051  24.653  1.00  0.00     0.203 C 
BRANCH  11  12
ATOM     12  N   UNL A   1      30.832  29.538  23.287  1.00  0.00    -0.307 N 
ATOM     13  C   UNL A   1      29.750  29.347  22.489  1.00  0.00     0.407 C 
ATOM     14  O   UNL A   1      29.673  29.902  21.400  1.00  0.00    -0.225 OA
ATOM     15  H   UNL A   1      31.562  30.072  22.900  1.00  0.00     0.168 HD
BRANCH  13  16
ATOM     16  O   UNL A   1      28.791  28.575  23.049  1.00  0.00    -0.453 OA
ATOM     17  C   UNL A   1      27.472  29.088  22.850  1.00  0.00     0.284 C 
ENDBRANCH  13  16
ENDBRANCH  11  12
BRANCH  11  18
ATOM     18  C   UNL A   1      31.768  30.201  25.369  1.00  0.00     0.075 C 
ATOM     19  C   UNL A   1      30.898  31.410  25.758  1.00  0.00     0.168 C 
ATOM     20  C   UNL A   1      32.096  30.219  26.882  1.00  0.00     0.168 C 
ATOM     21  O   UNL A   1      31.737  31.631  26.931  1.00  0.00    -0.380 OA
ENDBRANCH  11  18
ENDBRANCH   9  11
ENDBRANCH   8   9
ENDBRANCH   7   8
ENDBRANCH   6   7
ENDBRANCH   5   6
ENDBRANCH   4   5
ENDBRANCH   3   4
ENDBRANCH   2   3
ENDBRANCH   1   2
BRANCH   1  22
ATOM     22  C   UNL A   1      32.776  22.272  25.278  1.00  0.00     0.188 C 
BRANCH  22  23
ATOM     23  O   UNL A   1      33.752  23.305  25.397  1.00  0.00    -0.376 OA
BRANCH  23  24
ATOM     24  C   UNL A   1      35.068  23.042  24.924  1.00  0.00     0.202 C 
BRANCH  24  25
ATOM     25  C   UNL A   1      36.171  22.910  25.987  1.00  0.00     0.261 C 
BRANCH  25  26
ATOM     26  O   UNL A   1      37.214  23.896  25.950  1.00  0.00    -0.460 OA
BRANCH  26  27
ATOM     27  C   UNL A   1      38.488  23.501  26.154  1.00  0.00     0.338 C 
ATOM     28  O   UNL A   1      39.057  22.554  25.644  1.00  0.00    -0.246 OA
BRANCH  27  29
ATOM     29  C   UNL A   1      39.149  24.556  26.949  1.00  0.00     0.060 A 
ATOM     30  C   UNL A   1      38.869  24.659  28.319  1.00  0.00     0.016 A 
ATOM     31  C   UNL A   1      40.063  25.420  26.342  1.00  0.00     0.016 A 
ATOM     32  C   UNL A   1      39.478  25.655  29.083  1.00  0.00     0.010 A 
ATOM     33  C   UNL A   1      40.651  26.431  27.100  1.00  0.00     0.010 A 
ATOM     34  C   UNL A   1      40.333  26.574  28.463  1.00  0.00    -0.014 A 
BRANCH  34  35
ATOM     35  C   UNL A   1      40.702  27.838  29.141  1.00  0.00     0.031 A 
ATOM     36  C   UNL A   1      42.029  27.882  29.845  1.00  0.00     0.074 A 
ATOM     37  C   UNL A   1      39.868  28.891  29.183  1.00  0.00     0.049 A 
ATOM     38  N   UNL A   1      42.516  28.789  30.647  1.00  0.00    -0.248 NA
ATOM     39  C   UNL A   1      42.922  26.732  29.620  1.00  0.00     0.031 C 
ATOM     40  C   UNL A   1      38.586  28.988  28.489  1.00  0.00     0.029 A 
ATOM     41  N   UNL A   1      39.976  30.078  29.863  1.00  0.00    -0.354 N 
ATOM     42  C   UNL A   1      43.757  28.306  31.048  1.00  0.00     0.074 A 
ATOM     43  C   UNL A   1      43.943  27.022  30.410  1.00  0.00     0.031 C 
ATOM     44  C   UNL A   1      38.016  30.167  28.794  1.00  0.00     0.029 A 
ATOM     45  C   UNL A   1      38.868  30.884  29.742  1.00  0.00     0.049 A 
ATOM     46  H   UNL A   1      40.770  30.328  30.389  1.00  0.00     0.167 HD
ATOM     47  C   UNL A   1      44.656  28.880  31.880  1.00  0.00     0.037 A 
ATOM     48  C   UNL A   1      38.573  32.049  30.354  1.00  0.00     0.037 A 
ATOM     49  C   UNL A   1      44.456  30.155  32.512  1.00  0.00     0.049 A 
ATOM     50  C   UNL A   1      39.550  32.630  31.345  1.00  0.00     0.074 A 
ATOM     51  C   UNL A   1      45.313  30.840  33.354  1.00  0.00     0.029 A 
ATOM     52  N   UNL A   1      43.312  30.928  32.383  1.00  0.00    -0.354 N 
ATOM     53  N   UNL A   1      40.727  32.177  31.708  1.00  0.00    -0.248 NA
ATOM     54  C   UNL A   1      39.155  33.876  32.022  1.00  0.00     0.031 C 
ATOM     55  C   UNL A   1      44.661  32.002  33.781  1.00  0.00     0.029 A 
ATOM     56  C   UNL A   1      43.426  32.072  33.155  1.00  0.00     0.049 A 
ATOM     57  H   UNL A   1      42.534  30.698  31.826  1.00  0.00     0.167 HD
ATOM     58  C   UNL A   1      41.232  33.104  32.617  1.00  0.00     0.074 A 
ATOM     59  C   UNL A   1      40.226  34.136  32.761  1.00  0.00     0.031 C 
ATOM     60  C   UNL A   1      42.424  33.104  33.264  1.00  0.00     0.037 A 
BRANCH  47  61
ATOM     61  C   UNL A   1      45.904  28.102  32.191  1.00  0.00     0.058 A 
ATOM     62  C   UNL A   1      47.079  28.242  31.435  1.00  0.00     0.135 A 
ATOM     63  C   UNL A   1      45.918  27.192  33.261  1.00  0.00     0.135 A 
ATOM     64  F   UNL A   1      47.113  29.081  30.388  1.00  0.00    -0.206 F 
ATOM     65  C   UNL A   1      48.210  27.476  31.703  1.00  0.00     0.059 A 
ATOM     66  C   UNL A   1      47.048  26.440  33.567  1.00  0.00     0.059 A 
ATOM     67  F   UNL A   1      44.820  27.016  34.015  1.00  0.00    -0.206 F 
ATOM     68  C   UNL A   1      48.182  26.575  32.768  1.00  0.00     0.060 A 
BRANCH  68  69
ATOM     69  S   UNL A   1      49.647  25.569  33.087  1.00  0.00     0.124 S 
ATOM     70  O   UNL A   1      49.143  24.633  34.088  1.00  0.00    -0.237 OA
ATOM     71  O   UNL A   1      49.927  25.000  31.772  1.00  0.00    -0.237 OA
ATOM     72  O   UNL A   1      50.626  26.537  33.569  1.00  0.00    -0.744 OA
ENDBRANCH  68  69
ENDBRANCH  47  61
BRANCH  48  73
ATOM     73  C   UNL A   1      37.294  32.746  30.048  1.00  0.00     0.058 A 
ATOM     74  C   UNL A   1      36.108  32.387  30.706  1.00  0.00     0.135 A 
ATOM     75  C   UNL A   1      37.228  33.786  29.108  1.00  0.00     0.135 A 
ATOM     76  F   UNL A   1      36.115  31.387  31.602  1.00  0.00    -0.206 F 
ATOM     77  C   UNL A   1      34.904  33.032  30.444  1.00  0.00     0.059 A 
ATOM     78  C   UNL A   1      36.040  34.462  28.845  1.00  0.00     0.059 A 
ATOM     79  F   UNL A   1      38.334  34.170  28.452  1.00  0.00    -0.206 F 
ATOM     80  C   UNL A   1      34.881  34.074  29.516  1.00  0.00     0.060 A 
BRANCH  80  81
ATOM     81  S   UNL A   1      33.325  34.947  29.236  1.00  0.00     0.124 S 
ATOM     82  O   UNL A   1      32.685  34.096  28.240  1.00  0.00    -0.237 OA
ATOM     83  O   UNL A   1      32.725  34.935  30.568  1.00  0.00    -0.237 OA
ATOM     84  O   UNL A   1      33.756  36.259  28.763  1.00  0.00    -0.744 OA
ENDBRANCH  80  81
ENDBRANCH  48  73
BRANCH  60  85
ATOM     85  C   UNL A   1      42.756  34.280  34.140  1.00  0.00     0.058 A 
ATOM     86  C   UNL A   1      42.533  34.263  35.523  1.00  0.00     0.135 A 
ATOM     87  C   UNL A   1      43.425  35.390  33.596  1.00  0.00     0.135 A 
ATOM     88  F   UNL A   1      41.890  33.230  36.092  1.00  0.00    -0.206 F 
ATOM     89  C   UNL A   1      42.966  35.302  36.341  1.00  0.00     0.059 A 
ATOM     90  C   UNL A   1      43.890  36.428  34.397  1.00  0.00     0.059 A 
ATOM     91  F   UNL A   1      43.672  35.450  32.277  1.00  0.00    -0.206 F 
ATOM     92  C   UNL A   1      43.656  36.375  35.769  1.00  0.00     0.060 A 
BRANCH  92  93
ATOM     93  S   UNL A   1      44.294  37.671  36.852  1.00  0.00     0.124 S 
ATOM     94  O   UNL A   1      45.580  37.114  37.255  1.00  0.00    -0.237 OA
ATOM     95  O   UNL A   1      44.351  38.823  35.959  1.00  0.00    -0.237 OA
ATOM     96  O   UNL A   1      43.289  37.756  37.909  1.00  0.00    -0.744 OA
ENDBRANCH  92  93
ENDBRANCH  60  85
ENDBRANCH  34  35
ENDBRANCH  27  29
ENDBRANCH  26  27
ENDBRANCH  25  26
ENDBRANCH  24  25
ENDBRANCH  23  24
ENDBRANCH  22  23
ENDBRANCH   1  22
TORSDOF 26
ENDMDL
MODEL 2
REMARK VINA RESULT:      -8.2      2.830      3.836
REMARK SMILES COC(=O)N[C@@H](C(=O)OCCOCCOCCOCCOC(=O)c1ccc(-c2c3nc(c(-c4c(F)cc(S(=O)(=O)[O-])cc4F)c4ccc([nH]4)c(-c4c(F)cc(S(=O)(=O)[O-])cc4F)c4nc(c(-c5c(F)cc(S(=O)(=O)[O-])cc5F)c5ccc2[nH]5)C=C4)C=C3)cc1)C1COC1
REMARK SMILES IDX 16 1 15 2 14 3 13 4 12 5 11 6 10 7 9 8 7 9 8 10 6 11 5 12
REMARK SMILES IDX 3 13 4 14 2 16 1 17 90 18 91 19 93 20 92 21 17 22 18 23
REMARK SMILES IDX 19 24 20 25 21 26 22 27 23 28 24 29 25 30 89 31 26 32 88 33
REMARK SMILES IDX 27 34 28 35 29 36 82 37 30 38 87 39 81 40 83 41 31 42 86 43
REMARK SMILES IDX 80 44 79 45 32 47 66 48 45 49 65 50 46 51 49 52 64 53 84 54
REMARK SMILES IDX 47 55 48 56 63 58 85 59 50 60 33 61 34 62 43 63 35 64 36 65
REMARK SMILES IDX 42 66 44 67 37 68 38 69 39 70 40 71 41 72 67 73 68 74 77 75
REMARK SMILES IDX 69 76 70 77 76 78 78 79 71 80 72 81 73 82 74 83 75 84 51 85
REMARK SMILES IDX 52 86 61 87 53 88 54 89 60 90 62 91 55 92 56 93 57 94 58 95
REMARK SMILES IDX 59 96
REMARK H PARENT 5 15 83 46 49 57
REMARK Flexibility Score: inf
ROOT
ATOM      1  C   UNL A   1      32.505  20.965  23.334  1.00  0.00     0.188 C 
ENDROOT
BRANCH   1   2
ATOM      2  O   UNL A   1      32.060  22.287  23.059  1.00  0.00    -0.377 OA
BRANCH   2   3
ATOM      3  C   UNL A   1      32.937  23.088  22.300  1.00  0.00     0.188 C 
BRANCH   3   4
ATOM      4  C   UNL A   1      32.527  24.562  22.225  1.00  0.00     0.188 C 
BRANCH   4   5
ATOM      5  O   UNL A   1      32.132  25.267  23.387  1.00  0.00    -0.376 OA
BRANCH   5   6
ATOM      6  C   UNL A   1      32.912  25.167  24.573  1.00  0.00     0.202 C 
BRANCH   6   7
ATOM      7  C   UNL A   1      32.389  25.592  25.964  1.00  0.00     0.261 C 
BRANCH   7   8
ATOM      8  O   UNL A   1      32.885  26.830  26.511  1.00  0.00    -0.462 OA
BRANCH   8   9
ATOM      9  C   UNL A   1      31.976  27.818  26.719  1.00  0.00     0.329 C 
ATOM     10  O   UNL A   1      31.231  27.877  27.691  1.00  0.00    -0.250 OA
BRANCH   9  11
ATOM     11  C   UNL A   1      32.017  28.937  25.658  1.00  0.00     0.203 C 
BRANCH  11  12
ATOM     12  N   UNL A   1      31.505  30.261  26.030  1.00  0.00    -0.307 N 
ATOM     13  C   UNL A   1      32.143  31.251  26.709  1.00  0.00     0.407 C 
ATOM     14  O   UNL A   1      31.612  32.343  26.860  1.00  0.00    -0.225 OA
ATOM     15  H   UNL A   1      30.582  30.457  25.752  1.00  0.00     0.168 HD
BRANCH  13  16
ATOM     16  O   UNL A   1      33.393  30.920  27.103  1.00  0.00    -0.453 OA
ATOM     17  C   UNL A   1      34.002  31.917  27.927  1.00  0.00     0.284 C 
ENDBRANCH  13  16
ENDBRANCH  11  12
BRANCH  11  18
ATOM     18  C   UNL A   1      31.288  28.587  24.357  1.00  0.00     0.075 C 
ATOM     19  C   UNL A   1      30.282  29.630  23.835  1.00  0.00     0.168 C 
ATOM     20  C   UNL A   1      31.890  28.771  22.942  1.00  0.00     0.168 C 
ATOM     21  O   UNL A   1      30.594  29.238  22.464  1.00  0.00    -0.380 OA
ENDBRANCH  11  18
ENDBRANCH   9  11
ENDBRANCH   8   9
ENDBRANCH   7   8
ENDBRANCH   6   7
ENDBRANCH   5   6
ENDBRANCH   4   5
ENDBRANCH   3   4
ENDBRANCH   2   3
ENDBRANCH   1   2
BRANCH   1  22
ATOM     22  C   UNL A   1      33.072  20.666  24.739  1.00  0.00     0.188 C 
BRANCH  22  23
ATOM     23  O   UNL A   1      33.564  21.815  25.428  1.00  0.00    -0.376 OA
BRANCH  23  24
ATOM     24  C   UNL A   1      34.869  22.280  25.106  1.00  0.00     0.202 C 
BRANCH  24  25
ATOM     25  C   UNL A   1      35.676  22.918  26.248  1.00  0.00     0.261 C 
BRANCH  25  26
ATOM     26  O   UNL A   1      36.879  23.606  25.873  1.00  0.00    -0.460 OA
BRANCH  26  27
ATOM     27  C   UNL A   1      38.069  23.050  26.183  1.00  0.00     0.338 C 
ATOM     28  O   UNL A   1      38.432  21.911  25.955  1.00  0.00    -0.246 OA
BRANCH  27  29
ATOM     29  C   UNL A   1      38.947  24.137  26.659  1.00  0.00     0.060 A 
ATOM     30  C   UNL A   1      38.940  24.477  28.020  1.00  0.00     0.016 A 
ATOM     31  C   UNL A   1      39.794  24.796  25.766  1.00  0.00     0.016 A 
ATOM     32  C   UNL A   1      39.757  25.508  28.486  1.00  0.00     0.010 A 
ATOM     33  C   UNL A   1      40.591  25.842  26.228  1.00  0.00     0.010 A 
ATOM     34  C   UNL A   1      40.548  26.225  27.580  1.00  0.00    -0.014 A 
BRANCH  34  35
ATOM     35  C   UNL A   1      41.134  27.531  27.959  1.00  0.00     0.031 A 
ATOM     36  C   UNL A   1      42.626  27.677  27.846  1.00  0.00     0.074 A 
ATOM     37  C   UNL A   1      40.382  28.534  28.443  1.00  0.00     0.049 A 
ATOM     38  N   UNL A   1      43.402  28.639  28.266  1.00  0.00    -0.248 NA
ATOM     39  C   UNL A   1      43.337  26.575  27.176  1.00  0.00     0.031 C 
ATOM     40  C   UNL A   1      38.924  28.531  28.542  1.00  0.00     0.029 A 
ATOM     41  N   UNL A   1      40.754  29.748  28.963  1.00  0.00    -0.354 N 
ATOM     42  C   UNL A   1      44.695  28.244  27.941  1.00  0.00     0.074 A 
ATOM     43  C   UNL A   1      44.599  26.952  27.299  1.00  0.00     0.031 C 
ATOM     44  C   UNL A   1      38.525  29.684  29.107  1.00  0.00     0.029 A 
ATOM     45  C   UNL A   1      39.700  30.483  29.454  1.00  0.00     0.049 A 
ATOM     46  H   UNL A   1      41.687  30.062  28.985  1.00  0.00     0.167 HD
ATOM     47  C   UNL A   1      45.858  28.898  28.166  1.00  0.00     0.037 A 
ATOM     48  C   UNL A   1      39.698  31.648  30.133  1.00  0.00     0.037 A 
ATOM     49  C   UNL A   1      45.939  30.180  28.810  1.00  0.00     0.049 A 
ATOM     50  C   UNL A   1      41.011  32.320  30.450  1.00  0.00     0.074 A 
ATOM     51  C   UNL A   1      47.063  30.942  29.065  1.00  0.00     0.029 A 
ATOM     52  N   UNL A   1      44.852  30.880  29.313  1.00  0.00    -0.354 N 
ATOM     53  N   UNL A   1      42.228  31.950  30.127  1.00  0.00    -0.248 NA
ATOM     54  C   UNL A   1      40.954  33.562  31.236  1.00  0.00     0.031 C 
ATOM     55  C   UNL A   1      46.663  32.078  29.778  1.00  0.00     0.029 A 
ATOM     56  C   UNL A   1      45.282  32.053  29.908  1.00  0.00     0.049 A 
ATOM     57  H   UNL A   1      43.915  30.585  29.258  1.00  0.00     0.167 HD
ATOM     58  C   UNL A   1      43.075  32.935  30.628  1.00  0.00     0.074 A 
ATOM     59  C   UNL A   1      42.233  33.910  31.289  1.00  0.00     0.031 C 
ATOM     60  C   UNL A   1      44.425  33.028  30.538  1.00  0.00     0.037 A 
BRANCH  47  61
ATOM     61  C   UNL A   1      47.129  28.206  27.760  1.00  0.00     0.058 A 
ATOM     62  C   UNL A   1      47.830  27.360  28.634  1.00  0.00     0.135 A 
ATOM     63  C   UNL A   1      47.658  28.403  26.474  1.00  0.00     0.135 A 
ATOM     64  F   UNL A   1      47.380  27.154  29.882  1.00  0.00    -0.206 F 
ATOM     65  C   UNL A   1      49.034  26.768  28.261  1.00  0.00     0.059 A 
ATOM     66  C   UNL A   1      48.843  27.796  26.069  1.00  0.00     0.059 A 
ATOM     67  F   UNL A   1      47.030  29.205  25.599  1.00  0.00    -0.206 F 
ATOM     68  C   UNL A   1      49.533  26.997  26.979  1.00  0.00     0.060 A 
BRANCH  68  69
ATOM     69  S   UNL A   1      51.109  26.244  26.519  1.00  0.00     0.124 S 
ATOM     70  O   UNL A   1      51.037  26.289  25.062  1.00  0.00    -0.237 OA
ATOM     71  O   UNL A   1      52.077  27.148  27.133  1.00  0.00    -0.237 OA
ATOM     72  O   UNL A   1      51.035  24.913  27.111  1.00  0.00    -0.744 OA
ENDBRANCH  68  69
ENDBRANCH  47  61
BRANCH  48  73
ATOM     73  C   UNL A   1      38.409  32.258  30.559  1.00  0.00     0.058 A 
ATOM     74  C   UNL A   1      37.775  33.222  29.760  1.00  0.00     0.135 A 
ATOM     75  C   UNL A   1      37.778  31.887  31.756  1.00  0.00     0.135 A 
ATOM     76  F   UNL A   1      38.346  33.622  28.613  1.00  0.00    -0.206 F 
ATOM     77  C   UNL A   1      36.564  33.797  30.132  1.00  0.00     0.059 A 
ATOM     78  C   UNL A   1      36.555  32.431  32.140  1.00  0.00     0.059 A 
ATOM     79  F   UNL A   1      38.341  30.968  32.556  1.00  0.00    -0.206 F 
ATOM     80  C   UNL A   1      35.958  33.389  31.322  1.00  0.00     0.060 A 
BRANCH  80  81
ATOM     81  S   UNL A   1      34.354  34.095  31.758  1.00  0.00     0.124 S 
ATOM     82  O   UNL A   1      33.828  33.088  32.673  1.00  0.00    -0.237 OA
ATOM     83  O   UNL A   1      34.735  35.369  32.361  1.00  0.00    -0.237 OA
ATOM     84  O   UNL A   1      33.671  34.198  30.472  1.00  0.00    -0.744 OA
ENDBRANCH  80  81
ENDBRANCH  48  73
BRANCH  60  85
ATOM     85  C   UNL A   1      45.092  34.251  31.104  1.00  0.00     0.058 A 
ATOM     86  C   UNL A   1      45.593  34.286  32.412  1.00  0.00     0.135 A 
ATOM     87  C   UNL A   1      45.341  35.358  30.275  1.00  0.00     0.135 A 
ATOM     88  F   UNL A   1      45.375  33.258  33.248  1.00  0.00    -0.206 F 
ATOM     89  C   UNL A   1      46.325  35.373  32.879  1.00  0.00     0.059 A 
ATOM     90  C   UNL A   1      46.092  36.444  30.711  1.00  0.00     0.059 A 
ATOM     91  F   UNL A   1      44.890  35.370  29.010  1.00  0.00    -0.206 F 
ATOM     92  C   UNL A   1      46.581  36.443  32.016  1.00  0.00     0.060 A 
BRANCH  92  93
ATOM     93  S   UNL A   1      47.609  37.805  32.606  1.00  0.00     0.124 S 
ATOM     94  O   UNL A   1      47.880  37.398  33.980  1.00  0.00    -0.237 OA
ATOM     95  O   UNL A   1      48.746  37.755  31.692  1.00  0.00    -0.237 OA
ATOM     96  O   UNL A   1      46.745  38.973  32.457  1.00  0.00    -0.744 OA
ENDBRANCH  92  93
ENDBRANCH  60  85
ENDBRANCH  34  35
ENDBRANCH  27  29
ENDBRANCH  26  27
ENDBRANCH  25  26
ENDBRANCH  24  25
ENDBRANCH  23  24
ENDBRANCH  22  23
ENDBRANCH   1  22
TORSDOF 26
ENDMDL
MODEL 3
REMARK VINA RESULT:      -7.5      2.330      3.004
REMARK SMILES COC(=O)N[C@@H](C(=O)OCCOCCOCCOCCOC(=O)c1ccc(-c2c3nc(c(-c4c(F)cc(S(=O)(=O)[O-])cc4F)c4ccc([nH]4)c(-c4c(F)cc(S(=O)(=O)[O-])cc4F)c4nc(c(-c5c(F)cc(S(=O)(=O)[O-])cc5F)c5ccc2[nH]5)C=C4)C=C3)cc1)C1COC1
REMARK SMILES IDX 16 1 15 2 14 3 13 4 12 5 11 6 10 7 9 8 7 9 8 10 6 11 5 12
REMARK SMILES IDX 3 13 4 14 2 16 1 17 90 18 91 19 93 20 92 21 17 22 18 23
REMARK SMILES IDX 19 24 20 25 21 26 22 27 23 28 24 29 25 30 89 31 26 32 88 33
REMARK SMILES IDX 27 34 28 35 29 36 82 37 30 38 87 39 81 40 83 41 31 42 86 43
REMARK SMILES IDX 80 44 79 45 32 47 66 48 45 49 65 50 46 51 49 52 64 53 84 54
REMARK SMILES IDX 47 55 48 56 63 58 85 59 50 60 33 61 34 62 43 63 35 64 36 65
REMARK SMILES IDX 42 66 44 67 37 68 38 69 39 70 40 71 41 72 67 73 68 74 77 75
REMARK SMILES IDX 69 76 70 77 76 78 78 79 71 80 72 81 73 82 74 83 75 84 51 85
REMARK SMILES IDX 52 86 61 87 53 88 54 89 60 90 62 91 55 92 56 93 57 94 58 95
REMARK SMILES IDX 59 96
REMARK H PARENT 5 15 83 46 49 57
REMARK Flexibility Score: inf
ROOT
ATOM      1  C   UNL A   1      32.418  23.074  23.684  1.00  0.00     0.188 C 
ENDROOT
BRANCH   1   2
ATOM      2  O   UNL A   1      32.475  24.401  23.175  1.00  0.00    -0.377 OA
BRANCH   2   3
ATOM      3  C   UNL A   1      32.838  24.525  21.819  1.00  0.00     0.188 C 
BRANCH   3   4
ATOM      4  C   UNL A   1      32.731  25.952  21.274  1.00  0.00     0.188 C 
BRANCH   4   5
ATOM      5  O   UNL A   1      32.636  27.060  22.150  1.00  0.00    -0.376 OA
BRANCH   5   6
ATOM      6  C   UNL A   1      33.767  27.450  22.921  1.00  0.00     0.202 C 
BRANCH   6   7
ATOM      7  C   UNL A   1      33.993  26.988  24.378  1.00  0.00     0.261 C 
BRANCH   7   8
ATOM      8  O   UNL A   1      33.186  27.602  25.402  1.00  0.00    -0.462 OA
BRANCH   8   9
ATOM      9  C   UNL A   1      31.839  27.479  25.279  1.00  0.00     0.329 C 
ATOM     10  O   UNL A   1      31.221  26.434  25.458  1.00  0.00    -0.250 OA
BRANCH   9  11
ATOM     11  C   UNL A   1      31.115  28.808  24.980  1.00  0.00     0.203 C 
BRANCH  11  12
ATOM     12  N   UNL A   1      31.069  29.272  23.588  1.00  0.00    -0.307 N 
ATOM     13  C   UNL A   1      30.046  29.172  22.701  1.00  0.00     0.407 C 
ATOM     14  O   UNL A   1      30.126  29.697  21.597  1.00  0.00    -0.225 OA
ATOM     15  H   UNL A   1      31.884  29.712  23.257  1.00  0.00     0.168 HD
BRANCH  13  16
ATOM     16  O   UNL A   1      28.963  28.526  23.190  1.00  0.00    -0.453 OA
ATOM     17  C   UNL A   1      27.737  28.962  22.598  1.00  0.00     0.284 C 
ENDBRANCH  13  16
ENDBRANCH  11  12
BRANCH  11  18
ATOM     18  C   UNL A   1      31.654  30.002  25.773  1.00  0.00     0.075 C 
ATOM     19  C   UNL A   1      31.884  29.774  27.279  1.00  0.00     0.168 C 
ATOM     20  C   UNL A   1      33.146  30.416  25.824  1.00  0.00     0.168 C 
ATOM     21  O   UNL A   1      33.004  30.711  27.245  1.00  0.00    -0.380 OA
ENDBRANCH  11  18
ENDBRANCH   9  11
ENDBRANCH   8   9
ENDBRANCH   7   8
ENDBRANCH   6   7
ENDBRANCH   5   6
ENDBRANCH   4   5
ENDBRANCH   3   4
ENDBRANCH   2   3
ENDBRANCH   1   2
BRANCH   1  22
ATOM     22  C   UNL A   1      33.206  22.755  24.973  1.00  0.00     0.188 C 
BRANCH  22  23
ATOM     23  O   UNL A   1      34.273  23.663  25.244  1.00  0.00    -0.376 OA
BRANCH  23  24
ATOM     24  C   UNL A   1      35.594  23.268  24.892  1.00  0.00     0.202 C 
BRANCH  24  25
ATOM     25  C   UNL A   1      36.620  23.192  26.033  1.00  0.00     0.261 C 
BRANCH  25  26
ATOM     26  O   UNL A   1      37.873  23.857  25.811  1.00  0.00    -0.460 OA
BRANCH  26  27
ATOM     27  C   UNL A   1      38.985  23.360  26.393  1.00  0.00     0.338 C 
ATOM     28  O   UNL A   1      39.358  22.201  26.401  1.00  0.00    -0.246 OA
BRANCH  27  29
ATOM     29  C   UNL A   1      39.794  24.512  26.840  1.00  0.00     0.060 A 
ATOM     30  C   UNL A   1      40.190  24.590  28.183  1.00  0.00     0.016 A 
ATOM     31  C   UNL A   1      40.181  25.493  25.925  1.00  0.00     0.016 A 
ATOM     32  C   UNL A   1      40.948  25.675  28.625  1.00  0.00     0.010 A 
ATOM     33  C   UNL A   1      40.915  26.590  26.373  1.00  0.00     0.010 A 
ATOM     34  C   UNL A   1      41.270  26.703  27.729  1.00  0.00    -0.014 A 
BRANCH  34  35
ATOM     35  C   UNL A   1      41.741  28.016  28.225  1.00  0.00     0.031 A 
ATOM     36  C   UNL A   1      43.226  28.247  28.264  1.00  0.00     0.074 A 
ATOM     37  C   UNL A   1      40.890  28.950  28.680  1.00  0.00     0.049 A 
ATOM     38  N   UNL A   1      43.903  29.224  28.802  1.00  0.00    -0.248 NA
ATOM     39  C   UNL A   1      44.060  27.220  27.614  1.00  0.00     0.031 C 
ATOM     40  C   UNL A   1      39.432  28.865  28.638  1.00  0.00     0.029 A 
ATOM     41  N   UNL A   1      41.141  30.153  29.292  1.00  0.00    -0.354 N 
ATOM     42  C   UNL A   1      45.241  28.916  28.585  1.00  0.00     0.074 A 
ATOM     43  C   UNL A   1      45.281  27.657  27.877  1.00  0.00     0.031 C 
ATOM     44  C   UNL A   1      38.916  29.963  29.216  1.00  0.00     0.029 A 
ATOM     45  C   UNL A   1      40.005  30.804  29.713  1.00  0.00     0.049 A 
ATOM     46  H   UNL A   1      42.048  30.515  29.419  1.00  0.00     0.167 HD
ATOM     47  C   UNL A   1      46.338  29.618  28.952  1.00  0.00     0.037 A 
ATOM     48  C   UNL A   1      39.871  31.930  30.443  1.00  0.00     0.037 A 
ATOM     49  C   UNL A   1      46.284  30.867  29.662  1.00  0.00     0.049 A 
ATOM     50  C   UNL A   1      41.108  32.653  30.917  1.00  0.00     0.074 A 
ATOM     51  C   UNL A   1      47.333  31.673  30.061  1.00  0.00     0.029 A 
ATOM     52  N   UNL A   1      45.116  31.480  30.090  1.00  0.00    -0.354 N 
ATOM     53  N   UNL A   1      42.369  32.366  30.696  1.00  0.00    -0.248 NA
ATOM     54  C   UNL A   1      40.906  33.847  31.753  1.00  0.00     0.031 C 
ATOM     55  C   UNL A   1      46.802  32.747  30.784  1.00  0.00     0.029 A 
ATOM     56  C   UNL A   1      45.420  32.642  30.779  1.00  0.00     0.049 A 
ATOM     57  H   UNL A   1      44.207  31.140  29.931  1.00  0.00     0.167 HD
ATOM     58  C   UNL A   1      43.107  33.366  31.323  1.00  0.00     0.074 A 
ATOM     59  C   UNL A   1      42.152  34.259  31.945  1.00  0.00     0.031 C 
ATOM     60  C   UNL A   1      44.452  33.535  31.369  1.00  0.00     0.037 A 
BRANCH  47  61
ATOM     61  C   UNL A   1      47.679  29.017  28.639  1.00  0.00     0.058 A 
ATOM     62  C   UNL A   1      48.343  28.164  29.535  1.00  0.00     0.135 A 
ATOM     63  C   UNL A   1      48.315  29.310  27.422  1.00  0.00     0.135 A 
ATOM     64  F   UNL A   1      47.790  27.868  30.722  1.00  0.00    -0.206 F 
ATOM     65  C   UNL A   1      49.608  27.657  29.254  1.00  0.00     0.059 A 
ATOM     66  C   UNL A   1      49.566  28.789  27.106  1.00  0.00     0.059 A 
ATOM     67  F   UNL A   1      47.728  30.124  26.530  1.00  0.00    -0.206 F 
ATOM     68  C   UNL A   1      50.212  27.980  28.038  1.00  0.00     0.060 A 
BRANCH  68  69
ATOM     69  S   UNL A   1      51.865  27.338  27.698  1.00  0.00     0.124 S 
ATOM     70  O   UNL A   1      51.776  25.995  28.264  1.00  0.00    -0.237 OA
ATOM     71  O   UNL A   1      51.933  27.407  26.241  1.00  0.00    -0.237 OA
ATOM     72  O   UNL A   1      52.742  28.261  28.409  1.00  0.00    -0.744 OA
ENDBRANCH  68  69
ENDBRANCH  47  61
BRANCH  48  73
ATOM     73  C   UNL A   1      38.515  32.447  30.771  1.00  0.00     0.058 A 
ATOM     74  C   UNL A   1      37.871  32.065  31.957  1.00  0.00     0.135 A 
ATOM     75  C   UNL A   1      37.840  33.337  29.920  1.00  0.00     0.135 A 
ATOM     76  F   UNL A   1      38.468  31.204  32.796  1.00  0.00    -0.206 F 
ATOM     77  C   UNL A   1      36.608  32.544  32.290  1.00  0.00     0.059 A 
ATOM     78  C   UNL A   1      36.586  33.848  30.241  1.00  0.00     0.059 A 
ATOM     79  F   UNL A   1      38.412  33.736  28.774  1.00  0.00    -0.206 F 
ATOM     80  C   UNL A   1      35.976  33.442  31.427  1.00  0.00     0.060 A 
BRANCH  80  81
ATOM     81  S   UNL A   1      34.366  34.108  31.904  1.00  0.00     0.124 S 
ATOM     82  O   UNL A   1      34.740  35.384  32.503  1.00  0.00    -0.237 OA
ATOM     83  O   UNL A   1      33.675  34.182  30.620  1.00  0.00    -0.237 OA
ATOM     84  O   UNL A   1      33.848  33.104  32.829  1.00  0.00    -0.744 OA
ENDBRANCH  80  81
ENDBRANCH  48  73
BRANCH  60  85
ATOM     85  C   UNL A   1      44.991  34.760  32.054  1.00  0.00     0.058 A 
ATOM     86  C   UNL A   1      45.171  35.973  31.376  1.00  0.00     0.135 A 
ATOM     87  C   UNL A   1      45.210  34.745  33.443  1.00  0.00     0.135 A 
ATOM     88  F   UNL A   1      44.984  36.039  30.048  1.00  0.00    -0.206 F 
ATOM     89  C   UNL A   1      45.543  37.133  32.049  1.00  0.00     0.059 A 
ATOM     90  C   UNL A   1      45.556  35.897  34.141  1.00  0.00     0.059 A 
ATOM     91  F   UNL A   1      45.041  33.610  34.140  1.00  0.00    -0.206 F 
ATOM     92  C   UNL A   1      45.720  37.087  33.435  1.00  0.00     0.060 A 
BRANCH  92  93
ATOM     93  S   UNL A   1      46.112  38.618  34.309  1.00  0.00     0.124 S 
ATOM     94  O   UNL A   1      47.485  38.373  34.733  1.00  0.00    -0.237 OA
ATOM     95  O   UNL A   1      45.939  39.624  33.266  1.00  0.00    -0.237 OA
ATOM     96  O   UNL A   1      45.122  38.660  35.382  1.00  0.00    -0.744 OA
ENDBRANCH  92  93
ENDBRANCH  60  85
ENDBRANCH  34  35
ENDBRANCH  27  29
ENDBRANCH  26  27
ENDBRANCH  25  26
ENDBRANCH  24  25
ENDBRANCH  23  24
ENDBRANCH  22  23
ENDBRANCH   1  22
TORSDOF 26
ENDMDL
