MODEL 1
REMARK VINA RESULT:      -9.3      0.000      0.000
REMARK SMILES CN(CC(=O)N[C@H]1C=C[C@H](C(=O)OCCOCCOCCOCCOC(=O)c2ccc(-c3c4nc(c(-c5c(F)cc(S(=O)(=O)[O-])cc5F)c5ccc([nH]5)c(-c5c(F)cc(S(=O)(=O)[O-])cc5F)c5nc(c(-c6c(F)cc(S(=O)(=O)[O-])cc6F)c6ccc3[nH]6)C=C5)C=C4)cc2)C1)C(=O)c1cccs1
REMARK SMILES IDX 18 1 17 2 16 3 15 4 14 5 13 6 11 7 12 8 10 9 7 10 8 11 94 12
REMARK SMILES IDX 9 13 6 14 4 15 5 16 3 18 2 19 1 20 95 21 96 22 97 23 98 24
REMARK SMILES IDX 101 25 99 26 100 27 19 28 20 29 21 30 22 31 23 32 24 33
REMARK SMILES IDX 25 34 26 35 27 36 28 37 29 38 93 39 30 40 92 41 31 42 32 43
REMARK SMILES IDX 33 44 86 45 34 46 91 47 85 48 87 49 35 50 90 51 84 52 83 53
REMARK SMILES IDX 36 55 70 56 49 57 69 58 50 59 53 60 68 61 88 62 51 63 52 64
REMARK SMILES IDX 67 66 89 67 54 68 37 69 38 70 47 71 39 72 40 73 46 74 48 75
REMARK SMILES IDX 41 76 42 77 43 78 44 79 45 80 71 81 72 82 81 83 73 84 74 85
REMARK SMILES IDX 80 86 82 87 75 88 76 89 77 90 78 91 79 92 55 93 56 94 65 95
REMARK SMILES IDX 57 96 58 97 64 98 66 99 59 100 60 101 61 102 62 103 63 104
REMARK H PARENT 6 17 87 54 53 65
REMARK Flexibility Score: inf
ROOT
ATOM      1  C   UNL A   1      42.827  20.410  25.836  1.00  0.00     0.188 C 
ENDROOT
BRANCH   1   2
ATOM      2  C   UNL A   1      41.732  20.006  26.839  1.00  0.00     0.188 C 
BRANCH   2   3
ATOM      3  O   UNL A   1      40.378  19.859  26.433  1.00  0.00    -0.376 OA
BRANCH   3   4
ATOM      4  C   UNL A   1      39.713  20.913  25.754  1.00  0.00     0.202 C 
BRANCH   4   5
ATOM      5  C   UNL A   1      38.197  20.827  25.502  1.00  0.00     0.261 C 
BRANCH   5   6
ATOM      6  O   UNL A   1      37.505  22.077  25.298  1.00  0.00    -0.463 OA
BRANCH   6   7
ATOM      7  C   UNL A   1      36.150  22.041  25.349  1.00  0.00     0.312 C 
ATOM      8  O   UNL A   1      35.510  21.522  26.260  1.00  0.00    -0.252 OA
BRANCH   7   9
ATOM      9  C   UNL A   1      35.455  22.741  24.170  1.00  0.00     0.124 C 
ATOM     10  C   UNL A   1      33.448  24.216  24.064  1.00  0.00     0.106 C 
ATOM     11  C   UNL A   1      33.123  22.792  23.750  1.00  0.00    -0.006 C 
ATOM     12  C   UNL A   1      34.973  24.202  24.313  1.00  0.00     0.048 C 
ATOM     13  C   UNL A   1      34.196  21.998  23.813  1.00  0.00    -0.014 C 
BRANCH  10  14
ATOM     14  N   UNL A   1      33.070  25.025  22.934  1.00  0.00    -0.348 N 
ATOM     15  C   UNL A   1      31.847  25.523  22.596  1.00  0.00     0.240 C 
ATOM     16  O   UNL A   1      31.827  26.400  21.727  1.00  0.00    -0.273 OA
ATOM     17  H   UNL A   1      33.801  25.252  22.315  1.00  0.00     0.164 HD
BRANCH  15  18
ATOM     18  C   UNL A   1      30.559  25.131  23.344  1.00  0.00     0.219 C 
BRANCH  18  19
ATOM     19  N   UNL A   1      30.000  26.126  24.267  1.00  0.00    -0.332 N 
ATOM     20  C   UNL A   1      28.659  26.614  23.994  1.00  0.00     0.147 C 
BRANCH  19  21
ATOM     21  C   UNL A   1      30.482  26.381  25.563  1.00  0.00     0.264 C 
ATOM     22  O   UNL A   1      30.366  25.529  26.447  1.00  0.00    -0.268 OA
BRANCH  21  23
ATOM     23  C   UNL A   1      31.164  27.636  25.818  1.00  0.00     0.092 A 
ATOM     24  C   UNL A   1      31.516  28.660  24.963  1.00  0.00     0.025 A 
ATOM     25  S   UNL A   1      31.574  28.011  27.442  1.00  0.00    -0.139 S 
ATOM     26  C   UNL A   1      32.221  29.704  25.629  1.00  0.00     0.012 A 
ATOM     27  C   UNL A   1      32.318  29.479  26.983  1.00  0.00     0.065 A 
ENDBRANCH  21  23
ENDBRANCH  19  21
ENDBRANCH  18  19
ENDBRANCH  15  18
ENDBRANCH  10  14
ENDBRANCH   7   9
ENDBRANCH   6   7
ENDBRANCH   5   6
ENDBRANCH   4   5
ENDBRANCH   3   4
ENDBRANCH   2   3
ENDBRANCH   1   2
BRANCH   1  28
ATOM     28  O   UNL A   1      43.814  19.440  25.551  1.00  0.00    -0.377 OA
BRANCH  28  29
ATOM     29  C   UNL A   1      45.089  19.926  25.148  1.00  0.00     0.188 C 
BRANCH  29  30
ATOM     30  C   UNL A   1      45.239  21.445  24.979  1.00  0.00     0.188 C 
BRANCH  30  31
ATOM     31  O   UNL A   1      45.811  22.069  26.123  1.00  0.00    -0.376 OA
BRANCH  31  32
ATOM     32  C   UNL A   1      45.278  23.309  26.563  1.00  0.00     0.202 C 
BRANCH  32  33
ATOM     33  C   UNL A   1      44.301  24.055  25.638  1.00  0.00     0.261 C 
BRANCH  33  34
ATOM     34  O   UNL A   1      42.982  24.294  26.152  1.00  0.00    -0.460 OA
BRANCH  34  35
ATOM     35  C   UNL A   1      42.435  25.510  25.952  1.00  0.00     0.338 C 
ATOM     36  O   UNL A   1      41.884  25.903  24.937  1.00  0.00    -0.246 OA
BRANCH  35  37
ATOM     37  C   UNL A   1      42.411  26.211  27.258  1.00  0.00     0.060 A 
ATOM     38  C   UNL A   1      41.536  25.755  28.251  1.00  0.00     0.016 A 
ATOM     39  C   UNL A   1      43.251  27.301  27.511  1.00  0.00     0.016 A 
ATOM     40  C   UNL A   1      41.469  26.407  29.484  1.00  0.00     0.010 A 
ATOM     41  C   UNL A   1      43.167  27.967  28.741  1.00  0.00     0.010 A 
ATOM     42  C   UNL A   1      42.251  27.545  29.722  1.00  0.00    -0.014 A 
BRANCH  42  43
ATOM     43  C   UNL A   1      41.954  28.410  30.897  1.00  0.00     0.031 A 
ATOM     44  C   UNL A   1      40.808  29.384  30.791  1.00  0.00     0.074 A 
ATOM     45  C   UNL A   1      42.642  28.307  32.051  1.00  0.00     0.049 A 
ATOM     46  N   UNL A   1      40.390  30.274  31.652  1.00  0.00    -0.248 NA
ATOM     47  C   UNL A   1      40.027  29.344  29.542  1.00  0.00     0.031 C 
ATOM     48  C   UNL A   1      43.732  27.367  32.307  1.00  0.00     0.029 A 
ATOM     49  N   UNL A   1      42.524  29.011  33.225  1.00  0.00    -0.354 N 
ATOM     50  C   UNL A   1      39.296  30.891  31.057  1.00  0.00     0.074 A 
ATOM     51  C   UNL A   1      39.141  30.307  29.743  1.00  0.00     0.031 C 
ATOM     52  C   UNL A   1      44.195  27.566  33.556  1.00  0.00     0.029 A 
ATOM     53  C   UNL A   1      43.459  28.668  34.176  1.00  0.00     0.049 A 
ATOM     54  H   UNL A   1      41.834  29.698  33.373  1.00  0.00     0.167 HD
ATOM     55  C   UNL A   1      38.478  31.844  31.563  1.00  0.00     0.037 A 
ATOM     56  C   UNL A   1      43.708  29.202  35.390  1.00  0.00     0.037 A 
ATOM     57  C   UNL A   1      38.634  32.432  32.867  1.00  0.00     0.049 A 
ATOM     58  C   UNL A   1      42.851  30.345  35.887  1.00  0.00     0.074 A 
ATOM     59  C   UNL A   1      37.869  33.423  33.461  1.00  0.00     0.029 A 
ATOM     60  N   UNL A   1      39.616  32.085  33.782  1.00  0.00    -0.354 N 
ATOM     61  N   UNL A   1      41.818  30.915  35.314  1.00  0.00    -0.248 NA
ATOM     62  C   UNL A   1      43.195  30.915  37.200  1.00  0.00     0.031 C 
ATOM     63  C   UNL A   1      38.418  33.706  34.714  1.00  0.00     0.029 A 
ATOM     64  C   UNL A   1      39.487  32.852  34.927  1.00  0.00     0.049 A 
ATOM     65  H   UNL A   1      40.303  31.394  33.638  1.00  0.00     0.167 HD
ATOM     66  C   UNL A   1      41.368  31.880  36.212  1.00  0.00     0.074 A 
ATOM     67  C   UNL A   1      42.231  31.808  37.371  1.00  0.00     0.031 C 
ATOM     68  C   UNL A   1      40.334  32.750  36.089  1.00  0.00     0.037 A 
BRANCH  55  69
ATOM     69  C   UNL A   1      37.337  32.317  30.707  1.00  0.00     0.058 A 
ATOM     70  C   UNL A   1      36.082  31.691  30.751  1.00  0.00     0.135 A 
ATOM     71  C   UNL A   1      37.478  33.447  29.886  1.00  0.00     0.135 A 
ATOM     72  F   UNL A   1      35.898  30.593  31.501  1.00  0.00    -0.206 F 
ATOM     73  C   UNL A   1      35.008  32.164  30.004  1.00  0.00     0.059 A 
ATOM     74  C   UNL A   1      36.409  33.955  29.152  1.00  0.00     0.059 A 
ATOM     75  F   UNL A   1      38.659  34.080  29.802  1.00  0.00    -0.206 F 
ATOM     76  C   UNL A   1      35.179  33.303  29.214  1.00  0.00     0.060 A 
BRANCH  76  77
ATOM     77  S   UNL A   1      33.762  33.925  28.287  1.00  0.00     0.124 S 
ATOM     78  O   UNL A   1      34.403  34.856  27.363  1.00  0.00    -0.237 OA
ATOM     79  O   UNL A   1      33.225  32.707  27.689  1.00  0.00    -0.237 OA
ATOM     80  O   UNL A   1      32.926  34.539  29.313  1.00  0.00    -0.744 OA
ENDBRANCH  76  77
ENDBRANCH  55  69
BRANCH  56  81
ATOM     81  C   UNL A   1      44.841  28.705  36.223  1.00  0.00     0.058 A 
ATOM     82  C   UNL A   1      44.691  27.601  37.079  1.00  0.00     0.135 A 
ATOM     83  C   UNL A   1      46.075  29.374  36.239  1.00  0.00     0.135 A 
ATOM     84  F   UNL A   1      43.528  26.933  37.113  1.00  0.00    -0.206 F 
ATOM     85  C   UNL A   1      45.704  27.206  37.948  1.00  0.00     0.059 A 
ATOM     86  C   UNL A   1      47.115  28.976  37.074  1.00  0.00     0.059 A 
ATOM     87  F   UNL A   1      46.280  30.429  35.435  1.00  0.00    -0.206 F 
ATOM     88  C   UNL A   1      46.912  27.906  37.942  1.00  0.00     0.060 A 
BRANCH  88  89
ATOM     89  S   UNL A   1      48.218  27.393  39.078  1.00  0.00     0.124 S 
ATOM     90  O   UNL A   1      47.460  27.118  40.292  1.00  0.00    -0.237 OA
ATOM     91  O   UNL A   1      48.778  26.230  38.396  1.00  0.00    -0.237 OA
ATOM     92  O   UNL A   1      49.093  28.561  39.130  1.00  0.00    -0.744 OA
ENDBRANCH  88  89
ENDBRANCH  56  81
BRANCH  68  93
ATOM     93  C   UNL A   1      40.033  33.658  37.252  1.00  0.00     0.058 A 
ATOM     94  C   UNL A   1      40.661  34.904  37.404  1.00  0.00     0.135 A 
ATOM     95  C   UNL A   1      39.052  33.302  38.193  1.00  0.00     0.135 A 
ATOM     96  F   UNL A   1      41.610  35.293  36.536  1.00  0.00    -0.206 F 
ATOM     97  C   UNL A   1      40.344  35.755  38.459  1.00  0.00     0.059 A 
ATOM     98  C   UNL A   1      38.696  34.151  39.237  1.00  0.00     0.059 A 
ATOM     99  F   UNL A   1      38.411  32.127  38.090  1.00  0.00    -0.206 F 
ATOM    100  C   UNL A   1      39.355  35.372  39.367  1.00  0.00     0.060 A 
BRANCH 100 101
ATOM    101  S   UNL A   1      38.924  36.505  40.705  1.00  0.00     0.124 S 
ATOM    102  O   UNL A   1      37.828  35.794  41.353  1.00  0.00    -0.237 OA
ATOM    103  O   UNL A   1      40.170  36.578  41.463  1.00  0.00    -0.237 OA
ATOM    104  O   UNL A   1      38.550  37.731  40.007  1.00  0.00    -0.744 OA
ENDBRANCH 100 101
ENDBRANCH  68  93
ENDBRANCH  42  43
ENDBRANCH  35  37
ENDBRANCH  34  35
ENDBRANCH  33  34
ENDBRANCH  32  33
ENDBRANCH  31  32
ENDBRANCH  30  31
ENDBRANCH  29  30
ENDBRANCH  28  29
ENDBRANCH   1  28
TORSDOF 28
ENDMDL
MODEL 2
REMARK VINA RESULT:      -8.5      4.661      9.444
REMARK SMILES CN(CC(=O)N[C@H]1C=C[C@H](C(=O)OCCOCCOCCOCCOC(=O)c2ccc(-c3c4nc(c(-c5c(F)cc(S(=O)(=O)[O-])cc5F)c5ccc([nH]5)c(-c5c(F)cc(S(=O)(=O)[O-])cc5F)c5nc(c(-c6c(F)cc(S(=O)(=O)[O-])cc6F)c6ccc3[nH]6)C=C5)C=C4)cc2)C1)C(=O)c1cccs1
REMARK SMILES IDX 18 1 17 2 16 3 15 4 14 5 13 6 11 7 12 8 10 9 7 10 8 11 94 12
REMARK SMILES IDX 9 13 6 14 4 15 5 16 3 18 2 19 1 20 95 21 96 22 97 23 98 24
REMARK SMILES IDX 101 25 99 26 100 27 19 28 20 29 21 30 22 31 23 32 24 33
REMARK SMILES IDX 25 34 26 35 27 36 28 37 29 38 93 39 30 40 92 41 31 42 32 43
REMARK SMILES IDX 33 44 86 45 34 46 91 47 85 48 87 49 35 50 90 51 84 52 83 53
REMARK SMILES IDX 36 55 70 56 49 57 69 58 50 59 53 60 68 61 88 62 51 63 52 64
REMARK SMILES IDX 67 66 89 67 54 68 37 69 38 70 47 71 39 72 40 73 46 74 48 75
REMARK SMILES IDX 41 76 42 77 43 78 44 79 45 80 71 81 72 82 81 83 73 84 74 85
REMARK SMILES IDX 80 86 82 87 75 88 76 89 77 90 78 91 79 92 55 93 56 94 65 95
REMARK SMILES IDX 57 96 58 97 64 98 66 99 59 100 60 101 61 102 62 103 63 104
REMARK H PARENT 6 17 87 54 53 65
REMARK Flexibility Score: inf
ROOT
ATOM      1  C   UNL A   1      41.705  20.859  26.666  1.00  0.00     0.188 C 
ENDROOT
BRANCH   1   2
ATOM      2  C   UNL A   1      41.433  21.984  27.680  1.00  0.00     0.188 C 
BRANCH   2   3
ATOM      3  O   UNL A   1      40.148  22.580  27.794  1.00  0.00    -0.376 OA
BRANCH   3   4
ATOM      4  C   UNL A   1      39.736  23.582  26.877  1.00  0.00     0.202 C 
BRANCH   4   5
ATOM      5  C   UNL A   1      38.954  24.808  27.380  1.00  0.00     0.261 C 
BRANCH   5   6
ATOM      6  O   UNL A   1      39.541  25.543  28.475  1.00  0.00    -0.463 OA
BRANCH   6   7
ATOM      7  C   UNL A   1      39.887  26.831  28.229  1.00  0.00     0.312 C 
ATOM      8  O   UNL A   1      40.213  27.258  27.124  1.00  0.00    -0.252 OA
BRANCH   7   9
ATOM      9  C   UNL A   1      39.811  27.751  29.459  1.00  0.00     0.124 C 
ATOM     10  C   UNL A   1      38.337  29.687  29.996  1.00  0.00     0.106 C 
ATOM     11  C   UNL A   1      39.651  30.115  29.431  1.00  0.00    -0.006 C 
ATOM     12  C   UNL A   1      38.438  28.146  30.045  1.00  0.00     0.048 C 
ATOM     13  C   UNL A   1      40.442  29.079  29.136  1.00  0.00    -0.014 C 
BRANCH  10  14
ATOM     14  N   UNL A   1      38.189  30.284  31.299  1.00  0.00    -0.348 N 
ATOM     15  C   UNL A   1      37.158  31.019  31.803  1.00  0.00     0.240 C 
ATOM     16  O   UNL A   1      37.150  31.198  33.025  1.00  0.00    -0.273 OA
ATOM     17  H   UNL A   1      38.942  30.139  31.916  1.00  0.00     0.164 HD
BRANCH  15  18
ATOM     18  C   UNL A   1      35.979  31.493  30.934  1.00  0.00     0.219 C 
BRANCH  18  19
ATOM     19  N   UNL A   1      35.581  32.900  31.068  1.00  0.00    -0.332 N 
ATOM     20  C   UNL A   1      36.039  33.826  30.047  1.00  0.00     0.147 C 
BRANCH  19  21
ATOM     21  C   UNL A   1      34.524  33.364  31.873  1.00  0.00     0.264 C 
ATOM     22  O   UNL A   1      33.967  32.601  32.665  1.00  0.00    -0.268 OA
BRANCH  21  23
ATOM     23  C   UNL A   1      34.149  34.763  31.790  1.00  0.00     0.092 A 
ATOM     24  C   UNL A   1      34.289  35.788  32.703  1.00  0.00     0.025 A 
ATOM     25  S   UNL A   1      33.473  35.328  30.317  1.00  0.00    -0.139 S 
ATOM     26  C   UNL A   1      33.739  37.014  32.229  1.00  0.00     0.012 A 
ATOM     27  C   UNL A   1      33.266  36.904  30.941  1.00  0.00     0.065 A 
ENDBRANCH  21  23
ENDBRANCH  19  21
ENDBRANCH  18  19
ENDBRANCH  15  18
ENDBRANCH  10  14
ENDBRANCH   7   9
ENDBRANCH   6   7
ENDBRANCH   5   6
ENDBRANCH   4   5
ENDBRANCH   3   4
ENDBRANCH   2   3
ENDBRANCH   1   2
BRANCH   1  28
ATOM     28  O   UNL A   1      41.862  19.557  27.191  1.00  0.00    -0.377 OA
BRANCH  28  29
ATOM     29  C   UNL A   1      42.719  18.678  26.473  1.00  0.00     0.188 C 
BRANCH  29  30
ATOM     30  C   UNL A   1      43.532  19.281  25.317  1.00  0.00     0.188 C 
BRANCH  30  31
ATOM     31  O   UNL A   1      44.891  18.854  25.324  1.00  0.00    -0.376 OA
BRANCH  31  32
ATOM     32  C   UNL A   1      45.909  19.812  25.078  1.00  0.00     0.202 C 
BRANCH  32  33
ATOM     33  C   UNL A   1      45.578  21.016  24.180  1.00  0.00     0.261 C 
BRANCH  33  34
ATOM     34  O   UNL A   1      45.506  22.298  24.821  1.00  0.00    -0.460 OA
BRANCH  34  35
ATOM     35  C   UNL A   1      44.374  23.015  24.677  1.00  0.00     0.338 C 
ATOM     36  O   UNL A   1      43.427  22.746  23.955  1.00  0.00    -0.246 OA
BRANCH  35  37
ATOM     37  C   UNL A   1      44.373  24.067  25.721  1.00  0.00     0.060 A 
ATOM     38  C   UNL A   1      45.600  24.524  26.219  1.00  0.00     0.016 A 
ATOM     39  C   UNL A   1      43.177  24.612  26.200  1.00  0.00     0.016 A 
ATOM     40  C   UNL A   1      45.636  25.496  27.220  1.00  0.00     0.010 A 
ATOM     41  C   UNL A   1      43.214  25.572  27.220  1.00  0.00     0.010 A 
ATOM     42  C   UNL A   1      44.443  25.994  27.761  1.00  0.00    -0.014 A 
BRANCH  42  43
ATOM     43  C   UNL A   1      44.480  26.783  29.022  1.00  0.00     0.031 A 
ATOM     44  C   UNL A   1      44.669  26.039  30.320  1.00  0.00     0.074 A 
ATOM     45  C   UNL A   1      44.400  28.128  29.026  1.00  0.00     0.049 A 
ATOM     46  N   UNL A   1      44.681  26.493  31.546  1.00  0.00    -0.248 NA
ATOM     47  C   UNL A   1      44.875  24.583  30.218  1.00  0.00     0.031 C 
ATOM     48  C   UNL A   1      44.276  28.973  27.840  1.00  0.00     0.029 A 
ATOM     49  N   UNL A   1      44.407  29.019  30.073  1.00  0.00    -0.354 N 
ATOM     50  C   UNL A   1      44.906  25.387  32.357  1.00  0.00     0.074 A 
ATOM     51  C   UNL A   1      44.978  24.232  31.489  1.00  0.00     0.031 C 
ATOM     52  C   UNL A   1      44.201  30.261  28.227  1.00  0.00     0.029 A 
ATOM     53  C   UNL A   1      44.237  30.329  29.688  1.00  0.00     0.049 A 
ATOM     54  H   UNL A   1      44.524  28.745  31.011  1.00  0.00     0.167 HD
ATOM     55  C   UNL A   1      45.059  25.336  33.701  1.00  0.00     0.037 A 
ATOM     56  C   UNL A   1      44.097  31.448  30.431  1.00  0.00     0.037 A 
ATOM     57  C   UNL A   1      44.980  26.482  34.567  1.00  0.00     0.049 A 
ATOM     58  C   UNL A   1      44.158  31.348  31.939  1.00  0.00     0.074 A 
ATOM     59  C   UNL A   1      45.099  26.528  35.946  1.00  0.00     0.029 A 
ATOM     60  N   UNL A   1      44.767  27.785  34.143  1.00  0.00    -0.354 N 
ATOM     61  N   UNL A   1      44.374  30.295  32.691  1.00  0.00    -0.248 NA
ATOM     62  C   UNL A   1      43.957  32.592  32.699  1.00  0.00     0.031 C 
ATOM     63  C   UNL A   1      44.910  27.850  36.358  1.00  0.00     0.029 A 
ATOM     64  C   UNL A   1      44.734  28.637  35.232  1.00  0.00     0.049 A 
ATOM     65  H   UNL A   1      44.656  28.061  33.204  1.00  0.00     0.167 HD
ATOM     66  C   UNL A   1      44.374  30.758  34.005  1.00  0.00     0.074 A 
ATOM     67  C   UNL A   1      44.151  32.186  33.946  1.00  0.00     0.031 C 
ATOM     68  C   UNL A   1      44.542  30.063  35.159  1.00  0.00     0.037 A 
BRANCH  55  69
ATOM     69  C   UNL A   1      45.326  23.995  34.327  1.00  0.00     0.058 A 
ATOM     70  C   UNL A   1      46.620  23.616  34.719  1.00  0.00     0.135 A 
ATOM     71  C   UNL A   1      44.273  23.108  34.599  1.00  0.00     0.135 A 
ATOM     72  F   UNL A   1      47.667  24.417  34.462  1.00  0.00    -0.206 F 
ATOM     73  C   UNL A   1      46.860  22.402  35.352  1.00  0.00     0.059 A 
ATOM     74  C   UNL A   1      44.486  21.900  35.256  1.00  0.00     0.059 A 
ATOM     75  F   UNL A   1      43.017  23.418  34.238  1.00  0.00    -0.206 F 
ATOM     76  C   UNL A   1      45.785  21.553  35.624  1.00  0.00     0.060 A 
BRANCH  76  77
ATOM     77  S   UNL A   1      46.113  20.002  36.485  1.00  0.00     0.124 S 
ATOM     78  O   UNL A   1      47.535  19.814  36.217  1.00  0.00    -0.237 OA
ATOM     79  O   UNL A   1      45.767  20.334  37.864  1.00  0.00    -0.237 OA
ATOM     80  O   UNL A   1      45.221  19.052  35.828  1.00  0.00    -0.744 OA
ENDBRANCH  76  77
ENDBRANCH  55  69
BRANCH  56  81
ATOM     81  C   UNL A   1      43.843  32.767  29.783  1.00  0.00     0.058 A 
ATOM     82  C   UNL A   1      42.543  33.284  29.660  1.00  0.00     0.135 A 
ATOM     83  C   UNL A   1      44.890  33.502  29.204  1.00  0.00     0.135 A 
ATOM     84  F   UNL A   1      41.505  32.616  30.185  1.00  0.00    -0.206 F 
ATOM     85  C   UNL A   1      42.285  34.454  28.952  1.00  0.00     0.059 A 
ATOM     86  C   UNL A   1      44.662  34.692  28.521  1.00  0.00     0.059 A 
ATOM     87  F   UNL A   1      46.155  33.062  29.298  1.00  0.00    -0.206 F 
ATOM     88  C   UNL A   1      43.353  35.148  28.380  1.00  0.00     0.060 A 
BRANCH  88  89
ATOM     89  S   UNL A   1      43.009  36.661  27.455  1.00  0.00     0.124 S 
ATOM     90  O   UNL A   1      44.346  37.221  27.303  1.00  0.00    -0.237 OA
ATOM     91  O   UNL A   1      42.390  36.142  26.239  1.00  0.00    -0.237 OA
ATOM     92  O   UNL A   1      42.112  37.397  28.341  1.00  0.00    -0.744 OA
ENDBRANCH  88  89
ENDBRANCH  56  81
BRANCH  68  93
ATOM     93  C   UNL A   1      44.551  30.836  36.452  1.00  0.00     0.058 A 
ATOM     94  C   UNL A   1      43.380  31.060  37.192  1.00  0.00     0.135 A 
ATOM     95  C   UNL A   1      45.763  31.300  36.991  1.00  0.00     0.135 A 
ATOM     96  F   UNL A   1      42.193  30.641  36.722  1.00  0.00    -0.206 F 
ATOM     97  C   UNL A   1      43.406  31.736  38.407  1.00  0.00     0.059 A 
ATOM     98  C   UNL A   1      45.816  31.950  38.220  1.00  0.00     0.059 A 
ATOM     99  F   UNL A   1      46.916  31.102  36.332  1.00  0.00    -0.206 F 
ATOM    100  C   UNL A   1      44.630  32.172  38.917  1.00  0.00     0.060 A 
BRANCH 100 101
ATOM    101  S   UNL A   1      44.653  33.010  40.516  1.00  0.00     0.124 S 
ATOM    102  O   UNL A   1      46.085  33.126  40.769  1.00  0.00    -0.237 OA
ATOM    103  O   UNL A   1      43.957  34.260  40.221  1.00  0.00    -0.237 OA
ATOM    104  O   UNL A   1      43.934  32.092  41.393  1.00  0.00    -0.744 OA
ENDBRANCH 100 101
ENDBRANCH  68  93
ENDBRANCH  42  43
ENDBRANCH  35  37
ENDBRANCH  34  35
ENDBRANCH  33  34
ENDBRANCH  32  33
ENDBRANCH  31  32
ENDBRANCH  30  31
ENDBRANCH  29  30
ENDBRANCH  28  29
ENDBRANCH   1  28
TORSDOF 28
ENDMDL
MODEL 3
REMARK VINA RESULT:      -8.4      6.484      8.931
REMARK SMILES CN(CC(=O)N[C@H]1C=C[C@H](C(=O)OCCOCCOCCOCCOC(=O)c2ccc(-c3c4nc(c(-c5c(F)cc(S(=O)(=O)[O-])cc5F)c5ccc([nH]5)c(-c5c(F)cc(S(=O)(=O)[O-])cc5F)c5nc(c(-c6c(F)cc(S(=O)(=O)[O-])cc6F)c6ccc3[nH]6)C=C5)C=C4)cc2)C1)C(=O)c1cccs1
REMARK SMILES IDX 18 1 17 2 16 3 15 4 14 5 13 6 11 7 12 8 10 9 7 10 8 11 94 12
REMARK SMILES IDX 9 13 6 14 4 15 5 16 3 18 2 19 1 20 95 21 96 22 97 23 98 24
REMARK SMILES IDX 101 25 99 26 100 27 19 28 20 29 21 30 22 31 23 32 24 33
REMARK SMILES IDX 25 34 26 35 27 36 28 37 29 38 93 39 30 40 92 41 31 42 32 43
REMARK SMILES IDX 33 44 86 45 34 46 91 47 85 48 87 49 35 50 90 51 84 52 83 53
REMARK SMILES IDX 36 55 70 56 49 57 69 58 50 59 53 60 68 61 88 62 51 63 52 64
REMARK SMILES IDX 67 66 89 67 54 68 37 69 38 70 47 71 39 72 40 73 46 74 48 75
REMARK SMILES IDX 41 76 42 77 43 78 44 79 45 80 71 81 72 82 81 83 73 84 74 85
REMARK SMILES IDX 80 86 82 87 75 88 76 89 77 90 78 91 79 92 55 93 56 94 65 95
REMARK SMILES IDX 57 96 58 97 64 98 66 99 59 100 60 101 61 102 62 103 63 104
REMARK H PARENT 6 17 87 54 53 65
REMARK Flexibility Score: inf
ROOT
ATOM      1  C   UNL A   1      41.191  21.376  26.743  1.00  0.00     0.188 C 
ENDROOT
BRANCH   1   2
ATOM      2  C   UNL A   1      39.712  21.512  26.341  1.00  0.00     0.188 C 
BRANCH   2   3
ATOM      3  O   UNL A   1      39.067  22.778  26.319  1.00  0.00    -0.376 OA
BRANCH   3   4
ATOM      4  C   UNL A   1      37.772  22.917  25.755  1.00  0.00     0.202 C 
BRANCH   4   5
ATOM      5  C   UNL A   1      37.354  22.036  24.565  1.00  0.00     0.261 C 
BRANCH   5   6
ATOM      6  O   UNL A   1      35.949  21.725  24.454  1.00  0.00    -0.463 OA
BRANCH   6   7
ATOM      7  C   UNL A   1      35.170  22.638  23.823  1.00  0.00     0.312 C 
ATOM      8  O   UNL A   1      35.497  23.231  22.797  1.00  0.00    -0.252 OA
BRANCH   7   9
ATOM      9  C   UNL A   1      33.799  22.862  24.482  1.00  0.00     0.124 C 
ATOM     10  C   UNL A   1      33.030  24.490  26.205  1.00  0.00     0.106 C 
ATOM     11  C   UNL A   1      33.391  23.167  26.796  1.00  0.00    -0.006 C 
ATOM     12  C   UNL A   1      33.266  24.297  24.691  1.00  0.00     0.048 C 
ATOM     13  C   UNL A   1      33.810  22.294  25.874  1.00  0.00    -0.014 C 
BRANCH  10  14
ATOM     14  N   UNL A   1      31.655  24.770  26.529  1.00  0.00    -0.348 N 
ATOM     15  C   UNL A   1      30.898  25.861  26.220  1.00  0.00     0.240 C 
ATOM     16  O   UNL A   1      29.678  25.753  26.385  1.00  0.00    -0.273 OA
ATOM     17  H   UNL A   1      31.195  24.073  27.050  1.00  0.00     0.164 HD
BRANCH  15  18
ATOM     18  C   UNL A   1      31.491  27.122  25.567  1.00  0.00     0.219 C 
BRANCH  18  19
ATOM     19  N   UNL A   1      31.693  28.286  26.437  1.00  0.00    -0.332 N 
ATOM     20  C   UNL A   1      31.479  28.103  27.862  1.00  0.00     0.147 C 
BRANCH  19  21
ATOM     21  C   UNL A   1      32.407  29.444  26.079  1.00  0.00     0.264 C 
ATOM     22  O   UNL A   1      31.964  30.202  25.212  1.00  0.00    -0.268 OA
BRANCH  21  23
ATOM     23  C   UNL A   1      33.636  29.753  26.787  1.00  0.00     0.092 A 
ATOM     24  C   UNL A   1      34.795  29.020  26.939  1.00  0.00     0.025 A 
ATOM     25  S   UNL A   1      33.770  31.295  27.527  1.00  0.00    -0.139 S 
ATOM     26  C   UNL A   1      35.752  29.687  27.759  1.00  0.00     0.012 A 
ATOM     27  C   UNL A   1      35.322  30.937  28.142  1.00  0.00     0.065 A 
ENDBRANCH  21  23
ENDBRANCH  19  21
ENDBRANCH  18  19
ENDBRANCH  15  18
ENDBRANCH  10  14
ENDBRANCH   7   9
ENDBRANCH   6   7
ENDBRANCH   5   6
ENDBRANCH   4   5
ENDBRANCH   3   4
ENDBRANCH   2   3
ENDBRANCH   1   2
BRANCH   1  28
ATOM     28  O   UNL A   1      41.811  20.138  26.465  1.00  0.00    -0.377 OA
BRANCH  28  29
ATOM     29  C   UNL A   1      43.064  20.188  25.793  1.00  0.00     0.188 C 
BRANCH  29  30
ATOM     30  C   UNL A   1      43.708  21.571  25.613  1.00  0.00     0.188 C 
BRANCH  30  31
ATOM     31  O   UNL A   1      45.005  21.498  25.032  1.00  0.00    -0.376 OA
BRANCH  31  32
ATOM     32  C   UNL A   1      45.339  22.402  23.989  1.00  0.00     0.202 C 
BRANCH  32  33
ATOM     33  C   UNL A   1      46.427  23.457  24.255  1.00  0.00     0.261 C 
BRANCH  33  34
ATOM     34  O   UNL A   1      46.064  24.558  25.100  1.00  0.00    -0.460 OA
BRANCH  34  35
ATOM     35  C   UNL A   1      46.798  24.774  26.209  1.00  0.00     0.338 C 
ATOM     36  O   UNL A   1      47.580  23.995  26.729  1.00  0.00    -0.246 OA
BRANCH  35  37
ATOM     37  C   UNL A   1      46.668  26.208  26.562  1.00  0.00     0.060 A 
ATOM     38  C   UNL A   1      47.140  26.641  27.807  1.00  0.00     0.016 A 
ATOM     39  C   UNL A   1      46.099  27.124  25.671  1.00  0.00     0.016 A 
ATOM     40  C   UNL A   1      47.012  27.981  28.182  1.00  0.00     0.010 A 
ATOM     41  C   UNL A   1      45.952  28.463  26.058  1.00  0.00     0.010 A 
ATOM     42  C   UNL A   1      46.376  28.892  27.329  1.00  0.00    -0.014 A 
BRANCH  42  43
ATOM     43  C   UNL A   1      45.965  30.225  27.851  1.00  0.00     0.031 A 
ATOM     44  C   UNL A   1      46.909  31.385  27.658  1.00  0.00     0.074 A 
ATOM     45  C   UNL A   1      44.768  30.424  28.436  1.00  0.00     0.049 A 
ATOM     46  N   UNL A   1      46.803  32.621  28.067  1.00  0.00    -0.248 NA
ATOM     47  C   UNL A   1      48.140  31.109  26.897  1.00  0.00     0.031 C 
ATOM     48  C   UNL A   1      43.739  29.404  28.631  1.00  0.00     0.029 A 
ATOM     49  N   UNL A   1      44.220  31.561  28.980  1.00  0.00    -0.354 N 
ATOM     50  C   UNL A   1      47.941  33.272  27.606  1.00  0.00     0.074 A 
ATOM     51  C   UNL A   1      48.749  32.283  26.926  1.00  0.00     0.031 C 
ATOM     52  C   UNL A   1      42.690  29.959  29.267  1.00  0.00     0.029 A 
ATOM     53  C   UNL A   1      42.986  31.363  29.555  1.00  0.00     0.049 A 
ATOM     54  H   UNL A   1      44.669  32.437  28.959  1.00  0.00     0.167 HD
ATOM     55  C   UNL A   1      48.278  34.578  27.720  1.00  0.00     0.037 A 
ATOM     56  C   UNL A   1      42.202  32.208  30.257  1.00  0.00     0.037 A 
ATOM     57  C   UNL A   1      47.480  35.562  28.402  1.00  0.00     0.049 A 
ATOM     58  C   UNL A   1      42.655  33.636  30.469  1.00  0.00     0.074 A 
ATOM     59  C   UNL A   1      47.749  36.907  28.591  1.00  0.00     0.029 A 
ATOM     60  N   UNL A   1      46.257  35.312  29.005  1.00  0.00    -0.354 N 
ATOM     61  N   UNL A   1      43.733  34.237  30.024  1.00  0.00    -0.248 NA
ATOM     62  C   UNL A   1      41.781  34.501  31.277  1.00  0.00     0.031 C 
ATOM     63  C   UNL A   1      46.712  37.459  29.348  1.00  0.00     0.029 A 
ATOM     64  C   UNL A   1      45.768  36.473  29.580  1.00  0.00     0.049 A 
ATOM     65  H   UNL A   1      45.803  34.438  29.022  1.00  0.00     0.167 HD
ATOM     66  C   UNL A   1      43.644  35.555  30.465  1.00  0.00     0.074 A 
ATOM     67  C   UNL A   1      42.403  35.669  31.199  1.00  0.00     0.031 C 
ATOM     68  C   UNL A   1      44.514  36.581  30.281  1.00  0.00     0.037 A 
BRANCH  55  69
ATOM     69  C   UNL A   1      49.569  35.027  27.094  1.00  0.00     0.058 A 
ATOM     70  C   UNL A   1      50.783  34.961  27.795  1.00  0.00     0.135 A 
ATOM     71  C   UNL A   1      49.605  35.463  25.760  1.00  0.00     0.135 A 
ATOM     72  F   UNL A   1      50.803  34.573  29.080  1.00  0.00    -0.206 F 
ATOM     73  C   UNL A   1      51.987  35.319  27.198  1.00  0.00     0.059 A 
ATOM     74  C   UNL A   1      50.802  35.800  25.134  1.00  0.00     0.059 A 
ATOM     75  F   UNL A   1      48.471  35.552  25.047  1.00  0.00    -0.206 F 
ATOM     76  C   UNL A   1      51.987  35.729  25.863  1.00  0.00     0.060 A 
BRANCH  76  77
ATOM     77  S   UNL A   1      53.565  36.148  25.094  1.00  0.00     0.124 S 
ATOM     78  O   UNL A   1      53.142  36.539  23.753  1.00  0.00    -0.237 OA
ATOM     79  O   UNL A   1      54.047  37.231  25.947  1.00  0.00    -0.237 OA
ATOM     80  O   UNL A   1      54.324  34.905  25.174  1.00  0.00    -0.744 OA
ENDBRANCH  76  77
ENDBRANCH  55  69
BRANCH  56  81
ATOM     81  C   UNL A   1      40.920  31.739  30.858  1.00  0.00     0.058 A 
ATOM     82  C   UNL A   1      40.904  30.920  31.999  1.00  0.00     0.135 A 
ATOM     83  C   UNL A   1      39.687  32.036  30.256  1.00  0.00     0.135 A 
ATOM     84  F   UNL A   1      42.055  30.594  32.607  1.00  0.00    -0.206 F 
ATOM     85  C   UNL A   1      39.720  30.380  32.495  1.00  0.00     0.059 A 
ATOM     86  C   UNL A   1      38.487  31.536  30.754  1.00  0.00     0.059 A 
ATOM     87  F   UNL A   1      39.640  32.822  29.169  1.00  0.00    -0.206 F 
ATOM     88  C   UNL A   1      38.517  30.689  31.859  1.00  0.00     0.060 A 
BRANCH  88  89
ATOM     89  S   UNL A   1      36.986  29.977  32.503  1.00  0.00     0.124 S 
ATOM     90  O   UNL A   1      36.428  31.103  33.241  1.00  0.00    -0.237 OA
ATOM     91  O   UNL A   1      36.285  29.604  31.278  1.00  0.00    -0.237 OA
ATOM     92  O   UNL A   1      37.454  28.857  33.314  1.00  0.00    -0.744 OA
ENDBRANCH  88  89
ENDBRANCH  56  81
BRANCH  68  93
ATOM     93  C   UNL A   1      44.136  37.932  30.828  1.00  0.00     0.058 A 
ATOM     94  C   UNL A   1      43.412  38.865  30.069  1.00  0.00     0.135 A 
ATOM     95  C   UNL A   1      44.446  38.272  32.156  1.00  0.00     0.135 A 
ATOM     96  F   UNL A   1      43.092  38.596  28.792  1.00  0.00    -0.206 F 
ATOM     97  C   UNL A   1      43.029  40.094  30.599  1.00  0.00     0.059 A 
ATOM     98  C   UNL A   1      44.046  39.481  32.716  1.00  0.00     0.059 A 
ATOM     99  F   UNL A   1      45.126  37.412  32.932  1.00  0.00    -0.206 F 
ATOM    100  C   UNL A   1      43.345  40.390  31.926  1.00  0.00     0.060 A 
BRANCH 100 101
ATOM    101  S   UNL A   1      42.804  41.970  32.612  1.00  0.00     0.124 S 
ATOM    102  O   UNL A   1      44.052  42.502  33.149  1.00  0.00    -0.237 OA
ATOM    103  O   UNL A   1      42.277  42.655  31.435  1.00  0.00    -0.237 OA
ATOM    104  O   UNL A   1      41.807  41.587  33.606  1.00  0.00    -0.744 OA
ENDBRANCH 100 101
ENDBRANCH  68  93
ENDBRANCH  42  43
ENDBRANCH  35  37
ENDBRANCH  34  35
ENDBRANCH  33  34
ENDBRANCH  32  33
ENDBRANCH  31  32
ENDBRANCH  30  31
ENDBRANCH  29  30
ENDBRANCH  28  29
ENDBRANCH   1  28
TORSDOF 28
ENDMDL
