MODEL 1
REMARK VINA RESULT:      -9.1      0.000      0.000
REMARK SMILES CC[NH2+][C@]1(C(=O)OCCOCCOCCOCCOC(=O)c2ccc(-c3c4nc(c(-c5c(F)cc(S(=O)(=O)[O-])cc5F)c5ccc([nH]5)c(-c5c(F)cc(S(=O)(=O)[O-])cc5F)c5nc(c(-c6c(F)cc(S(=O)(=O)[O-])cc6F)c6ccc3[nH]6)C=C5)C=C4)cc2)CCC[C@H]([N@@H+]2CCC[C@@H]2C(C)C)C1
REMARK SMILES IDX 14 1 13 2 12 3 11 4 10 5 9 6 8 7 7 8 5 9 6 10 4 11 88 12
REMARK SMILES IDX 100 13 89 14 91 15 90 16 3 17 2 20 1 21 92 22 93 23 96 24
REMARK SMILES IDX 94 26 95 27 97 28 98 29 99 30 15 31 16 32 17 33 18 34 19 35
REMARK SMILES IDX 20 36 21 37 22 38 23 39 87 40 24 41 86 42 25 43 26 44 27 45
REMARK SMILES IDX 80 46 28 47 85 48 79 49 81 50 29 51 84 52 78 53 77 54 30 56
REMARK SMILES IDX 64 57 43 58 63 59 44 60 47 61 62 62 82 63 45 64 46 65 61 67
REMARK SMILES IDX 83 68 48 69 31 70 32 71 41 72 33 73 34 74 40 75 42 76 35 77
REMARK SMILES IDX 36 78 37 79 38 80 39 81 65 82 66 83 75 84 67 85 68 86 74 87
REMARK SMILES IDX 76 88 69 89 70 90 71 91 72 92 73 93 49 94 50 95 59 96 51 97
REMARK SMILES IDX 52 98 58 99 60 100 53 101 54 102 55 103 56 104 57 105
REMARK H PARENT 3 18 3 19 92 25 81 55 47 66
REMARK Flexibility Score: inf
ROOT
ATOM      1  C   UNL A   1      33.880  35.729  30.968  1.00  0.00     0.188 C 
ENDROOT
BRANCH   1   2
ATOM      2  O   UNL A   1      34.226  35.346  29.646  1.00  0.00    -0.377 OA
BRANCH   2   3
ATOM      3  C   UNL A   1      33.166  35.145  28.746  1.00  0.00     0.188 C 
BRANCH   3   4
ATOM      4  C   UNL A   1      33.152  33.767  28.065  1.00  0.00     0.188 C 
BRANCH   4   5
ATOM      5  O   UNL A   1      33.993  32.820  28.726  1.00  0.00    -0.376 OA
BRANCH   5   6
ATOM      6  C   UNL A   1      34.700  31.891  27.899  1.00  0.00     0.202 C 
BRANCH   6   7
ATOM      7  C   UNL A   1      34.125  30.473  27.775  1.00  0.00     0.261 C 
BRANCH   7   8
ATOM      8  O   UNL A   1      33.685  30.247  26.429  1.00  0.00    -0.459 OA
BRANCH   8   9
ATOM      9  C   UNL A   1      32.399  29.983  26.071  1.00  0.00     0.368 C 
ATOM     10  O   UNL A   1      31.504  30.815  26.033  1.00  0.00    -0.245 OA
BRANCH   9  11
ATOM     11  C   UNL A   1      32.299  28.484  25.599  1.00  0.00     0.200 C 
ATOM     12  C   UNL A   1      33.692  28.103  24.963  1.00  0.00     0.081 C 
ATOM     13  C   UNL A   1      32.152  27.472  26.720  1.00  0.00     0.146 C 
ATOM     14  C   UNL A   1      34.325  26.711  24.901  1.00  0.00     0.013 C 
ATOM     15  C   UNL A   1      32.369  26.008  26.189  1.00  0.00     0.191 C 
ATOM     16  C   UNL A   1      33.853  25.789  25.976  1.00  0.00     0.065 C 
BRANCH  11  17
ATOM     17  N   UNL A   1      31.067  28.268  24.789  1.00  0.00    -0.332 N 
ATOM     18  H   UNL A   1      30.855  27.273  24.861  1.00  0.00     0.347 HD
ATOM     19  H   UNL A   1      30.436  28.958  25.196  1.00  0.00     0.347 HD
BRANCH  17  20
ATOM     20  C   UNL A   1      30.973  28.594  23.377  1.00  0.00     0.257 C 
ATOM     21  C   UNL A   1      29.542  28.274  22.922  1.00  0.00     0.071 C 
ENDBRANCH  17  20
ENDBRANCH  11  17
BRANCH  15  22
ATOM     22  N   UNL A   1      31.477  25.473  25.120  1.00  0.00    -0.330 N 
ATOM     23  C   UNL A   1      30.478  24.571  25.732  1.00  0.00     0.262 C 
ATOM     24  C   UNL A   1      31.665  24.991  23.678  1.00  0.00     0.187 C 
ATOM     25  H   UNL A   1      31.401  26.437  24.797  1.00  0.00     0.348 HD
ATOM     26  C   UNL A   1      30.806  23.218  25.177  1.00  0.00     0.067 C 
ATOM     27  C   UNL A   1      31.153  23.521  23.750  1.00  0.00     0.071 C 
BRANCH  24  28
ATOM     28  C   UNL A   1      32.764  24.967  22.465  1.00  0.00     0.041 C 
ATOM     29  C   UNL A   1      32.935  23.526  21.877  1.00  0.00     0.014 C 
ATOM     30  C   UNL A   1      32.600  25.755  21.160  1.00  0.00     0.014 C 
ENDBRANCH  24  28
ENDBRANCH  15  22
ENDBRANCH   9  11
ENDBRANCH   8   9
ENDBRANCH   7   8
ENDBRANCH   6   7
ENDBRANCH   5   6
ENDBRANCH   4   5
ENDBRANCH   3   4
ENDBRANCH   2   3
ENDBRANCH   1   2
BRANCH   1  31
ATOM     31  C   UNL A   1      33.437  34.712  32.056  1.00  0.00     0.188 C 
BRANCH  31  32
ATOM     32  O   UNL A   1      34.446  34.148  32.887  1.00  0.00    -0.376 OA
BRANCH  32  33
ATOM     33  C   UNL A   1      34.903  32.832  32.601  1.00  0.00     0.202 C 
BRANCH  33  34
ATOM     34  C   UNL A   1      35.881  32.676  31.424  1.00  0.00     0.261 C 
BRANCH  34  35
ATOM     35  O   UNL A   1      36.673  31.482  31.444  1.00  0.00    -0.460 OA
BRANCH  35  36
ATOM     36  C   UNL A   1      37.765  31.509  32.251  1.00  0.00     0.338 C 
ATOM     37  O   UNL A   1      37.799  31.773  33.423  1.00  0.00    -0.246 OA
BRANCH  36  38
ATOM     38  C   UNL A   1      38.887  30.928  31.477  1.00  0.00     0.060 A 
ATOM     39  C   UNL A   1      39.750  30.044  32.139  1.00  0.00     0.016 A 
ATOM     40  C   UNL A   1      39.039  31.186  30.113  1.00  0.00     0.016 A 
ATOM     41  C   UNL A   1      40.788  29.436  31.441  1.00  0.00     0.010 A 
ATOM     42  C   UNL A   1      40.107  30.610  29.422  1.00  0.00     0.010 A 
ATOM     43  C   UNL A   1      41.006  29.764  30.097  1.00  0.00    -0.014 A 
BRANCH  43  44
ATOM     44  C   UNL A   1      42.336  29.472  29.514  1.00  0.00     0.031 A 
ATOM     45  C   UNL A   1      42.542  28.096  28.944  1.00  0.00     0.074 A 
ATOM     46  C   UNL A   1      43.300  30.405  29.429  1.00  0.00     0.049 A 
ATOM     47  N   UNL A   1      43.587  27.590  28.346  1.00  0.00    -0.248 NA
ATOM     48  C   UNL A   1      41.406  27.162  29.062  1.00  0.00     0.031 C 
ATOM     49  C   UNL A   1      43.195  31.783  29.903  1.00  0.00     0.029 A 
ATOM     50  N   UNL A   1      44.565  30.324  28.903  1.00  0.00    -0.354 N 
ATOM     51  C   UNL A   1      43.236  26.286  28.018  1.00  0.00     0.074 A 
ATOM     52  C   UNL A   1      41.895  26.065  28.508  1.00  0.00     0.031 C 
ATOM     53  C   UNL A   1      44.355  32.418  29.651  1.00  0.00     0.029 A 
ATOM     54  C   UNL A   1      45.289  31.486  29.020  1.00  0.00     0.049 A 
ATOM     55  H   UNL A   1      44.921  29.508  28.482  1.00  0.00     0.167 HD
ATOM     56  C   UNL A   1      43.962  25.356  27.356  1.00  0.00     0.037 A 
ATOM     57  C   UNL A   1      46.562  31.753  28.665  1.00  0.00     0.037 A 
ATOM     58  C   UNL A   1      45.300  25.578  26.880  1.00  0.00     0.049 A 
ATOM     59  C   UNL A   1      47.380  30.676  27.995  1.00  0.00     0.074 A 
ATOM     60  C   UNL A   1      46.122  24.707  26.192  1.00  0.00     0.029 A 
ATOM     61  N   UNL A   1      46.013  26.754  27.056  1.00  0.00    -0.354 N 
ATOM     62  N   UNL A   1      47.028  29.455  27.662  1.00  0.00    -0.248 NA
ATOM     63  C   UNL A   1      48.766  31.014  27.645  1.00  0.00     0.031 C 
ATOM     64  C   UNL A   1      47.357  25.337  26.001  1.00  0.00     0.029 A 
ATOM     65  C   UNL A   1      47.280  26.622  26.514  1.00  0.00     0.049 A 
ATOM     66  H   UNL A   1      45.671  27.562  27.502  1.00  0.00     0.167 HD
ATOM     67  C   UNL A   1      48.137  28.894  27.036  1.00  0.00     0.074 A 
ATOM     68  C   UNL A   1      49.167  29.912  27.028  1.00  0.00     0.031 C 
ATOM     69  C   UNL A   1      48.290  27.652  26.508  1.00  0.00     0.037 A 
BRANCH  56  70
ATOM     70  C   UNL A   1      43.333  24.007  27.151  1.00  0.00     0.058 A 
ATOM     71  C   UNL A   1      43.263  23.056  28.183  1.00  0.00     0.135 A 
ATOM     72  C   UNL A   1      42.788  23.663  25.904  1.00  0.00     0.135 A 
ATOM     73  F   UNL A   1      43.794  23.322  29.386  1.00  0.00    -0.206 F 
ATOM     74  C   UNL A   1      42.695  21.803  27.978  1.00  0.00     0.059 A 
ATOM     75  C   UNL A   1      42.190  22.426  25.685  1.00  0.00     0.059 A 
ATOM     76  F   UNL A   1      42.841  24.530  24.881  1.00  0.00    -0.206 F 
ATOM     77  C   UNL A   1      42.160  21.498  26.724  1.00  0.00     0.060 A 
BRANCH  77  78
ATOM     78  S   UNL A   1      41.422  19.871  26.475  1.00  0.00     0.124 S 
ATOM     79  O   UNL A   1      42.143  19.400  25.297  1.00  0.00    -0.237 OA
ATOM     80  O   UNL A   1      41.739  19.190  27.727  1.00  0.00    -0.237 OA
ATOM     81  O   UNL A   1      40.007  20.167  26.267  1.00  0.00    -0.744 OA
ENDBRANCH  77  78
ENDBRANCH  56  70
BRANCH  57  82
ATOM     82  C   UNL A   1      47.150  33.094  28.936  1.00  0.00     0.058 A 
ATOM     83  C   UNL A   1      47.824  33.366  30.136  1.00  0.00     0.135 A 
ATOM     84  C   UNL A   1      47.034  34.138  28.003  1.00  0.00     0.135 A 
ATOM     85  F   UNL A   1      47.949  32.406  31.066  1.00  0.00    -0.206 F 
ATOM     86  C   UNL A   1      48.347  34.626  30.412  1.00  0.00     0.059 A 
ATOM     87  C   UNL A   1      47.572  35.399  28.246  1.00  0.00     0.059 A 
ATOM     88  F   UNL A   1      46.405  33.932  26.837  1.00  0.00    -0.206 F 
ATOM     89  C   UNL A   1      48.218  35.636  29.458  1.00  0.00     0.060 A 
BRANCH  89  90
ATOM     90  S   UNL A   1      48.937  37.256  29.808  1.00  0.00     0.124 S 
ATOM     91  O   UNL A   1      50.284  36.895  30.233  1.00  0.00    -0.237 OA
ATOM     92  O   UNL A   1      48.832  37.922  28.513  1.00  0.00    -0.237 OA
ATOM     93  O   UNL A   1      48.067  37.791  30.851  1.00  0.00    -0.744 OA
ENDBRANCH  89  90
ENDBRANCH  57  82
BRANCH  69  94
ATOM     94  C   UNL A   1      49.599  27.336  25.838  1.00  0.00     0.058 A 
ATOM     95  C   UNL A   1      50.733  26.948  26.567  1.00  0.00     0.135 A 
ATOM     96  C   UNL A   1      49.701  27.370  24.436  1.00  0.00     0.135 A 
ATOM     97  F   UNL A   1      50.690  26.898  27.908  1.00  0.00    -0.206 F 
ATOM     98  C   UNL A   1      51.932  26.636  25.934  1.00  0.00     0.059 A 
ATOM     99  C   UNL A   1      50.882  27.032  23.782  1.00  0.00     0.059 A 
ATOM    100  F   UNL A   1      48.643  27.719  23.689  1.00  0.00    -0.206 F 
ATOM    101  C   UNL A   1      51.996  26.681  24.540  1.00  0.00     0.060 A 
BRANCH 101 102
ATOM    102  S   UNL A   1      53.552  26.255  23.729  1.00  0.00     0.124 S 
ATOM    103  O   UNL A   1      53.993  25.113  24.523  1.00  0.00    -0.237 OA
ATOM    104  O   UNL A   1      53.122  25.952  22.368  1.00  0.00    -0.237 OA
ATOM    105  O   UNL A   1      54.353  27.466  23.872  1.00  0.00    -0.744 OA
ENDBRANCH 101 102
ENDBRANCH  69  94
ENDBRANCH  43  44
ENDBRANCH  36  38
ENDBRANCH  35  36
ENDBRANCH  34  35
ENDBRANCH  33  34
ENDBRANCH  32  33
ENDBRANCH  31  32
ENDBRANCH   1  31
TORSDOF 27
ENDMDL
MODEL 2
REMARK VINA RESULT:      -9.1      1.774      8.278
REMARK SMILES CC[NH2+][C@]1(C(=O)OCCOCCOCCOCCOC(=O)c2ccc(-c3c4nc(c(-c5c(F)cc(S(=O)(=O)[O-])cc5F)c5ccc([nH]5)c(-c5c(F)cc(S(=O)(=O)[O-])cc5F)c5nc(c(-c6c(F)cc(S(=O)(=O)[O-])cc6F)c6ccc3[nH]6)C=C5)C=C4)cc2)CCC[C@H]([N@@H+]2CCC[C@@H]2C(C)C)C1
REMARK SMILES IDX 14 1 13 2 12 3 11 4 10 5 9 6 8 7 7 8 5 9 6 10 4 11 88 12
REMARK SMILES IDX 100 13 89 14 91 15 90 16 3 17 2 20 1 21 92 22 93 23 96 24
REMARK SMILES IDX 94 26 95 27 97 28 98 29 99 30 15 31 16 32 17 33 18 34 19 35
REMARK SMILES IDX 20 36 21 37 22 38 23 39 87 40 24 41 86 42 25 43 26 44 27 45
REMARK SMILES IDX 80 46 28 47 85 48 79 49 81 50 29 51 84 52 78 53 77 54 30 56
REMARK SMILES IDX 64 57 43 58 63 59 44 60 47 61 62 62 82 63 45 64 46 65 61 67
REMARK SMILES IDX 83 68 48 69 31 70 32 71 41 72 33 73 34 74 40 75 42 76 35 77
REMARK SMILES IDX 36 78 37 79 38 80 39 81 65 82 66 83 75 84 67 85 68 86 74 87
REMARK SMILES IDX 76 88 69 89 70 90 71 91 72 92 73 93 49 94 50 95 59 96 51 97
REMARK SMILES IDX 52 98 58 99 60 100 53 101 54 102 55 103 56 104 57 105
REMARK H PARENT 3 18 3 19 92 25 81 55 47 66
REMARK Flexibility Score: inf
ROOT
ATOM      1  C   UNL A   1      33.150  36.364  31.364  1.00  0.00     0.188 C 
ENDROOT
BRANCH   1   2
ATOM      2  O   UNL A   1      32.997  35.101  30.736  1.00  0.00    -0.377 OA
BRANCH   2   3
ATOM      3  C   UNL A   1      32.919  35.096  29.333  1.00  0.00     0.188 C 
BRANCH   3   4
ATOM      4  C   UNL A   1      34.225  34.712  28.617  1.00  0.00     0.188 C 
BRANCH   4   5
ATOM      5  O   UNL A   1      34.484  33.308  28.664  1.00  0.00    -0.376 OA
BRANCH   5   6
ATOM      6  C   UNL A   1      33.534  32.452  28.026  1.00  0.00     0.202 C 
BRANCH   6   7
ATOM      7  C   UNL A   1      34.079  31.251  27.238  1.00  0.00     0.261 C 
BRANCH   7   8
ATOM      8  O   UNL A   1      33.071  30.235  27.149  1.00  0.00    -0.459 OA
BRANCH   8   9
ATOM      9  C   UNL A   1      32.220  30.082  26.098  1.00  0.00     0.368 C 
ATOM     10  O   UNL A   1      31.476  30.954  25.673  1.00  0.00    -0.245 OA
BRANCH   9  11
ATOM     11  C   UNL A   1      32.452  28.662  25.459  1.00  0.00     0.200 C 
ATOM     12  C   UNL A   1      31.548  28.579  24.168  1.00  0.00     0.081 C 
ATOM     13  C   UNL A   1      33.847  28.431  24.909  1.00  0.00     0.146 C 
ATOM     14  C   UNL A   1      31.807  27.740  22.915  1.00  0.00     0.013 C 
ATOM     15  C   UNL A   1      33.897  27.129  24.028  1.00  0.00     0.191 C 
ATOM     16  C   UNL A   1      33.250  27.427  22.691  1.00  0.00     0.065 C 
BRANCH  11  17
ATOM     17  N   UNL A   1      32.317  27.593  26.489  1.00  0.00    -0.332 N 
ATOM     18  H   UNL A   1      32.698  26.746  26.066  1.00  0.00     0.347 HD
ATOM     19  H   UNL A   1      32.783  28.023  27.287  1.00  0.00     0.347 HD
BRANCH  17  20
ATOM     20  C   UNL A   1      31.047  27.206  27.076  1.00  0.00     0.257 C 
ATOM     21  C   UNL A   1      30.463  26.077  26.215  1.00  0.00     0.071 C 
ENDBRANCH  17  20
ENDBRANCH  11  17
BRANCH  15  22
ATOM     22  N   UNL A   1      33.543  25.814  24.638  1.00  0.00    -0.330 N 
ATOM     23  C   UNL A   1      34.590  25.436  25.611  1.00  0.00     0.262 C 
ATOM     24  C   UNL A   1      32.932  24.502  24.134  1.00  0.00     0.187 C 
ATOM     25  H   UNL A   1      32.612  26.206  24.774  1.00  0.00     0.348 HD
ATOM     26  C   UNL A   1      35.224  24.213  25.022  1.00  0.00     0.067 C 
ATOM     27  C   UNL A   1      34.050  23.468  24.463  1.00  0.00     0.071 C 
BRANCH  24  28
ATOM     28  C   UNL A   1      32.166  23.858  22.838  1.00  0.00     0.041 C 
ATOM     29  C   UNL A   1      33.123  23.751  21.604  1.00  0.00     0.014 C 
ATOM     30  C   UNL A   1      31.574  22.443  22.824  1.00  0.00     0.014 C 
ENDBRANCH  24  28
ENDBRANCH  15  22
ENDBRANCH   9  11
ENDBRANCH   8   9
ENDBRANCH   7   8
ENDBRANCH   6   7
ENDBRANCH   5   6
ENDBRANCH   4   5
ENDBRANCH   3   4
ENDBRANCH   2   3
ENDBRANCH   1   2
BRANCH   1  31
ATOM     31  C   UNL A   1      33.852  36.548  32.737  1.00  0.00     0.188 C 
BRANCH  31  32
ATOM     32  O   UNL A   1      35.111  35.909  32.930  1.00  0.00    -0.376 OA
BRANCH  32  33
ATOM     33  C   UNL A   1      35.236  34.962  33.983  1.00  0.00     0.202 C 
BRANCH  33  34
ATOM     34  C   UNL A   1      34.917  33.497  33.643  1.00  0.00     0.261 C 
BRANCH  34  35
ATOM     35  O   UNL A   1      35.915  32.820  32.870  1.00  0.00    -0.460 OA
BRANCH  35  36
ATOM     36  C   UNL A   1      35.452  32.022  31.872  1.00  0.00     0.338 C 
ATOM     37  O   UNL A   1      34.342  31.999  31.414  1.00  0.00    -0.246 OA
BRANCH  36  38
ATOM     38  C   UNL A   1      36.628  31.336  31.288  1.00  0.00     0.060 A 
ATOM     39  C   UNL A   1      37.520  30.705  32.167  1.00  0.00     0.016 A 
ATOM     40  C   UNL A   1      36.807  31.250  29.906  1.00  0.00     0.016 A 
ATOM     41  C   UNL A   1      38.613  30.007  31.661  1.00  0.00     0.010 A 
ATOM     42  C   UNL A   1      37.927  30.587  29.400  1.00  0.00     0.010 A 
ATOM     43  C   UNL A   1      38.851  29.998  30.281  1.00  0.00    -0.014 A 
BRANCH  43  44
ATOM     44  C   UNL A   1      40.213  29.652  29.812  1.00  0.00     0.031 A 
ATOM     45  C   UNL A   1      41.242  30.750  29.839  1.00  0.00     0.074 A 
ATOM     46  C   UNL A   1      40.546  28.405  29.440  1.00  0.00     0.049 A 
ATOM     47  N   UNL A   1      42.507  30.713  29.520  1.00  0.00    -0.248 NA
ATOM     48  C   UNL A   1      40.775  32.073  30.294  1.00  0.00     0.031 C 
ATOM     49  C   UNL A   1      39.647  27.254  29.420  1.00  0.00     0.029 A 
ATOM     50  N   UNL A   1      41.749  27.901  29.010  1.00  0.00    -0.354 N 
ATOM     51  C   UNL A   1      42.986  32.000  29.738  1.00  0.00     0.074 A 
ATOM     52  C   UNL A   1      41.871  32.804  30.184  1.00  0.00     0.031 C 
ATOM     53  C   UNL A   1      40.330  26.176  28.991  1.00  0.00     0.029 A 
ATOM     54  C   UNL A   1      41.706  26.566  28.686  1.00  0.00     0.049 A 
ATOM     55  H   UNL A   1      42.565  28.446  28.939  1.00  0.00     0.167 HD
ATOM     56  C   UNL A   1      44.245  32.469  29.588  1.00  0.00     0.037 A 
ATOM     57  C   UNL A   1      42.670  25.764  28.191  1.00  0.00     0.037 A 
ATOM     58  C   UNL A   1      45.348  31.668  29.133  1.00  0.00     0.049 A 
ATOM     59  C   UNL A   1      44.051  26.329  27.961  1.00  0.00     0.074 A 
ATOM     60  C   UNL A   1      46.666  32.042  28.953  1.00  0.00     0.029 A 
ATOM     61  N   UNL A   1      45.255  30.331  28.774  1.00  0.00    -0.354 N 
ATOM     62  N   UNL A   1      44.500  27.540  28.197  1.00  0.00    -0.248 NA
ATOM     63  C   UNL A   1      45.058  25.417  27.402  1.00  0.00     0.031 C 
ATOM     64  C   UNL A   1      47.360  30.946  28.430  1.00  0.00     0.029 A 
ATOM     65  C   UNL A   1      46.488  29.871  28.345  1.00  0.00     0.049 A 
ATOM     66  H   UNL A   1      44.434  29.790  28.816  1.00  0.00     0.167 HD
ATOM     67  C   UNL A   1      45.848  27.524  27.849  1.00  0.00     0.074 A 
ATOM     68  C   UNL A   1      46.142  26.181  27.394  1.00  0.00     0.031 C 
ATOM     69  C   UNL A   1      46.762  28.526  27.905  1.00  0.00     0.037 A 
BRANCH  56  70
ATOM     70  C   UNL A   1      44.479  33.925  29.881  1.00  0.00     0.058 A 
ATOM     71  C   UNL A   1      44.475  34.896  28.866  1.00  0.00     0.135 A 
ATOM     72  C   UNL A   1      44.703  34.353  31.199  1.00  0.00     0.135 A 
ATOM     73  F   UNL A   1      44.294  34.537  27.586  1.00  0.00    -0.206 F 
ATOM     74  C   UNL A   1      44.710  36.238  29.145  1.00  0.00     0.059 A 
ATOM     75  C   UNL A   1      44.912  35.694  31.504  1.00  0.00     0.059 A 
ATOM     76  F   UNL A   1      44.729  33.465  32.204  1.00  0.00    -0.206 F 
ATOM     77  C   UNL A   1      44.927  36.628  30.469  1.00  0.00     0.060 A 
BRANCH  77  78
ATOM     78  S   UNL A   1      45.224  38.373  30.816  1.00  0.00     0.124 S 
ATOM     79  O   UNL A   1      44.931  38.983  29.523  1.00  0.00    -0.237 OA
ATOM     80  O   UNL A   1      44.262  38.647  31.879  1.00  0.00    -0.237 OA
ATOM     81  O   UNL A   1      46.627  38.405  31.221  1.00  0.00    -0.744 OA
ENDBRANCH  77  78
ENDBRANCH  56  70
BRANCH  57  82
ATOM     82  C   UNL A   1      42.371  24.340  27.873  1.00  0.00     0.058 A 
ATOM     83  C   UNL A   1      41.817  23.970  26.638  1.00  0.00     0.135 A 
ATOM     84  C   UNL A   1      42.616  23.322  28.808  1.00  0.00     0.135 A 
ATOM     85  F   UNL A   1      41.551  24.908  25.715  1.00  0.00    -0.206 F 
ATOM     86  C   UNL A   1      41.503  22.646  26.345  1.00  0.00     0.059 A 
ATOM     87  C   UNL A   1      42.334  21.987  28.528  1.00  0.00     0.059 A 
ATOM     88  F   UNL A   1      43.149  23.619  30.002  1.00  0.00    -0.206 F 
ATOM     89  C   UNL A   1      41.767  21.661  27.297  1.00  0.00     0.060 A 
BRANCH  89  90
ATOM     90  S   UNL A   1      41.394  19.941  26.892  1.00  0.00     0.124 S 
ATOM     91  O   UNL A   1      40.977  19.417  28.187  1.00  0.00    -0.237 OA
ATOM     92  O   UNL A   1      40.342  20.085  25.891  1.00  0.00    -0.237 OA
ATOM     93  O   UNL A   1      42.665  19.432  26.385  1.00  0.00    -0.744 OA
ENDBRANCH  89  90
ENDBRANCH  57  82
BRANCH  69  94
ATOM     94  C   UNL A   1      48.177  28.201  27.509  1.00  0.00     0.058 A 
ATOM     95  C   UNL A   1      48.592  28.197  26.168  1.00  0.00     0.135 A 
ATOM     96  C   UNL A   1      49.145  27.943  28.494  1.00  0.00     0.135 A 
ATOM     97  F   UNL A   1      47.708  28.437  25.186  1.00  0.00    -0.206 F 
ATOM     98  C   UNL A   1      49.908  27.916  25.816  1.00  0.00     0.059 A 
ATOM     99  C   UNL A   1      50.473  27.691  28.166  1.00  0.00     0.059 A 
ATOM    100  F   UNL A   1      48.807  27.950  29.793  1.00  0.00    -0.206 F 
ATOM    101  C   UNL A   1      50.842  27.665  26.823  1.00  0.00     0.060 A 
BRANCH 101 102
ATOM    102  S   UNL A   1      52.552  27.323  26.354  1.00  0.00     0.124 S 
ATOM    103  O   UNL A   1      53.282  27.859  27.498  1.00  0.00    -0.237 OA
ATOM    104  O   UNL A   1      52.555  25.870  26.224  1.00  0.00    -0.237 OA
ATOM    105  O   UNL A   1      52.715  28.059  25.104  1.00  0.00    -0.744 OA
ENDBRANCH 101 102
ENDBRANCH  69  94
ENDBRANCH  43  44
ENDBRANCH  36  38
ENDBRANCH  35  36
ENDBRANCH  34  35
ENDBRANCH  33  34
ENDBRANCH  32  33
ENDBRANCH  31  32
ENDBRANCH   1  31
TORSDOF 27
ENDMDL
MODEL 3
REMARK VINA RESULT:      -9.0      1.517      8.361
REMARK SMILES CC[NH2+][C@]1(C(=O)OCCOCCOCCOCCOC(=O)c2ccc(-c3c4nc(c(-c5c(F)cc(S(=O)(=O)[O-])cc5F)c5ccc([nH]5)c(-c5c(F)cc(S(=O)(=O)[O-])cc5F)c5nc(c(-c6c(F)cc(S(=O)(=O)[O-])cc6F)c6ccc3[nH]6)C=C5)C=C4)cc2)CCC[C@H]([N@@H+]2CCC[C@@H]2C(C)C)C1
REMARK SMILES IDX 14 1 13 2 12 3 11 4 10 5 9 6 8 7 7 8 5 9 6 10 4 11 88 12
REMARK SMILES IDX 100 13 89 14 91 15 90 16 3 17 2 20 1 21 92 22 93 23 96 24
REMARK SMILES IDX 94 26 95 27 97 28 98 29 99 30 15 31 16 32 17 33 18 34 19 35
REMARK SMILES IDX 20 36 21 37 22 38 23 39 87 40 24 41 86 42 25 43 26 44 27 45
REMARK SMILES IDX 80 46 28 47 85 48 79 49 81 50 29 51 84 52 78 53 77 54 30 56
REMARK SMILES IDX 64 57 43 58 63 59 44 60 47 61 62 62 82 63 45 64 46 65 61 67
REMARK SMILES IDX 83 68 48 69 31 70 32 71 41 72 33 73 34 74 40 75 42 76 35 77
REMARK SMILES IDX 36 78 37 79 38 80 39 81 65 82 66 83 75 84 67 85 68 86 74 87
REMARK SMILES IDX 76 88 69 89 70 90 71 91 72 92 73 93 49 94 50 95 59 96 51 97
REMARK SMILES IDX 52 98 58 99 60 100 53 101 54 102 55 103 56 104 57 105
REMARK H PARENT 3 18 3 19 92 25 81 55 47 66
REMARK Flexibility Score: inf
ROOT
ATOM      1  C   UNL A   1      34.865  31.365  27.888  1.00  0.00     0.188 C 
ENDROOT
BRANCH   1   2
ATOM      2  O   UNL A   1      33.641  31.429  27.174  1.00  0.00    -0.377 OA
BRANCH   2   3
ATOM      3  C   UNL A   1      32.959  30.216  26.976  1.00  0.00     0.188 C 
BRANCH   3   4
ATOM      4  C   UNL A   1      31.735  30.310  26.050  1.00  0.00     0.188 C 
BRANCH   4   5
ATOM      5  O   UNL A   1      31.528  29.118  25.290  1.00  0.00    -0.376 OA
BRANCH   5   6
ATOM      6  C   UNL A   1      30.909  29.264  24.009  1.00  0.00     0.202 C 
BRANCH   6   7
ATOM      7  C   UNL A   1      31.581  28.575  22.813  1.00  0.00     0.261 C 
BRANCH   7   8
ATOM      8  O   UNL A   1      32.375  27.474  23.276  1.00  0.00    -0.459 OA
BRANCH   8   9
ATOM      9  C   UNL A   1      32.939  26.536  22.467  1.00  0.00     0.368 C 
ATOM     10  O   UNL A   1      33.293  26.734  21.314  1.00  0.00    -0.245 OA
BRANCH   9  11
ATOM     11  C   UNL A   1      33.170  25.219  23.299  1.00  0.00     0.200 C 
ATOM     12  C   UNL A   1      33.377  24.045  22.266  1.00  0.00     0.081 C 
ATOM     13  C   UNL A   1      34.456  25.192  24.104  1.00  0.00     0.146 C 
ATOM     14  C   UNL A   1      34.184  22.762  22.479  1.00  0.00     0.013 C 
ATOM     15  C   UNL A   1      34.750  23.745  24.647  1.00  0.00     0.191 C 
ATOM     16  C   UNL A   1      35.265  22.898  23.501  1.00  0.00     0.065 C 
BRANCH  11  17
ATOM     17  N   UNL A   1      32.118  25.066  24.345  1.00  0.00    -0.332 N 
ATOM     18  H   UNL A   1      32.579  24.634  25.145  1.00  0.00     0.347 HD
ATOM     19  H   UNL A   1      31.760  26.019  24.411  1.00  0.00     0.347 HD
BRANCH  17  20
ATOM     20  C   UNL A   1      30.892  24.315  24.139  1.00  0.00     0.257 C 
ATOM     21  C   UNL A   1      30.343  23.936  25.521  1.00  0.00     0.071 C 
ENDBRANCH  17  20
ENDBRANCH  11  17
BRANCH  15  22
ATOM     22  N   UNL A   1      33.764  23.082  25.548  1.00  0.00    -0.330 N 
ATOM     23  C   UNL A   1      33.810  23.732  26.875  1.00  0.00     0.262 C 
ATOM     24  C   UNL A   1      33.297  21.643  25.790  1.00  0.00     0.187 C 
ATOM     25  H   UNL A   1      33.101  23.176  24.778  1.00  0.00     0.348 HD
ATOM     26  C   UNL A   1      34.327  22.667  27.795  1.00  0.00     0.067 C 
ATOM     27  C   UNL A   1      33.633  21.435  27.298  1.00  0.00     0.071 C 
BRANCH  24  28
ATOM     28  C   UNL A   1      33.393  20.137  25.154  1.00  0.00     0.041 C 
ATOM     29  C   UNL A   1      32.502  20.000  23.874  1.00  0.00     0.014 C 
ATOM     30  C   UNL A   1      34.695  19.525  24.622  1.00  0.00     0.014 C 
ENDBRANCH  24  28
ENDBRANCH  15  22
ENDBRANCH   9  11
ENDBRANCH   8   9
ENDBRANCH   7   8
ENDBRANCH   6   7
ENDBRANCH   5   6
ENDBRANCH   4   5
ENDBRANCH   3   4
ENDBRANCH   2   3
ENDBRANCH   1   2
BRANCH   1  31
ATOM     31  C   UNL A   1      35.036  31.921  29.329  1.00  0.00     0.188 C 
BRANCH  31  32
ATOM     32  O   UNL A   1      35.215  33.325  29.481  1.00  0.00    -0.376 OA
BRANCH  32  33
ATOM     33  C   UNL A   1      35.109  33.885  30.783  1.00  0.00     0.202 C 
BRANCH  33  34
ATOM     34  C   UNL A   1      36.313  33.700  31.721  1.00  0.00     0.261 C 
BRANCH  34  35
ATOM     35  O   UNL A   1      36.977  32.434  31.617  1.00  0.00    -0.460 OA
BRANCH  35  36
ATOM     36  C   UNL A   1      38.087  32.282  32.384  1.00  0.00     0.338 C 
ATOM     37  O   UNL A   1      38.212  32.558  33.547  1.00  0.00    -0.246 OA
BRANCH  36  38
ATOM     38  C   UNL A   1      39.057  31.496  31.587  1.00  0.00     0.060 A 
ATOM     39  C   UNL A   1      39.928  30.640  32.276  1.00  0.00     0.016 A 
ATOM     40  C   UNL A   1      39.057  31.542  30.191  1.00  0.00     0.016 A 
ATOM     41  C   UNL A   1      40.824  29.846  31.566  1.00  0.00     0.010 A 
ATOM     42  C   UNL A   1      39.985  30.777  29.481  1.00  0.00     0.010 A 
ATOM     43  C   UNL A   1      40.896  29.958  30.172  1.00  0.00    -0.014 A 
BRANCH  43  44
ATOM     44  C   UNL A   1      42.117  29.465  29.495  1.00  0.00     0.031 A 
ATOM     45  C   UNL A   1      43.260  30.434  29.361  1.00  0.00     0.074 A 
ATOM     46  C   UNL A   1      42.239  28.194  29.075  1.00  0.00     0.049 A 
ATOM     47  N   UNL A   1      44.448  30.256  28.849  1.00  0.00    -0.248 NA
ATOM     48  C   UNL A   1      43.029  31.794  29.885  1.00  0.00     0.031 C 
ATOM     49  C   UNL A   1      41.217  27.157  29.195  1.00  0.00     0.029 A 
ATOM     50  N   UNL A   1      43.292  27.562  28.462  1.00  0.00    -0.354 N 
ATOM     51  C   UNL A   1      45.103  31.474  28.989  1.00  0.00     0.074 A 
ATOM     52  C   UNL A   1      44.174  32.394  29.605  1.00  0.00     0.031 C 
ATOM     53  C   UNL A   1      41.694  26.015  28.664  1.00  0.00     0.029 A 
ATOM     54  C   UNL A   1      43.042  26.248  28.148  1.00  0.00     0.049 A 
ATOM     55  H   UNL A   1      44.146  28.009  28.265  1.00  0.00     0.167 HD
ATOM     56  C   UNL A   1      46.370  31.796  28.645  1.00  0.00     0.037 A 
ATOM     57  C   UNL A   1      43.816  25.348  27.508  1.00  0.00     0.037 A 
ATOM     58  C   UNL A   1      47.286  30.880  28.022  1.00  0.00     0.049 A 
ATOM     59  C   UNL A   1      45.201  25.752  27.065  1.00  0.00     0.074 A 
ATOM     60  C   UNL A   1      48.595  31.101  27.639  1.00  0.00     0.029 A 
ATOM     61  N   UNL A   1      46.981  29.571  27.682  1.00  0.00    -0.354 N 
ATOM     62  N   UNL A   1      45.821  26.898  27.229  1.00  0.00    -0.248 NA
ATOM     63  C   UNL A   1      45.995  24.739  26.355  1.00  0.00     0.031 C 
ATOM     64  C   UNL A   1      49.065  29.941  27.014  1.00  0.00     0.029 A 
ATOM     65  C   UNL A   1      48.070  28.978  27.065  1.00  0.00     0.049 A 
ATOM     66  H   UNL A   1      46.118  29.128  27.852  1.00  0.00     0.167 HD
ATOM     67  C   UNL A   1      47.087  26.732  26.674  1.00  0.00     0.074 A 
ATOM     68  C   UNL A   1      47.146  25.372  26.178  1.00  0.00     0.031 C 
ATOM     69  C   UNL A   1      48.111  27.618  26.587  1.00  0.00     0.037 A 
BRANCH  56  70
ATOM     70  C   UNL A   1      46.817  33.209  28.899  1.00  0.00     0.058 A 
ATOM     71  C   UNL A   1      47.444  33.585  30.099  1.00  0.00     0.135 A 
ATOM     72  C   UNL A   1      46.619  34.198  27.923  1.00  0.00     0.135 A 
ATOM     73  F   UNL A   1      47.631  32.684  31.076  1.00  0.00    -0.206 F 
ATOM     74  C   UNL A   1      47.837  34.898  30.331  1.00  0.00     0.059 A 
ATOM     75  C   UNL A   1      47.030  35.512  28.123  1.00  0.00     0.059 A 
ATOM     76  F   UNL A   1      46.013  33.894  26.765  1.00  0.00    -0.206 F 
ATOM     77  C   UNL A   1      47.626  35.855  29.336  1.00  0.00     0.060 A 
BRANCH  77  78
ATOM     78  S   UNL A   1      48.147  37.554  29.649  1.00  0.00     0.124 S 
ATOM     79  O   UNL A   1      49.541  37.517  29.218  1.00  0.00    -0.237 OA
ATOM     80  O   UNL A   1      47.240  38.319  28.799  1.00  0.00    -0.237 OA
ATOM     81  O   UNL A   1      47.939  37.714  31.086  1.00  0.00    -0.744 OA
ENDBRANCH  77  78
ENDBRANCH  56  70
BRANCH  57  82
ATOM     82  C   UNL A   1      43.304  23.975  27.240  1.00  0.00     0.058 A 
ATOM     83  C   UNL A   1      42.706  23.646  26.014  1.00  0.00     0.135 A 
ATOM     84  C   UNL A   1      43.388  22.967  28.214  1.00  0.00     0.135 A 
ATOM     85  F   UNL A   1      42.589  24.578  25.054  1.00  0.00    -0.206 F 
ATOM     86  C   UNL A   1      42.195  22.376  25.767  1.00  0.00     0.059 A 
ATOM     87  C   UNL A   1      42.907  21.682  27.982  1.00  0.00     0.059 A 
ATOM     88  F   UNL A   1      43.955  23.226  29.402  1.00  0.00    -0.206 F 
ATOM     89  C   UNL A   1      42.303  21.399  26.758  1.00  0.00     0.060 A 
BRANCH  89  90
ATOM     90  S   UNL A   1      41.674  19.741  26.413  1.00  0.00     0.124 S 
ATOM     91  O   UNL A   1      42.480  19.353  25.262  1.00  0.00    -0.237 OA
ATOM     92  O   UNL A   1      41.962  19.040  27.661  1.00  0.00    -0.237 OA
ATOM     93  O   UNL A   1      40.257  19.968  26.144  1.00  0.00    -0.744 OA
ENDBRANCH  89  90
ENDBRANCH  57  82
BRANCH  69  94
ATOM     94  C   UNL A   1      49.399  27.138  25.974  1.00  0.00     0.058 A 
ATOM     95  C   UNL A   1      49.638  27.211  24.593  1.00  0.00     0.135 A 
ATOM     96  C   UNL A   1      50.431  26.648  26.793  1.00  0.00     0.135 A 
ATOM     97  F   UNL A   1      48.686  27.670  23.765  1.00  0.00    -0.206 F 
ATOM     98  C   UNL A   1      50.841  26.784  24.041  1.00  0.00     0.059 A 
ATOM     99  C   UNL A   1      51.654  26.245  26.264  1.00  0.00     0.059 A 
ATOM    100  F   UNL A   1      50.262  26.572  28.122  1.00  0.00    -0.206 F 
ATOM    101  C   UNL A   1      51.843  26.303  24.886  1.00  0.00     0.060 A 
BRANCH 101 102
ATOM    102  S   UNL A   1      53.409  25.771  24.159  1.00  0.00     0.124 S 
ATOM    103  O   UNL A   1      53.143  25.939  22.734  1.00  0.00    -0.237 OA
ATOM    104  O   UNL A   1      54.360  26.713  24.741  1.00  0.00    -0.237 OA
ATOM    105  O   UNL A   1      53.544  24.392  24.615  1.00  0.00    -0.744 OA
ENDBRANCH 101 102
ENDBRANCH  69  94
ENDBRANCH  43  44
ENDBRANCH  36  38
ENDBRANCH  35  36
ENDBRANCH  34  35
ENDBRANCH  33  34
ENDBRANCH  32  33
ENDBRANCH  31  32
ENDBRANCH   1  31
TORSDOF 27
ENDMDL
