MODEL 1
REMARK VINA RESULT:     -10.1      0.000      0.000
REMARK SMILES CCCn1cc(S(=O)(=O)N[C@H]2C=C[C@@H](C(=O)OCCOCCOCCOCCOC(=O)c3ccc(-c4c5nc(c(-c6c(F)cc(S(=O)(=O)[O-])cc6F)c6ccc([nH]6)c(-c6c(F)cc(S(=O)(=O)[O-])cc6F)c6nc(c(-c7c(F)cc(S(=O)(=O)[O-])cc7F)c7ccc4[nH]7)C=C6)C=C5)cc3)C2)nc1C
REMARK SMILES IDX 22 1 21 2 20 3 19 4 18 5 17 6 15 7 16 8 14 9 11 10 12 11
REMARK SMILES IDX 98 12 13 13 10 14 7 16 8 17 9 18 6 19 4 20 5 21 100 22 99 23
REMARK SMILES IDX 101 24 3 25 2 26 1 27 23 28 24 29 25 30 26 31 27 32 28 33
REMARK SMILES IDX 29 34 30 35 31 36 32 37 33 38 97 39 34 40 96 41 35 42 36 43
REMARK SMILES IDX 37 44 90 45 38 46 95 47 89 48 91 49 39 50 94 51 88 52 87 53
REMARK SMILES IDX 40 55 74 56 53 57 73 58 54 59 57 60 72 61 92 62 55 63 56 64
REMARK SMILES IDX 71 66 93 67 58 68 41 69 42 70 51 71 43 72 44 73 50 74 52 75
REMARK SMILES IDX 45 76 46 77 47 78 48 79 49 80 75 81 76 82 85 83 77 84 78 85
REMARK SMILES IDX 84 86 86 87 79 88 80 89 81 90 82 91 83 92 59 93 60 94 69 95
REMARK SMILES IDX 61 96 62 97 68 98 70 99 63 100 64 101 65 102 66 103 67 104
REMARK H PARENT 10 15 91 54 57 65
REMARK Flexibility Score: inf
ROOT
ATOM      1  C   UNL A   1      41.058  21.357  26.753  1.00  0.00     0.188 C 
ENDROOT
BRANCH   1   2
ATOM      2  C   UNL A   1      39.655  21.403  26.117  1.00  0.00     0.188 C 
BRANCH   2   3
ATOM      3  O   UNL A   1      38.862  22.586  26.154  1.00  0.00    -0.376 OA
BRANCH   3   4
ATOM      4  C   UNL A   1      37.531  22.568  25.652  1.00  0.00     0.202 C 
BRANCH   4   5
ATOM      5  C   UNL A   1      36.865  21.232  25.290  1.00  0.00     0.261 C 
BRANCH   5   6
ATOM      6  O   UNL A   1      35.567  21.056  25.873  1.00  0.00    -0.463 OA
BRANCH   6   7
ATOM      7  C   UNL A   1      34.499  21.254  25.069  1.00  0.00     0.312 C 
ATOM      8  O   UNL A   1      34.015  20.403  24.327  1.00  0.00    -0.252 OA
BRANCH   7   9
ATOM      9  C   UNL A   1      33.821  22.605  25.304  1.00  0.00     0.123 C 
ATOM     10  C   UNL A   1      32.643  24.289  23.935  1.00  0.00     0.093 C 
ATOM     11  C   UNL A   1      31.706  23.347  24.592  1.00  0.00    -0.011 C 
ATOM     12  C   UNL A   1      34.018  23.752  24.299  1.00  0.00     0.043 C 
ATOM     13  C   UNL A   1      32.336  22.433  25.334  1.00  0.00    -0.015 C 
BRANCH  10  14
ATOM     14  N   UNL A   1      32.463  24.480  22.498  1.00  0.00    -0.203 NA
ATOM     15  H   UNL A   1      33.205  23.943  22.051  1.00  0.00     0.142 HD
BRANCH  14  16
ATOM     16  S   UNL A   1      32.473  25.997  21.750  1.00  0.00     0.260 S 
ATOM     17  O   UNL A   1      31.705  25.924  20.525  1.00  0.00    -0.205 OA
ATOM     18  O   UNL A   1      33.846  26.440  21.782  1.00  0.00    -0.205 OA
BRANCH  16  19
ATOM     19  C   UNL A   1      31.617  27.109  22.772  1.00  0.00     0.188 A 
ATOM     20  N   UNL A   1      30.089  28.548  23.346  1.00  0.00    -0.334 N 
ATOM     21  C   UNL A   1      30.260  27.333  22.719  1.00  0.00     0.129 A 
ATOM     22  C   UNL A   1      31.233  28.773  24.078  1.00  0.00     0.107 A 
ATOM     23  N   UNL A   1      32.198  27.967  23.672  1.00  0.00    -0.221 NA
ATOM     24  C   UNL A   1      31.432  29.754  25.171  1.00  0.00     0.088 C 
BRANCH  20  25
ATOM     25  C   UNL A   1      28.956  29.381  22.989  1.00  0.00     0.123 C 
BRANCH  25  26
ATOM     26  C   UNL A   1      29.027  30.900  23.079  1.00  0.00     0.018 C 
ATOM     27  C   UNL A   1      27.708  31.551  23.468  1.00  0.00     0.006 C 
ENDBRANCH  25  26
ENDBRANCH  20  25
ENDBRANCH  16  19
ENDBRANCH  14  16
ENDBRANCH  10  14
ENDBRANCH   7   9
ENDBRANCH   6   7
ENDBRANCH   5   6
ENDBRANCH   4   5
ENDBRANCH   3   4
ENDBRANCH   2   3
ENDBRANCH   1   2
BRANCH   1  28
ATOM     28  O   UNL A   1      41.454  20.105  27.268  1.00  0.00    -0.377 OA
BRANCH  28  29
ATOM     29  C   UNL A   1      41.868  19.148  26.298  1.00  0.00     0.188 C 
BRANCH  29  30
ATOM     30  C   UNL A   1      43.137  18.313  26.611  1.00  0.00     0.188 C 
BRANCH  30  31
ATOM     31  O   UNL A   1      44.043  18.135  25.521  1.00  0.00    -0.376 OA
BRANCH  31  32
ATOM     32  C   UNL A   1      45.446  18.060  25.744  1.00  0.00     0.202 C 
BRANCH  32  33
ATOM     33  C   UNL A   1      46.317  19.208  25.221  1.00  0.00     0.261 C 
BRANCH  33  34
ATOM     34  O   UNL A   1      45.830  20.497  25.539  1.00  0.00    -0.460 OA
BRANCH  34  35
ATOM     35  C   UNL A   1      45.156  21.109  24.552  1.00  0.00     0.338 C 
ATOM     36  O   UNL A   1      44.528  20.574  23.643  1.00  0.00    -0.246 OA
BRANCH  35  37
ATOM     37  C   UNL A   1      45.372  22.547  24.656  1.00  0.00     0.060 A 
ATOM     38  C   UNL A   1      46.391  22.937  25.524  1.00  0.00     0.016 A 
ATOM     39  C   UNL A   1      44.349  23.414  24.239  1.00  0.00     0.016 A 
ATOM     40  C   UNL A   1      46.196  24.090  26.235  1.00  0.00     0.010 A 
ATOM     41  C   UNL A   1      44.151  24.560  24.959  1.00  0.00     0.010 A 
ATOM     42  C   UNL A   1      45.014  24.807  26.021  1.00  0.00    -0.014 A 
BRANCH  42  43
ATOM     43  C   UNL A   1      44.717  25.870  26.945  1.00  0.00     0.031 A 
ATOM     44  C   UNL A   1      45.699  26.963  26.859  1.00  0.00     0.074 A 
ATOM     45  C   UNL A   1      43.628  25.846  27.733  1.00  0.00     0.049 A 
ATOM     46  N   UNL A   1      46.621  27.259  27.712  1.00  0.00    -0.248 NA
ATOM     47  C   UNL A   1      45.814  27.660  25.569  1.00  0.00     0.031 C 
ATOM     48  C   UNL A   1      42.478  24.941  27.683  1.00  0.00     0.029 A 
ATOM     49  N   UNL A   1      43.283  26.721  28.708  1.00  0.00    -0.354 N 
ATOM     50  C   UNL A   1      47.269  28.358  27.165  1.00  0.00     0.074 A 
ATOM     51  C   UNL A   1      46.899  28.404  25.776  1.00  0.00     0.031 C 
ATOM     52  C   UNL A   1      41.472  25.463  28.425  1.00  0.00     0.029 A 
ATOM     53  C   UNL A   1      41.951  26.662  29.093  1.00  0.00     0.049 A 
ATOM     54  H   UNL A   1      43.926  27.348  29.111  1.00  0.00     0.167 HD
ATOM     55  C   UNL A   1      47.812  29.311  27.967  1.00  0.00     0.037 A 
ATOM     56  C   UNL A   1      41.305  27.606  29.825  1.00  0.00     0.037 A 
ATOM     57  C   UNL A   1      48.033  28.811  29.302  1.00  0.00     0.049 A 
ATOM     58  C   UNL A   1      42.356  28.404  30.523  1.00  0.00     0.074 A 
ATOM     59  C   UNL A   1      48.755  27.755  29.827  1.00  0.00     0.029 A 
ATOM     60  N   UNL A   1      47.148  29.182  30.287  1.00  0.00    -0.354 N 
ATOM     61  N   UNL A   1      43.125  27.927  31.465  1.00  0.00    -0.248 NA
ATOM     62  C   UNL A   1      42.872  29.586  29.843  1.00  0.00     0.031 C 
ATOM     63  C   UNL A   1      47.952  27.246  30.890  1.00  0.00     0.029 A 
ATOM     64  C   UNL A   1      46.819  28.052  30.993  1.00  0.00     0.049 A 
ATOM     65  H   UNL A   1      46.812  30.092  30.453  1.00  0.00     0.167 HD
ATOM     66  C   UNL A   1      44.378  28.473  31.219  1.00  0.00     0.074 A 
ATOM     67  C   UNL A   1      44.143  29.546  30.256  1.00  0.00     0.031 C 
ATOM     68  C   UNL A   1      45.522  27.825  31.593  1.00  0.00     0.037 A 
BRANCH  55  69
ATOM     69  C   UNL A   1      47.757  30.782  27.634  1.00  0.00     0.058 A 
ATOM     70  C   UNL A   1      46.503  31.395  27.450  1.00  0.00     0.135 A 
ATOM     71  C   UNL A   1      48.876  31.546  27.223  1.00  0.00     0.135 A 
ATOM     72  F   UNL A   1      45.374  30.754  27.791  1.00  0.00    -0.206 F 
ATOM     73  C   UNL A   1      46.368  32.640  26.839  1.00  0.00     0.059 A 
ATOM     74  C   UNL A   1      48.767  32.813  26.670  1.00  0.00     0.059 A 
ATOM     75  F   UNL A   1      50.125  31.066  27.235  1.00  0.00    -0.206 F 
ATOM     76  C   UNL A   1      47.508  33.334  26.439  1.00  0.00     0.060 A 
BRANCH  76  77
ATOM     77  S   UNL A   1      47.337  34.887  25.550  1.00  0.00     0.124 S 
ATOM     78  O   UNL A   1      47.082  35.818  26.642  1.00  0.00    -0.237 OA
ATOM     79  O   UNL A   1      48.636  35.004  24.896  1.00  0.00    -0.237 OA
ATOM     80  O   UNL A   1      46.212  34.638  24.654  1.00  0.00    -0.744 OA
ENDBRANCH  76  77
ENDBRANCH  55  69
BRANCH  56  81
ATOM     81  C   UNL A   1      39.916  28.113  29.642  1.00  0.00     0.058 A 
ATOM     82  C   UNL A   1      39.139  28.489  30.754  1.00  0.00     0.135 A 
ATOM     83  C   UNL A   1      39.430  28.521  28.384  1.00  0.00     0.135 A 
ATOM     84  F   UNL A   1      39.529  28.151  31.994  1.00  0.00    -0.206 F 
ATOM     85  C   UNL A   1      37.994  29.285  30.633  1.00  0.00     0.059 A 
ATOM     86  C   UNL A   1      38.285  29.303  28.237  1.00  0.00     0.059 A 
ATOM     87  F   UNL A   1      40.105  28.257  27.256  1.00  0.00    -0.206 F 
ATOM     88  C   UNL A   1      37.591  29.710  29.369  1.00  0.00     0.060 A 
BRANCH  88  89
ATOM     89  S   UNL A   1      36.242  30.905  29.218  1.00  0.00     0.124 S 
ATOM     90  O   UNL A   1      36.930  32.070  28.674  1.00  0.00    -0.237 OA
ATOM     91  O   UNL A   1      35.326  30.222  28.310  1.00  0.00    -0.237 OA
ATOM     92  O   UNL A   1      35.762  31.048  30.590  1.00  0.00    -0.744 OA
ENDBRANCH  88  89
ENDBRANCH  56  81
BRANCH  68  93
ATOM     93  C   UNL A   1      45.396  26.645  32.526  1.00  0.00     0.058 A 
ATOM     94  C   UNL A   1      45.385  26.735  33.930  1.00  0.00     0.135 A 
ATOM     95  C   UNL A   1      45.139  25.384  31.968  1.00  0.00     0.135 A 
ATOM     96  F   UNL A   1      45.511  27.919  34.546  1.00  0.00    -0.206 F 
ATOM     97  C   UNL A   1      45.183  25.615  34.740  1.00  0.00     0.059 A 
ATOM     98  C   UNL A   1      44.901  24.259  32.755  1.00  0.00     0.059 A 
ATOM     99  F   UNL A   1      45.069  25.240  30.634  1.00  0.00    -0.206 F 
ATOM    100  C   UNL A   1      44.944  24.378  34.141  1.00  0.00     0.060 A 
BRANCH 100 101
ATOM    101  S   UNL A   1      44.625  22.940  35.187  1.00  0.00     0.124 S 
ATOM    102  O   UNL A   1      45.975  22.474  35.488  1.00  0.00    -0.237 OA
ATOM    103  O   UNL A   1      43.888  23.516  36.307  1.00  0.00    -0.237 OA
ATOM    104  O   UNL A   1      43.841  22.059  34.324  1.00  0.00    -0.744 OA
ENDBRANCH 100 101
ENDBRANCH  68  93
ENDBRANCH  42  43
ENDBRANCH  35  37
ENDBRANCH  34  35
ENDBRANCH  33  34
ENDBRANCH  32  33
ENDBRANCH  31  32
ENDBRANCH  30  31
ENDBRANCH  29  30
ENDBRANCH  28  29
ENDBRANCH   1  28
TORSDOF 28
ENDMDL
MODEL 2
REMARK VINA RESULT:      -9.4      1.251      2.030
REMARK SMILES CCCn1cc(S(=O)(=O)N[C@H]2C=C[C@@H](C(=O)OCCOCCOCCOCCOC(=O)c3ccc(-c4c5nc(c(-c6c(F)cc(S(=O)(=O)[O-])cc6F)c6ccc([nH]6)c(-c6c(F)cc(S(=O)(=O)[O-])cc6F)c6nc(c(-c7c(F)cc(S(=O)(=O)[O-])cc7F)c7ccc4[nH]7)C=C6)C=C5)cc3)C2)nc1C
REMARK SMILES IDX 22 1 21 2 20 3 19 4 18 5 17 6 15 7 16 8 14 9 11 10 12 11
REMARK SMILES IDX 98 12 13 13 10 14 7 16 8 17 9 18 6 19 4 20 5 21 100 22 99 23
REMARK SMILES IDX 101 24 3 25 2 26 1 27 23 28 24 29 25 30 26 31 27 32 28 33
REMARK SMILES IDX 29 34 30 35 31 36 32 37 33 38 97 39 34 40 96 41 35 42 36 43
REMARK SMILES IDX 37 44 90 45 38 46 95 47 89 48 91 49 39 50 94 51 88 52 87 53
REMARK SMILES IDX 40 55 74 56 53 57 73 58 54 59 57 60 72 61 92 62 55 63 56 64
REMARK SMILES IDX 71 66 93 67 58 68 41 69 42 70 51 71 43 72 44 73 50 74 52 75
REMARK SMILES IDX 45 76 46 77 47 78 48 79 49 80 75 81 76 82 85 83 77 84 78 85
REMARK SMILES IDX 84 86 86 87 79 88 80 89 81 90 82 91 83 92 59 93 60 94 69 95
REMARK SMILES IDX 61 96 62 97 68 98 70 99 63 100 64 101 65 102 66 103 67 104
REMARK H PARENT 10 15 91 54 57 65
REMARK Flexibility Score: inf
ROOT
ATOM      1  C   UNL A   1      40.379  22.043  26.855  1.00  0.00     0.188 C 
ENDROOT
BRANCH   1   2
ATOM      2  C   UNL A   1      39.001  22.252  26.198  1.00  0.00     0.188 C 
BRANCH   2   3
ATOM      3  O   UNL A   1      38.270  23.462  26.373  1.00  0.00    -0.376 OA
BRANCH   3   4
ATOM      4  C   UNL A   1      37.076  23.687  25.633  1.00  0.00     0.202 C 
BRANCH   4   5
ATOM      5  C   UNL A   1      36.996  23.266  24.158  1.00  0.00     0.261 C 
BRANCH   5   6
ATOM      6  O   UNL A   1      35.882  22.416  23.858  1.00  0.00    -0.463 OA
BRANCH   6   7
ATOM      7  C   UNL A   1      34.766  23.008  23.378  1.00  0.00     0.312 C 
ATOM      8  O   UNL A   1      34.625  23.399  22.222  1.00  0.00    -0.252 OA
BRANCH   7   9
ATOM      9  C   UNL A   1      33.606  22.983  24.375  1.00  0.00     0.123 C 
ATOM     10  C   UNL A   1      31.310  23.886  24.485  1.00  0.00     0.093 C 
ATOM     11  C   UNL A   1      31.338  22.486  23.997  1.00  0.00    -0.011 C 
ATOM     12  C   UNL A   1      32.778  24.254  24.626  1.00  0.00     0.043 C 
ATOM     13  C   UNL A   1      32.577  21.991  23.935  1.00  0.00    -0.015 C 
BRANCH  10  14
ATOM     14  N   UNL A   1      30.555  24.836  23.672  1.00  0.00    -0.203 NA
ATOM     15  H   UNL A   1      31.251  25.407  23.193  1.00  0.00     0.142 HD
BRANCH  14  16
ATOM     16  S   UNL A   1      29.426  25.920  24.312  1.00  0.00     0.260 S 
ATOM     17  O   UNL A   1      29.544  25.928  25.755  1.00  0.00    -0.205 OA
ATOM     18  O   UNL A   1      28.184  25.637  23.634  1.00  0.00    -0.205 OA
BRANCH  16  19
ATOM     19  C   UNL A   1      29.864  27.520  23.800  1.00  0.00     0.188 A 
ATOM     20  N   UNL A   1      30.620  29.553  23.974  1.00  0.00    -0.334 N 
ATOM     21  C   UNL A   1      30.905  28.252  24.327  1.00  0.00     0.129 A 
ATOM     22  C   UNL A   1      29.704  29.488  22.949  1.00  0.00     0.107 A 
ATOM     23  N   UNL A   1      29.168  28.282  22.894  1.00  0.00    -0.221 NA
ATOM     24  C   UNL A   1      29.320  30.565  22.007  1.00  0.00     0.088 C 
BRANCH  20  25
ATOM     25  C   UNL A   1      31.115  30.639  24.801  1.00  0.00     0.123 C 
BRANCH  25  26
ATOM     26  C   UNL A   1      31.946  30.372  26.048  1.00  0.00     0.018 C 
ATOM     27  C   UNL A   1      31.843  31.471  27.096  1.00  0.00     0.006 C 
ENDBRANCH  25  26
ENDBRANCH  20  25
ENDBRANCH  16  19
ENDBRANCH  14  16
ENDBRANCH  10  14
ENDBRANCH   7   9
ENDBRANCH   6   7
ENDBRANCH   5   6
ENDBRANCH   4   5
ENDBRANCH   3   4
ENDBRANCH   2   3
ENDBRANCH   1   2
BRANCH   1  28
ATOM     28  O   UNL A   1      40.578  20.792  27.472  1.00  0.00    -0.377 OA
BRANCH  28  29
ATOM     29  C   UNL A   1      40.865  19.712  26.589  1.00  0.00     0.188 C 
BRANCH  29  30
ATOM     30  C   UNL A   1      42.116  18.849  26.894  1.00  0.00     0.188 C 
BRANCH  30  31
ATOM     31  O   UNL A   1      42.938  18.534  25.768  1.00  0.00    -0.376 OA
BRANCH  31  32
ATOM     32  C   UNL A   1      44.240  17.989  25.947  1.00  0.00     0.202 C 
BRANCH  32  33
ATOM     33  C   UNL A   1      45.437  18.822  25.476  1.00  0.00     0.261 C 
BRANCH  33  34
ATOM     34  O   UNL A   1      45.240  20.220  25.562  1.00  0.00    -0.460 OA
BRANCH  34  35
ATOM     35  C   UNL A   1      44.886  20.816  24.412  1.00  0.00     0.338 C 
ATOM     36  O   UNL A   1      44.446  20.273  23.403  1.00  0.00    -0.246 OA
BRANCH  35  37
ATOM     37  C   UNL A   1      45.209  22.235  24.499  1.00  0.00     0.060 A 
ATOM     38  C   UNL A   1      46.164  22.573  25.456  1.00  0.00     0.016 A 
ATOM     39  C   UNL A   1      44.308  23.166  23.956  1.00  0.00     0.016 A 
ATOM     40  C   UNL A   1      45.994  23.763  26.111  1.00  0.00     0.010 A 
ATOM     41  C   UNL A   1      44.134  24.349  24.620  1.00  0.00     0.010 A 
ATOM     42  C   UNL A   1      44.903  24.563  25.757  1.00  0.00    -0.014 A 
BRANCH  42  43
ATOM     43  C   UNL A   1      44.604  25.678  26.617  1.00  0.00     0.031 A 
ATOM     44  C   UNL A   1      45.607  26.750  26.497  1.00  0.00     0.074 A 
ATOM     45  C   UNL A   1      43.498  25.714  27.380  1.00  0.00     0.049 A 
ATOM     46  N   UNL A   1      46.514  27.076  27.353  1.00  0.00    -0.248 NA
ATOM     47  C   UNL A   1      45.761  27.375  25.174  1.00  0.00     0.031 C 
ATOM     48  C   UNL A   1      42.333  24.825  27.352  1.00  0.00     0.029 A 
ATOM     49  N   UNL A   1      43.146  26.644  28.299  1.00  0.00    -0.354 N 
ATOM     50  C   UNL A   1      47.193  28.134  26.765  1.00  0.00     0.074 A 
ATOM     51  C   UNL A   1      46.855  28.111  25.367  1.00  0.00     0.031 C 
ATOM     52  C   UNL A   1      41.321  25.403  28.041  1.00  0.00     0.029 A 
ATOM     53  C   UNL A   1      41.805  26.628  28.656  1.00  0.00     0.049 A 
ATOM     54  H   UNL A   1      43.790  27.282  28.683  1.00  0.00     0.167 HD
ATOM     55  C   UNL A   1      47.734  29.120  27.527  1.00  0.00     0.037 A 
ATOM     56  C   UNL A   1      41.159  27.620  29.322  1.00  0.00     0.037 A 
ATOM     57  C   UNL A   1      47.917  28.688  28.891  1.00  0.00     0.049 A 
ATOM     58  C   UNL A   1      42.208  28.437  30.001  1.00  0.00     0.074 A 
ATOM     59  C   UNL A   1      48.609  27.650  29.489  1.00  0.00     0.029 A 
ATOM     60  N   UNL A   1      47.016  29.125  29.835  1.00  0.00    -0.354 N 
ATOM     61  N   UNL A   1      42.947  27.998  30.984  1.00  0.00    -0.248 NA
ATOM     62  C   UNL A   1      42.759  29.572  29.272  1.00  0.00     0.031 C 
ATOM     63  C   UNL A   1      47.774  27.211  30.558  1.00  0.00     0.029 A 
ATOM     64  C   UNL A   1      46.652  28.039  30.593  1.00  0.00     0.049 A 
ATOM     65  H   UNL A   1      46.692  30.047  29.946  1.00  0.00     0.167 HD
ATOM     66  C   UNL A   1      44.215  28.511  30.739  1.00  0.00     0.074 A 
ATOM     67  C   UNL A   1      44.019  29.534  29.715  1.00  0.00     0.031 C 
ATOM     68  C   UNL A   1      45.339  27.865  31.173  1.00  0.00     0.037 A 
BRANCH  55  69
ATOM     69  C   UNL A   1      47.711  30.571  27.116  1.00  0.00     0.058 A 
ATOM     70  C   UNL A   1      48.896  31.325  27.202  1.00  0.00     0.135 A 
ATOM     71  C   UNL A   1      46.527  31.317  26.902  1.00  0.00     0.135 A 
ATOM     72  F   UNL A   1      50.075  30.720  27.418  1.00  0.00    -0.206 F 
ATOM     73  C   UNL A   1      48.895  32.718  27.151  1.00  0.00     0.059 A 
ATOM     74  C   UNL A   1      46.512  32.699  26.786  1.00  0.00     0.059 A 
ATOM     75  F   UNL A   1      45.310  30.762  26.900  1.00  0.00    -0.206 F 
ATOM     76  C   UNL A   1      47.694  33.395  26.958  1.00  0.00     0.060 A 
BRANCH  76  77
ATOM     77  S   UNL A   1      47.669  35.192  27.005  1.00  0.00     0.124 S 
ATOM     78  O   UNL A   1      46.239  35.463  26.920  1.00  0.00    -0.237 OA
ATOM     79  O   UNL A   1      48.301  35.468  28.290  1.00  0.00    -0.237 OA
ATOM     80  O   UNL A   1      48.455  35.569  25.833  1.00  0.00    -0.744 OA
ENDBRANCH  76  77
ENDBRANCH  55  69
BRANCH  56  81
ATOM     81  C   UNL A   1      39.784  28.138  29.081  1.00  0.00     0.058 A 
ATOM     82  C   UNL A   1      38.848  28.201  30.130  1.00  0.00     0.135 A 
ATOM     83  C   UNL A   1      39.449  28.853  27.913  1.00  0.00     0.135 A 
ATOM     84  F   UNL A   1      39.085  27.558  31.284  1.00  0.00    -0.206 F 
ATOM     85  C   UNL A   1      37.691  28.986  30.056  1.00  0.00     0.059 A 
ATOM     86  C   UNL A   1      38.297  29.631  27.811  1.00  0.00     0.059 A 
ATOM     87  F   UNL A   1      40.281  28.901  26.862  1.00  0.00    -0.206 F 
ATOM     88  C   UNL A   1      37.439  29.720  28.899  1.00  0.00     0.060 A 
BRANCH  88  89
ATOM     89  S   UNL A   1      36.065  30.895  28.870  1.00  0.00     0.124 S 
ATOM     90  O   UNL A   1      36.681  32.065  28.255  1.00  0.00    -0.237 OA
ATOM     91  O   UNL A   1      35.076  30.192  28.059  1.00  0.00    -0.237 OA
ATOM     92  O   UNL A   1      35.716  31.043  30.281  1.00  0.00    -0.744 OA
ENDBRANCH  88  89
ENDBRANCH  56  81
BRANCH  68  93
ATOM     93  C   UNL A   1      45.172  26.738  32.163  1.00  0.00     0.058 A 
ATOM     94  C   UNL A   1      44.902  25.402  31.815  1.00  0.00     0.135 A 
ATOM     95  C   UNL A   1      45.432  27.002  33.517  1.00  0.00     0.135 A 
ATOM     96  F   UNL A   1      44.752  25.041  30.533  1.00  0.00    -0.206 F 
ATOM     97  C   UNL A   1      44.839  24.388  32.774  1.00  0.00     0.059 A 
ATOM     98  C   UNL A   1      45.408  26.001  34.485  1.00  0.00     0.059 A 
ATOM     99  F   UNL A   1      45.761  28.244  33.909  1.00  0.00    -0.206 F 
ATOM    100  C   UNL A   1      45.092  24.698  34.109  1.00  0.00     0.060 A 
BRANCH 100 101
ATOM    101  S   UNL A   1      45.069  23.377  35.341  1.00  0.00     0.124 S 
ATOM    102  O   UNL A   1      45.981  22.398  34.758  1.00  0.00    -0.237 OA
ATOM    103  O   UNL A   1      45.548  24.053  36.543  1.00  0.00    -0.237 OA
ATOM    104  O   UNL A   1      43.665  22.974  35.382  1.00  0.00    -0.744 OA
ENDBRANCH 100 101
ENDBRANCH  68  93
ENDBRANCH  42  43
ENDBRANCH  35  37
ENDBRANCH  34  35
ENDBRANCH  33  34
ENDBRANCH  32  33
ENDBRANCH  31  32
ENDBRANCH  30  31
ENDBRANCH  29  30
ENDBRANCH  28  29
ENDBRANCH   1  28
TORSDOF 28
ENDMDL
MODEL 3
REMARK VINA RESULT:      -9.2      2.510      3.429
REMARK SMILES CCCn1cc(S(=O)(=O)N[C@H]2C=C[C@@H](C(=O)OCCOCCOCCOCCOC(=O)c3ccc(-c4c5nc(c(-c6c(F)cc(S(=O)(=O)[O-])cc6F)c6ccc([nH]6)c(-c6c(F)cc(S(=O)(=O)[O-])cc6F)c6nc(c(-c7c(F)cc(S(=O)(=O)[O-])cc7F)c7ccc4[nH]7)C=C6)C=C5)cc3)C2)nc1C
REMARK SMILES IDX 22 1 21 2 20 3 19 4 18 5 17 6 15 7 16 8 14 9 11 10 12 11
REMARK SMILES IDX 98 12 13 13 10 14 7 16 8 17 9 18 6 19 4 20 5 21 100 22 99 23
REMARK SMILES IDX 101 24 3 25 2 26 1 27 23 28 24 29 25 30 26 31 27 32 28 33
REMARK SMILES IDX 29 34 30 35 31 36 32 37 33 38 97 39 34 40 96 41 35 42 36 43
REMARK SMILES IDX 37 44 90 45 38 46 95 47 89 48 91 49 39 50 94 51 88 52 87 53
REMARK SMILES IDX 40 55 74 56 53 57 73 58 54 59 57 60 72 61 92 62 55 63 56 64
REMARK SMILES IDX 71 66 93 67 58 68 41 69 42 70 51 71 43 72 44 73 50 74 52 75
REMARK SMILES IDX 45 76 46 77 47 78 48 79 49 80 75 81 76 82 85 83 77 84 78 85
REMARK SMILES IDX 84 86 86 87 79 88 80 89 81 90 82 91 83 92 59 93 60 94 69 95
REMARK SMILES IDX 61 96 62 97 68 98 70 99 63 100 64 101 65 102 66 103 67 104
REMARK H PARENT 10 15 91 54 57 65
REMARK Flexibility Score: inf
ROOT
ATOM      1  C   UNL A   1      40.746  20.898  26.923  1.00  0.00     0.188 C 
ENDROOT
BRANCH   1   2
ATOM      2  C   UNL A   1      39.824  21.628  25.929  1.00  0.00     0.188 C 
BRANCH   2   3
ATOM      3  O   UNL A   1      38.870  22.590  26.368  1.00  0.00    -0.376 OA
BRANCH   3   4
ATOM      4  C   UNL A   1      37.492  22.424  26.054  1.00  0.00     0.202 C 
BRANCH   4   5
ATOM      5  C   UNL A   1      37.080  21.632  24.805  1.00  0.00     0.261 C 
BRANCH   5   6
ATOM      6  O   UNL A   1      36.009  20.707  25.033  1.00  0.00    -0.463 OA
BRANCH   6   7
ATOM      7  C   UNL A   1      34.830  21.219  25.448  1.00  0.00     0.312 C 
ATOM      8  O   UNL A   1      34.532  21.424  26.622  1.00  0.00    -0.252 OA
BRANCH   7   9
ATOM      9  C   UNL A   1      33.950  21.698  24.292  1.00  0.00     0.123 C 
ATOM     10  C   UNL A   1      31.780  22.850  24.040  1.00  0.00     0.093 C 
ATOM     11  C   UNL A   1      32.924  23.791  23.979  1.00  0.00    -0.011 C 
ATOM     12  C   UNL A   1      32.426  21.510  24.353  1.00  0.00     0.043 C 
ATOM     13  C   UNL A   1      34.101  23.175  24.114  1.00  0.00    -0.015 C 
BRANCH  10  14
ATOM     14  N   UNL A   1      30.706  23.200  24.966  1.00  0.00    -0.203 NA
ATOM     15  H   UNL A   1      30.081  23.815  24.446  1.00  0.00     0.142 HD
BRANCH  14  16
ATOM     16  S   UNL A   1      30.969  23.958  26.456  1.00  0.00     0.260 S 
ATOM     17  O   UNL A   1      32.306  23.644  26.915  1.00  0.00    -0.205 OA
ATOM     18  O   UNL A   1      29.792  23.688  27.244  1.00  0.00    -0.205 OA
BRANCH  16  19
ATOM     19  C   UNL A   1      30.955  25.674  26.198  1.00  0.00     0.188 A 
ATOM     20  N   UNL A   1      31.056  27.544  25.089  1.00  0.00    -0.334 N 
ATOM     21  C   UNL A   1      30.486  26.290  25.059  1.00  0.00     0.129 A 
ATOM     22  C   UNL A   1      31.470  27.753  26.385  1.00  0.00     0.107 A 
ATOM     23  N   UNL A   1      31.504  26.607  27.042  1.00  0.00    -0.221 NA
ATOM     24  C   UNL A   1      31.842  29.039  27.022  1.00  0.00     0.088 C 
BRANCH  20  25
ATOM     25  C   UNL A   1      31.289  28.251  23.843  1.00  0.00     0.123 C 
BRANCH  25  26
ATOM     26  C   UNL A   1      32.680  28.727  23.449  1.00  0.00     0.018 C 
ATOM     27  C   UNL A   1      33.747  27.647  23.557  1.00  0.00     0.006 C 
ENDBRANCH  25  26
ENDBRANCH  20  25
ENDBRANCH  16  19
ENDBRANCH  14  16
ENDBRANCH  10  14
ENDBRANCH   7   9
ENDBRANCH   6   7
ENDBRANCH   5   6
ENDBRANCH   4   5
ENDBRANCH   3   4
ENDBRANCH   2   3
ENDBRANCH   1   2
BRANCH   1  28
ATOM     28  O   UNL A   1      41.049  19.558  26.607  1.00  0.00    -0.377 OA
BRANCH  28  29
ATOM     29  C   UNL A   1      42.234  19.362  25.843  1.00  0.00     0.188 C 
BRANCH  29  30
ATOM     30  C   UNL A   1      43.280  20.506  25.835  1.00  0.00     0.188 C 
BRANCH  30  31
ATOM     31  O   UNL A   1      44.136  20.552  24.691  1.00  0.00    -0.376 OA
BRANCH  31  32
ATOM     32  C   UNL A   1      45.307  21.359  24.690  1.00  0.00     0.202 C 
BRANCH  32  33
ATOM     33  C   UNL A   1      45.193  22.787  24.144  1.00  0.00     0.261 C 
BRANCH  33  34
ATOM     34  O   UNL A   1      44.935  23.767  25.131  1.00  0.00    -0.460 OA
BRANCH  34  35
ATOM     35  C   UNL A   1      43.690  24.269  25.121  1.00  0.00     0.338 C 
ATOM     36  O   UNL A   1      42.652  23.667  24.861  1.00  0.00    -0.246 OA
BRANCH  35  37
ATOM     37  C   UNL A   1      43.760  25.705  25.367  1.00  0.00     0.060 A 
ATOM     38  C   UNL A   1      44.846  26.128  26.131  1.00  0.00     0.016 A 
ATOM     39  C   UNL A   1      42.598  26.475  25.196  1.00  0.00     0.016 A 
ATOM     40  C   UNL A   1      44.631  27.168  26.994  1.00  0.00     0.010 A 
ATOM     41  C   UNL A   1      42.383  27.507  26.067  1.00  0.00     0.010 A 
ATOM     42  C   UNL A   1      43.359  27.749  27.027  1.00  0.00    -0.014 A 
BRANCH  42  43
ATOM     43  C   UNL A   1      43.087  28.666  28.103  1.00  0.00     0.031 A 
ATOM     44  C   UNL A   1      44.081  29.749  28.168  1.00  0.00     0.074 A 
ATOM     45  C   UNL A   1      42.007  28.536  28.892  1.00  0.00     0.049 A 
ATOM     46  N   UNL A   1      45.016  29.905  29.043  1.00  0.00    -0.248 NA
ATOM     47  C   UNL A   1      44.190  30.629  26.994  1.00  0.00     0.031 C 
ATOM     48  C   UNL A   1      40.844  27.660  28.724  1.00  0.00     0.029 A 
ATOM     49  N   UNL A   1      41.683  29.259  29.991  1.00  0.00    -0.354 N 
ATOM     50  C   UNL A   1      45.672  31.066  28.658  1.00  0.00     0.074 A 
ATOM     51  C   UNL A   1      45.287  31.322  27.296  1.00  0.00     0.031 C 
ATOM     52  C   UNL A   1      39.854  28.077  29.548  1.00  0.00     0.029 A 
ATOM     53  C   UNL A   1      40.355  29.158  30.380  1.00  0.00     0.049 A 
ATOM     54  H   UNL A   1      42.338  29.813  30.474  1.00  0.00     0.167 HD
ATOM     55  C   UNL A   1      46.235  31.884  29.585  1.00  0.00     0.037 A 
ATOM     56  C   UNL A   1      39.729  29.989  31.253  1.00  0.00     0.037 A 
ATOM     57  C   UNL A   1      46.465  31.188  30.828  1.00  0.00     0.049 A 
ATOM     58  C   UNL A   1      40.797  30.663  32.048  1.00  0.00     0.074 A 
ATOM     59  C   UNL A   1      47.180  30.058  31.181  1.00  0.00     0.029 A 
ATOM     60  N   UNL A   1      45.596  31.417  31.868  1.00  0.00    -0.354 N 
ATOM     61  N   UNL A   1      41.571  30.043  32.899  1.00  0.00    -0.248 NA
ATOM     62  C   UNL A   1      41.320  31.927  31.545  1.00  0.00     0.031 C 
ATOM     63  C   UNL A   1      46.383  29.405  32.166  1.00  0.00     0.029 A 
ATOM     64  C   UNL A   1      45.260  30.198  32.403  1.00  0.00     0.049 A 
ATOM     65  H   UNL A   1      45.272  32.296  32.173  1.00  0.00     0.167 HD
ATOM     66  C   UNL A   1      42.828  30.607  32.721  1.00  0.00     0.074 A 
ATOM     67  C   UNL A   1      42.595  31.813  31.931  1.00  0.00     0.031 C 
ATOM     68  C   UNL A   1      43.968  29.898  32.979  1.00  0.00     0.037 A 
BRANCH  55  69
ATOM     69  C   UNL A   1      46.194  33.388  29.475  1.00  0.00     0.058 A 
ATOM     70  C   UNL A   1      44.946  34.034  29.393  1.00  0.00     0.135 A 
ATOM     71  C   UNL A   1      47.319  34.193  29.176  1.00  0.00     0.135 A 
ATOM     72  F   UNL A   1      43.812  33.361  29.641  1.00  0.00    -0.206 F 
ATOM     73  C   UNL A   1      44.822  35.358  28.975  1.00  0.00     0.059 A 
ATOM     74  C   UNL A   1      47.222  35.529  28.819  1.00  0.00     0.059 A 
ATOM     75  F   UNL A   1      48.563  33.705  29.109  1.00  0.00    -0.206 F 
ATOM     76  C   UNL A   1      45.968  36.092  28.676  1.00  0.00     0.060 A 
BRANCH  76  77
ATOM     77  S   UNL A   1      45.810  37.762  28.029  1.00  0.00     0.124 S 
ATOM     78  O   UNL A   1      46.995  38.400  28.588  1.00  0.00    -0.237 OA
ATOM     79  O   UNL A   1      45.823  37.529  26.589  1.00  0.00    -0.237 OA
ATOM     80  O   UNL A   1      44.532  38.212  28.573  1.00  0.00    -0.744 OA
ENDBRANCH  76  77
ENDBRANCH  55  69
BRANCH  56  81
ATOM     81  C   UNL A   1      38.344  30.532  31.166  1.00  0.00     0.058 A 
ATOM     82  C   UNL A   1      37.521  30.582  32.307  1.00  0.00     0.135 A 
ATOM     83  C   UNL A   1      37.904  31.281  30.055  1.00  0.00     0.135 A 
ATOM     84  F   UNL A   1      37.865  29.907  33.415  1.00  0.00    -0.206 F 
ATOM     85  C   UNL A   1      36.376  31.384  32.370  1.00  0.00     0.059 A 
ATOM     86  C   UNL A   1      36.761  32.077  30.090  1.00  0.00     0.059 A 
ATOM     87  F   UNL A   1      38.625  31.344  28.926  1.00  0.00    -0.206 F 
ATOM     88  C   UNL A   1      36.019  32.151  31.262  1.00  0.00     0.060 A 
BRANCH  88  89
ATOM     89  S   UNL A   1      34.668  33.344  31.401  1.00  0.00     0.124 S 
ATOM     90  O   UNL A   1      34.187  33.417  30.027  1.00  0.00    -0.237 OA
ATOM     91  O   UNL A   1      33.778  32.691  32.356  1.00  0.00    -0.237 OA
ATOM     92  O   UNL A   1      35.330  34.549  31.896  1.00  0.00    -0.744 OA
ENDBRANCH  88  89
ENDBRANCH  56  81
BRANCH  68  93
ATOM     93  C   UNL A   1      43.838  28.594  33.727  1.00  0.00     0.058 A 
ATOM     94  C   UNL A   1      43.561  27.352  33.125  1.00  0.00     0.135 A 
ATOM     95  C   UNL A   1      44.141  28.583  35.097  1.00  0.00     0.135 A 
ATOM     96  F   UNL A   1      43.370  27.254  31.803  1.00  0.00    -0.206 F 
ATOM     97  C   UNL A   1      43.534  26.165  33.862  1.00  0.00     0.059 A 
ATOM     98  C   UNL A   1      44.153  27.407  35.845  1.00  0.00     0.059 A 
ATOM     99  F   UNL A   1      44.479  29.724  35.721  1.00  0.00    -0.206 F 
ATOM    100  C   UNL A   1      43.830  26.203  35.224  1.00  0.00     0.060 A 
BRANCH 100 101
ATOM    101  S   UNL A   1      43.852  24.662  36.165  1.00  0.00     0.124 S 
ATOM    102  O   UNL A   1      44.895  23.901  35.484  1.00  0.00    -0.237 OA
ATOM    103  O   UNL A   1      44.175  25.115  37.514  1.00  0.00    -0.237 OA
ATOM    104  O   UNL A   1      42.496  24.142  36.001  1.00  0.00    -0.744 OA
ENDBRANCH 100 101
ENDBRANCH  68  93
ENDBRANCH  42  43
ENDBRANCH  35  37
ENDBRANCH  34  35
ENDBRANCH  33  34
ENDBRANCH  32  33
ENDBRANCH  31  32
ENDBRANCH  30  31
ENDBRANCH  29  30
ENDBRANCH  28  29
ENDBRANCH   1  28
TORSDOF 28
ENDMDL
