MODEL 1
REMARK VINA RESULT:     -10.9      0.000      0.000
REMARK SMILES O=C(Cc1c(C(=O)c2cc3c(cn2)CCCC3)[nH]c2cc(Cl)ccc12)OCCOCCOCCOCCOC(=O)c1ccc(-c2c3nc(c(-c4c(F)cc(S(=O)(=O)[O-])cc4F)c4ccc([nH]4)c(-c4c(F)cc(S(=O)(=O)[O-])cc4F)c4nc(c(-c5c(F)cc(S(=O)(=O)[O-])cc5F)c5ccc2[nH]5)C=C4)C=C3)cc1
REMARK SMILES IDX 32 1 31 2 30 3 29 4 28 5 27 6 26 7 2 8 1 9 3 10 4 11 5 12
REMARK SMILES IDX 25 13 18 14 19 15 24 16 20 18 23 19 21 20 22 21 6 22 7 23
REMARK SMILES IDX 8 24 9 25 13 26 10 27 12 28 11 29 17 30 14 31 16 32 15 33
REMARK SMILES IDX 33 34 34 35 35 36 36 37 37 38 38 39 39 40 40 41 41 42 42 43
REMARK SMILES IDX 106 44 43 45 105 46 44 47 45 48 46 49 99 50 47 51 104 52
REMARK SMILES IDX 98 53 100 54 48 55 103 56 97 57 96 58 49 60 83 61 62 62
REMARK SMILES IDX 82 63 63 64 66 65 81 66 101 67 64 68 65 69 80 71 102 72
REMARK SMILES IDX 67 73 50 74 51 75 60 76 52 77 53 78 59 79 61 80 54 81 55 82
REMARK SMILES IDX 56 83 57 84 58 85 84 86 85 87 94 88 86 89 87 90 93 91 95 92
REMARK SMILES IDX 88 93 89 94 90 95 91 96 92 97 68 98 69 99 78 100 70 101
REMARK SMILES IDX 71 102 77 103 79 104 72 105 73 106 74 107 75 108 76 109
REMARK H PARENT 18 17 100 59 66 70
REMARK Flexibility Score: inf
ROOT
ATOM      1  O   UNL A   1      33.180  30.811  27.527  1.00  0.00    -0.377 OA
ENDROOT
BRANCH   1   2
ATOM      2  C   UNL A   1      32.380  30.720  26.361  1.00  0.00     0.188 C 
BRANCH   2   3
ATOM      3  C   UNL A   1      32.719  29.490  25.525  1.00  0.00     0.188 C 
BRANCH   3   4
ATOM      4  O   UNL A   1      33.300  28.391  26.206  1.00  0.00    -0.376 OA
BRANCH   4   5
ATOM      5  C   UNL A   1      32.501  27.232  26.427  1.00  0.00     0.202 C 
BRANCH   5   6
ATOM      6  C   UNL A   1      30.974  27.357  26.531  1.00  0.00     0.261 C 
BRANCH   6   7
ATOM      7  O   UNL A   1      30.219  26.163  26.305  1.00  0.00    -0.463 OA
BRANCH   7   8
ATOM      8  C   UNL A   1      30.526  25.246  25.372  1.00  0.00     0.310 C 
ATOM      9  O   UNL A   1      31.250  24.295  25.672  1.00  0.00    -0.252 OA
BRANCH   8  10
ATOM     10  C   UNL A   1      29.989  25.405  23.974  1.00  0.00     0.161 C 
BRANCH  10  11
ATOM     11  C   UNL A   1      30.587  26.549  23.213  1.00  0.00     0.000 A 
ATOM     12  C   UNL A   1      31.773  26.694  22.469  1.00  0.00     0.093 A 
ATOM     13  C   UNL A   1      29.819  27.740  23.035  1.00  0.00     0.004 A 
ATOM     14  N   UNL A   1      31.750  27.981  21.969  1.00  0.00    -0.351 N 
ATOM     15  C   UNL A   1      30.545  28.591  22.219  1.00  0.00     0.048 A 
ATOM     16  C   UNL A   1      28.525  28.116  23.457  1.00  0.00     0.012 A 
ATOM     17  H   UNL A   1      32.500  28.407  21.495  1.00  0.00     0.167 HD
ATOM     18  C   UNL A   1      30.027  29.811  21.775  1.00  0.00     0.047 A 
ATOM     19  C   UNL A   1      27.981  29.317  23.010  1.00  0.00     0.021 A 
ATOM     20  C   UNL A   1      28.727  30.144  22.177  1.00  0.00     0.043 A 
ATOM     21  Cl  UNL A   1      28.025  31.613  21.617  1.00  0.00    -0.084 Cl
BRANCH  12  22
ATOM     22  C   UNL A   1      32.800  25.723  22.075  1.00  0.00     0.227 C 
ATOM     23  O   UNL A   1      33.526  25.924  21.105  1.00  0.00    -0.285 OA
BRANCH  22  24
ATOM     24  C   UNL A   1      33.096  24.478  22.872  1.00  0.00     0.113 A 
ATOM     25  C   UNL A   1      32.497  23.246  22.623  1.00  0.00     0.036 A 
ATOM     26  N   UNL A   1      34.075  24.639  23.802  1.00  0.00    -0.252 NA
ATOM     27  C   UNL A   1      32.926  22.123  23.363  1.00  0.00    -0.041 A 
ATOM     28  C   UNL A   1      34.485  23.548  24.482  1.00  0.00     0.115 A 
ATOM     29  C   UNL A   1      33.941  22.282  24.321  1.00  0.00    -0.026 A 
ATOM     30  C   UNL A   1      32.270  20.775  23.150  1.00  0.00     0.036 C 
ATOM     31  C   UNL A   1      34.492  21.125  25.109  1.00  0.00     0.037 C 
ATOM     32  C   UNL A   1      32.977  19.602  23.842  1.00  0.00     0.005 C 
ATOM     33  C   UNL A   1      33.485  19.986  25.227  1.00  0.00     0.005 C 
ENDBRANCH  22  24
ENDBRANCH  12  22
ENDBRANCH  10  11
ENDBRANCH   8  10
ENDBRANCH   7   8
ENDBRANCH   6   7
ENDBRANCH   5   6
ENDBRANCH   4   5
ENDBRANCH   3   4
ENDBRANCH   2   3
ENDBRANCH   1   2
BRANCH   1  34
ATOM     34  C   UNL A   1      33.671  32.114  27.809  1.00  0.00     0.188 C 
BRANCH  34  35
ATOM     35  C   UNL A   1      35.206  32.345  27.883  1.00  0.00     0.188 C 
BRANCH  35  36
ATOM     36  O   UNL A   1      35.749  33.545  28.402  1.00  0.00    -0.376 OA
BRANCH  36  37
ATOM     37  C   UNL A   1      36.236  33.646  29.727  1.00  0.00     0.202 C 
BRANCH  37  38
ATOM     38  C   UNL A   1      35.872  32.623  30.817  1.00  0.00     0.261 C 
BRANCH  38  39
ATOM     39  O   UNL A   1      36.989  32.039  31.501  1.00  0.00    -0.460 OA
BRANCH  39  40
ATOM     40  C   UNL A   1      37.104  30.681  31.412  1.00  0.00     0.338 C 
ATOM     41  O   UNL A   1      36.208  29.875  31.469  1.00  0.00    -0.246 OA
BRANCH  40  42
ATOM     42  C   UNL A   1      38.481  30.364  30.933  1.00  0.00     0.060 A 
ATOM     43  C   UNL A   1      39.497  29.982  31.813  1.00  0.00     0.016 A 
ATOM     44  C   UNL A   1      38.773  30.585  29.577  1.00  0.00     0.016 A 
ATOM     45  C   UNL A   1      40.796  29.797  31.330  1.00  0.00     0.010 A 
ATOM     46  C   UNL A   1      40.077  30.425  29.100  1.00  0.00     0.010 A 
ATOM     47  C   UNL A   1      41.092  29.999  29.968  1.00  0.00    -0.014 A 
BRANCH  47  48
ATOM     48  C   UNL A   1      42.368  29.490  29.411  1.00  0.00     0.031 A 
ATOM     49  C   UNL A   1      42.566  28.077  28.955  1.00  0.00     0.074 A 
ATOM     50  C   UNL A   1      43.375  30.379  29.322  1.00  0.00     0.049 A 
ATOM     51  N   UNL A   1      43.608  27.551  28.363  1.00  0.00    -0.248 NA
ATOM     52  C   UNL A   1      41.465  27.134  29.193  1.00  0.00     0.031 C 
ATOM     53  C   UNL A   1      43.289  31.778  29.753  1.00  0.00     0.029 A 
ATOM     54  N   UNL A   1      44.647  30.257  28.833  1.00  0.00    -0.354 N 
ATOM     55  C   UNL A   1      43.283  26.223  28.118  1.00  0.00     0.074 A 
ATOM     56  C   UNL A   1      41.961  26.013  28.680  1.00  0.00     0.031 C 
ATOM     57  C   UNL A   1      44.446  32.393  29.477  1.00  0.00     0.029 A 
ATOM     58  C   UNL A   1      45.359  31.431  28.872  1.00  0.00     0.049 A 
ATOM     59  H   UNL A   1      45.015  29.412  28.488  1.00  0.00     0.167 HD
ATOM     60  C   UNL A   1      44.015  25.281  27.473  1.00  0.00     0.037 A 
ATOM     61  C   UNL A   1      46.606  31.712  28.452  1.00  0.00     0.037 A 
ATOM     62  C   UNL A   1      45.348  25.496  26.956  1.00  0.00     0.049 A 
ATOM     63  C   UNL A   1      47.416  30.635  27.798  1.00  0.00     0.074 A 
ATOM     64  C   UNL A   1      46.167  24.606  26.279  1.00  0.00     0.029 A 
ATOM     65  N   UNL A   1      46.067  26.680  27.070  1.00  0.00    -0.354 N 
ATOM     66  N   UNL A   1      47.076  29.396  27.533  1.00  0.00    -0.248 NA
ATOM     67  C   UNL A   1      48.775  30.995  27.379  1.00  0.00     0.031 C 
ATOM     68  C   UNL A   1      47.392  25.235  26.027  1.00  0.00     0.029 A 
ATOM     69  C   UNL A   1      47.325  26.534  26.501  1.00  0.00     0.049 A 
ATOM     70  H   UNL A   1      45.733  27.503  27.493  1.00  0.00     0.167 HD
ATOM     71  C   UNL A   1      48.175  28.831  26.899  1.00  0.00     0.074 A 
ATOM     72  C   UNL A   1      49.183  29.869  26.808  1.00  0.00     0.031 C 
ATOM     73  C   UNL A   1      48.332  27.565  26.436  1.00  0.00     0.037 A 
BRANCH  60  74
ATOM     74  C   UNL A   1      43.392  23.923  27.278  1.00  0.00     0.058 A 
ATOM     75  C   UNL A   1      42.938  23.502  26.017  1.00  0.00     0.135 A 
ATOM     76  C   UNL A   1      43.295  23.011  28.342  1.00  0.00     0.135 A 
ATOM     77  F   UNL A   1      43.004  24.332  24.965  1.00  0.00    -0.206 F 
ATOM     78  C   UNL A   1      42.383  22.240  25.825  1.00  0.00     0.059 A 
ATOM     79  C   UNL A   1      42.765  21.735  28.167  1.00  0.00     0.059 A 
ATOM     80  F   UNL A   1      43.720  23.354  29.568  1.00  0.00    -0.206 F 
ATOM     81  C   UNL A   1      42.296  21.365  26.908  1.00  0.00     0.060 A 
BRANCH  81  82
ATOM     82  S   UNL A   1      41.550  19.741  26.650  1.00  0.00     0.124 S 
ATOM     83  O   UNL A   1      42.275  18.931  27.626  1.00  0.00    -0.237 OA
ATOM     84  O   UNL A   1      40.144  19.990  26.950  1.00  0.00    -0.237 OA
ATOM     85  O   UNL A   1      41.848  19.447  25.252  1.00  0.00    -0.744 OA
ENDBRANCH  81  82
ENDBRANCH  60  74
BRANCH  61  86
ATOM     86  C   UNL A   1      47.118  33.097  28.591  1.00  0.00     0.058 A 
ATOM     87  C   UNL A   1      46.930  34.030  27.563  1.00  0.00     0.135 A 
ATOM     88  C   UNL A   1      47.731  33.532  29.775  1.00  0.00     0.135 A 
ATOM     89  F   UNL A   1      46.347  33.657  26.415  1.00  0.00    -0.206 F 
ATOM     90  C   UNL A   1      47.331  35.353  27.705  1.00  0.00     0.059 A 
ATOM     91  C   UNL A   1      48.119  34.855  29.950  1.00  0.00     0.059 A 
ATOM     92  F   UNL A   1      47.910  32.677  30.794  1.00  0.00    -0.206 F 
ATOM     93  C   UNL A   1      47.916  35.758  28.907  1.00  0.00     0.060 A 
BRANCH  93  94
ATOM     94  S   UNL A   1      48.357  37.497  29.105  1.00  0.00     0.124 S 
ATOM     95  O   UNL A   1      49.694  37.528  28.523  1.00  0.00    -0.237 OA
ATOM     96  O   UNL A   1      47.311  38.166  28.339  1.00  0.00    -0.237 OA
ATOM     97  O   UNL A   1      48.293  37.698  30.549  1.00  0.00    -0.744 OA
ENDBRANCH  93  94
ENDBRANCH  61  86
BRANCH  73  98
ATOM     98  C   UNL A   1      49.650  27.238  25.787  1.00  0.00     0.058 A 
ATOM     99  C   UNL A   1      49.845  27.394  24.405  1.00  0.00     0.135 A 
ATOM    100  C   UNL A   1      50.733  26.779  26.554  1.00  0.00     0.135 A 
ATOM    101  F   UNL A   1      48.840  27.818  23.623  1.00  0.00    -0.206 F 
ATOM    102  C   UNL A   1      51.059  27.078  23.802  1.00  0.00     0.059 A 
ATOM    103  C   UNL A   1      51.964  26.484  25.975  1.00  0.00     0.059 A 
ATOM    104  F   UNL A   1      50.603  26.618  27.880  1.00  0.00    -0.206 F 
ATOM    105  C   UNL A   1      52.113  26.623  24.596  1.00  0.00     0.060 A 
BRANCH 105 106
ATOM    106  S   UNL A   1      53.687  26.234  23.800  1.00  0.00     0.124 S 
ATOM    107  O   UNL A   1      54.178  25.145  24.638  1.00  0.00    -0.237 OA
ATOM    108  O   UNL A   1      53.271  25.860  22.453  1.00  0.00    -0.237 OA
ATOM    109  O   UNL A   1      54.434  27.484  23.896  1.00  0.00    -0.744 OA
ENDBRANCH 105 106
ENDBRANCH  73  98
ENDBRANCH  47  48
ENDBRANCH  40  42
ENDBRANCH  39  40
ENDBRANCH  38  39
ENDBRANCH  37  38
ENDBRANCH  36  37
ENDBRANCH  35  36
ENDBRANCH  34  35
ENDBRANCH   1  34
TORSDOF 26
ENDMDL
MODEL 2
REMARK VINA RESULT:     -10.2      6.073     11.647
REMARK SMILES O=C(Cc1c(C(=O)c2cc3c(cn2)CCCC3)[nH]c2cc(Cl)ccc12)OCCOCCOCCOCCOC(=O)c1ccc(-c2c3nc(c(-c4c(F)cc(S(=O)(=O)[O-])cc4F)c4ccc([nH]4)c(-c4c(F)cc(S(=O)(=O)[O-])cc4F)c4nc(c(-c5c(F)cc(S(=O)(=O)[O-])cc5F)c5ccc2[nH]5)C=C4)C=C3)cc1
REMARK SMILES IDX 32 1 31 2 30 3 29 4 28 5 27 6 26 7 2 8 1 9 3 10 4 11 5 12
REMARK SMILES IDX 25 13 18 14 19 15 24 16 20 18 23 19 21 20 22 21 6 22 7 23
REMARK SMILES IDX 8 24 9 25 13 26 10 27 12 28 11 29 17 30 14 31 16 32 15 33
REMARK SMILES IDX 33 34 34 35 35 36 36 37 37 38 38 39 39 40 40 41 41 42 42 43
REMARK SMILES IDX 106 44 43 45 105 46 44 47 45 48 46 49 99 50 47 51 104 52
REMARK SMILES IDX 98 53 100 54 48 55 103 56 97 57 96 58 49 60 83 61 62 62
REMARK SMILES IDX 82 63 63 64 66 65 81 66 101 67 64 68 65 69 80 71 102 72
REMARK SMILES IDX 67 73 50 74 51 75 60 76 52 77 53 78 59 79 61 80 54 81 55 82
REMARK SMILES IDX 56 83 57 84 58 85 84 86 85 87 94 88 86 89 87 90 93 91 95 92
REMARK SMILES IDX 88 93 89 94 90 95 91 96 92 97 68 98 69 99 78 100 70 101
REMARK SMILES IDX 71 102 77 103 79 104 72 105 73 106 74 107 75 108 76 109
REMARK H PARENT 18 17 100 59 66 70
REMARK Flexibility Score: inf
ROOT
ATOM      1  O   UNL A   1      38.586  22.757  25.916  1.00  0.00    -0.377 OA
ENDROOT
BRANCH   1   2
ATOM      2  C   UNL A   1      38.482  21.391  25.555  1.00  0.00     0.188 C 
BRANCH   2   3
ATOM      3  C   UNL A   1      37.174  21.083  24.835  1.00  0.00     0.188 C 
BRANCH   3   4
ATOM      4  O   UNL A   1      35.996  21.669  25.363  1.00  0.00    -0.376 OA
BRANCH   4   5
ATOM      5  C   UNL A   1      35.804  23.071  25.194  1.00  0.00     0.202 C 
BRANCH   5   6
ATOM      6  C   UNL A   1      35.468  23.642  23.809  1.00  0.00     0.261 C 
BRANCH   6   7
ATOM      7  O   UNL A   1      34.468  22.947  23.058  1.00  0.00    -0.463 OA
BRANCH   7   8
ATOM      8  C   UNL A   1      33.199  23.368  22.929  1.00  0.00     0.310 C 
ATOM      9  O   UNL A   1      32.972  24.457  22.400  1.00  0.00    -0.252 OA
BRANCH   8  10
ATOM     10  C   UNL A   1      32.078  22.503  23.445  1.00  0.00     0.161 C 
BRANCH  10  11
ATOM     11  C   UNL A   1      32.466  21.611  24.584  1.00  0.00     0.000 A 
ATOM     12  C   UNL A   1      32.591  21.821  25.971  1.00  0.00     0.093 A 
ATOM     13  C   UNL A   1      32.639  20.214  24.343  1.00  0.00     0.004 A 
ATOM     14  N   UNL A   1      32.945  20.599  26.507  1.00  0.00    -0.351 N 
ATOM     15  C   UNL A   1      32.888  19.604  25.561  1.00  0.00     0.048 A 
ATOM     16  C   UNL A   1      32.529  19.423  23.179  1.00  0.00     0.012 A 
ATOM     17  H   UNL A   1      33.206  20.457  27.446  1.00  0.00     0.167 HD
ATOM     18  C   UNL A   1      33.011  18.217  25.683  1.00  0.00     0.047 A 
ATOM     19  C   UNL A   1      32.627  18.039  23.279  1.00  0.00     0.021 A 
ATOM     20  C   UNL A   1      32.861  17.452  24.518  1.00  0.00     0.043 A 
ATOM     21  Cl  UNL A   1      32.954  15.735  24.623  1.00  0.00    -0.084 Cl
BRANCH  12  22
ATOM     22  C   UNL A   1      32.267  22.977  26.814  1.00  0.00     0.227 C 
ATOM     23  O   UNL A   1      32.293  22.898  28.039  1.00  0.00    -0.285 OA
BRANCH  22  24
ATOM     24  C   UNL A   1      31.976  24.344  26.249  1.00  0.00     0.113 A 
ATOM     25  C   UNL A   1      32.964  25.271  25.931  1.00  0.00     0.036 A 
ATOM     26  N   UNL A   1      30.658  24.563  25.987  1.00  0.00    -0.252 NA
ATOM     27  C   UNL A   1      32.583  26.481  25.311  1.00  0.00    -0.041 A 
ATOM     28  C   UNL A   1      30.320  25.716  25.376  1.00  0.00     0.115 A 
ATOM     29  C   UNL A   1      31.226  26.709  25.034  1.00  0.00    -0.026 A 
ATOM     30  C   UNL A   1      33.624  27.532  24.988  1.00  0.00     0.036 C 
ATOM     31  C   UNL A   1      30.746  27.947  24.324  1.00  0.00     0.037 C 
ATOM     32  C   UNL A   1      33.118  28.688  24.116  1.00  0.00     0.005 C 
ATOM     33  C   UNL A   1      31.709  29.116  24.507  1.00  0.00     0.005 C 
ENDBRANCH  22  24
ENDBRANCH  12  22
ENDBRANCH  10  11
ENDBRANCH   8  10
ENDBRANCH   7   8
ENDBRANCH   6   7
ENDBRANCH   5   6
ENDBRANCH   4   5
ENDBRANCH   3   4
ENDBRANCH   2   3
ENDBRANCH   1   2
BRANCH   1  34
ATOM     34  C   UNL A   1      39.512  23.027  26.958  1.00  0.00     0.188 C 
BRANCH  34  35
ATOM     35  C   UNL A   1      40.573  21.951  27.325  1.00  0.00     0.188 C 
BRANCH  35  36
ATOM     36  O   UNL A   1      41.911  22.047  26.872  1.00  0.00    -0.376 OA
BRANCH  36  37
ATOM     37  C   UNL A   1      42.252  22.651  25.639  1.00  0.00     0.202 C 
BRANCH  37  38
ATOM     38  C   UNL A   1      42.853  24.066  25.556  1.00  0.00     0.261 C 
BRANCH  38  39
ATOM     39  O   UNL A   1      42.891  24.784  26.796  1.00  0.00    -0.460 OA
BRANCH  39  40
ATOM     40  C   UNL A   1      44.091  25.349  27.127  1.00  0.00     0.338 C 
ATOM     41  O   UNL A   1      45.133  25.232  26.529  1.00  0.00    -0.246 OA
BRANCH  40  42
ATOM     42  C   UNL A   1      43.843  26.379  28.177  1.00  0.00     0.060 A 
ATOM     43  C   UNL A   1      44.479  27.623  28.152  1.00  0.00     0.016 A 
ATOM     44  C   UNL A   1      43.046  26.021  29.276  1.00  0.00     0.016 A 
ATOM     45  C   UNL A   1      44.294  28.515  29.214  1.00  0.00     0.010 A 
ATOM     46  C   UNL A   1      42.883  26.901  30.349  1.00  0.00     0.010 A 
ATOM     47  C   UNL A   1      43.482  28.168  30.310  1.00  0.00    -0.014 A 
BRANCH  47  48
ATOM     48  C   UNL A   1      43.032  29.222  31.251  1.00  0.00     0.031 A 
ATOM     49  C   UNL A   1      41.791  30.035  31.051  1.00  0.00     0.074 A 
ATOM     50  C   UNL A   1      43.806  29.421  32.335  1.00  0.00     0.049 A 
ATOM     51  N   UNL A   1      41.254  30.913  31.859  1.00  0.00    -0.248 NA
ATOM     52  C   UNL A   1      41.062  29.848  29.790  1.00  0.00     0.031 C 
ATOM     53  C   UNL A   1      45.046  28.690  32.617  1.00  0.00     0.029 A 
ATOM     54  N   UNL A   1      43.669  30.268  33.400  1.00  0.00    -0.354 N 
ATOM     55  C   UNL A   1      40.099  31.361  31.229  1.00  0.00     0.074 A 
ATOM     56  C   UNL A   1      40.049  30.694  29.941  1.00  0.00     0.031 C 
ATOM     57  C   UNL A   1      45.536  29.096  33.795  1.00  0.00     0.029 A 
ATOM     58  C   UNL A   1      44.661  30.127  34.340  1.00  0.00     0.049 A 
ATOM     59  H   UNL A   1      42.932  30.916  33.484  1.00  0.00     0.167 HD
ATOM     60  C   UNL A   1      39.169  32.233  31.693  1.00  0.00     0.037 A 
ATOM     61  C   UNL A   1      44.842  30.746  35.520  1.00  0.00     0.037 A 
ATOM     62  C   UNL A   1      39.258  32.921  32.962  1.00  0.00     0.049 A 
ATOM     63  C   UNL A   1      43.831  31.750  35.981  1.00  0.00     0.074 A 
ATOM     64  C   UNL A   1      38.361  33.817  33.524  1.00  0.00     0.029 A 
ATOM     65  N   UNL A   1      40.310  32.804  33.862  1.00  0.00    -0.354 N 
ATOM     66  N   UNL A   1      42.721  32.130  35.392  1.00  0.00    -0.248 NA
ATOM     67  C   UNL A   1      44.092  32.406  37.267  1.00  0.00     0.031 C 
ATOM     68  C   UNL A   1      38.892  34.273  34.736  1.00  0.00     0.029 A 
ATOM     69  C   UNL A   1      40.097  33.629  34.959  1.00  0.00     0.049 A 
ATOM     70  H   UNL A   1      41.094  32.221  33.740  1.00  0.00     0.167 HD
ATOM     71  C   UNL A   1      42.140  33.058  36.247  1.00  0.00     0.074 A 
ATOM     72  C   UNL A   1      43.015  33.171  37.397  1.00  0.00     0.031 C 
ATOM     73  C   UNL A   1      40.986  33.754  36.089  1.00  0.00     0.037 A 
BRANCH  60  74
ATOM     74  C   UNL A   1      37.963  32.494  30.830  1.00  0.00     0.058 A 
ATOM     75  C   UNL A   1      36.836  31.658  30.877  1.00  0.00     0.135 A 
ATOM     76  C   UNL A   1      37.904  33.618  29.988  1.00  0.00     0.135 A 
ATOM     77  F   UNL A   1      36.837  30.569  31.661  1.00  0.00    -0.206 F 
ATOM     78  C   UNL A   1      35.709  31.907  30.099  1.00  0.00     0.059 A 
ATOM     79  C   UNL A   1      36.777  33.900  29.220  1.00  0.00     0.059 A 
ATOM     80  F   UNL A   1      38.948  34.459  29.908  1.00  0.00    -0.206 F 
ATOM     81  C   UNL A   1      35.691  33.028  29.269  1.00  0.00     0.060 A 
BRANCH  81  82
ATOM     82  S   UNL A   1      34.232  33.325  28.247  1.00  0.00     0.124 S 
ATOM     83  O   UNL A   1      33.923  31.974  27.786  1.00  0.00    -0.237 OA
ATOM     84  O   UNL A   1      33.292  33.901  29.202  1.00  0.00    -0.237 OA
ATOM     85  O   UNL A   1      34.717  34.238  27.217  1.00  0.00    -0.744 OA
ENDBRANCH  81  82
ENDBRANCH  60  74
BRANCH  61  86
ATOM     86  C   UNL A   1      46.003  30.368  36.361  1.00  0.00     0.058 A 
ATOM     87  C   UNL A   1      47.222  31.047  36.237  1.00  0.00     0.135 A 
ATOM     88  C   UNL A   1      45.895  29.382  37.353  1.00  0.00     0.135 A 
ATOM     89  F   UNL A   1      47.368  31.999  35.303  1.00  0.00    -0.206 F 
ATOM     90  C   UNL A   1      48.298  30.763  37.069  1.00  0.00     0.059 A 
ATOM     91  C   UNL A   1      46.949  29.096  38.213  1.00  0.00     0.059 A 
ATOM     92  F   UNL A   1      44.738  28.722  37.522  1.00  0.00    -0.206 F 
ATOM     93  C   UNL A   1      48.148  29.792  38.061  1.00  0.00     0.060 A 
BRANCH  93  94
ATOM     94  S   UNL A   1      49.527  29.492  39.186  1.00  0.00     0.124 S 
ATOM     95  O   UNL A   1      50.093  30.829  39.319  1.00  0.00    -0.237 OA
ATOM     96  O   UNL A   1      48.848  28.964  40.365  1.00  0.00    -0.237 OA
ATOM     97  O   UNL A   1      50.349  28.528  38.461  1.00  0.00    -0.744 OA
ENDBRANCH  93  94
ENDBRANCH  61  86
BRANCH  73  98
ATOM     98  C   UNL A   1      40.606  34.701  37.195  1.00  0.00     0.058 A 
ATOM     99  C   UNL A   1      39.671  34.342  38.179  1.00  0.00     0.135 A 
ATOM    100  C   UNL A   1      41.194  35.973  37.283  1.00  0.00     0.135 A 
ATOM    101  F   UNL A   1      39.071  33.142  38.136  1.00  0.00    -0.206 F 
ATOM    102  C   UNL A   1      39.309  35.222  39.194  1.00  0.00     0.059 A 
ATOM    103  C   UNL A   1      40.867  36.859  38.306  1.00  0.00     0.059 A 
ATOM    104  F   UNL A   1      42.099  36.365  36.372  1.00  0.00    -0.206 F 
ATOM    105  C   UNL A   1      39.913  36.480  39.249  1.00  0.00     0.060 A 
BRANCH 105 106
ATOM    106  S   UNL A   1      39.446  37.604  40.583  1.00  0.00     0.124 S 
ATOM    107  O   UNL A   1      40.608  38.484  40.646  1.00  0.00    -0.237 OA
ATOM    108  O   UNL A   1      38.221  38.207  40.067  1.00  0.00    -0.237 OA
ATOM    109  O   UNL A   1      39.268  36.717  41.728  1.00  0.00    -0.744 OA
ENDBRANCH 105 106
ENDBRANCH  73  98
ENDBRANCH  47  48
ENDBRANCH  40  42
ENDBRANCH  39  40
ENDBRANCH  38  39
ENDBRANCH  37  38
ENDBRANCH  36  37
ENDBRANCH  35  36
ENDBRANCH  34  35
ENDBRANCH   1  34
TORSDOF 26
ENDMDL
MODEL 3
REMARK VINA RESULT:     -10.0      6.701     10.283
REMARK SMILES O=C(Cc1c(C(=O)c2cc3c(cn2)CCCC3)[nH]c2cc(Cl)ccc12)OCCOCCOCCOCCOC(=O)c1ccc(-c2c3nc(c(-c4c(F)cc(S(=O)(=O)[O-])cc4F)c4ccc([nH]4)c(-c4c(F)cc(S(=O)(=O)[O-])cc4F)c4nc(c(-c5c(F)cc(S(=O)(=O)[O-])cc5F)c5ccc2[nH]5)C=C4)C=C3)cc1
REMARK SMILES IDX 32 1 31 2 30 3 29 4 28 5 27 6 26 7 2 8 1 9 3 10 4 11 5 12
REMARK SMILES IDX 25 13 18 14 19 15 24 16 20 18 23 19 21 20 22 21 6 22 7 23
REMARK SMILES IDX 8 24 9 25 13 26 10 27 12 28 11 29 17 30 14 31 16 32 15 33
REMARK SMILES IDX 33 34 34 35 35 36 36 37 37 38 38 39 39 40 40 41 41 42 42 43
REMARK SMILES IDX 106 44 43 45 105 46 44 47 45 48 46 49 99 50 47 51 104 52
REMARK SMILES IDX 98 53 100 54 48 55 103 56 97 57 96 58 49 60 83 61 62 62
REMARK SMILES IDX 82 63 63 64 66 65 81 66 101 67 64 68 65 69 80 71 102 72
REMARK SMILES IDX 67 73 50 74 51 75 60 76 52 77 53 78 59 79 61 80 54 81 55 82
REMARK SMILES IDX 56 83 57 84 58 85 84 86 85 87 94 88 86 89 87 90 93 91 95 92
REMARK SMILES IDX 88 93 89 94 90 95 91 96 92 97 68 98 69 99 78 100 70 101
REMARK SMILES IDX 71 102 77 103 79 104 72 105 73 106 74 107 75 108 76 109
REMARK H PARENT 18 17 100 59 66 70
REMARK Flexibility Score: inf
ROOT
ATOM      1  O   UNL A   1      33.281  30.303  26.500  1.00  0.00    -0.377 OA
ENDROOT
BRANCH   1   2
ATOM      2  C   UNL A   1      33.242  29.681  25.227  1.00  0.00     0.188 C 
BRANCH   2   3
ATOM      3  C   UNL A   1      33.745  28.241  25.273  1.00  0.00     0.188 C 
BRANCH   3   4
ATOM      4  O   UNL A   1      33.379  27.469  26.404  1.00  0.00    -0.376 OA
BRANCH   4   5
ATOM      5  C   UNL A   1      32.477  26.381  26.218  1.00  0.00     0.202 C 
BRANCH   5   6
ATOM      6  C   UNL A   1      30.962  26.607  26.330  1.00  0.00     0.261 C 
BRANCH   6   7
ATOM      7  O   UNL A   1      30.123  25.530  25.901  1.00  0.00    -0.463 OA
BRANCH   7   8
ATOM      8  C   UNL A   1      30.419  24.709  24.880  1.00  0.00     0.310 C 
ATOM      9  O   UNL A   1      31.044  23.670  25.100  1.00  0.00    -0.252 OA
BRANCH   8  10
ATOM     10  C   UNL A   1      29.989  25.080  23.485  1.00  0.00     0.161 C 
BRANCH  10  11
ATOM     11  C   UNL A   1      30.584  26.359  22.980  1.00  0.00     0.000 A 
ATOM     12  C   UNL A   1      31.793  26.666  22.328  1.00  0.00     0.093 A 
ATOM     13  C   UNL A   1      29.790  27.547  22.997  1.00  0.00     0.004 A 
ATOM     14  N   UNL A   1      31.754  28.024  22.079  1.00  0.00    -0.351 N 
ATOM     15  C   UNL A   1      30.524  28.552  22.388  1.00  0.00     0.048 A 
ATOM     16  C   UNL A   1      28.472  27.810  23.426  1.00  0.00     0.012 A 
ATOM     17  H   UNL A   1      32.509  28.548  21.726  1.00  0.00     0.167 HD
ATOM     18  C   UNL A   1      29.989  29.823  22.160  1.00  0.00     0.047 A 
ATOM     19  C   UNL A   1      27.912  29.062  23.190  1.00  0.00     0.021 A 
ATOM     20  C   UNL A   1      28.666  30.048  22.562  1.00  0.00     0.043 A 
ATOM     21  Cl  UNL A   1      27.945  31.582  22.258  1.00  0.00    -0.084 Cl
BRANCH  12  22
ATOM     22  C   UNL A   1      32.861  25.809  21.803  1.00  0.00     0.227 C 
ATOM     23  O   UNL A   1      33.393  26.045  20.721  1.00  0.00    -0.285 OA
BRANCH  22  24
ATOM     24  C   UNL A   1      33.438  24.652  22.579  1.00  0.00     0.113 A 
ATOM     25  C   UNL A   1      34.359  24.803  23.612  1.00  0.00     0.036 A 
ATOM     26  N   UNL A   1      32.907  23.445  22.245  1.00  0.00    -0.252 NA
ATOM     27  C   UNL A   1      34.753  23.659  24.340  1.00  0.00    -0.041 A 
ATOM     28  C   UNL A   1      33.281  22.370  22.967  1.00  0.00     0.115 A 
ATOM     29  C   UNL A   1      34.203  22.412  24.002  1.00  0.00    -0.026 A 
ATOM     30  C   UNL A   1      35.784  23.776  25.442  1.00  0.00     0.036 C 
ATOM     31  C   UNL A   1      34.528  21.156  24.766  1.00  0.00     0.037 C 
ATOM     32  C   UNL A   1      35.951  22.515  26.299  1.00  0.00     0.005 C 
ATOM     33  C   UNL A   1      35.885  21.247  25.457  1.00  0.00     0.005 C 
ENDBRANCH  22  24
ENDBRANCH  12  22
ENDBRANCH  10  11
ENDBRANCH   8  10
ENDBRANCH   7   8
ENDBRANCH   6   7
ENDBRANCH   5   6
ENDBRANCH   4   5
ENDBRANCH   3   4
ENDBRANCH   2   3
ENDBRANCH   1   2
BRANCH   1  34
ATOM     34  C   UNL A   1      32.024  30.767  26.972  1.00  0.00     0.188 C 
BRANCH  34  35
ATOM     35  C   UNL A   1      31.518  32.167  26.524  1.00  0.00     0.188 C 
BRANCH  35  36
ATOM     36  O   UNL A   1      31.764  33.325  27.300  1.00  0.00    -0.376 OA
BRANCH  36  37
ATOM     37  C   UNL A   1      33.070  33.728  27.669  1.00  0.00     0.202 C 
BRANCH  37  38
ATOM     38  C   UNL A   1      33.340  34.611  28.901  1.00  0.00     0.261 C 
BRANCH  38  39
ATOM     39  O   UNL A   1      33.376  33.912  30.153  1.00  0.00    -0.460 OA
BRANCH  39  40
ATOM     40  C   UNL A   1      33.438  34.691  31.274  1.00  0.00     0.338 C 
ATOM     41  O   UNL A   1      32.585  35.443  31.680  1.00  0.00    -0.246 OA
BRANCH  40  42
ATOM     42  C   UNL A   1      34.607  34.243  32.084  1.00  0.00     0.060 A 
ATOM     43  C   UNL A   1      34.800  32.899  32.416  1.00  0.00     0.016 A 
ATOM     44  C   UNL A   1      35.452  35.227  32.623  1.00  0.00     0.016 A 
ATOM     45  C   UNL A   1      35.853  32.541  33.265  1.00  0.00     0.010 A 
ATOM     46  C   UNL A   1      36.487  34.871  33.492  1.00  0.00     0.010 A 
ATOM     47  C   UNL A   1      36.714  33.521  33.794  1.00  0.00    -0.014 A 
BRANCH  47  48
ATOM     48  C   UNL A   1      38.000  33.113  34.409  1.00  0.00     0.031 A 
ATOM     49  C   UNL A   1      39.196  32.683  33.617  1.00  0.00     0.074 A 
ATOM     50  C   UNL A   1      38.054  33.152  35.754  1.00  0.00     0.049 A 
ATOM     51  N   UNL A   1      40.398  32.399  34.049  1.00  0.00    -0.248 NA
ATOM     52  C   UNL A   1      39.027  32.549  32.165  1.00  0.00     0.031 C 
ATOM     53  C   UNL A   1      36.938  33.543  36.620  1.00  0.00     0.029 A 
ATOM     54  N   UNL A   1      39.074  32.882  36.624  1.00  0.00    -0.354 N 
ATOM     55  C   UNL A   1      41.149  32.089  32.921  1.00  0.00     0.074 A 
ATOM     56  C   UNL A   1      40.243  32.166  31.790  1.00  0.00     0.031 C 
ATOM     57  C   UNL A   1      37.345  33.522  37.896  1.00  0.00     0.029 A 
ATOM     58  C   UNL A   1      38.739  33.096  37.939  1.00  0.00     0.049 A 
ATOM     59  H   UNL A   1      39.961  32.565  36.337  1.00  0.00     0.167 HD
ATOM     60  C   UNL A   1      42.470  31.785  32.845  1.00  0.00     0.037 A 
ATOM     61  C   UNL A   1      39.473  32.980  39.060  1.00  0.00     0.037 A 
ATOM     62  C   UNL A   1      43.348  31.670  33.987  1.00  0.00     0.049 A 
ATOM     63  C   UNL A   1      40.914  32.582  38.951  1.00  0.00     0.074 A 
ATOM     64  C   UNL A   1      44.702  31.375  34.010  1.00  0.00     0.029 A 
ATOM     65  N   UNL A   1      42.960  31.830  35.312  1.00  0.00    -0.354 N 
ATOM     66  N   UNL A   1      41.620  32.336  37.873  1.00  0.00    -0.248 NA
ATOM     67  C   UNL A   1      41.658  32.453  40.208  1.00  0.00     0.031 C 
ATOM     68  C   UNL A   1      45.119  31.312  35.345  1.00  0.00     0.029 A 
ATOM     69  C   UNL A   1      44.040  31.615  36.158  1.00  0.00     0.049 A 
ATOM     70  H   UNL A   1      42.050  32.062  35.608  1.00  0.00     0.167 HD
ATOM     71  C   UNL A   1      42.900  32.039  38.321  1.00  0.00     0.074 A 
ATOM     72  C   UNL A   1      42.873  32.151  39.766  1.00  0.00     0.031 C 
ATOM     73  C   UNL A   1      43.998  31.704  37.598  1.00  0.00     0.037 A 
BRANCH  60  74
ATOM     74  C   UNL A   1      43.056  31.558  31.476  1.00  0.00     0.058 A 
ATOM     75  C   UNL A   1      43.112  30.275  30.908  1.00  0.00     0.135 A 
ATOM     76  C   UNL A   1      43.516  32.634  30.697  1.00  0.00     0.135 A 
ATOM     77  F   UNL A   1      42.688  29.209  31.606  1.00  0.00    -0.206 F 
ATOM     78  C   UNL A   1      43.631  30.061  29.634  1.00  0.00     0.059 A 
ATOM     79  C   UNL A   1      44.016  32.447  29.411  1.00  0.00     0.059 A 
ATOM     80  F   UNL A   1      43.479  33.885  31.183  1.00  0.00    -0.206 F 
ATOM     81  C   UNL A   1      44.085  31.154  28.895  1.00  0.00     0.060 A 
BRANCH  81  82
ATOM     82  S   UNL A   1      44.779  30.859  27.254  1.00  0.00     0.124 S 
ATOM     83  O   UNL A   1      43.584  30.497  26.496  1.00  0.00    -0.237 OA
ATOM     84  O   UNL A   1      45.371  32.152  26.928  1.00  0.00    -0.237 OA
ATOM     85  O   UNL A   1      45.729  29.774  27.475  1.00  0.00    -0.744 OA
ENDBRANCH  81  82
ENDBRANCH  60  74
BRANCH  61  86
ATOM     86  C   UNL A   1      38.854  33.312  40.366  1.00  0.00     0.058 A 
ATOM     87  C   UNL A   1      38.997  34.593  40.915  1.00  0.00     0.135 A 
ATOM     88  C   UNL A   1      38.047  32.388  41.046  1.00  0.00     0.135 A 
ATOM     89  F   UNL A   1      39.757  35.508  40.296  1.00  0.00    -0.206 F 
ATOM     90  C   UNL A   1      38.358  34.949  42.097  1.00  0.00     0.059 A 
ATOM     91  C   UNL A   1      37.380  32.727  42.217  1.00  0.00     0.059 A 
ATOM     92  F   UNL A   1      37.864  31.157  40.543  1.00  0.00    -0.206 F 
ATOM     93  C   UNL A   1      37.544  34.012  42.735  1.00  0.00     0.060 A 
BRANCH  93  94
ATOM     94  S   UNL A   1      36.659  34.515  44.225  1.00  0.00     0.124 S 
ATOM     95  O   UNL A   1      37.149  35.876  44.411  1.00  0.00    -0.237 OA
ATOM     96  O   UNL A   1      35.266  34.388  43.809  1.00  0.00    -0.237 OA
ATOM     97  O   UNL A   1      37.098  33.544  45.222  1.00  0.00    -0.744 OA
ENDBRANCH  93  94
ENDBRANCH  61  86
BRANCH  73  98
ATOM     98  C   UNL A   1      45.263  31.434  38.367  1.00  0.00     0.058 A 
ATOM     99  C   UNL A   1      45.628  30.131  38.743  1.00  0.00     0.135 A 
ATOM    100  C   UNL A   1      46.126  32.483  38.720  1.00  0.00     0.135 A 
ATOM    101  F   UNL A   1      44.833  29.092  38.441  1.00  0.00    -0.206 F 
ATOM    102  C   UNL A   1      46.791  29.881  39.466  1.00  0.00     0.059 A 
ATOM    103  C   UNL A   1      47.307  32.253  39.419  1.00  0.00     0.059 A 
ATOM    104  F   UNL A   1      45.828  33.748  38.380  1.00  0.00    -0.206 F 
ATOM    105  C   UNL A   1      47.624  30.950  39.800  1.00  0.00     0.060 A 
BRANCH 105 106
ATOM    106  S   UNL A   1      49.137  30.608  40.724  1.00  0.00     0.124 S 
ATOM    107  O   UNL A   1      49.691  31.948  40.887  1.00  0.00    -0.237 OA
ATOM    108  O   UNL A   1      48.626  29.982  41.939  1.00  0.00    -0.237 OA
ATOM    109  O   UNL A   1      49.885  29.723  39.837  1.00  0.00    -0.744 OA
ENDBRANCH 105 106
ENDBRANCH  73  98
ENDBRANCH  47  48
ENDBRANCH  40  42
ENDBRANCH  39  40
ENDBRANCH  38  39
ENDBRANCH  37  38
ENDBRANCH  36  37
ENDBRANCH  35  36
ENDBRANCH  34  35
ENDBRANCH   1  34
TORSDOF 26
ENDMDL
