MODEL 1
REMARK VINA RESULT:      -9.3      0.000      0.000
REMARK SMILES CC[C@@H]1CCCN1C(=O)N1CC[C@@H](C(=O)OCCOCCOCCOCCOC(=O)c2ccc(-c3c4nc(c(-c5c(F)cc(S(=O)(=O)[O-])cc5F)c5ccc([nH]5)c(-c5c(F)cc(S(=O)(=O)[O-])cc5F)c5nc(c(-c6c(F)cc(S(=O)(=O)[O-])cc6F)c6ccc3[nH]6)C=C5)C=C4)cc2)[C@@H]1C
REMARK SMILES IDX 22 1 21 2 20 3 19 4 18 5 17 6 16 7 14 8 15 9 13 10 10 11
REMARK SMILES IDX 11 12 97 13 12 14 98 15 8 16 9 17 7 18 3 19 4 20 5 21 6 22
REMARK SMILES IDX 2 23 1 24 23 25 24 26 25 27 26 28 27 29 28 30 29 31 30 32
REMARK SMILES IDX 31 33 32 34 96 35 33 36 95 37 34 38 35 39 36 40 89 41 37 42
REMARK SMILES IDX 94 43 88 44 90 45 38 46 93 47 87 48 86 49 39 51 73 52 52 53
REMARK SMILES IDX 72 54 53 55 56 56 71 57 91 58 54 59 55 60 70 62 92 63 57 64
REMARK SMILES IDX 40 65 41 66 50 67 42 68 43 69 49 70 51 71 44 72 45 73 46 74
REMARK SMILES IDX 47 75 48 76 74 77 75 78 84 79 76 80 77 81 83 82 85 83 78 84
REMARK SMILES IDX 79 85 80 86 81 87 82 88 58 89 59 90 68 91 60 92 61 93 67 94
REMARK SMILES IDX 69 95 62 96 63 97 64 98 65 99 66 100
REMARK H PARENT 90 50 56 61
REMARK Flexibility Score: inf
ROOT
ATOM      1  O   UNL A   1      34.767  31.891  28.725  1.00  0.00    -0.377 OA
ENDROOT
BRANCH   1   2
ATOM      2  C   UNL A   1      34.170  31.068  27.744  1.00  0.00     0.188 C 
BRANCH   2   3
ATOM      3  C   UNL A   1      34.859  29.717  27.478  1.00  0.00     0.188 C 
BRANCH   3   4
ATOM      4  O   UNL A   1      34.104  28.574  27.090  1.00  0.00    -0.376 OA
BRANCH   4   5
ATOM      5  C   UNL A   1      32.736  28.710  26.734  1.00  0.00     0.202 C 
BRANCH   5   6
ATOM      6  C   UNL A   1      31.695  27.877  27.498  1.00  0.00     0.261 C 
BRANCH   6   7
ATOM      7  O   UNL A   1      30.818  27.066  26.691  1.00  0.00    -0.463 OA
BRANCH   7   8
ATOM      8  C   UNL A   1      31.196  25.799  26.380  1.00  0.00     0.311 C 
ATOM      9  O   UNL A   1      31.284  24.881  27.187  1.00  0.00    -0.252 OA
BRANCH   8  10
ATOM     10  C   UNL A   1      31.493  25.615  24.892  1.00  0.00     0.123 C 
ATOM     11  N   UNL A   1      32.295  24.053  23.305  1.00  0.00    -0.321 N 
ATOM     12  C   UNL A   1      30.858  23.890  23.274  1.00  0.00     0.122 C 
ATOM     13  C   UNL A   1      32.648  24.619  24.611  1.00  0.00     0.098 C 
ATOM     14  C   UNL A   1      30.322  25.109  24.008  1.00  0.00     0.039 C 
ATOM     15  C   UNL A   1      34.035  25.252  24.640  1.00  0.00     0.032 C 
BRANCH  11  16
ATOM     16  C   UNL A   1      33.075  23.114  22.685  1.00  0.00     0.320 C 
ATOM     17  O   UNL A   1      33.719  23.398  21.672  1.00  0.00    -0.248 OA
BRANCH  16  18
ATOM     18  N   UNL A   1      33.121  21.856  23.254  1.00  0.00    -0.322 N 
ATOM     19  C   UNL A   1      33.628  21.385  24.561  1.00  0.00     0.086 C 
ATOM     20  C   UNL A   1      33.590  19.861  24.359  1.00  0.00     0.027 C 
ATOM     21  C   UNL A   1      32.278  19.652  23.628  1.00  0.00     0.024 C 
ATOM     22  C   UNL A   1      32.192  20.865  22.712  1.00  0.00     0.122 C 
BRANCH  19  23
ATOM     23  C   UNL A   1      34.996  21.771  25.128  1.00  0.00     0.022 C 
ATOM     24  C   UNL A   1      35.006  21.969  26.637  1.00  0.00     0.006 C 
ENDBRANCH  19  23
ENDBRANCH  16  18
ENDBRANCH  11  16
ENDBRANCH   8  10
ENDBRANCH   7   8
ENDBRANCH   6   7
ENDBRANCH   5   6
ENDBRANCH   4   5
ENDBRANCH   3   4
ENDBRANCH   2   3
ENDBRANCH   1   2
BRANCH   1  25
ATOM     25  C   UNL A   1      35.385  33.069  28.239  1.00  0.00     0.188 C 
BRANCH  25  26
ATOM     26  C   UNL A   1      35.630  34.161  29.292  1.00  0.00     0.188 C 
BRANCH  26  27
ATOM     27  O   UNL A   1      35.098  33.831  30.571  1.00  0.00    -0.376 OA
BRANCH  27  28
ATOM     28  C   UNL A   1      35.790  34.213  31.749  1.00  0.00     0.202 C 
BRANCH  28  29
ATOM     29  C   UNL A   1      36.685  33.183  32.464  1.00  0.00     0.261 C 
BRANCH  29  30
ATOM     30  O   UNL A   1      37.582  32.416  31.651  1.00  0.00    -0.460 OA
BRANCH  30  31
ATOM     31  C   UNL A   1      37.239  31.140  31.363  1.00  0.00     0.338 C 
ATOM     32  O   UNL A   1      36.135  30.646  31.443  1.00  0.00    -0.246 OA
BRANCH  31  33
ATOM     33  C   UNL A   1      38.409  30.504  30.715  1.00  0.00     0.060 A 
ATOM     34  C   UNL A   1      39.419  29.973  31.528  1.00  0.00     0.016 A 
ATOM     35  C   UNL A   1      38.505  30.420  29.324  1.00  0.00     0.016 A 
ATOM     36  C   UNL A   1      40.547  29.390  30.953  1.00  0.00     0.010 A 
ATOM     37  C   UNL A   1      39.651  29.865  28.747  1.00  0.00     0.010 A 
ATOM     38  C   UNL A   1      40.693  29.387  29.562  1.00  0.00    -0.014 A 
BRANCH  38  39
ATOM     39  C   UNL A   1      42.029  29.108  28.984  1.00  0.00     0.031 A 
ATOM     40  C   UNL A   1      42.304  27.717  28.482  1.00  0.00     0.074 A 
ATOM     41  C   UNL A   1      42.962  30.071  28.867  1.00  0.00     0.049 A 
ATOM     42  N   UNL A   1      43.393  27.221  27.956  1.00  0.00    -0.248 NA
ATOM     43  C   UNL A   1      41.196  26.755  28.595  1.00  0.00     0.031 C 
ATOM     44  C   UNL A   1      42.797  31.461  29.283  1.00  0.00     0.029 A 
ATOM     45  N   UNL A   1      44.239  30.013  28.371  1.00  0.00    -0.354 N 
ATOM     46  C   UNL A   1      43.104  25.888  27.685  1.00  0.00     0.074 A 
ATOM     47  C   UNL A   1      41.753  25.645  28.139  1.00  0.00     0.031 C 
ATOM     48  C   UNL A   1      43.943  32.122  29.048  1.00  0.00     0.029 A 
ATOM     49  C   UNL A   1      44.929  31.194  28.495  1.00  0.00     0.049 A 
ATOM     50  H   UNL A   1      44.626  29.203  27.966  1.00  0.00     0.167 HD
ATOM     51  C   UNL A   1      43.893  24.952  27.105  1.00  0.00     0.037 A 
ATOM     52  C   UNL A   1      46.217  31.483  28.219  1.00  0.00     0.037 A 
ATOM     53  C   UNL A   1      45.241  25.204  26.669  1.00  0.00     0.049 A 
ATOM     54  C   UNL A   1      47.102  30.416  27.626  1.00  0.00     0.074 A 
ATOM     55  C   UNL A   1      46.122  24.335  26.049  1.00  0.00     0.029 A 
ATOM     56  N   UNL A   1      45.912  26.410  26.823  1.00  0.00    -0.354 N 
ATOM     57  N   UNL A   1      46.810  29.168  27.342  1.00  0.00    -0.248 NA
ATOM     58  C   UNL A   1      48.483  30.797  27.306  1.00  0.00     0.031 C 
ATOM     59  C   UNL A   1      47.345  24.994  25.891  1.00  0.00     0.029 A 
ATOM     60  C   UNL A   1      47.207  26.298  26.343  1.00  0.00     0.049 A 
ATOM     61  H   UNL A   1      45.525  27.225  27.217  1.00  0.00     0.167 HD
ATOM     62  C   UNL A   1      47.965  28.621  26.788  1.00  0.00     0.074 A 
ATOM     63  C   UNL A   1      48.954  29.680  26.767  1.00  0.00     0.031 C 
ATOM     64  C   UNL A   1      48.184  27.361  26.334  1.00  0.00     0.037 A 
BRANCH  51  65
ATOM     65  C   UNL A   1      43.327  23.565  26.963  1.00  0.00     0.058 A 
ATOM     66  C   UNL A   1      43.295  22.656  28.033  1.00  0.00     0.135 A 
ATOM     67  C   UNL A   1      42.822  23.133  25.725  1.00  0.00     0.135 A 
ATOM     68  F   UNL A   1      43.782  23.006  29.234  1.00  0.00    -0.206 F 
ATOM     69  C   UNL A   1      42.829  21.354  27.870  1.00  0.00     0.059 A 
ATOM     70  C   UNL A   1      42.318  21.848  25.549  1.00  0.00     0.059 A 
ATOM     71  F   UNL A   1      42.829  23.957  24.667  1.00  0.00    -0.206 F 
ATOM     72  C   UNL A   1      42.347  20.958  26.621  1.00  0.00     0.060 A 
BRANCH  72  73
ATOM     73  S   UNL A   1      41.776  19.259  26.417  1.00  0.00     0.124 S 
ATOM     74  O   UNL A   1      41.646  18.827  27.805  1.00  0.00    -0.237 OA
ATOM     75  O   UNL A   1      40.524  19.436  25.688  1.00  0.00    -0.237 OA
ATOM     76  O   UNL A   1      42.853  18.626  25.662  1.00  0.00    -0.744 OA
ENDBRANCH  72  73
ENDBRANCH  51  65
BRANCH  52  77
ATOM     77  C   UNL A   1      46.744  32.840  28.528  1.00  0.00     0.058 A 
ATOM     78  C   UNL A   1      46.715  33.874  27.582  1.00  0.00     0.135 A 
ATOM     79  C   UNL A   1      47.254  33.136  29.804  1.00  0.00     0.135 A 
ATOM     80  F   UNL A   1      46.252  33.637  26.345  1.00  0.00    -0.206 F 
ATOM     81  C   UNL A   1      47.165  35.154  27.889  1.00  0.00     0.059 A 
ATOM     82  C   UNL A   1      47.684  34.414  30.142  1.00  0.00     0.059 A 
ATOM     83  F   UNL A   1      47.298  32.183  30.748  1.00  0.00    -0.206 F 
ATOM     84  C   UNL A   1      47.637  35.418  29.176  1.00  0.00     0.060 A 
BRANCH  84  85
ATOM     85  S   UNL A   1      48.132  37.104  29.590  1.00  0.00     0.124 S 
ATOM     86  O   UNL A   1      48.402  36.992  31.019  1.00  0.00    -0.237 OA
ATOM     87  O   UNL A   1      49.298  37.298  28.733  1.00  0.00    -0.237 OA
ATOM     88  O   UNL A   1      46.961  37.897  29.229  1.00  0.00    -0.744 OA
ENDBRANCH  84  85
ENDBRANCH  52  77
BRANCH  64  89
ATOM     89  C   UNL A   1      49.537  27.058  25.742  1.00  0.00     0.058 A 
ATOM     90  C   UNL A   1      49.809  27.236  24.377  1.00  0.00     0.135 A 
ATOM     91  C   UNL A   1      50.593  26.637  26.568  1.00  0.00     0.135 A 
ATOM     92  F   UNL A   1      48.839  27.634  23.539  1.00  0.00    -0.206 F 
ATOM     93  C   UNL A   1      51.070  26.977  23.846  1.00  0.00     0.059 A 
ATOM     94  C   UNL A   1      51.869  26.406  26.066  1.00  0.00     0.059 A 
ATOM     95  F   UNL A   1      50.394  26.464  27.885  1.00  0.00    -0.206 F 
ATOM     96  C   UNL A   1      52.095  26.565  24.701  1.00  0.00     0.060 A 
BRANCH  96  97
ATOM     97  S   UNL A   1      53.732  26.256  24.003  1.00  0.00     0.124 S 
ATOM     98  O   UNL A   1      54.438  27.484  24.354  1.00  0.00    -0.237 OA
ATOM     99  O   UNL A   1      54.153  25.056  24.719  1.00  0.00    -0.237 OA
ATOM    100  O   UNL A   1      53.465  26.070  22.580  1.00  0.00    -0.744 OA
ENDBRANCH  96  97
ENDBRANCH  64  89
ENDBRANCH  38  39
ENDBRANCH  31  33
ENDBRANCH  30  31
ENDBRANCH  29  30
ENDBRANCH  28  29
ENDBRANCH  27  28
ENDBRANCH  26  27
ENDBRANCH  25  26
ENDBRANCH   1  25
TORSDOF 26
ENDMDL
MODEL 2
REMARK VINA RESULT:      -9.3      1.416      8.301
REMARK SMILES CC[C@@H]1CCCN1C(=O)N1CC[C@@H](C(=O)OCCOCCOCCOCCOC(=O)c2ccc(-c3c4nc(c(-c5c(F)cc(S(=O)(=O)[O-])cc5F)c5ccc([nH]5)c(-c5c(F)cc(S(=O)(=O)[O-])cc5F)c5nc(c(-c6c(F)cc(S(=O)(=O)[O-])cc6F)c6ccc3[nH]6)C=C5)C=C4)cc2)[C@@H]1C
REMARK SMILES IDX 22 1 21 2 20 3 19 4 18 5 17 6 16 7 14 8 15 9 13 10 10 11
REMARK SMILES IDX 11 12 97 13 12 14 98 15 8 16 9 17 7 18 3 19 4 20 5 21 6 22
REMARK SMILES IDX 2 23 1 24 23 25 24 26 25 27 26 28 27 29 28 30 29 31 30 32
REMARK SMILES IDX 31 33 32 34 96 35 33 36 95 37 34 38 35 39 36 40 89 41 37 42
REMARK SMILES IDX 94 43 88 44 90 45 38 46 93 47 87 48 86 49 39 51 73 52 52 53
REMARK SMILES IDX 72 54 53 55 56 56 71 57 91 58 54 59 55 60 70 62 92 63 57 64
REMARK SMILES IDX 40 65 41 66 50 67 42 68 43 69 49 70 51 71 44 72 45 73 46 74
REMARK SMILES IDX 47 75 48 76 74 77 75 78 84 79 76 80 77 81 83 82 85 83 78 84
REMARK SMILES IDX 79 85 80 86 81 87 82 88 58 89 59 90 68 91 60 92 61 93 67 94
REMARK SMILES IDX 69 95 62 96 63 97 64 98 65 99 66 100
REMARK H PARENT 90 50 56 61
REMARK Flexibility Score: inf
ROOT
ATOM      1  O   UNL A   1      33.000  29.953  25.303  1.00  0.00    -0.377 OA
ENDROOT
BRANCH   1   2
ATOM      2  C   UNL A   1      31.699  29.603  24.878  1.00  0.00     0.188 C 
BRANCH   2   3
ATOM      3  C   UNL A   1      31.592  28.389  23.936  1.00  0.00     0.188 C 
BRANCH   3   4
ATOM      4  O   UNL A   1      30.333  27.972  23.419  1.00  0.00    -0.376 OA
BRANCH   4   5
ATOM      5  C   UNL A   1      29.625  26.910  24.039  1.00  0.00     0.202 C 
BRANCH   5   6
ATOM      6  C   UNL A   1      30.276  26.194  25.233  1.00  0.00     0.261 C 
BRANCH   6   7
ATOM      7  O   UNL A   1      30.136  24.760  25.263  1.00  0.00    -0.463 OA
BRANCH   7   8
ATOM      8  C   UNL A   1      30.886  24.045  26.142  1.00  0.00     0.311 C 
ATOM      9  O   UNL A   1      30.513  23.707  27.259  1.00  0.00    -0.252 OA
BRANCH   8  10
ATOM     10  C   UNL A   1      32.262  23.677  25.589  1.00  0.00     0.123 C 
ATOM     11  N   UNL A   1      33.633  21.838  25.005  1.00  0.00    -0.321 N 
ATOM     12  C   UNL A   1      32.979  22.207  23.767  1.00  0.00     0.122 C 
ATOM     13  C   UNL A   1      32.792  22.314  26.108  1.00  0.00     0.098 C 
ATOM     14  C   UNL A   1      32.386  23.579  24.046  1.00  0.00     0.039 C 
ATOM     15  C   UNL A   1      33.533  22.402  27.438  1.00  0.00     0.032 C 
BRANCH  11  16
ATOM     16  C   UNL A   1      34.301  20.645  25.063  1.00  0.00     0.320 C 
ATOM     17  O   UNL A   1      33.685  19.578  25.107  1.00  0.00    -0.248 OA
BRANCH  16  18
ATOM     18  N   UNL A   1      35.682  20.694  25.050  1.00  0.00    -0.322 N 
ATOM     19  C   UNL A   1      36.639  21.640  25.665  1.00  0.00     0.086 C 
ATOM     20  C   UNL A   1      37.952  21.210  24.990  1.00  0.00     0.027 C 
ATOM     21  C   UNL A   1      37.852  19.697  24.996  1.00  0.00     0.024 C 
ATOM     22  C   UNL A   1      36.373  19.444  24.739  1.00  0.00     0.122 C 
BRANCH  19  23
ATOM     23  C   UNL A   1      36.511  23.162  25.563  1.00  0.00     0.022 C 
ATOM     24  C   UNL A   1      37.653  23.923  26.220  1.00  0.00     0.006 C 
ENDBRANCH  19  23
ENDBRANCH  16  18
ENDBRANCH  11  16
ENDBRANCH   8  10
ENDBRANCH   7   8
ENDBRANCH   6   7
ENDBRANCH   5   6
ENDBRANCH   4   5
ENDBRANCH   3   4
ENDBRANCH   2   3
ENDBRANCH   1   2
BRANCH   1  25
ATOM     25  C   UNL A   1      33.340  29.554  26.618  1.00  0.00     0.188 C 
BRANCH  25  26
ATOM     26  C   UNL A   1      34.315  30.487  27.353  1.00  0.00     0.188 C 
BRANCH  26  27
ATOM     27  O   UNL A   1      33.665  31.584  27.987  1.00  0.00    -0.376 OA
BRANCH  27  28
ATOM     28  C   UNL A   1      34.360  32.364  28.946  1.00  0.00     0.202 C 
BRANCH  28  29
ATOM     29  C   UNL A   1      35.856  32.094  29.196  1.00  0.00     0.261 C 
BRANCH  29  30
ATOM     30  O   UNL A   1      36.244  31.722  30.524  1.00  0.00    -0.460 OA
BRANCH  30  31
ATOM     31  C   UNL A   1      36.618  30.440  30.739  1.00  0.00     0.338 C 
ATOM     32  O   UNL A   1      35.902  29.516  31.060  1.00  0.00    -0.246 OA
BRANCH  31  33
ATOM     33  C   UNL A   1      38.025  30.311  30.294  1.00  0.00     0.060 A 
ATOM     34  C   UNL A   1      38.284  30.163  28.925  1.00  0.00     0.016 A 
ATOM     35  C   UNL A   1      39.077  30.349  31.212  1.00  0.00     0.016 A 
ATOM     36  C   UNL A   1      39.594  30.013  28.473  1.00  0.00     0.010 A 
ATOM     37  C   UNL A   1      40.387  30.166  30.762  1.00  0.00     0.010 A 
ATOM     38  C   UNL A   1      40.645  29.956  29.395  1.00  0.00    -0.014 A 
BRANCH  38  39
ATOM     39  C   UNL A   1      41.960  29.438  28.951  1.00  0.00     0.031 A 
ATOM     40  C   UNL A   1      43.095  30.416  28.820  1.00  0.00     0.074 A 
ATOM     41  C   UNL A   1      42.157  28.130  28.709  1.00  0.00     0.049 A 
ATOM     42  N   UNL A   1      44.327  30.215  28.433  1.00  0.00    -0.248 NA
ATOM     43  C   UNL A   1      42.793  31.813  29.172  1.00  0.00     0.031 C 
ATOM     44  C   UNL A   1      41.144  27.085  28.837  1.00  0.00     0.029 A 
ATOM     45  N   UNL A   1      43.281  27.464  28.292  1.00  0.00    -0.354 N 
ATOM     46  C   UNL A   1      44.944  31.461  28.485  1.00  0.00     0.074 A 
ATOM     47  C   UNL A   1      43.941  32.414  28.904  1.00  0.00     0.031 C 
ATOM     48  C   UNL A   1      41.688  25.909  28.480  1.00  0.00     0.029 A 
ATOM     49  C   UNL A   1      43.075  26.124  28.070  1.00  0.00     0.049 A 
ATOM     50  H   UNL A   1      44.153  27.904  28.163  1.00  0.00     0.167 HD
ATOM     51  C   UNL A   1      46.231  31.780  28.212  1.00  0.00     0.037 A 
ATOM     52  C   UNL A   1      43.904  25.188  27.565  1.00  0.00     0.037 A 
ATOM     53  C   UNL A   1      47.217  30.822  27.784  1.00  0.00     0.049 A 
ATOM     54  C   UNL A   1      45.319  25.568  27.212  1.00  0.00     0.074 A 
ATOM     55  C   UNL A   1      48.555  31.033  27.502  1.00  0.00     0.029 A 
ATOM     56  N   UNL A   1      46.968  29.476  27.556  1.00  0.00    -0.354 N 
ATOM     57  N   UNL A   1      45.903  26.741  27.297  1.00  0.00    -0.248 NA
ATOM     58  C   UNL A   1      46.190  24.499  26.708  1.00  0.00     0.031 C 
ATOM     59  C   UNL A   1      49.097  29.829  27.040  1.00  0.00     0.029 A 
ATOM     60  C   UNL A   1      48.118  28.849  27.104  1.00  0.00     0.049 A 
ATOM     61  H   UNL A   1      46.101  29.031  27.695  1.00  0.00     0.167 HD
ATOM     62  C   UNL A   1      47.217  26.545  26.878  1.00  0.00     0.074 A 
ATOM     63  C   UNL A   1      47.342  25.139  26.553  1.00  0.00     0.031 C 
ATOM     64  C   UNL A   1      48.227  27.447  26.778  1.00  0.00     0.037 A 
BRANCH  51  65
ATOM     65  C   UNL A   1      46.621  33.229  28.322  1.00  0.00     0.058 A 
ATOM     66  C   UNL A   1      47.139  33.778  29.507  1.00  0.00     0.135 A 
ATOM     67  C   UNL A   1      46.457  34.089  27.223  1.00  0.00     0.135 A 
ATOM     68  F   UNL A   1      47.299  33.008  30.596  1.00  0.00    -0.206 F 
ATOM     69  C   UNL A   1      47.433  35.134  29.615  1.00  0.00     0.059 A 
ATOM     70  C   UNL A   1      46.780  35.441  27.298  1.00  0.00     0.059 A 
ATOM     71  F   UNL A   1      45.965  33.622  26.066  1.00  0.00    -0.206 F 
ATOM     72  C   UNL A   1      47.244  35.958  28.505  1.00  0.00     0.060 A 
BRANCH  72  73
ATOM     73  S   UNL A   1      47.600  37.720  28.669  1.00  0.00     0.124 S 
ATOM     74  O   UNL A   1      47.372  37.931  30.095  1.00  0.00    -0.237 OA
ATOM     75  O   UNL A   1      48.990  37.800  28.230  1.00  0.00    -0.237 OA
ATOM     76  O   UNL A   1      46.628  38.348  27.780  1.00  0.00    -0.744 OA
ENDBRANCH  72  73
ENDBRANCH  51  65
BRANCH  52  77
ATOM     77  C   UNL A   1      43.397  23.806  27.346  1.00  0.00     0.058 A 
ATOM     78  C   UNL A   1      43.377  22.857  28.377  1.00  0.00     0.135 A 
ATOM     79  C   UNL A   1      42.882  23.423  26.096  1.00  0.00     0.135 A 
ATOM     80  F   UNL A   1      43.872  23.169  29.585  1.00  0.00    -0.206 F 
ATOM     81  C   UNL A   1      42.859  21.580  28.181  1.00  0.00     0.059 A 
ATOM     82  C   UNL A   1      42.335  22.162  25.884  1.00  0.00     0.059 A 
ATOM     83  F   UNL A   1      42.872  24.296  25.076  1.00  0.00    -0.206 F 
ATOM     84  C   UNL A   1      42.329  21.246  26.933  1.00  0.00     0.060 A 
BRANCH  84  85
ATOM     85  S   UNL A   1      41.577  19.619  26.718  1.00  0.00     0.124 S 
ATOM     86  O   UNL A   1      40.273  19.810  27.341  1.00  0.00    -0.237 OA
ATOM     87  O   UNL A   1      41.576  19.475  25.265  1.00  0.00    -0.237 OA
ATOM     88  O   UNL A   1      42.492  18.728  27.426  1.00  0.00    -0.744 OA
ENDBRANCH  84  85
ENDBRANCH  52  77
BRANCH  64  89
ATOM     89  C   UNL A   1      49.572  26.939  26.327  1.00  0.00     0.058 A 
ATOM     90  C   UNL A   1      50.438  26.254  27.194  1.00  0.00     0.135 A 
ATOM     91  C   UNL A   1      49.976  27.093  24.990  1.00  0.00     0.135 A 
ATOM     92  F   UNL A   1      50.107  26.079  28.483  1.00  0.00    -0.206 F 
ATOM     93  C   UNL A   1      51.668  25.767  26.760  1.00  0.00     0.059 A 
ATOM     94  C   UNL A   1      51.184  26.585  24.525  1.00  0.00     0.059 A 
ATOM     95  F   UNL A   1      49.181  27.728  24.113  1.00  0.00    -0.206 F 
ATOM     96  C   UNL A   1      52.030  25.935  25.422  1.00  0.00     0.060 A 
BRANCH  96  97
ATOM     97  S   UNL A   1      53.618  25.277  24.866  1.00  0.00     0.124 S 
ATOM     98  O   UNL A   1      53.540  23.894  25.324  1.00  0.00    -0.237 OA
ATOM     99  O   UNL A   1      53.546  25.472  23.421  1.00  0.00    -0.237 OA
ATOM    100  O   UNL A   1      54.593  26.114  25.558  1.00  0.00    -0.744 OA
ENDBRANCH  96  97
ENDBRANCH  64  89
ENDBRANCH  38  39
ENDBRANCH  31  33
ENDBRANCH  30  31
ENDBRANCH  29  30
ENDBRANCH  28  29
ENDBRANCH  27  28
ENDBRANCH  26  27
ENDBRANCH  25  26
ENDBRANCH   1  25
TORSDOF 26
ENDMDL
MODEL 3
REMARK VINA RESULT:      -9.2      6.126     10.711
REMARK SMILES CC[C@@H]1CCCN1C(=O)N1CC[C@@H](C(=O)OCCOCCOCCOCCOC(=O)c2ccc(-c3c4nc(c(-c5c(F)cc(S(=O)(=O)[O-])cc5F)c5ccc([nH]5)c(-c5c(F)cc(S(=O)(=O)[O-])cc5F)c5nc(c(-c6c(F)cc(S(=O)(=O)[O-])cc6F)c6ccc3[nH]6)C=C5)C=C4)cc2)[C@@H]1C
REMARK SMILES IDX 22 1 21 2 20 3 19 4 18 5 17 6 16 7 14 8 15 9 13 10 10 11
REMARK SMILES IDX 11 12 97 13 12 14 98 15 8 16 9 17 7 18 3 19 4 20 5 21 6 22
REMARK SMILES IDX 2 23 1 24 23 25 24 26 25 27 26 28 27 29 28 30 29 31 30 32
REMARK SMILES IDX 31 33 32 34 96 35 33 36 95 37 34 38 35 39 36 40 89 41 37 42
REMARK SMILES IDX 94 43 88 44 90 45 38 46 93 47 87 48 86 49 39 51 73 52 52 53
REMARK SMILES IDX 72 54 53 55 56 56 71 57 91 58 54 59 55 60 70 62 92 63 57 64
REMARK SMILES IDX 40 65 41 66 50 67 42 68 43 69 49 70 51 71 44 72 45 73 46 74
REMARK SMILES IDX 47 75 48 76 74 77 75 78 84 79 76 80 77 81 83 82 85 83 78 84
REMARK SMILES IDX 79 85 80 86 81 87 82 88 58 89 59 90 68 91 60 92 61 93 67 94
REMARK SMILES IDX 69 95 62 96 63 97 64 98 65 99 66 100
REMARK H PARENT 90 50 56 61
REMARK Flexibility Score: inf
ROOT
ATOM      1  O   UNL A   1      34.416  31.918  28.709  1.00  0.00    -0.377 OA
ENDROOT
BRANCH   1   2
ATOM      2  C   UNL A   1      33.833  31.226  27.623  1.00  0.00     0.188 C 
BRANCH   2   3
ATOM      3  C   UNL A   1      34.466  29.871  27.259  1.00  0.00     0.188 C 
BRANCH   3   4
ATOM      4  O   UNL A   1      33.804  28.964  26.384  1.00  0.00    -0.376 OA
BRANCH   4   5
ATOM      5  C   UNL A   1      33.141  29.447  25.226  1.00  0.00     0.202 C 
BRANCH   5   6
ATOM      6  C   UNL A   1      31.619  29.656  25.286  1.00  0.00     0.261 C 
BRANCH   6   7
ATOM      7  O   UNL A   1      30.819  28.680  24.591  1.00  0.00    -0.463 OA
BRANCH   7   8
ATOM      8  C   UNL A   1      30.966  27.366  24.904  1.00  0.00     0.311 C 
ATOM      9  O   UNL A   1      30.979  26.921  26.046  1.00  0.00    -0.252 OA
BRANCH   8  10
ATOM     10  C   UNL A   1      31.098  26.471  23.672  1.00  0.00     0.123 C 
ATOM     11  N   UNL A   1      32.227  24.568  22.833  1.00  0.00    -0.321 N 
ATOM     12  C   UNL A   1      30.986  24.045  23.364  1.00  0.00     0.122 C 
ATOM     13  C   UNL A   1      32.503  25.833  23.521  1.00  0.00     0.098 C 
ATOM     14  C   UNL A   1      30.117  25.274  23.576  1.00  0.00     0.039 C 
ATOM     15  C   UNL A   1      33.509  26.712  22.785  1.00  0.00     0.032 C 
BRANCH  11  16
ATOM     16  C   UNL A   1      33.222  23.687  22.502  1.00  0.00     0.320 C 
ATOM     17  O   UNL A   1      33.508  23.474  21.322  1.00  0.00    -0.248 OA
BRANCH  16  18
ATOM     18  N   UNL A   1      33.893  23.074  23.543  1.00  0.00    -0.322 N 
ATOM     19  C   UNL A   1      33.845  21.692  24.066  1.00  0.00     0.086 C 
ATOM     20  C   UNL A   1      34.643  21.845  25.373  1.00  0.00     0.027 C 
ATOM     21  C   UNL A   1      35.787  22.751  24.962  1.00  0.00     0.024 C 
ATOM     22  C   UNL A   1      35.136  23.711  23.977  1.00  0.00     0.122 C 
BRANCH  19  23
ATOM     23  C   UNL A   1      32.544  20.946  24.371  1.00  0.00     0.022 C 
ATOM     24  C   UNL A   1      32.562  19.481  23.961  1.00  0.00     0.006 C 
ENDBRANCH  19  23
ENDBRANCH  16  18
ENDBRANCH  11  16
ENDBRANCH   8  10
ENDBRANCH   7   8
ENDBRANCH   6   7
ENDBRANCH   5   6
ENDBRANCH   4   5
ENDBRANCH   3   4
ENDBRANCH   2   3
ENDBRANCH   1   2
BRANCH   1  25
ATOM     25  C   UNL A   1      35.371  32.903  28.361  1.00  0.00     0.188 C 
BRANCH  25  26
ATOM     26  C   UNL A   1      34.793  34.292  28.047  1.00  0.00     0.188 C 
BRANCH  26  27
ATOM     27  O   UNL A   1      34.071  34.854  29.137  1.00  0.00    -0.376 OA
BRANCH  27  28
ATOM     28  C   UNL A   1      33.280  36.015  28.943  1.00  0.00     0.202 C 
BRANCH  28  29
ATOM     29  C   UNL A   1      32.403  36.530  30.099  1.00  0.00     0.261 C 
BRANCH  29  30
ATOM     30  O   UNL A   1      33.014  36.636  31.391  1.00  0.00    -0.460 OA
BRANCH  30  31
ATOM     31  C   UNL A   1      32.792  35.640  32.279  1.00  0.00     0.338 C 
ATOM     32  O   UNL A   1      31.739  35.355  32.807  1.00  0.00    -0.246 OA
BRANCH  31  33
ATOM     33  C   UNL A   1      34.019  34.811  32.326  1.00  0.00     0.060 A 
ATOM     34  C   UNL A   1      33.910  33.475  32.734  1.00  0.00     0.016 A 
ATOM     35  C   UNL A   1      35.260  35.339  31.960  1.00  0.00     0.016 A 
ATOM     36  C   UNL A   1      35.046  32.672  32.815  1.00  0.00     0.010 A 
ATOM     37  C   UNL A   1      36.403  34.543  32.072  1.00  0.00     0.010 A 
ATOM     38  C   UNL A   1      36.304  33.220  32.540  1.00  0.00    -0.014 A 
BRANCH  38  39
ATOM     39  C   UNL A   1      37.515  32.486  32.975  1.00  0.00     0.031 A 
ATOM     40  C   UNL A   1      38.149  32.883  34.280  1.00  0.00     0.074 A 
ATOM     41  C   UNL A   1      38.017  31.466  32.257  1.00  0.00     0.049 A 
ATOM     42  N   UNL A   1      39.218  32.411  34.865  1.00  0.00    -0.248 NA
ATOM     43  C   UNL A   1      37.485  33.967  35.022  1.00  0.00     0.031 C 
ATOM     44  C   UNL A   1      37.467  30.967  30.999  1.00  0.00     0.029 A 
ATOM     45  N   UNL A   1      39.114  30.675  32.486  1.00  0.00    -0.354 N 
ATOM     46  C   UNL A   1      39.360  33.146  36.037  1.00  0.00     0.074 A 
ATOM     47  C   UNL A   1      38.291  34.118  36.061  1.00  0.00     0.031 C 
ATOM     48  C   UNL A   1      38.247  29.968  30.552  1.00  0.00     0.029 A 
ATOM     49  C   UNL A   1      39.365  29.779  31.475  1.00  0.00     0.049 A 
ATOM     50  H   UNL A   1      39.670  30.743  33.296  1.00  0.00     0.167 HD
ATOM     51  C   UNL A   1      40.295  33.017  37.008  1.00  0.00     0.037 A 
ATOM     52  C   UNL A   1      40.395  28.926  31.304  1.00  0.00     0.037 A 
ATOM     53  C   UNL A   1      41.361  32.052  36.967  1.00  0.00     0.049 A 
ATOM     54  C   UNL A   1      41.460  28.833  32.367  1.00  0.00     0.074 A 
ATOM     55  C   UNL A   1      42.350  31.820  37.907  1.00  0.00     0.029 A 
ATOM     56  N   UNL A   1      41.592  31.170  35.920  1.00  0.00    -0.354 N 
ATOM     57  N   UNL A   1      41.567  29.507  33.488  1.00  0.00    -0.248 NA
ATOM     58  C   UNL A   1      42.536  27.857  32.148  1.00  0.00     0.031 C 
ATOM     59  C   UNL A   1      43.215  30.847  37.399  1.00  0.00     0.029 A 
ATOM     60  C   UNL A   1      42.727  30.416  36.174  1.00  0.00     0.049 A 
ATOM     61  H   UNL A   1      41.032  31.092  35.114  1.00  0.00     0.167 HD
ATOM     62  C   UNL A   1      42.709  29.021  34.119  1.00  0.00     0.074 A 
ATOM     63  C   UNL A   1      43.248  27.988  33.259  1.00  0.00     0.031 C 
ATOM     64  C   UNL A   1      43.257  29.393  35.305  1.00  0.00     0.037 A 
BRANCH  51  65
ATOM     65  C   UNL A   1      40.225  33.979  38.164  1.00  0.00     0.058 A 
ATOM     66  C   UNL A   1      39.451  33.722  39.307  1.00  0.00     0.135 A 
ATOM     67  C   UNL A   1      40.937  35.190  38.117  1.00  0.00     0.135 A 
ATOM     68  F   UNL A   1      38.734  32.590  39.399  1.00  0.00    -0.206 F 
ATOM     69  C   UNL A   1      39.344  34.650  40.339  1.00  0.00     0.059 A 
ATOM     70  C   UNL A   1      40.873  36.116  39.154  1.00  0.00     0.059 A 
ATOM     71  F   UNL A   1      41.691  35.491  37.050  1.00  0.00    -0.206 F 
ATOM     72  C   UNL A   1      40.056  35.848  40.250  1.00  0.00     0.060 A 
BRANCH  72  73
ATOM     73  S   UNL A   1      39.883  37.054  41.580  1.00  0.00     0.124 S 
ATOM     74  O   UNL A   1      39.131  36.289  42.571  1.00  0.00    -0.237 OA
ATOM     75  O   UNL A   1      41.271  37.343  41.922  1.00  0.00    -0.237 OA
ATOM     76  O   UNL A   1      39.153  38.151  40.952  1.00  0.00    -0.744 OA
ENDBRANCH  72  73
ENDBRANCH  51  65
BRANCH  52  77
ATOM     77  C   UNL A   1      40.471  28.113  30.060  1.00  0.00     0.058 A 
ATOM     78  C   UNL A   1      41.404  28.395  29.053  1.00  0.00     0.135 A 
ATOM     79  C   UNL A   1      39.627  27.005  29.876  1.00  0.00     0.135 A 
ATOM     80  F   UNL A   1      42.222  29.452  29.173  1.00  0.00    -0.206 F 
ATOM     81  C   UNL A   1      41.504  27.605  27.911  1.00  0.00     0.059 A 
ATOM     82  C   UNL A   1      39.726  26.185  28.758  1.00  0.00     0.059 A 
ATOM     83  F   UNL A   1      38.720  26.688  30.814  1.00  0.00    -0.206 F 
ATOM     84  C   UNL A   1      40.668  26.494  27.778  1.00  0.00     0.060 A 
BRANCH  84  85
ATOM     85  S   UNL A   1      40.869  25.424  26.338  1.00  0.00     0.124 S 
ATOM     86  O   UNL A   1      41.288  26.377  25.316  1.00  0.00    -0.237 OA
ATOM     87  O   UNL A   1      41.892  24.488  26.796  1.00  0.00    -0.237 OA
ATOM     88  O   UNL A   1      39.540  24.847  26.159  1.00  0.00    -0.744 OA
ENDBRANCH  84  85
ENDBRANCH  52  77
BRANCH  64  89
ATOM     89  C   UNL A   1      44.488  28.657  35.765  1.00  0.00     0.058 A 
ATOM     90  C   UNL A   1      45.782  29.086  35.428  1.00  0.00     0.135 A 
ATOM     91  C   UNL A   1      44.372  27.536  36.604  1.00  0.00     0.135 A 
ATOM     92  F   UNL A   1      45.955  30.149  34.628  1.00  0.00    -0.206 F 
ATOM     93  C   UNL A   1      46.913  28.412  35.880  1.00  0.00     0.059 A 
ATOM     94  C   UNL A   1      45.488  26.867  37.096  1.00  0.00     0.059 A 
ATOM     95  F   UNL A   1      43.159  27.089  36.971  1.00  0.00    -0.206 F 
ATOM     96  C   UNL A   1      46.755  27.305  36.717  1.00  0.00     0.060 A 
BRANCH  96  97
ATOM     97  S   UNL A   1      48.232  26.455  37.315  1.00  0.00     0.124 S 
ATOM     98  O   UNL A   1      47.703  25.714  38.456  1.00  0.00    -0.237 OA
ATOM     99  O   UNL A   1      48.617  25.651  36.160  1.00  0.00    -0.237 OA
ATOM    100  O   UNL A   1      49.143  27.547  37.644  1.00  0.00    -0.744 OA
ENDBRANCH  96  97
ENDBRANCH  64  89
ENDBRANCH  38  39
ENDBRANCH  31  33
ENDBRANCH  30  31
ENDBRANCH  29  30
ENDBRANCH  28  29
ENDBRANCH  27  28
ENDBRANCH  26  27
ENDBRANCH  25  26
ENDBRANCH   1  25
TORSDOF 26
ENDMDL
