MODEL 1
REMARK VINA RESULT:      -7.1      0.000      0.000
REMARK SMILES Cc1nc(-c2ccccc2)sc1C(=O)N[C@@H](CC1=c2ccccc2=NC1)C(=O)OCCOCCOCCOCCOC(=O)c1ccc(-c2c3nc(c(-c4c(F)cc(S(=O)(=O)[O-])cc4F)c4ccc([nH]4)c(-c4c(F)cc(S(=O)(=O)[O-])cc4F)c4nc(c(-c5c(F)cc(S(=O)(=O)[O-])cc5F)c5ccc2[nH]5)C=C4)C=C3)cc1
REMARK SMILES IDX 35 1 34 2 33 3 32 4 31 5 30 6 29 7 27 8 28 9 16 10 15 11
REMARK SMILES IDX 13 12 14 13 12 15 1 16 2 17 3 18 4 19 11 20 5 21 6 22 10 23
REMARK SMILES IDX 7 24 9 25 8 26 17 27 18 28 19 29 26 30 20 31 24 32 25 33
REMARK SMILES IDX 21 34 23 35 22 36 36 37 37 38 38 39 39 40 40 41 41 42 42 43
REMARK SMILES IDX 43 44 44 45 45 46 109 47 46 48 108 49 47 50 48 51 49 52
REMARK SMILES IDX 102 53 50 54 107 55 101 56 103 57 51 58 106 59 100 60 99 61
REMARK SMILES IDX 52 63 86 64 65 65 85 66 66 67 69 68 84 69 104 70 67 71 68 72
REMARK SMILES IDX 83 74 105 75 70 76 53 77 54 78 63 79 55 80 56 81 62 82 64 83
REMARK SMILES IDX 57 84 58 85 59 86 60 87 61 88 87 89 88 90 97 91 89 92 90 93
REMARK SMILES IDX 96 94 98 95 91 96 92 97 93 98 94 99 95 100 71 101 72 102
REMARK SMILES IDX 81 103 73 104 74 105 80 106 82 107 75 108 76 109 77 110
REMARK SMILES IDX 78 111 79 112
REMARK H PARENT 15 14 103 62 69 73
REMARK Flexibility Score: inf
ROOT
ATOM      1  O   UNL A   1      46.175  27.937  25.618  1.00  0.00    -0.377 OA
ENDROOT
BRANCH   1   2
ATOM      2  C   UNL A   1      46.990  28.988  26.084  1.00  0.00     0.188 C 
BRANCH   2   3
ATOM      3  C   UNL A   1      46.531  29.650  27.389  1.00  0.00     0.188 C 
BRANCH   3   4
ATOM      4  O   UNL A   1      46.646  31.052  27.576  1.00  0.00    -0.376 OA
BRANCH   4   5
ATOM      5  C   UNL A   1      45.587  31.809  28.151  1.00  0.00     0.202 C 
BRANCH   5   6
ATOM      6  C   UNL A   1      45.736  33.296  28.506  1.00  0.00     0.261 C 
BRANCH   6   7
ATOM      7  O   UNL A   1      44.727  34.154  27.949  1.00  0.00    -0.462 OA
BRANCH   7   8
ATOM      8  C   UNL A   1      43.739  34.522  28.788  1.00  0.00     0.329 C 
ATOM      9  O   UNL A   1      42.869  33.767  29.218  1.00  0.00    -0.250 OA
BRANCH   8  10
ATOM     10  C   UNL A   1      43.745  36.010  29.167  1.00  0.00     0.196 C 
BRANCH  10  11
ATOM     11  N   UNL A   1      43.255  37.078  28.307  1.00  0.00    -0.338 N 
ATOM     12  C   UNL A   1      43.131  38.442  28.488  1.00  0.00     0.264 C 
ATOM     13  O   UNL A   1      42.349  38.968  27.685  1.00  0.00    -0.268 OA
ATOM     14  H   UNL A   1      42.954  36.767  27.422  1.00  0.00     0.164 HD
BRANCH  12  15
ATOM     15  C   UNL A   1      43.900  39.248  29.451  1.00  0.00     0.115 A 
ATOM     16  C   UNL A   1      46.511  38.751  29.568  1.00  0.00     0.068 C 
ATOM     17  C   UNL A   1      45.224  39.430  29.863  1.00  0.00     0.062 A 
ATOM     18  N   UNL A   1      45.429  40.474  30.742  1.00  0.00    -0.241 NA
ATOM     19  C   UNL A   1      44.310  41.016  31.135  1.00  0.00     0.124 A 
ATOM     20  S   UNL A   1      42.918  40.379  30.407  1.00  0.00    -0.108 S 
BRANCH  19  21
ATOM     21  C   UNL A   1      44.322  42.066  32.148  1.00  0.00     0.010 A 
ATOM     22  C   UNL A   1      43.296  42.073  33.108  1.00  0.00     0.011 A 
ATOM     23  C   UNL A   1      45.152  43.185  32.030  1.00  0.00     0.011 A 
ATOM     24  C   UNL A   1      43.077  43.191  33.910  1.00  0.00     0.001 A 
ATOM     25  C   UNL A   1      44.927  44.310  32.831  1.00  0.00     0.001 A 
ATOM     26  C   UNL A   1      43.883  44.316  33.758  1.00  0.00     0.000 A 
ENDBRANCH  19  21
ENDBRANCH  12  15
ENDBRANCH  10  11
BRANCH  10  27
ATOM     27  C   UNL A   1      43.197  36.176  30.592  1.00  0.00     0.070 C 
BRANCH  27  28
ATOM     28  C   UNL A   1      44.304  36.396  31.571  1.00  0.00    -0.037 C 
ATOM     29  C   UNL A   1      44.287  37.172  32.652  1.00  0.00     0.001 A 
ATOM     30  C   UNL A   1      45.567  35.588  31.514  1.00  0.00     0.174 C 
ATOM     31  C   UNL A   1      43.347  38.079  33.229  1.00  0.00     0.010 A 
ATOM     32  C   UNL A   1      45.495  36.740  33.370  1.00  0.00     0.065 A 
ATOM     33  N   UNL A   1      46.265  35.877  32.783  1.00  0.00    -0.280 NA
ATOM     34  C   UNL A   1      43.558  38.512  34.481  1.00  0.00     0.001 A 
ATOM     35  C   UNL A   1      45.674  37.283  34.732  1.00  0.00     0.028 A 
ATOM     36  C   UNL A   1      44.731  38.099  35.234  1.00  0.00     0.002 A 
ENDBRANCH  27  28
ENDBRANCH  10  27
ENDBRANCH   8  10
ENDBRANCH   7   8
ENDBRANCH   6   7
ENDBRANCH   5   6
ENDBRANCH   4   5
ENDBRANCH   3   4
ENDBRANCH   2   3
ENDBRANCH   1   2
BRANCH   1  37
ATOM     37  C   UNL A   1      46.720  26.625  25.631  1.00  0.00     0.188 C 
BRANCH  37  38
ATOM     38  C   UNL A   1      46.003  25.523  26.443  1.00  0.00     0.188 C 
BRANCH  38  39
ATOM     39  O   UNL A   1      46.078  24.217  25.892  1.00  0.00    -0.376 OA
BRANCH  39  40
ATOM     40  C   UNL A   1      45.270  23.886  24.772  1.00  0.00     0.202 C 
BRANCH  40  41
ATOM     41  C   UNL A   1      43.944  23.136  24.999  1.00  0.00     0.261 C 
BRANCH  41  42
ATOM     42  O   UNL A   1      42.756  23.934  25.122  1.00  0.00    -0.460 OA
BRANCH  42  43
ATOM     43  C   UNL A   1      41.823  23.566  26.022  1.00  0.00     0.338 C 
ATOM     44  O   UNL A   1      41.414  22.436  26.235  1.00  0.00    -0.246 OA
BRANCH  43  45
ATOM     45  C   UNL A   1      41.530  24.741  26.870  1.00  0.00     0.060 A 
ATOM     46  C   UNL A   1      42.221  25.938  26.633  1.00  0.00     0.016 A 
ATOM     47  C   UNL A   1      40.573  24.669  27.886  1.00  0.00     0.016 A 
ATOM     48  C   UNL A   1      41.985  27.054  27.435  1.00  0.00     0.010 A 
ATOM     49  C   UNL A   1      40.361  25.779  28.708  1.00  0.00     0.010 A 
ATOM     50  C   UNL A   1      41.093  26.963  28.510  1.00  0.00    -0.014 A 
BRANCH  50  51
ATOM     51  C   UNL A   1      41.097  28.018  29.552  1.00  0.00     0.031 A 
ATOM     52  C   UNL A   1      42.179  27.974  30.598  1.00  0.00     0.074 A 
ATOM     53  C   UNL A   1      40.188  29.008  29.557  1.00  0.00     0.049 A 
ATOM     54  N   UNL A   1      42.368  28.748  31.634  1.00  0.00    -0.248 NA
ATOM     55  C   UNL A   1      43.183  26.907  30.452  1.00  0.00     0.031 C 
ATOM     56  C   UNL A   1      39.127  29.190  28.569  1.00  0.00     0.029 A 
ATOM     57  N   UNL A   1      40.011  30.048  30.437  1.00  0.00    -0.354 N 
ATOM     58  C   UNL A   1      43.503  28.257  32.268  1.00  0.00     0.074 A 
ATOM     59  C   UNL A   1      43.941  27.100  31.520  1.00  0.00     0.031 C 
ATOM     60  C   UNL A   1      38.400  30.271  28.905  1.00  0.00     0.029 A 
ATOM     61  C   UNL A   1      38.922  30.835  30.149  1.00  0.00     0.049 A 
ATOM     62  H   UNL A   1      40.609  30.214  31.202  1.00  0.00     0.167 HD
ATOM     63  C   UNL A   1      44.129  28.733  33.371  1.00  0.00     0.037 A 
ATOM     64  C   UNL A   1      38.395  31.874  30.829  1.00  0.00     0.037 A 
ATOM     65  C   UNL A   1      43.682  29.882  34.114  1.00  0.00     0.049 A 
ATOM     66  C   UNL A   1      39.058  32.336  32.103  1.00  0.00     0.074 A 
ATOM     67  C   UNL A   1      44.251  30.452  35.239  1.00  0.00     0.029 A 
ATOM     68  N   UNL A   1      42.551  30.628  33.815  1.00  0.00    -0.354 N 
ATOM     69  N   UNL A   1      40.142  31.876  32.685  1.00  0.00    -0.248 NA
ATOM     70  C   UNL A   1      38.428  33.458  32.813  1.00  0.00     0.031 C 
ATOM     71  C   UNL A   1      43.430  31.505  35.656  1.00  0.00     0.029 A 
ATOM     72  C   UNL A   1      42.387  31.634  34.753  1.00  0.00     0.049 A 
ATOM     73  H   UNL A   1      41.954  30.467  33.050  1.00  0.00     0.167 HD
ATOM     74  C   UNL A   1      40.338  32.672  33.811  1.00  0.00     0.074 A 
ATOM     75  C   UNL A   1      39.268  33.649  33.821  1.00  0.00     0.031 C 
ATOM     76  C   UNL A   1      41.318  32.604  34.749  1.00  0.00     0.037 A 
BRANCH  63  77
ATOM     77  C   UNL A   1      45.342  27.985  33.858  1.00  0.00     0.058 A 
ATOM     78  C   UNL A   1      45.245  26.933  34.782  1.00  0.00     0.135 A 
ATOM     79  C   UNL A   1      46.619  28.320  33.381  1.00  0.00     0.135 A 
ATOM     80  F   UNL A   1      44.052  26.583  35.289  1.00  0.00    -0.206 F 
ATOM     81  C   UNL A   1      46.374  26.261  35.241  1.00  0.00     0.059 A 
ATOM     82  C   UNL A   1      47.758  27.640  33.800  1.00  0.00     0.059 A 
ATOM     83  F   UNL A   1      46.771  29.321  32.500  1.00  0.00    -0.206 F 
ATOM     84  C   UNL A   1      47.627  26.623  34.744  1.00  0.00     0.060 A 
BRANCH  84  85
ATOM     85  S   UNL A   1      49.082  25.745  35.352  1.00  0.00     0.124 S 
ATOM     86  O   UNL A   1      49.934  26.852  35.776  1.00  0.00    -0.237 OA
ATOM     87  O   UNL A   1      48.525  24.927  36.425  1.00  0.00    -0.237 OA
ATOM     88  O   UNL A   1      49.550  25.007  34.183  1.00  0.00    -0.744 OA
ENDBRANCH  84  85
ENDBRANCH  63  77
BRANCH  64  89
ATOM     89  C   UNL A   1      37.165  32.547  30.324  1.00  0.00     0.058 A 
ATOM     90  C   UNL A   1      37.244  33.645  29.456  1.00  0.00     0.135 A 
ATOM     91  C   UNL A   1      35.887  32.103  30.701  1.00  0.00     0.135 A 
ATOM     92  F   UNL A   1      38.442  34.117  29.078  1.00  0.00    -0.206 F 
ATOM     93  C   UNL A   1      36.102  34.288  28.988  1.00  0.00     0.059 A 
ATOM     94  C   UNL A   1      34.730  32.711  30.222  1.00  0.00     0.059 A 
ATOM     95  F   UNL A   1      35.754  31.054  31.527  1.00  0.00    -0.206 F 
ATOM     96  C   UNL A   1      34.848  33.810  29.372  1.00  0.00     0.060 A 
BRANCH  96  97
ATOM     97  S   UNL A   1      33.375  34.624  28.716  1.00  0.00     0.124 S 
ATOM     98  O   UNL A   1      33.951  35.801  28.074  1.00  0.00    -0.237 OA
ATOM     99  O   UNL A   1      32.840  33.606  27.818  1.00  0.00    -0.237 OA
ATOM    100  O   UNL A   1      32.575  34.886  29.908  1.00  0.00    -0.744 OA
ENDBRANCH  96  97
ENDBRANCH  64  89
BRANCH  76 101
ATOM    101  C   UNL A   1      41.306  33.633  35.849  1.00  0.00     0.058 A 
ATOM    102  C   UNL A   1      41.989  34.853  35.732  1.00  0.00     0.135 A 
ATOM    103  C   UNL A   1      40.546  33.419  37.013  1.00  0.00     0.135 A 
ATOM    104  F   UNL A   1      42.732  35.110  34.644  1.00  0.00    -0.206 F 
ATOM    105  C   UNL A   1      41.941  35.813  36.739  1.00  0.00     0.059 A 
ATOM    106  C   UNL A   1      40.458  34.378  38.017  1.00  0.00     0.059 A 
ATOM    107  F   UNL A   1      39.862  32.275  37.173  1.00  0.00    -0.206 F 
ATOM    108  C   UNL A   1      41.170  35.568  37.877  1.00  0.00     0.060 A 
BRANCH 108 109
ATOM    109  S   UNL A   1      41.089  36.837  39.158  1.00  0.00     0.124 S 
ATOM    110  O   UNL A   1      39.878  37.559  38.783  1.00  0.00    -0.237 OA
ATOM    111  O   UNL A   1      41.000  36.042  40.379  1.00  0.00    -0.237 OA
ATOM    112  O   UNL A   1      42.337  37.574  38.987  1.00  0.00    -0.744 OA
ENDBRANCH 108 109
ENDBRANCH  76 101
ENDBRANCH  50  51
ENDBRANCH  43  45
ENDBRANCH  42  43
ENDBRANCH  41  42
ENDBRANCH  40  41
ENDBRANCH  39  40
ENDBRANCH  38  39
ENDBRANCH  37  38
ENDBRANCH   1  37
TORSDOF 28
ENDMDL
MODEL 2
REMARK VINA RESULT:      -6.8      4.056      9.844
REMARK SMILES Cc1nc(-c2ccccc2)sc1C(=O)N[C@@H](CC1=c2ccccc2=NC1)C(=O)OCCOCCOCCOCCOC(=O)c1ccc(-c2c3nc(c(-c4c(F)cc(S(=O)(=O)[O-])cc4F)c4ccc([nH]4)c(-c4c(F)cc(S(=O)(=O)[O-])cc4F)c4nc(c(-c5c(F)cc(S(=O)(=O)[O-])cc5F)c5ccc2[nH]5)C=C4)C=C3)cc1
REMARK SMILES IDX 35 1 34 2 33 3 32 4 31 5 30 6 29 7 27 8 28 9 16 10 15 11
REMARK SMILES IDX 13 12 14 13 12 15 1 16 2 17 3 18 4 19 11 20 5 21 6 22 10 23
REMARK SMILES IDX 7 24 9 25 8 26 17 27 18 28 19 29 26 30 20 31 24 32 25 33
REMARK SMILES IDX 21 34 23 35 22 36 36 37 37 38 38 39 39 40 40 41 41 42 42 43
REMARK SMILES IDX 43 44 44 45 45 46 109 47 46 48 108 49 47 50 48 51 49 52
REMARK SMILES IDX 102 53 50 54 107 55 101 56 103 57 51 58 106 59 100 60 99 61
REMARK SMILES IDX 52 63 86 64 65 65 85 66 66 67 69 68 84 69 104 70 67 71 68 72
REMARK SMILES IDX 83 74 105 75 70 76 53 77 54 78 63 79 55 80 56 81 62 82 64 83
REMARK SMILES IDX 57 84 58 85 59 86 60 87 61 88 87 89 88 90 97 91 89 92 90 93
REMARK SMILES IDX 96 94 98 95 91 96 92 97 93 98 94 99 95 100 71 101 72 102
REMARK SMILES IDX 81 103 73 104 74 105 80 106 82 107 75 108 76 109 77 110
REMARK SMILES IDX 78 111 79 112
REMARK H PARENT 15 14 103 62 69 73
REMARK Flexibility Score: inf
ROOT
ATOM      1  O   UNL A   1      48.201  27.933  34.913  1.00  0.00    -0.377 OA
ENDROOT
BRANCH   1   2
ATOM      2  C   UNL A   1      48.252  26.600  35.367  1.00  0.00     0.188 C 
BRANCH   2   3
ATOM      3  C   UNL A   1      48.667  25.562  34.317  1.00  0.00     0.188 C 
BRANCH   3   4
ATOM      4  O   UNL A   1      47.767  25.152  33.299  1.00  0.00    -0.376 OA
BRANCH   4   5
ATOM      5  C   UNL A   1      47.438  26.014  32.216  1.00  0.00     0.202 C 
BRANCH   5   6
ATOM      6  C   UNL A   1      48.111  25.901  30.840  1.00  0.00     0.261 C 
BRANCH   6   7
ATOM      7  O   UNL A   1      47.204  25.844  29.727  1.00  0.00    -0.462 OA
BRANCH   7   8
ATOM      8  C   UNL A   1      46.445  26.939  29.528  1.00  0.00     0.329 C 
ATOM      9  O   UNL A   1      45.371  27.155  30.085  1.00  0.00    -0.250 OA
BRANCH   8  10
ATOM     10  C   UNL A   1      47.010  27.929  28.499  1.00  0.00     0.196 C 
BRANCH  10  11
ATOM     11  N   UNL A   1      46.712  27.889  27.074  1.00  0.00    -0.338 N 
ATOM     12  C   UNL A   1      45.661  27.358  26.352  1.00  0.00     0.264 C 
ATOM     13  O   UNL A   1      45.926  27.202  25.153  1.00  0.00    -0.268 OA
ATOM     14  H   UNL A   1      47.394  28.329  26.515  1.00  0.00     0.164 HD
BRANCH  12  15
ATOM     15  C   UNL A   1      44.314  27.085  26.883  1.00  0.00     0.115 A 
ATOM     16  C   UNL A   1      43.648  24.520  27.115  1.00  0.00     0.068 C 
ATOM     17  C   UNL A   1      43.516  25.993  27.240  1.00  0.00     0.062 A 
ATOM     18  N   UNL A   1      42.325  26.313  27.858  1.00  0.00    -0.241 NA
ATOM     19  C   UNL A   1      42.102  27.597  27.870  1.00  0.00     0.124 A 
ATOM     20  S   UNL A   1      43.354  28.540  27.222  1.00  0.00    -0.108 S 
BRANCH  19  21
ATOM     21  C   UNL A   1      40.841  28.117  28.387  1.00  0.00     0.010 A 
ATOM     22  C   UNL A   1      40.419  27.690  29.658  1.00  0.00     0.011 A 
ATOM     23  C   UNL A   1      39.940  28.801  27.564  1.00  0.00     0.011 A 
ATOM     24  C   UNL A   1      39.110  27.907  30.084  1.00  0.00     0.001 A 
ATOM     25  C   UNL A   1      38.625  29.011  27.991  1.00  0.00     0.001 A 
ATOM     26  C   UNL A   1      38.209  28.553  29.243  1.00  0.00     0.000 A 
ENDBRANCH  19  21
ENDBRANCH  12  15
ENDBRANCH  10  11
BRANCH  10  27
ATOM     27  C   UNL A   1      46.868  29.361  29.037  1.00  0.00     0.070 C 
BRANCH  27  28
ATOM     28  C   UNL A   1      47.390  30.357  28.055  1.00  0.00    -0.037 C 
ATOM     29  C   UNL A   1      46.764  31.431  27.578  1.00  0.00     0.001 A 
ATOM     30  C   UNL A   1      48.821  30.330  27.603  1.00  0.00     0.174 C 
ATOM     31  C   UNL A   1      45.455  31.982  27.722  1.00  0.00     0.010 A 
ATOM     32  C   UNL A   1      47.857  32.173  26.934  1.00  0.00     0.065 A 
ATOM     33  N   UNL A   1      49.024  31.609  26.892  1.00  0.00    -0.280 NA
ATOM     34  C   UNL A   1      45.235  33.234  27.292  1.00  0.00     0.001 A 
ATOM     35  C   UNL A   1      47.530  33.533  26.459  1.00  0.00     0.028 A 
ATOM     36  C   UNL A   1      46.290  34.012  26.663  1.00  0.00     0.002 A 
ENDBRANCH  27  28
ENDBRANCH  10  27
ENDBRANCH   8  10
ENDBRANCH   7   8
ENDBRANCH   6   7
ENDBRANCH   5   6
ENDBRANCH   4   5
ENDBRANCH   3   4
ENDBRANCH   2   3
ENDBRANCH   1   2
BRANCH   1  37
ATOM     37  C   UNL A   1      49.288  28.785  35.245  1.00  0.00     0.188 C 
BRANCH  37  38
ATOM     38  C   UNL A   1      50.612  28.654  34.459  1.00  0.00     0.188 C 
BRANCH  38  39
ATOM     39  O   UNL A   1      51.271  29.878  34.172  1.00  0.00    -0.376 OA
BRANCH  39  40
ATOM     40  C   UNL A   1      52.516  29.855  33.489  1.00  0.00     0.202 C 
BRANCH  40  41
ATOM     41  C   UNL A   1      53.261  31.181  33.242  1.00  0.00     0.261 C 
BRANCH  41  42
ATOM     42  O   UNL A   1      53.087  31.798  31.957  1.00  0.00    -0.460 OA
BRANCH  42  43
ATOM     43  C   UNL A   1      52.563  33.038  31.903  1.00  0.00     0.338 C 
ATOM     44  O   UNL A   1      53.164  34.081  31.699  1.00  0.00    -0.246 OA
BRANCH  43  45
ATOM     45  C   UNL A   1      51.091  32.904  31.915  1.00  0.00     0.060 A 
ATOM     46  C   UNL A   1      50.465  32.203  30.874  1.00  0.00     0.016 A 
ATOM     47  C   UNL A   1      50.330  33.455  32.950  1.00  0.00     0.016 A 
ATOM     48  C   UNL A   1      49.077  32.083  30.845  1.00  0.00     0.010 A 
ATOM     49  C   UNL A   1      48.937  33.361  32.902  1.00  0.00     0.010 A 
ATOM     50  C   UNL A   1      48.302  32.708  31.830  1.00  0.00    -0.014 A 
BRANCH  50  51
ATOM     51  C   UNL A   1      46.844  32.872  31.617  1.00  0.00     0.031 A 
ATOM     52  C   UNL A   1      45.926  31.810  32.159  1.00  0.00     0.074 A 
ATOM     53  C   UNL A   1      46.341  33.948  30.987  1.00  0.00     0.049 A 
ATOM     54  N   UNL A   1      44.628  31.701  32.060  1.00  0.00    -0.248 NA
ATOM     55  C   UNL A   1      46.566  30.720  32.915  1.00  0.00     0.031 C 
ATOM     56  C   UNL A   1      47.122  35.068  30.466  1.00  0.00     0.029 A 
ATOM     57  N   UNL A   1      45.043  34.266  30.672  1.00  0.00    -0.354 N 
ATOM     58  C   UNL A   1      44.296  30.530  32.730  1.00  0.00     0.074 A 
ATOM     59  C   UNL A   1      45.531  29.946  33.204  1.00  0.00     0.031 C 
ATOM     60  C   UNL A   1      46.286  35.947  29.884  1.00  0.00     0.029 A 
ATOM     61  C   UNL A   1      44.918  35.436  29.960  1.00  0.00     0.049 A 
ATOM     62  H   UNL A   1      44.273  33.710  30.933  1.00  0.00     0.167 HD
ATOM     63  C   UNL A   1      43.070  29.993  32.940  1.00  0.00     0.037 A 
ATOM     64  C   UNL A   1      43.828  36.009  29.412  1.00  0.00     0.037 A 
ATOM     65  C   UNL A   1      41.845  30.577  32.459  1.00  0.00     0.049 A 
ATOM     66  C   UNL A   1      42.481  35.349  29.583  1.00  0.00     0.074 A 
ATOM     67  C   UNL A   1      40.551  30.118  32.626  1.00  0.00     0.029 A 
ATOM     68  N   UNL A   1      41.764  31.740  31.706  1.00  0.00    -0.354 N 
ATOM     69  N   UNL A   1      42.175  34.251  30.235  1.00  0.00    -0.248 NA
ATOM     70  C   UNL A   1      41.331  36.007  28.946  1.00  0.00     0.031 C 
ATOM     71  C   UNL A   1      39.693  30.969  31.922  1.00  0.00     0.029 A 
ATOM     72  C   UNL A   1      40.444  31.996  31.373  1.00  0.00     0.049 A 
ATOM     73  H   UNL A   1      42.531  32.299  31.447  1.00  0.00     0.167 HD
ATOM     74  C   UNL A   1      40.796  34.104  30.111  1.00  0.00     0.074 A 
ATOM     75  C   UNL A   1      40.327  35.232  29.332  1.00  0.00     0.031 C 
ATOM     76  C   UNL A   1      39.990  33.127  30.600  1.00  0.00     0.037 A 
BRANCH  63  77
ATOM     77  C   UNL A   1      43.002  28.689  33.690  1.00  0.00     0.058 A 
ATOM     78  C   UNL A   1      43.014  27.450  33.031  1.00  0.00     0.135 A 
ATOM     79  C   UNL A   1      42.938  28.682  35.093  1.00  0.00     0.135 A 
ATOM     80  F   UNL A   1      43.053  27.396  31.690  1.00  0.00    -0.206 F 
ATOM     81  C   UNL A   1      42.931  26.251  33.733  1.00  0.00     0.059 A 
ATOM     82  C   UNL A   1      42.888  27.496  35.817  1.00  0.00     0.059 A 
ATOM     83  F   UNL A   1      42.919  29.838  35.775  1.00  0.00    -0.206 F 
ATOM     84  C   UNL A   1      42.868  26.285  35.127  1.00  0.00     0.060 A 
BRANCH  84  85
ATOM     85  S   UNL A   1      42.756  24.722  36.022  1.00  0.00     0.124 S 
ATOM     86  O   UNL A   1      41.598  24.959  36.878  1.00  0.00    -0.237 OA
ATOM     87  O   UNL A   1      42.560  23.759  34.943  1.00  0.00    -0.237 OA
ATOM     88  O   UNL A   1      44.038  24.631  36.714  1.00  0.00    -0.744 OA
ENDBRANCH  84  85
ENDBRANCH  63  77
BRANCH  64  89
ATOM     89  C   UNL A   1      43.962  37.275  28.639  1.00  0.00     0.058 A 
ATOM     90  C   UNL A   1      43.983  37.270  27.237  1.00  0.00     0.135 A 
ATOM     91  C   UNL A   1      44.071  38.516  29.289  1.00  0.00     0.135 A 
ATOM     92  F   UNL A   1      43.898  36.109  26.569  1.00  0.00    -0.206 F 
ATOM     93  C   UNL A   1      44.120  38.446  26.505  1.00  0.00     0.059 A 
ATOM     94  C   UNL A   1      44.179  39.708  28.578  1.00  0.00     0.059 A 
ATOM     95  F   UNL A   1      44.052  38.579  30.629  1.00  0.00    -0.206 F 
ATOM     96  C   UNL A   1      44.212  39.661  27.185  1.00  0.00     0.060 A 
BRANCH  96  97
ATOM     97  S   UNL A   1      44.338  41.183  26.220  1.00  0.00     0.124 S 
ATOM     98  O   UNL A   1      45.345  40.819  25.229  1.00  0.00    -0.237 OA
ATOM     99  O   UNL A   1      42.977  41.338  25.718  1.00  0.00    -0.237 OA
ATOM    100  O   UNL A   1      44.755  42.174  27.205  1.00  0.00    -0.744 OA
ENDBRANCH  96  97
ENDBRANCH  64  89
BRANCH  76 101
ATOM    101  C   UNL A   1      38.510  33.247  30.343  1.00  0.00     0.058 A 
ATOM    102  C   UNL A   1      37.675  34.020  31.163  1.00  0.00     0.135 A 
ATOM    103  C   UNL A   1      37.932  32.627  29.221  1.00  0.00     0.135 A 
ATOM    104  F   UNL A   1      38.171  34.631  32.250  1.00  0.00    -0.206 F 
ATOM    105  C   UNL A   1      36.315  34.154  30.896  1.00  0.00     0.059 A 
ATOM    106  C   UNL A   1      36.583  32.774  28.917  1.00  0.00     0.059 A 
ATOM    107  F   UNL A   1      38.687  31.886  28.395  1.00  0.00    -0.206 F 
ATOM    108  C   UNL A   1      35.779  33.530  29.768  1.00  0.00     0.060 A 
BRANCH 108 109
ATOM    109  S   UNL A   1      34.020  33.742  29.414  1.00  0.00     0.124 S 
ATOM    110  O   UNL A   1      34.056  34.685  28.302  1.00  0.00    -0.237 OA
ATOM    111  O   UNL A   1      33.604  32.383  29.079  1.00  0.00    -0.237 OA
ATOM    112  O   UNL A   1      33.482  34.266  30.665  1.00  0.00    -0.744 OA
ENDBRANCH 108 109
ENDBRANCH  76 101
ENDBRANCH  50  51
ENDBRANCH  43  45
ENDBRANCH  42  43
ENDBRANCH  41  42
ENDBRANCH  40  41
ENDBRANCH  39  40
ENDBRANCH  38  39
ENDBRANCH  37  38
ENDBRANCH   1  37
TORSDOF 28
ENDMDL
MODEL 3
REMARK VINA RESULT:      -6.6      5.434     13.170
REMARK SMILES Cc1nc(-c2ccccc2)sc1C(=O)N[C@@H](CC1=c2ccccc2=NC1)C(=O)OCCOCCOCCOCCOC(=O)c1ccc(-c2c3nc(c(-c4c(F)cc(S(=O)(=O)[O-])cc4F)c4ccc([nH]4)c(-c4c(F)cc(S(=O)(=O)[O-])cc4F)c4nc(c(-c5c(F)cc(S(=O)(=O)[O-])cc5F)c5ccc2[nH]5)C=C4)C=C3)cc1
REMARK SMILES IDX 35 1 34 2 33 3 32 4 31 5 30 6 29 7 27 8 28 9 16 10 15 11
REMARK SMILES IDX 13 12 14 13 12 15 1 16 2 17 3 18 4 19 11 20 5 21 6 22 10 23
REMARK SMILES IDX 7 24 9 25 8 26 17 27 18 28 19 29 26 30 20 31 24 32 25 33
REMARK SMILES IDX 21 34 23 35 22 36 36 37 37 38 38 39 39 40 40 41 41 42 42 43
REMARK SMILES IDX 43 44 44 45 45 46 109 47 46 48 108 49 47 50 48 51 49 52
REMARK SMILES IDX 102 53 50 54 107 55 101 56 103 57 51 58 106 59 100 60 99 61
REMARK SMILES IDX 52 63 86 64 65 65 85 66 66 67 69 68 84 69 104 70 67 71 68 72
REMARK SMILES IDX 83 74 105 75 70 76 53 77 54 78 63 79 55 80 56 81 62 82 64 83
REMARK SMILES IDX 57 84 58 85 59 86 60 87 61 88 87 89 88 90 97 91 89 92 90 93
REMARK SMILES IDX 96 94 98 95 91 96 92 97 93 98 94 99 95 100 71 101 72 102
REMARK SMILES IDX 81 103 73 104 74 105 80 106 82 107 75 108 76 109 77 110
REMARK SMILES IDX 78 111 79 112
REMARK H PARENT 15 14 103 62 69 73
REMARK Flexibility Score: inf
ROOT
ATOM      1  O   UNL A   1      43.080  29.325  29.382  1.00  0.00    -0.377 OA
ENDROOT
BRANCH   1   2
ATOM      2  C   UNL A   1      42.529  28.415  28.458  1.00  0.00     0.188 C 
BRANCH   2   3
ATOM      3  C   UNL A   1      42.737  28.770  26.980  1.00  0.00     0.188 C 
BRANCH   3   4
ATOM      4  O   UNL A   1      42.525  27.805  25.961  1.00  0.00    -0.376 OA
BRANCH   4   5
ATOM      5  C   UNL A   1      43.455  26.751  25.737  1.00  0.00     0.202 C 
BRANCH   5   6
ATOM      6  C   UNL A   1      43.024  25.365  25.236  1.00  0.00     0.261 C 
BRANCH   6   7
ATOM      7  O   UNL A   1      44.075  24.582  24.647  1.00  0.00    -0.462 OA
BRANCH   7   8
ATOM      8  C   UNL A   1      43.931  23.245  24.731  1.00  0.00     0.329 C 
ATOM      9  O   UNL A   1      43.804  22.494  23.766  1.00  0.00    -0.250 OA
BRANCH   8  10
ATOM     10  C   UNL A   1      43.903  22.694  26.163  1.00  0.00     0.196 C 
BRANCH  10  11
ATOM     11  N   UNL A   1      43.229  21.465  26.557  1.00  0.00    -0.338 N 
ATOM     12  C   UNL A   1      41.965  21.209  27.054  1.00  0.00     0.264 C 
ATOM     13  O   UNL A   1      41.876  20.103  27.604  1.00  0.00    -0.268 OA
ATOM     14  H   UNL A   1      43.782  20.657  26.447  1.00  0.00     0.164 HD
BRANCH  12  15
ATOM     15  C   UNL A   1      40.790  22.079  26.883  1.00  0.00     0.115 A 
ATOM     16  C   UNL A   1      40.913  24.455  28.075  1.00  0.00     0.068 C 
ATOM     17  C   UNL A   1      40.366  23.367  27.225  1.00  0.00     0.062 A 
ATOM     18  N   UNL A   1      39.171  23.763  26.659  1.00  0.00    -0.241 NA
ATOM     19  C   UNL A   1      38.586  22.795  26.010  1.00  0.00     0.124 A 
ATOM     20  S   UNL A   1      39.469  21.349  25.946  1.00  0.00    -0.108 S 
BRANCH  19  21
ATOM     21  C   UNL A   1      37.261  22.996  25.434  1.00  0.00     0.010 A 
ATOM     22  C   UNL A   1      37.027  22.527  24.131  1.00  0.00     0.011 A 
ATOM     23  C   UNL A   1      36.328  23.852  26.029  1.00  0.00     0.011 A 
ATOM     24  C   UNL A   1      35.901  22.936  23.418  1.00  0.00     0.001 A 
ATOM     25  C   UNL A   1      35.203  24.268  25.309  1.00  0.00     0.001 A 
ATOM     26  C   UNL A   1      34.999  23.820  24.002  1.00  0.00     0.000 A 
ENDBRANCH  19  21
ENDBRANCH  12  15
ENDBRANCH  10  11
BRANCH  10  27
ATOM     27  C   UNL A   1      45.320  22.741  26.756  1.00  0.00     0.070 C 
BRANCH  27  28
ATOM     28  C   UNL A   1      45.464  23.878  27.713  1.00  0.00    -0.037 C 
ATOM     29  C   UNL A   1      44.950  23.977  28.937  1.00  0.00     0.001 A 
ATOM     30  C   UNL A   1      46.393  25.022  27.432  1.00  0.00     0.174 C 
ATOM     31  C   UNL A   1      44.080  23.173  29.734  1.00  0.00     0.010 A 
ATOM     32  C   UNL A   1      45.679  25.125  29.494  1.00  0.00     0.065 A 
ATOM     33  N   UNL A   1      46.482  25.767  28.704  1.00  0.00    -0.280 NA
ATOM     34  C   UNL A   1      43.964  23.454  31.041  1.00  0.00     0.001 A 
ATOM     35  C   UNL A   1      45.477  25.390  30.934  1.00  0.00     0.028 A 
ATOM     36  C   UNL A   1      44.679  24.570  31.639  1.00  0.00     0.002 A 
ENDBRANCH  27  28
ENDBRANCH  10  27
ENDBRANCH   8  10
ENDBRANCH   7   8
ENDBRANCH   6   7
ENDBRANCH   5   6
ENDBRANCH   4   5
ENDBRANCH   3   4
ENDBRANCH   2   3
ENDBRANCH   1   2
BRANCH   1  37
ATOM     37  C   UNL A   1      42.746  30.698  29.235  1.00  0.00     0.188 C 
BRANCH  37  38
ATOM     38  C   UNL A   1      43.694  31.768  29.822  1.00  0.00     0.188 C 
BRANCH  38  39
ATOM     39  O   UNL A   1      45.080  31.514  29.643  1.00  0.00    -0.376 OA
BRANCH  39  40
ATOM     40  C   UNL A   1      45.961  31.651  30.748  1.00  0.00     0.202 C 
BRANCH  40  41
ATOM     41  C   UNL A   1      47.388  32.181  30.509  1.00  0.00     0.261 C 
BRANCH  41  42
ATOM     42  O   UNL A   1      47.666  33.523  30.936  1.00  0.00    -0.460 OA
BRANCH  42  43
ATOM     43  C   UNL A   1      48.310  33.707  32.106  1.00  0.00     0.338 C 
ATOM     44  O   UNL A   1      49.515  33.660  32.295  1.00  0.00    -0.246 OA
BRANCH  43  45
ATOM     45  C   UNL A   1      47.321  34.197  33.090  1.00  0.00     0.060 A 
ATOM     46  C   UNL A   1      46.219  34.935  32.635  1.00  0.00     0.016 A 
ATOM     47  C   UNL A   1      47.472  33.923  34.452  1.00  0.00     0.016 A 
ATOM     48  C   UNL A   1      45.286  35.433  33.542  1.00  0.00     0.010 A 
ATOM     49  C   UNL A   1      46.552  34.450  35.363  1.00  0.00     0.010 A 
ATOM     50  C   UNL A   1      45.477  35.238  34.916  1.00  0.00    -0.014 A 
BRANCH  50  51
ATOM     51  C   UNL A   1      44.691  36.042  35.882  1.00  0.00     0.031 A 
ATOM     52  C   UNL A   1      45.196  37.417  36.233  1.00  0.00     0.074 A 
ATOM     53  C   UNL A   1      43.545  35.584  36.414  1.00  0.00     0.049 A 
ATOM     54  N   UNL A   1      44.718  38.288  37.082  1.00  0.00    -0.248 NA
ATOM     55  C   UNL A   1      46.408  37.866  35.527  1.00  0.00     0.031 C 
ATOM     56  C   UNL A   1      42.927  34.294  36.112  1.00  0.00     0.029 A 
ATOM     57  N   UNL A   1      42.700  36.157  37.332  1.00  0.00    -0.354 N 
ATOM     58  C   UNL A   1      45.573  39.381  37.020  1.00  0.00     0.074 A 
ATOM     59  C   UNL A   1      46.617  39.052  36.075  1.00  0.00     0.031 C 
ATOM     60  C   UNL A   1      41.805  34.169  36.843  1.00  0.00     0.029 A 
ATOM     61  C   UNL A   1      41.644  35.351  37.689  1.00  0.00     0.049 A 
ATOM     62  H   UNL A   1      42.836  37.061  37.699  1.00  0.00     0.167 HD
ATOM     63  C   UNL A   1      45.492  40.559  37.686  1.00  0.00     0.037 A 
ATOM     64  C   UNL A   1      40.679  35.540  38.611  1.00  0.00     0.037 A 
ATOM     65  C   UNL A   1      44.452  40.876  38.629  1.00  0.00     0.049 A 
ATOM     66  C   UNL A   1      40.655  36.823  39.404  1.00  0.00     0.074 A 
ATOM     67  C   UNL A   1      44.273  42.044  39.349  1.00  0.00     0.029 A 
ATOM     68  N   UNL A   1      43.425  40.018  38.995  1.00  0.00    -0.354 N 
ATOM     69  N   UNL A   1      41.458  37.859  39.326  1.00  0.00    -0.248 NA
ATOM     70  C   UNL A   1      39.593  36.965  40.411  1.00  0.00     0.031 C 
ATOM     71  C   UNL A   1      43.173  41.869  40.195  1.00  0.00     0.029 A 
ATOM     72  C   UNL A   1      42.626  40.619  39.954  1.00  0.00     0.049 A 
ATOM     73  H   UNL A   1      43.284  39.117  38.627  1.00  0.00     0.167 HD
ATOM     74  C   UNL A   1      40.979  38.785  40.249  1.00  0.00     0.074 A 
ATOM     75  C   UNL A   1      39.811  38.191  40.866  1.00  0.00     0.031 C 
ATOM     76  C   UNL A   1      41.462  40.017  40.557  1.00  0.00     0.037 A 
BRANCH  63  77
ATOM     77  C   UNL A   1      46.578  41.572  37.440  1.00  0.00     0.058 A 
ATOM     78  C   UNL A   1      47.755  41.600  38.205  1.00  0.00     0.135 A 
ATOM     79  C   UNL A   1      46.444  42.520  36.413  1.00  0.00     0.135 A 
ATOM     80  F   UNL A   1      47.928  40.731  39.214  1.00  0.00    -0.206 F 
ATOM     81  C   UNL A   1      48.745  42.552  37.984  1.00  0.00     0.059 A 
ATOM     82  C   UNL A   1      47.435  43.461  36.151  1.00  0.00     0.059 A 
ATOM     83  F   UNL A   1      45.338  42.542  35.653  1.00  0.00    -0.206 F 
ATOM     84  C   UNL A   1      48.575  43.480  36.954  1.00  0.00     0.060 A 
BRANCH  84  85
ATOM     85  S   UNL A   1      49.865  44.712  36.682  1.00  0.00     0.124 S 
ATOM     86  O   UNL A   1      51.045  43.868  36.522  1.00  0.00    -0.237 OA
ATOM     87  O   UNL A   1      49.400  45.388  35.475  1.00  0.00    -0.237 OA
ATOM     88  O   UNL A   1      49.831  45.516  37.900  1.00  0.00    -0.744 OA
ENDBRANCH  84  85
ENDBRANCH  63  77
BRANCH  64  89
ATOM     89  C   UNL A   1      39.656  34.482  38.844  1.00  0.00     0.058 A 
ATOM     90  C   UNL A   1      39.716  33.652  39.973  1.00  0.00     0.135 A 
ATOM     91  C   UNL A   1      38.599  34.281  37.942  1.00  0.00     0.135 A 
ATOM     92  F   UNL A   1      40.716  33.793  40.857  1.00  0.00    -0.206 F 
ATOM     93  C   UNL A   1      38.773  32.653  40.194  1.00  0.00     0.059 A 
ATOM     94  C   UNL A   1      37.627  33.308  38.157  1.00  0.00     0.059 A 
ATOM     95  F   UNL A   1      38.491  35.050  36.847  1.00  0.00    -0.206 F 
ATOM     96  C   UNL A   1      37.728  32.492  39.284  1.00  0.00     0.060 A 
BRANCH  96  97
ATOM     97  S   UNL A   1      36.484  31.224  39.612  1.00  0.00     0.124 S 
ATOM     98  O   UNL A   1      35.252  31.926  39.269  1.00  0.00    -0.237 OA
ATOM     99  O   UNL A   1      36.887  30.160  38.699  1.00  0.00    -0.237 OA
ATOM    100  O   UNL A   1      36.668  30.930  41.029  1.00  0.00    -0.744 OA
ENDBRANCH  96  97
ENDBRANCH  64  89
BRANCH  76 101
ATOM    101  C   UNL A   1      40.709  40.827  41.580  1.00  0.00     0.058 A 
ATOM    102  C   UNL A   1      40.968  40.713  42.955  1.00  0.00     0.135 A 
ATOM    103  C   UNL A   1      39.756  41.777  41.172  1.00  0.00     0.135 A 
ATOM    104  F   UNL A   1      41.865  39.820  43.402  1.00  0.00    -0.206 F 
ATOM    105  C   UNL A   1      40.292  41.493  43.890  1.00  0.00     0.059 A 
ATOM    106  C   UNL A   1      39.093  42.589  42.086  1.00  0.00     0.059 A 
ATOM    107  F   UNL A   1      39.477  41.937  39.869  1.00  0.00    -0.206 F 
ATOM    108  C   UNL A   1      39.359  42.431  43.445  1.00  0.00     0.060 A 
BRANCH 108 109
ATOM    109  S   UNL A   1      38.516  43.460  44.667  1.00  0.00     0.124 S 
ATOM    110  O   UNL A   1      38.285  44.686  43.910  1.00  0.00    -0.237 OA
ATOM    111  O   UNL A   1      37.327  42.670  44.972  1.00  0.00    -0.237 OA
ATOM    112  O   UNL A   1      39.487  43.565  45.751  1.00  0.00    -0.744 OA
ENDBRANCH 108 109
ENDBRANCH  76 101
ENDBRANCH  50  51
ENDBRANCH  43  45
ENDBRANCH  42  43
ENDBRANCH  41  42
ENDBRANCH  40  41
ENDBRANCH  39  40
ENDBRANCH  38  39
ENDBRANCH  37  38
ENDBRANCH   1  37
TORSDOF 28
ENDMDL
