MODEL 1
REMARK VINA RESULT:     -10.9      0.000      0.000
REMARK SMILES O=C1O[C@@H](c2ccc(O)c(O)c2)[C@H](C(=O)OCCOCCOCCOCCOC(=O)c2ccc(-c3c4nc(c(-c5c(F)cc(S(=O)(=O)[O-])cc5F)c5ccc([nH]5)c(-c5c(F)cc(S(=O)(=O)[O-])cc5F)c5nc(c(-c6c(F)cc(S(=O)(=O)[O-])cc6F)c6ccc3[nH]6)C=C5)C=C4)cc2)/C1=C\c1ccc(O)c(O)c1
REMARK SMILES IDX 23 1 22 2 21 3 20 4 19 5 18 6 17 7 16 8 14 9 15 10 13 11
REMARK SMILES IDX 1 12 2 13 3 14 97 15 4 16 98 17 5 18 6 19 12 20 7 21 10 22
REMARK SMILES IDX 8 23 11 24 9 26 99 28 100 29 106 30 101 31 104 32 102 33
REMARK SMILES IDX 105 34 103 36 24 38 25 39 26 40 27 41 28 42 29 43 30 44
REMARK SMILES IDX 31 45 32 46 96 47 33 48 95 49 34 50 35 51 36 52 89 53 37 54
REMARK SMILES IDX 94 55 88 56 90 57 38 58 93 59 87 60 86 61 39 63 73 64 52 65
REMARK SMILES IDX 72 66 53 67 56 68 71 69 91 70 54 71 55 72 70 74 92 75 57 76
REMARK SMILES IDX 40 77 41 78 50 79 42 80 43 81 49 82 51 83 44 84 45 85 46 86
REMARK SMILES IDX 47 87 48 88 74 89 75 90 84 91 76 92 77 93 83 94 85 95 78 96
REMARK SMILES IDX 79 97 80 98 81 99 82 100 58 101 59 102 68 103 60 104 61 105
REMARK SMILES IDX 67 106 69 107 62 108 63 109 64 110 65 111 66 112
REMARK H PARENT 11 25 9 27 105 35 103 37 90 62 56 73
REMARK Flexibility Score: inf
ROOT
ATOM      1  C   UNL A   1      35.353  32.900  29.851  1.00  0.00     0.188 C 
ENDROOT
BRANCH   1   2
ATOM      2  O   UNL A   1      34.785  34.088  29.299  1.00  0.00    -0.377 OA
BRANCH   2   3
ATOM      3  C   UNL A   1      33.417  34.063  28.948  1.00  0.00     0.188 C 
BRANCH   3   4
ATOM      4  C   UNL A   1      33.092  33.592  27.516  1.00  0.00     0.188 C 
BRANCH   4   5
ATOM      5  O   UNL A   1      31.793  33.039  27.398  1.00  0.00    -0.376 OA
BRANCH   5   6
ATOM      6  C   UNL A   1      31.606  31.799  26.745  1.00  0.00     0.202 C 
BRANCH   6   7
ATOM      7  C   UNL A   1      32.632  30.671  26.928  1.00  0.00     0.261 C 
BRANCH   7   8
ATOM      8  O   UNL A   1      33.239  30.177  25.726  1.00  0.00    -0.463 OA
BRANCH   8   9
ATOM      9  C   UNL A   1      33.501  28.846  25.656  1.00  0.00     0.317 C 
ATOM     10  O   UNL A   1      34.424  28.285  26.226  1.00  0.00    -0.251 OA
BRANCH   9  11
ATOM     11  C   UNL A   1      32.419  28.178  24.819  1.00  0.00     0.182 C 
ATOM     12  O   UNL A   1      33.961  27.621  21.692  1.00  0.00    -0.247 OA
ATOM     13  C   UNL A   1      33.278  27.987  22.637  1.00  0.00     0.335 C 
ATOM     14  O   UNL A   1      32.623  29.178  22.726  1.00  0.00    -0.453 OA
ATOM     15  C   UNL A   1      32.988  27.203  23.857  1.00  0.00     0.056 C 
ATOM     16  C   UNL A   1      31.813  29.228  23.917  1.00  0.00     0.226 C 
ATOM     17  C   UNL A   1      33.186  25.871  23.874  1.00  0.00     0.020 C 
BRANCH  16  18
ATOM     18  C   UNL A   1      30.332  29.003  23.617  1.00  0.00    -0.002 A 
ATOM     19  C   UNL A   1      29.777  27.703  23.653  1.00  0.00     0.012 A 
ATOM     20  C   UNL A   1      29.475  30.083  23.362  1.00  0.00     0.057 A 
ATOM     21  C   UNL A   1      28.414  27.488  23.412  1.00  0.00     0.050 A 
ATOM     22  C   UNL A   1      28.124  29.861  23.131  1.00  0.00     0.157 A 
ATOM     23  C   UNL A   1      27.593  28.575  23.155  1.00  0.00     0.157 A 
BRANCH  22  24
ATOM     24  O   UNL A   1      27.308  30.931  22.898  1.00  0.00    -0.504 OA
ATOM     25  H   UNL A   1      27.083  31.511  23.599  1.00  0.00     0.293 HD
ENDBRANCH  22  24
BRANCH  23  26
ATOM     26  O   UNL A   1      26.251  28.438  22.932  1.00  0.00    -0.504 OA
ATOM     27  H   UNL A   1      25.640  28.954  23.422  1.00  0.00     0.293 HD
ENDBRANCH  23  26
ENDBRANCH  16  18
BRANCH  17  28
ATOM     28  C   UNL A   1      32.856  24.891  24.924  1.00  0.00    -0.021 A 
ATOM     29  C   UNL A   1      33.806  24.497  25.882  1.00  0.00     0.012 A 
ATOM     30  C   UNL A   1      31.540  24.422  25.047  1.00  0.00     0.058 A 
ATOM     31  C   UNL A   1      33.458  23.629  26.931  1.00  0.00     0.051 A 
ATOM     32  C   UNL A   1      31.206  23.551  26.083  1.00  0.00     0.157 A 
ATOM     33  C   UNL A   1      32.155  23.156  27.020  1.00  0.00     0.157 A 
BRANCH  32  34
ATOM     34  O   UNL A   1      29.929  23.070  26.165  1.00  0.00    -0.504 OA
ATOM     35  H   UNL A   1      29.641  22.637  26.944  1.00  0.00     0.293 HD
ENDBRANCH  32  34
BRANCH  33  36
ATOM     36  O   UNL A   1      31.758  22.298  28.009  1.00  0.00    -0.504 OA
ATOM     37  H   UNL A   1      31.131  21.627  27.824  1.00  0.00     0.293 HD
ENDBRANCH  33  36
ENDBRANCH  17  28
ENDBRANCH   9  11
ENDBRANCH   8   9
ENDBRANCH   7   8
ENDBRANCH   6   7
ENDBRANCH   5   6
ENDBRANCH   4   5
ENDBRANCH   3   4
ENDBRANCH   2   3
ENDBRANCH   1   2
BRANCH   1  38
ATOM     38  C   UNL A   1      36.277  32.905  31.105  1.00  0.00     0.188 C 
BRANCH  38  39
ATOM     39  O   UNL A   1      35.629  32.919  32.367  1.00  0.00    -0.376 OA
BRANCH  39  40
ATOM     40  C   UNL A   1      36.232  32.246  33.456  1.00  0.00     0.202 C 
BRANCH  40  41
ATOM     41  C   UNL A   1      37.524  31.475  33.151  1.00  0.00     0.261 C 
BRANCH  41  42
ATOM     42  O   UNL A   1      37.367  30.061  32.993  1.00  0.00    -0.460 OA
BRANCH  42  43
ATOM     43  C   UNL A   1      37.236  29.609  31.724  1.00  0.00     0.338 C 
ATOM     44  O   UNL A   1      36.200  29.383  31.128  1.00  0.00    -0.246 OA
BRANCH  43  45
ATOM     45  C   UNL A   1      38.577  29.645  31.113  1.00  0.00     0.060 A 
ATOM     46  C   UNL A   1      38.715  30.105  29.795  1.00  0.00     0.016 A 
ATOM     47  C   UNL A   1      39.695  29.273  31.861  1.00  0.00     0.016 A 
ATOM     48  C   UNL A   1      39.977  30.185  29.215  1.00  0.00     0.010 A 
ATOM     49  C   UNL A   1      40.953  29.315  31.267  1.00  0.00     0.010 A 
ATOM     50  C   UNL A   1      41.094  29.744  29.934  1.00  0.00    -0.014 A 
BRANCH  50  51
ATOM     51  C   UNL A   1      42.369  29.495  29.229  1.00  0.00     0.031 A 
ATOM     52  C   UNL A   1      42.602  28.112  28.690  1.00  0.00     0.074 A 
ATOM     53  C   UNL A   1      43.293  30.459  29.083  1.00  0.00     0.049 A 
ATOM     54  N   UNL A   1      43.675  27.601  28.153  1.00  0.00    -0.248 NA
ATOM     55  C   UNL A   1      41.467  27.176  28.781  1.00  0.00     0.031 C 
ATOM     56  C   UNL A   1      43.145  31.847  29.515  1.00  0.00     0.029 A 
ATOM     57  N   UNL A   1      44.554  30.404  28.545  1.00  0.00    -0.354 N 
ATOM     58  C   UNL A   1      43.353  26.282  27.857  1.00  0.00     0.074 A 
ATOM     59  C   UNL A   1      41.994  26.063  28.295  1.00  0.00     0.031 C 
ATOM     60  C   UNL A   1      44.285  32.508  29.248  1.00  0.00     0.029 A 
ATOM     61  C   UNL A   1      45.255  31.579  28.668  1.00  0.00     0.049 A 
ATOM     62  H   UNL A   1      44.920  29.599  28.112  1.00  0.00     0.167 HD
ATOM     63  C   UNL A   1      44.126  25.340  27.269  1.00  0.00     0.037 A 
ATOM     64  C   UNL A   1      46.542  31.854  28.380  1.00  0.00     0.037 A 
ATOM     65  C   UNL A   1      45.479  25.574  26.844  1.00  0.00     0.049 A 
ATOM     66  C   UNL A   1      47.414  30.765  27.803  1.00  0.00     0.074 A 
ATOM     67  C   UNL A   1      46.349  24.694  26.227  1.00  0.00     0.029 A 
ATOM     68  N   UNL A   1      46.162  26.772  27.002  1.00  0.00    -0.354 N 
ATOM     69  N   UNL A   1      47.099  29.524  27.514  1.00  0.00    -0.248 NA
ATOM     70  C   UNL A   1      48.813  31.110  27.517  1.00  0.00     0.031 C 
ATOM     71  C   UNL A   1      47.578  25.339  26.070  1.00  0.00     0.029 A 
ATOM     72  C   UNL A   1      47.453  26.645  26.522  1.00  0.00     0.049 A 
ATOM     73  H   UNL A   1      45.784  27.591  27.397  1.00  0.00     0.167 HD
ATOM     74  C   UNL A   1      48.249  28.953  26.977  1.00  0.00     0.074 A 
ATOM     75  C   UNL A   1      49.266  29.984  26.980  1.00  0.00     0.031 C 
ATOM     76  C   UNL A   1      48.445  27.692  26.517  1.00  0.00     0.037 A 
BRANCH  63  77
ATOM     77  C   UNL A   1      43.540  23.968  27.092  1.00  0.00     0.058 A 
ATOM     78  C   UNL A   1      43.445  23.056  28.156  1.00  0.00     0.135 A 
ATOM     79  C   UNL A   1      43.043  23.568  25.841  1.00  0.00     0.135 A 
ATOM     80  F   UNL A   1      43.927  23.375  29.367  1.00  0.00    -0.206 F 
ATOM     81  C   UNL A   1      42.897  21.789  27.979  1.00  0.00     0.059 A 
ATOM     82  C   UNL A   1      42.463  22.319  25.649  1.00  0.00     0.059 A 
ATOM     83  F   UNL A   1      43.119  24.396  24.787  1.00  0.00    -0.206 F 
ATOM     84  C   UNL A   1      42.406  21.432  26.722  1.00  0.00     0.060 A 
BRANCH  84  85
ATOM     85  S   UNL A   1      41.689  19.789  26.514  1.00  0.00     0.124 S 
ATOM     86  O   UNL A   1      40.266  20.101  26.430  1.00  0.00    -0.237 OA
ATOM     87  O   UNL A   1      42.312  19.334  25.274  1.00  0.00    -0.237 OA
ATOM     88  O   UNL A   1      42.105  19.080  27.719  1.00  0.00    -0.744 OA
ENDBRANCH  84  85
ENDBRANCH  63  77
BRANCH  64  89
ATOM     89  C   UNL A   1      47.095  33.210  28.653  1.00  0.00     0.058 A 
ATOM     90  C   UNL A   1      47.645  33.531  29.902  1.00  0.00     0.135 A 
ATOM     91  C   UNL A   1      47.079  34.212  27.669  1.00  0.00     0.135 A 
ATOM     92  F   UNL A   1      47.671  32.612  30.879  1.00  0.00    -0.206 F 
ATOM     93  C   UNL A   1      48.150  34.799  30.172  1.00  0.00     0.059 A 
ATOM     94  C   UNL A   1      47.606  35.479  27.906  1.00  0.00     0.059 A 
ATOM     95  F   UNL A   1      46.571  33.956  26.454  1.00  0.00    -0.206 F 
ATOM     96  C   UNL A   1      48.131  35.765  29.164  1.00  0.00     0.060 A 
BRANCH  96  97
ATOM     97  S   UNL A   1      48.838  37.390  29.511  1.00  0.00     0.124 S 
ATOM     98  O   UNL A   1      48.718  37.458  30.963  1.00  0.00    -0.237 OA
ATOM     99  O   UNL A   1      50.191  37.250  28.986  1.00  0.00    -0.237 OA
ATOM    100  O   UNL A   1      47.973  38.298  28.763  1.00  0.00    -0.744 OA
ENDBRANCH  96  97
ENDBRANCH  64  89
BRANCH  76 101
ATOM    101  C   UNL A   1      49.788  27.357  25.924  1.00  0.00     0.058 A 
ATOM    102  C   UNL A   1      50.857  26.907  26.713  1.00  0.00     0.135 A 
ATOM    103  C   UNL A   1      49.968  27.389  24.530  1.00  0.00     0.135 A 
ATOM    104  F   UNL A   1      50.739  26.863  28.050  1.00  0.00    -0.206 F 
ATOM    105  C   UNL A   1      52.061  26.507  26.142  1.00  0.00     0.059 A 
ATOM    106  C   UNL A   1      51.152  26.964  23.937  1.00  0.00     0.059 A 
ATOM    107  F   UNL A   1      48.973  27.801  23.729  1.00  0.00    -0.206 F 
ATOM    108  C   UNL A   1      52.194  26.529  24.752  1.00  0.00     0.060 A 
BRANCH 108 109
ATOM    109  S   UNL A   1      53.736  25.937  24.023  1.00  0.00     0.124 S 
ATOM    110  O   UNL A   1      53.424  25.981  22.598  1.00  0.00    -0.237 OA
ATOM    111  O   UNL A   1      54.701  26.926  24.493  1.00  0.00    -0.237 OA
ATOM    112  O   UNL A   1      53.890  24.601  24.588  1.00  0.00    -0.744 OA
ENDBRANCH 108 109
ENDBRANCH  76 101
ENDBRANCH  50  51
ENDBRANCH  43  45
ENDBRANCH  42  43
ENDBRANCH  41  42
ENDBRANCH  40  41
ENDBRANCH  39  40
ENDBRANCH  38  39
ENDBRANCH   1  38
TORSDOF 29
ENDMDL
MODEL 2
REMARK VINA RESULT:      -9.7      4.221     11.684
REMARK SMILES O=C1O[C@@H](c2ccc(O)c(O)c2)[C@H](C(=O)OCCOCCOCCOCCOC(=O)c2ccc(-c3c4nc(c(-c5c(F)cc(S(=O)(=O)[O-])cc5F)c5ccc([nH]5)c(-c5c(F)cc(S(=O)(=O)[O-])cc5F)c5nc(c(-c6c(F)cc(S(=O)(=O)[O-])cc6F)c6ccc3[nH]6)C=C5)C=C4)cc2)/C1=C\c1ccc(O)c(O)c1
REMARK SMILES IDX 23 1 22 2 21 3 20 4 19 5 18 6 17 7 16 8 14 9 15 10 13 11
REMARK SMILES IDX 1 12 2 13 3 14 97 15 4 16 98 17 5 18 6 19 12 20 7 21 10 22
REMARK SMILES IDX 8 23 11 24 9 26 99 28 100 29 106 30 101 31 104 32 102 33
REMARK SMILES IDX 105 34 103 36 24 38 25 39 26 40 27 41 28 42 29 43 30 44
REMARK SMILES IDX 31 45 32 46 96 47 33 48 95 49 34 50 35 51 36 52 89 53 37 54
REMARK SMILES IDX 94 55 88 56 90 57 38 58 93 59 87 60 86 61 39 63 73 64 52 65
REMARK SMILES IDX 72 66 53 67 56 68 71 69 91 70 54 71 55 72 70 74 92 75 57 76
REMARK SMILES IDX 40 77 41 78 50 79 42 80 43 81 49 82 51 83 44 84 45 85 46 86
REMARK SMILES IDX 47 87 48 88 74 89 75 90 84 91 76 92 77 93 83 94 85 95 78 96
REMARK SMILES IDX 79 97 80 98 81 99 82 100 58 101 59 102 68 103 60 104 61 105
REMARK SMILES IDX 67 106 69 107 62 108 63 109 64 110 65 111 66 112
REMARK H PARENT 11 25 9 27 105 35 103 37 90 62 56 73
REMARK Flexibility Score: inf
ROOT
ATOM      1  C   UNL A   1      32.887  36.415  31.082  1.00  0.00     0.188 C 
ENDROOT
BRANCH   1   2
ATOM      2  O   UNL A   1      32.975  35.068  31.547  1.00  0.00    -0.377 OA
BRANCH   2   3
ATOM      3  C   UNL A   1      34.218  34.626  32.054  1.00  0.00     0.188 C 
BRANCH   3   4
ATOM      4  C   UNL A   1      34.617  35.165  33.442  1.00  0.00     0.188 C 
BRANCH   4   5
ATOM      5  O   UNL A   1      35.014  34.142  34.339  1.00  0.00    -0.376 OA
BRANCH   5   6
ATOM      6  C   UNL A   1      36.385  33.854  34.523  1.00  0.00     0.202 C 
BRANCH   6   7
ATOM      7  C   UNL A   1      36.884  33.315  35.872  1.00  0.00     0.261 C 
BRANCH   7   8
ATOM      8  O   UNL A   1      37.952  32.360  35.807  1.00  0.00    -0.463 OA
BRANCH   8   9
ATOM      9  C   UNL A   1      39.145  32.714  36.352  1.00  0.00     0.317 C 
ATOM     10  O   UNL A   1      39.283  33.284  37.423  1.00  0.00    -0.251 OA
BRANCH   9  11
ATOM     11  C   UNL A   1      40.263  32.220  35.444  1.00  0.00     0.182 C 
ATOM     12  O   UNL A   1      40.589  34.756  33.009  1.00  0.00    -0.247 OA
ATOM     13  C   UNL A   1      40.389  33.732  33.646  1.00  0.00     0.335 C 
ATOM     14  O   UNL A   1      39.524  32.740  33.298  1.00  0.00    -0.453 OA
ATOM     15  C   UNL A   1      41.069  33.341  34.900  1.00  0.00     0.056 C 
ATOM     16  C   UNL A   1      39.631  31.626  34.206  1.00  0.00     0.226 C 
ATOM     17  C   UNL A   1      42.220  33.936  35.266  1.00  0.00     0.020 C 
BRANCH  16  18
ATOM     18  C   UNL A   1      40.424  30.466  33.606  1.00  0.00    -0.002 A 
ATOM     19  C   UNL A   1      39.762  29.323  33.102  1.00  0.00     0.012 A 
ATOM     20  C   UNL A   1      41.819  30.534  33.481  1.00  0.00     0.057 A 
ATOM     21  C   UNL A   1      40.476  28.268  32.519  1.00  0.00     0.050 A 
ATOM     22  C   UNL A   1      42.518  29.487  32.895  1.00  0.00     0.157 A 
ATOM     23  C   UNL A   1      41.855  28.360  32.417  1.00  0.00     0.157 A 
BRANCH  22  24
ATOM     24  O   UNL A   1      43.875  29.582  32.775  1.00  0.00    -0.504 OA
ATOM     25  H   UNL A   1      44.413  29.598  33.542  1.00  0.00     0.293 HD
ENDBRANCH  22  24
BRANCH  23  26
ATOM     26  O   UNL A   1      42.610  27.376  31.841  1.00  0.00    -0.504 OA
ATOM     27  H   UNL A   1      42.322  26.970  31.047  1.00  0.00     0.293 HD
ENDBRANCH  23  26
ENDBRANCH  16  18
BRANCH  17  28
ATOM     28  C   UNL A   1      43.115  33.623  36.393  1.00  0.00    -0.021 A 
ATOM     29  C   UNL A   1      44.264  34.392  36.651  1.00  0.00     0.012 A 
ATOM     30  C   UNL A   1      42.764  32.611  37.299  1.00  0.00     0.058 A 
ATOM     31  C   UNL A   1      45.064  34.141  37.778  1.00  0.00     0.051 A 
ATOM     32  C   UNL A   1      43.571  32.360  38.408  1.00  0.00     0.157 A 
ATOM     33  C   UNL A   1      44.713  33.118  38.649  1.00  0.00     0.157 A 
BRANCH  32  34
ATOM     34  O   UNL A   1      43.238  31.343  39.259  1.00  0.00    -0.504 OA
ATOM     35  H   UNL A   1      43.347  31.452  40.183  1.00  0.00     0.293 HD
ENDBRANCH  32  34
BRANCH  33  36
ATOM     36  O   UNL A   1      45.458  32.815  39.756  1.00  0.00    -0.504 OA
ATOM     37  H   UNL A   1      45.427  33.373  40.508  1.00  0.00     0.293 HD
ENDBRANCH  33  36
ENDBRANCH  17  28
ENDBRANCH   9  11
ENDBRANCH   8   9
ENDBRANCH   7   8
ENDBRANCH   6   7
ENDBRANCH   5   6
ENDBRANCH   4   5
ENDBRANCH   3   4
ENDBRANCH   2   3
ENDBRANCH   1   2
BRANCH   1  38
ATOM     38  C   UNL A   1      33.325  36.848  29.652  1.00  0.00     0.188 C 
BRANCH  38  39
ATOM     39  O   UNL A   1      33.195  35.874  28.629  1.00  0.00    -0.376 OA
BRANCH  39  40
ATOM     40  C   UNL A   1      34.264  34.975  28.397  1.00  0.00     0.202 C 
BRANCH  40  41
ATOM     41  C   UNL A   1      33.886  33.501  28.201  1.00  0.00     0.261 C 
BRANCH  41  42
ATOM     42  O   UNL A   1      34.750  32.559  28.846  1.00  0.00    -0.460 OA
BRANCH  42  43
ATOM     43  C   UNL A   1      34.597  31.263  28.490  1.00  0.00     0.338 C 
ATOM     44  O   UNL A   1      33.613  30.748  27.993  1.00  0.00    -0.246 OA
BRANCH  43  45
ATOM     45  C   UNL A   1      35.920  30.622  28.612  1.00  0.00     0.060 A 
ATOM     46  C   UNL A   1      36.412  30.308  29.887  1.00  0.00     0.016 A 
ATOM     47  C   UNL A   1      36.643  30.292  27.464  1.00  0.00     0.016 A 
ATOM     48  C   UNL A   1      37.639  29.666  30.019  1.00  0.00     0.010 A 
ATOM     49  C   UNL A   1      37.889  29.686  27.599  1.00  0.00     0.010 A 
ATOM     50  C   UNL A   1      38.402  29.398  28.878  1.00  0.00    -0.014 A 
BRANCH  50  51
ATOM     51  C   UNL A   1      39.832  29.046  29.016  1.00  0.00     0.031 A 
ATOM     52  C   UNL A   1      40.776  30.140  29.426  1.00  0.00     0.074 A 
ATOM     53  C   UNL A   1      40.276  27.801  28.775  1.00  0.00     0.049 A 
ATOM     54  N   UNL A   1      42.079  30.128  29.492  1.00  0.00    -0.248 NA
ATOM     55  C   UNL A   1      40.163  31.426  29.801  1.00  0.00     0.031 C 
ATOM     56  C   UNL A   1      39.439  26.654  28.429  1.00  0.00     0.029 A 
ATOM     57  N   UNL A   1      41.555  27.304  28.764  1.00  0.00    -0.354 N 
ATOM     58  C   UNL A   1      42.444  31.405  29.901  1.00  0.00     0.074 A 
ATOM     59  C   UNL A   1      41.228  32.173  30.043  1.00  0.00     0.031 C 
ATOM     60  C   UNL A   1      40.232  25.589  28.214  1.00  0.00     0.029 A 
ATOM     61  C   UNL A   1      41.630  25.991  28.364  1.00  0.00     0.049 A 
ATOM     62  H   UNL A   1      42.343  27.836  29.020  1.00  0.00     0.167 HD
ATOM     63  C   UNL A   1      43.684  31.890  30.136  1.00  0.00     0.037 A 
ATOM     64  C   UNL A   1      42.708  25.222  28.113  1.00  0.00     0.037 A 
ATOM     65  C   UNL A   1      44.884  31.112  29.984  1.00  0.00     0.049 A 
ATOM     66  C   UNL A   1      44.086  25.808  28.300  1.00  0.00     0.074 A 
ATOM     67  C   UNL A   1      46.192  31.501  30.208  1.00  0.00     0.029 A 
ATOM     68  N   UNL A   1      44.922  29.792  29.559  1.00  0.00    -0.354 N 
ATOM     69  N   UNL A   1      44.423  27.013  28.699  1.00  0.00    -0.248 NA
ATOM     70  C   UNL A   1      45.230  24.935  28.001  1.00  0.00     0.031 C 
ATOM     71  C   UNL A   1      47.025  30.435  29.857  1.00  0.00     0.029 A 
ATOM     72  C   UNL A   1      46.233  29.359  29.485  1.00  0.00     0.049 A 
ATOM     73  H   UNL A   1      44.132  29.245  29.342  1.00  0.00     0.167 HD
ATOM     74  C   UNL A   1      45.814  27.029  28.734  1.00  0.00     0.074 A 
ATOM     75  C   UNL A   1      46.256  25.714  28.319  1.00  0.00     0.031 C 
ATOM     76  C   UNL A   1      46.651  28.037  29.086  1.00  0.00     0.037 A 
BRANCH  63  77
ATOM     77  C   UNL A   1      43.805  33.332  30.541  1.00  0.00     0.058 A 
ATOM     78  C   UNL A   1      43.880  33.724  31.888  1.00  0.00     0.135 A 
ATOM     79  C   UNL A   1      43.873  34.337  29.562  1.00  0.00     0.135 A 
ATOM     80  F   UNL A   1      43.795  32.808  32.865  1.00  0.00    -0.206 F 
ATOM     81  C   UNL A   1      43.996  35.062  32.249  1.00  0.00     0.059 A 
ATOM     82  C   UNL A   1      44.019  35.679  29.900  1.00  0.00     0.059 A 
ATOM     83  F   UNL A   1      43.793  34.020  28.260  1.00  0.00    -0.206 F 
ATOM     84  C   UNL A   1      44.068  36.032  31.247  1.00  0.00     0.060 A 
BRANCH  84  85
ATOM     85  S   UNL A   1      44.228  37.762  31.734  1.00  0.00     0.124 S 
ATOM     86  O   UNL A   1      43.711  37.729  33.099  1.00  0.00    -0.237 OA
ATOM     87  O   UNL A   1      45.665  37.987  31.607  1.00  0.00    -0.237 OA
ATOM     88  O   UNL A   1      43.396  38.468  30.766  1.00  0.00    -0.744 OA
ENDBRANCH  84  85
ENDBRANCH  63  77
BRANCH  64  89
ATOM     89  C   UNL A   1      42.531  23.824  27.633  1.00  0.00     0.058 A 
ATOM     90  C   UNL A   1      42.419  23.534  26.266  1.00  0.00     0.135 A 
ATOM     91  C   UNL A   1      42.467  22.749  28.535  1.00  0.00     0.135 A 
ATOM     92  F   UNL A   1      42.460  24.527  25.365  1.00  0.00    -0.206 F 
ATOM     93  C   UNL A   1      42.239  22.232  25.808  1.00  0.00     0.059 A 
ATOM     94  C   UNL A   1      42.317  21.435  28.100  1.00  0.00     0.059 A 
ATOM     95  F   UNL A   1      42.576  22.970  29.855  1.00  0.00    -0.206 F 
ATOM     96  C   UNL A   1      42.195  21.189  26.734  1.00  0.00     0.060 A 
BRANCH  96  97
ATOM     97  S   UNL A   1      42.013  19.499  26.124  1.00  0.00     0.124 S 
ATOM     98  O   UNL A   1      40.574  19.421  25.900  1.00  0.00    -0.237 OA
ATOM     99  O   UNL A   1      42.847  19.517  24.928  1.00  0.00    -0.237 OA
ATOM    100  O   UNL A   1      42.526  18.688  27.225  1.00  0.00    -0.744 OA
ENDBRANCH  96  97
ENDBRANCH  64  89
BRANCH  76 101
ATOM    101  C   UNL A   1      48.130  27.757  29.095  1.00  0.00     0.058 A 
ATOM    102  C   UNL A   1      48.934  27.974  27.967  1.00  0.00     0.135 A 
ATOM    103  C   UNL A   1      48.763  27.365  30.287  1.00  0.00     0.135 A 
ATOM    104  F   UNL A   1      48.378  28.344  26.802  1.00  0.00    -0.206 F 
ATOM    105  C   UNL A   1      50.315  27.806  28.017  1.00  0.00     0.059 A 
ATOM    106  C   UNL A   1      50.144  27.221  30.368  1.00  0.00     0.059 A 
ATOM    107  F   UNL A   1      48.041  27.154  31.399  1.00  0.00    -0.206 F 
ATOM    108  C   UNL A   1      50.911  27.440  29.226  1.00  0.00     0.060 A 
BRANCH 108 109
ATOM    109  S   UNL A   1      52.710  27.298  29.293  1.00  0.00     0.124 S 
ATOM    110  O   UNL A   1      53.085  28.584  29.870  1.00  0.00    -0.237 OA
ATOM    111  O   UNL A   1      52.897  26.135  30.156  1.00  0.00    -0.237 OA
ATOM    112  O   UNL A   1      53.089  27.102  27.897  1.00  0.00    -0.744 OA
ENDBRANCH 108 109
ENDBRANCH  76 101
ENDBRANCH  50  51
ENDBRANCH  43  45
ENDBRANCH  42  43
ENDBRANCH  41  42
ENDBRANCH  40  41
ENDBRANCH  39  40
ENDBRANCH  38  39
ENDBRANCH   1  38
TORSDOF 29
ENDMDL
MODEL 3
REMARK VINA RESULT:      -9.6      4.137      8.170
REMARK SMILES O=C1O[C@@H](c2ccc(O)c(O)c2)[C@H](C(=O)OCCOCCOCCOCCOC(=O)c2ccc(-c3c4nc(c(-c5c(F)cc(S(=O)(=O)[O-])cc5F)c5ccc([nH]5)c(-c5c(F)cc(S(=O)(=O)[O-])cc5F)c5nc(c(-c6c(F)cc(S(=O)(=O)[O-])cc6F)c6ccc3[nH]6)C=C5)C=C4)cc2)/C1=C\c1ccc(O)c(O)c1
REMARK SMILES IDX 23 1 22 2 21 3 20 4 19 5 18 6 17 7 16 8 14 9 15 10 13 11
REMARK SMILES IDX 1 12 2 13 3 14 97 15 4 16 98 17 5 18 6 19 12 20 7 21 10 22
REMARK SMILES IDX 8 23 11 24 9 26 99 28 100 29 106 30 101 31 104 32 102 33
REMARK SMILES IDX 105 34 103 36 24 38 25 39 26 40 27 41 28 42 29 43 30 44
REMARK SMILES IDX 31 45 32 46 96 47 33 48 95 49 34 50 35 51 36 52 89 53 37 54
REMARK SMILES IDX 94 55 88 56 90 57 38 58 93 59 87 60 86 61 39 63 73 64 52 65
REMARK SMILES IDX 72 66 53 67 56 68 71 69 91 70 54 71 55 72 70 74 92 75 57 76
REMARK SMILES IDX 40 77 41 78 50 79 42 80 43 81 49 82 51 83 44 84 45 85 46 86
REMARK SMILES IDX 47 87 48 88 74 89 75 90 84 91 76 92 77 93 83 94 85 95 78 96
REMARK SMILES IDX 79 97 80 98 81 99 82 100 58 101 59 102 68 103 60 104 61 105
REMARK SMILES IDX 67 106 69 107 62 108 63 109 64 110 65 111 66 112
REMARK H PARENT 11 25 9 27 105 35 103 37 90 62 56 73
REMARK Flexibility Score: inf
ROOT
ATOM      1  C   UNL A   1      33.263  35.088  29.557  1.00  0.00     0.188 C 
ENDROOT
BRANCH   1   2
ATOM      2  O   UNL A   1      33.489  34.656  30.899  1.00  0.00    -0.377 OA
BRANCH   2   3
ATOM      3  C   UNL A   1      33.041  35.492  31.946  1.00  0.00     0.188 C 
BRANCH   3   4
ATOM      4  C   UNL A   1      34.023  36.585  32.411  1.00  0.00     0.188 C 
BRANCH   4   5
ATOM      5  O   UNL A   1      35.075  36.078  33.214  1.00  0.00    -0.376 OA
BRANCH   5   6
ATOM      6  C   UNL A   1      35.584  34.781  32.979  1.00  0.00     0.202 C 
BRANCH   6   7
ATOM      7  C   UNL A   1      37.090  34.574  32.757  1.00  0.00     0.261 C 
BRANCH   7   8
ATOM      8  O   UNL A   1      37.514  33.216  32.576  1.00  0.00    -0.463 OA
BRANCH   8   9
ATOM      9  C   UNL A   1      37.429  32.384  33.647  1.00  0.00     0.317 C 
ATOM     10  O   UNL A   1      36.683  31.420  33.725  1.00  0.00    -0.251 OA
BRANCH   9  11
ATOM     11  C   UNL A   1      38.459  32.814  34.683  1.00  0.00     0.182 C 
ATOM     12  O   UNL A   1      39.889  29.783  35.794  1.00  0.00    -0.247 OA
ATOM     13  C   UNL A   1      39.296  30.843  35.657  1.00  0.00     0.335 C 
ATOM     14  O   UNL A   1      38.227  31.253  36.395  1.00  0.00    -0.453 OA
ATOM     15  C   UNL A   1      39.638  31.914  34.696  1.00  0.00     0.056 C 
ATOM     16  C   UNL A   1      37.857  32.603  36.053  1.00  0.00     0.226 C 
ATOM     17  C   UNL A   1      40.852  31.946  34.114  1.00  0.00     0.020 C 
BRANCH  16  18
ATOM     18  C   UNL A   1      38.332  33.613  37.097  1.00  0.00    -0.002 A 
ATOM     19  C   UNL A   1      38.153  33.364  38.477  1.00  0.00     0.012 A 
ATOM     20  C   UNL A   1      39.014  34.777  36.715  1.00  0.00     0.057 A 
ATOM     21  C   UNL A   1      38.614  34.267  39.443  1.00  0.00     0.050 A 
ATOM     22  C   UNL A   1      39.474  35.663  37.680  1.00  0.00     0.157 A 
ATOM     23  C   UNL A   1      39.277  35.415  39.035  1.00  0.00     0.157 A 
BRANCH  22  24
ATOM     24  O   UNL A   1      40.146  36.784  37.284  1.00  0.00    -0.504 OA
ATOM     25  H   UNL A   1      40.793  36.728  36.609  1.00  0.00     0.293 HD
ENDBRANCH  22  24
BRANCH  23  26
ATOM     26  O   UNL A   1      39.771  36.326  39.927  1.00  0.00    -0.504 OA
ATOM     27  H   UNL A   1      40.614  36.712  39.783  1.00  0.00     0.293 HD
ENDBRANCH  23  26
ENDBRANCH  16  18
BRANCH  17  28
ATOM     28  C   UNL A   1      41.438  32.971  33.233  1.00  0.00    -0.021 A 
ATOM     29  C   UNL A   1      42.675  33.570  33.529  1.00  0.00     0.012 A 
ATOM     30  C   UNL A   1      40.813  33.281  32.016  1.00  0.00     0.058 A 
ATOM     31  C   UNL A   1      43.268  34.482  32.641  1.00  0.00     0.051 A 
ATOM     32  C   UNL A   1      41.402  34.197  31.146  1.00  0.00     0.157 A 
ATOM     33  C   UNL A   1      42.620  34.795  31.452  1.00  0.00     0.157 A 
BRANCH  32  34
ATOM     34  O   UNL A   1      40.760  34.521  29.983  1.00  0.00    -0.504 OA
ATOM     35  H   UNL A   1      40.494  35.405  29.825  1.00  0.00     0.293 HD
ENDBRANCH  32  34
BRANCH  33  36
ATOM     36  O   UNL A   1      43.139  35.685  30.552  1.00  0.00    -0.504 OA
ATOM     37  H   UNL A   1      43.241  35.438  29.654  1.00  0.00     0.293 HD
ENDBRANCH  33  36
ENDBRANCH  17  28
ENDBRANCH   9  11
ENDBRANCH   8   9
ENDBRANCH   7   8
ENDBRANCH   6   7
ENDBRANCH   5   6
ENDBRANCH   4   5
ENDBRANCH   3   4
ENDBRANCH   2   3
ENDBRANCH   1   2
BRANCH   1  38
ATOM     38  C   UNL A   1      33.886  34.375  28.321  1.00  0.00     0.188 C 
BRANCH  38  39
ATOM     39  O   UNL A   1      33.833  32.957  28.315  1.00  0.00    -0.376 OA
BRANCH  39  40
ATOM     40  C   UNL A   1      35.019  32.225  28.557  1.00  0.00     0.202 C 
BRANCH  40  41
ATOM     41  C   UNL A   1      35.206  31.677  29.978  1.00  0.00     0.261 C 
BRANCH  41  42
ATOM     42  O   UNL A   1      36.566  31.500  30.390  1.00  0.00    -0.460 OA
BRANCH  42  43
ATOM     43  C   UNL A   1      36.972  30.225  30.585  1.00  0.00     0.338 C 
ATOM     44  O   UNL A   1      36.290  29.281  30.937  1.00  0.00    -0.246 OA
BRANCH  43  45
ATOM     45  C   UNL A   1      38.357  30.132  30.085  1.00  0.00     0.060 A 
ATOM     46  C   UNL A   1      38.583  30.114  28.702  1.00  0.00     0.016 A 
ATOM     47  C   UNL A   1      39.423  30.114  30.986  1.00  0.00     0.016 A 
ATOM     48  C   UNL A   1      39.884  30.068  28.211  1.00  0.00     0.010 A 
ATOM     49  C   UNL A   1      40.723  30.028  30.494  1.00  0.00     0.010 A 
ATOM     50  C   UNL A   1      40.955  29.976  29.107  1.00  0.00    -0.014 A 
BRANCH  50  51
ATOM     51  C   UNL A   1      42.292  29.580  28.616  1.00  0.00     0.031 A 
ATOM     52  C   UNL A   1      42.488  28.140  28.232  1.00  0.00     0.074 A 
ATOM     53  C   UNL A   1      43.299  30.464  28.524  1.00  0.00     0.049 A 
ATOM     54  N   UNL A   1      43.583  27.513  27.899  1.00  0.00    -0.248 NA
ATOM     55  C   UNL A   1      41.282  27.293  28.238  1.00  0.00     0.031 C 
ATOM     56  C   UNL A   1      43.201  31.893  28.814  1.00  0.00     0.029 A 
ATOM     57  N   UNL A   1      44.614  30.277  28.179  1.00  0.00    -0.354 N 
ATOM     58  C   UNL A   1      43.203  26.196  27.671  1.00  0.00     0.074 A 
ATOM     59  C   UNL A   1      41.784  26.108  27.926  1.00  0.00     0.031 C 
ATOM     60  C   UNL A   1      44.415  32.451  28.660  1.00  0.00     0.029 A 
ATOM     61  C   UNL A   1      45.380  31.411  28.304  1.00  0.00     0.049 A 
ATOM     62  H   UNL A   1      44.973  29.414  27.872  1.00  0.00     0.167 HD
ATOM     63  C   UNL A   1      43.973  25.155  27.281  1.00  0.00     0.037 A 
ATOM     64  C   UNL A   1      46.712  31.574  28.181  1.00  0.00     0.037 A 
ATOM     65  C   UNL A   1      45.386  25.260  27.036  1.00  0.00     0.049 A 
ATOM     66  C   UNL A   1      47.567  30.381  27.828  1.00  0.00     0.074 A 
ATOM     67  C   UNL A   1      46.261  24.271  26.625  1.00  0.00     0.029 A 
ATOM     68  N   UNL A   1      46.132  26.420  27.191  1.00  0.00    -0.354 N 
ATOM     69  N   UNL A   1      47.200  29.141  27.600  1.00  0.00    -0.248 NA
ATOM     70  C   UNL A   1      49.016  30.606  27.718  1.00  0.00     0.031 C 
ATOM     71  C   UNL A   1      47.547  24.818  26.593  1.00  0.00     0.029 A 
ATOM     72  C   UNL A   1      47.462  26.165  26.912  1.00  0.00     0.049 A 
ATOM     73  H   UNL A   1      45.768  27.295  27.458  1.00  0.00     0.167 HD
ATOM     74  C   UNL A   1      48.365  28.449  27.284  1.00  0.00     0.074 A 
ATOM     75  C   UNL A   1      49.449  29.408  27.347  1.00  0.00     0.031 C 
ATOM     76  C   UNL A   1      48.524  27.140  26.963  1.00  0.00     0.037 A 
BRANCH  63  77
ATOM     77  C   UNL A   1      43.313  23.813  27.136  1.00  0.00     0.058 A 
ATOM     78  C   UNL A   1      42.927  23.049  28.249  1.00  0.00     0.135 A 
ATOM     79  C   UNL A   1      43.039  23.295  25.860  1.00  0.00     0.135 A 
ATOM     80  F   UNL A   1      43.186  23.485  29.492  1.00  0.00    -0.206 F 
ATOM     81  C   UNL A   1      42.313  21.810  28.102  1.00  0.00     0.059 A 
ATOM     82  C   UNL A   1      42.399  22.072  25.688  1.00  0.00     0.059 A 
ATOM     83  F   UNL A   1      43.398  23.978  24.761  1.00  0.00    -0.206 F 
ATOM     84  C   UNL A   1      42.051  21.332  26.816  1.00  0.00     0.060 A 
BRANCH  84  85
ATOM     85  S   UNL A   1      41.244  19.727  26.643  1.00  0.00     0.124 S 
ATOM     86  O   UNL A   1      41.713  19.035  27.841  1.00  0.00    -0.237 OA
ATOM     87  O   UNL A   1      39.830  20.090  26.635  1.00  0.00    -0.237 OA
ATOM     88  O   UNL A   1      41.766  19.217  25.381  1.00  0.00    -0.744 OA
ENDBRANCH  84  85
ENDBRANCH  63  77
BRANCH  64  89
ATOM     89  C   UNL A   1      47.325  32.910  28.417  1.00  0.00     0.058 A 
ATOM     90  C   UNL A   1      47.740  33.302  29.698  1.00  0.00     0.135 A 
ATOM     91  C   UNL A   1      47.505  33.823  27.365  1.00  0.00     0.135 A 
ATOM     92  F   UNL A   1      47.577  32.471  30.739  1.00  0.00    -0.206 F 
ATOM     93  C   UNL A   1      48.300  34.554  29.931  1.00  0.00     0.059 A 
ATOM     94  C   UNL A   1      48.091  35.069  27.568  1.00  0.00     0.059 A 
ATOM     95  F   UNL A   1      47.133  33.495  26.118  1.00  0.00    -0.206 F 
ATOM     96  C   UNL A   1      48.477  35.429  28.858  1.00  0.00     0.060 A 
BRANCH  96  97
ATOM     97  S   UNL A   1      49.253  37.030  29.165  1.00  0.00     0.124 S 
ATOM     98  O   UNL A   1      50.657  36.656  29.289  1.00  0.00    -0.237 OA
ATOM     99  O   UNL A   1      48.893  37.777  27.966  1.00  0.00    -0.237 OA
ATOM    100  O   UNL A   1      48.610  37.484  30.395  1.00  0.00    -0.744 OA
ENDBRANCH  96  97
ENDBRANCH  64  89
BRANCH  76 101
ATOM    101  C   UNL A   1      49.906  26.665  26.599  1.00  0.00     0.058 A 
ATOM    102  C   UNL A   1      50.786  26.138  27.555  1.00  0.00     0.135 A 
ATOM    103  C   UNL A   1      50.309  26.643  25.252  1.00  0.00     0.135 A 
ATOM    104  F   UNL A   1      50.452  26.140  28.856  1.00  0.00    -0.206 F 
ATOM    105  C   UNL A   1      52.021  25.611  27.191  1.00  0.00     0.059 A 
ATOM    106  C   UNL A   1      51.525  26.094  24.863  1.00  0.00     0.059 A 
ATOM    107  F   UNL A   1      49.499  27.127  24.297  1.00  0.00    -0.206 F 
ATOM    108  C   UNL A   1      52.377  25.584  25.840  1.00  0.00     0.060 A 
BRANCH 108 109
ATOM    109  S   UNL A   1      53.950  24.830  25.377  1.00  0.00     0.124 S 
ATOM    110  O   UNL A   1      53.538  23.472  25.040  1.00  0.00    -0.237 OA
ATOM    111  O   UNL A   1      54.374  25.662  24.255  1.00  0.00    -0.237 OA
ATOM    112  O   UNL A   1      54.759  24.958  26.585  1.00  0.00    -0.744 OA
ENDBRANCH 108 109
ENDBRANCH  76 101
ENDBRANCH  50  51
ENDBRANCH  43  45
ENDBRANCH  42  43
ENDBRANCH  41  42
ENDBRANCH  40  41
ENDBRANCH  39  40
ENDBRANCH  38  39
ENDBRANCH   1  38
TORSDOF 29
ENDMDL
