MODEL 1
REMARK VINA RESULT:      -9.8      0.000      0.000
REMARK SMILES O=C(OCCOCCOCCOCCOC(=O)c1ccc(Cl)cc1-c1ccc(O)c(F)c1)c1ccc(-c2c3nc(c(-c4c(F)cc(S(=O)(=O)[O-])cc4F)c4ccc([nH]4)c(-c4c(F)cc(S(=O)(=O)[O-])cc4F)c4nc(c(-c5c(F)cc(S(=O)(=O)[O-])cc5F)c5ccc2[nH]5)C=C4)C=C3)cc1
REMARK SMILES IDX 8 1 7 2 6 3 5 4 4 5 3 6 2 7 1 8 33 9 34 10 98 11 35 12 97 13
REMARK SMILES IDX 36 14 37 15 38 16 91 17 39 18 96 19 90 20 92 21 40 22 95 23
REMARK SMILES IDX 89 24 88 25 41 27 75 28 54 29 74 30 55 31 58 32 73 33 93 34
REMARK SMILES IDX 56 35 57 36 72 38 94 39 59 40 42 41 43 42 52 43 44 44 45 45
REMARK SMILES IDX 51 46 53 47 46 48 47 49 48 50 49 51 50 52 76 53 77 54 86 55
REMARK SMILES IDX 78 56 79 57 85 58 87 59 80 60 81 61 82 62 83 63 84 64 60 65
REMARK SMILES IDX 61 66 70 67 62 68 63 69 69 70 71 71 64 72 65 73 66 74 67 75
REMARK SMILES IDX 68 76 9 77 10 78 11 79 12 80 13 81 14 82 15 83 16 84 17 85
REMARK SMILES IDX 18 86 19 87 24 88 20 89 23 90 21 91 22 92 25 93 26 94 32 95
REMARK SMILES IDX 27 96 30 97 28 98 31 99 29 100
REMARK H PARENT 92 26 58 37 29 101
REMARK Flexibility Score: inf
ROOT
ATOM      1  C   UNL A   1      33.539  34.120  28.547  1.00  0.00     0.188 C 
ENDROOT
BRANCH   1   2
ATOM      2  C   UNL A   1      33.682  35.177  29.641  1.00  0.00     0.188 C 
BRANCH   2   3
ATOM      3  O   UNL A   1      33.207  34.791  30.912  1.00  0.00    -0.376 OA
BRANCH   3   4
ATOM      4  C   UNL A   1      33.948  35.146  32.062  1.00  0.00     0.202 C 
BRANCH   4   5
ATOM      5  C   UNL A   1      35.401  34.706  31.868  1.00  0.00     0.261 C 
BRANCH   5   6
ATOM      6  O   UNL A   1      35.622  33.371  32.350  1.00  0.00    -0.460 OA
BRANCH   6   7
ATOM      7  C   UNL A   1      35.837  32.285  31.567  1.00  0.00     0.338 C 
ATOM      8  O   UNL A   1      34.880  31.769  30.992  1.00  0.00    -0.246 OA
BRANCH   7   9
ATOM      9  C   UNL A   1      37.213  31.784  31.239  1.00  0.00     0.060 A 
ATOM     10  C   UNL A   1      38.088  31.118  32.109  1.00  0.00     0.016 A 
ATOM     11  C   UNL A   1      37.575  31.879  29.886  1.00  0.00     0.016 A 
ATOM     12  C   UNL A   1      39.273  30.540  31.648  1.00  0.00     0.010 A 
ATOM     13  C   UNL A   1      38.763  31.316  29.420  1.00  0.00     0.010 A 
ATOM     14  C   UNL A   1      39.616  30.640  30.302  1.00  0.00    -0.014 A 
BRANCH  14  15
ATOM     15  C   UNL A   1      40.923  30.147  29.827  1.00  0.00     0.031 A 
ATOM     16  C   UNL A   1      42.029  31.149  29.684  1.00  0.00     0.074 A 
ATOM     17  C   UNL A   1      41.099  28.849  29.522  1.00  0.00     0.049 A 
ATOM     18  N   UNL A   1      43.194  31.020  29.116  1.00  0.00    -0.248 NA
ATOM     19  C   UNL A   1      41.782  32.485  30.261  1.00  0.00     0.031 C 
ATOM     20  C   UNL A   1      40.104  27.792  29.713  1.00  0.00     0.029 A 
ATOM     21  N   UNL A   1      42.171  28.200  28.963  1.00  0.00    -0.354 N 
ATOM     22  C   UNL A   1      43.801  32.265  29.224  1.00  0.00     0.074 A 
ATOM     23  C   UNL A   1      42.885  33.134  29.924  1.00  0.00     0.031 C 
ATOM     24  C   UNL A   1      40.603  26.632  29.250  1.00  0.00     0.029 A 
ATOM     25  C   UNL A   1      41.922  26.877  28.676  1.00  0.00     0.049 A 
ATOM     26  H   UNL A   1      43.035  28.638  28.786  1.00  0.00     0.167 HD
ATOM     27  C   UNL A   1      45.013  32.638  28.758  1.00  0.00     0.037 A 
ATOM     28  C   UNL A   1      42.658  25.992  27.974  1.00  0.00     0.037 A 
ATOM     29  C   UNL A   1      45.903  31.741  28.076  1.00  0.00     0.049 A 
ATOM     30  C   UNL A   1      43.976  26.460  27.403  1.00  0.00     0.074 A 
ATOM     31  C   UNL A   1      47.165  31.996  27.576  1.00  0.00     0.029 A 
ATOM     32  N   UNL A   1      45.615  30.413  27.790  1.00  0.00    -0.354 N 
ATOM     33  N   UNL A   1      44.555  27.634  27.520  1.00  0.00    -0.248 NA
ATOM     34  C   UNL A   1      44.734  25.498  26.590  1.00  0.00     0.031 C 
ATOM     35  C   UNL A   1      47.613  30.842  26.928  1.00  0.00     0.029 A 
ATOM     36  C   UNL A   1      46.657  29.848  27.080  1.00  0.00     0.049 A 
ATOM     37  H   UNL A   1      44.791  29.944  28.054  1.00  0.00     0.167 HD
ATOM     38  C   UNL A   1      45.747  27.545  26.809  1.00  0.00     0.074 A 
ATOM     39  C   UNL A   1      45.820  26.196  26.289  1.00  0.00     0.031 C 
ATOM     40  C   UNL A   1      46.694  28.492  26.591  1.00  0.00     0.037 A 
BRANCH  27  41
ATOM     41  C   UNL A   1      45.417  34.075  28.911  1.00  0.00     0.058 A 
ATOM     42  C   UNL A   1      46.157  34.533  30.010  1.00  0.00     0.135 A 
ATOM     43  C   UNL A   1      45.097  35.002  27.904  1.00  0.00     0.135 A 
ATOM     44  F   UNL A   1      46.459  33.699  31.019  1.00  0.00    -0.206 F 
ATOM     45  C   UNL A   1      46.572  35.859  30.105  1.00  0.00     0.059 A 
ATOM     46  C   UNL A   1      45.521  36.325  27.964  1.00  0.00     0.059 A 
ATOM     47  F   UNL A   1      44.372  34.619  26.841  1.00  0.00    -0.206 F 
ATOM     48  C   UNL A   1      46.259  36.744  29.070  1.00  0.00     0.060 A 
BRANCH  48  49
ATOM     49  S   UNL A   1      46.853  38.445  29.182  1.00  0.00     0.124 S 
ATOM     50  O   UNL A   1      48.020  38.404  28.305  1.00  0.00    -0.237 OA
ATOM     51  O   UNL A   1      45.711  39.203  28.681  1.00  0.00    -0.237 OA
ATOM     52  O   UNL A   1      47.142  38.613  30.602  1.00  0.00    -0.744 OA
ENDBRANCH  48  49
ENDBRANCH  27  41
BRANCH  28  53
ATOM     53  C   UNL A   1      42.147  24.617  27.693  1.00  0.00     0.058 A 
ATOM     54  C   UNL A   1      42.496  23.524  28.500  1.00  0.00     0.135 A 
ATOM     55  C   UNL A   1      41.339  24.358  26.572  1.00  0.00     0.135 A 
ATOM     56  F   UNL A   1      43.276  23.708  29.576  1.00  0.00    -0.206 F 
ATOM     57  C   UNL A   1      42.097  22.225  28.190  1.00  0.00     0.059 A 
ATOM     58  C   UNL A   1      40.899  23.075  26.261  1.00  0.00     0.059 A 
ATOM     59  F   UNL A   1      40.967  25.362  25.762  1.00  0.00    -0.206 F 
ATOM     60  C   UNL A   1      41.302  22.010  27.063  1.00  0.00     0.060 A 
BRANCH  60  61
ATOM     61  S   UNL A   1      40.796  20.323  26.661  1.00  0.00     0.124 S 
ATOM     62  O   UNL A   1      41.846  19.916  25.734  1.00  0.00    -0.237 OA
ATOM     63  O   UNL A   1      40.815  19.676  27.969  1.00  0.00    -0.237 OA
ATOM     64  O   UNL A   1      39.472  20.499  26.075  1.00  0.00    -0.744 OA
ENDBRANCH  60  61
ENDBRANCH  28  53
BRANCH  40  65
ATOM     65  C   UNL A   1      47.890  28.099  25.773  1.00  0.00     0.058 A 
ATOM     66  C   UNL A   1      47.826  28.033  24.372  1.00  0.00     0.135 A 
ATOM     67  C   UNL A   1      49.131  27.881  26.389  1.00  0.00     0.135 A 
ATOM     68  F   UNL A   1      46.659  28.226  23.738  1.00  0.00    -0.206 F 
ATOM     69  C   UNL A   1      48.955  27.757  23.611  1.00  0.00     0.059 A 
ATOM     70  C   UNL A   1      50.280  27.635  25.645  1.00  0.00     0.059 A 
ATOM     71  F   UNL A   1      49.245  27.946  27.726  1.00  0.00    -0.206 F 
ATOM     72  C   UNL A   1      50.179  27.570  24.256  1.00  0.00     0.060 A 
BRANCH  72  73
ATOM     73  S   UNL A   1      51.648  27.284  23.248  1.00  0.00     0.124 S 
ATOM     74  O   UNL A   1      51.061  26.790  22.007  1.00  0.00    -0.237 OA
ATOM     75  O   UNL A   1      52.244  28.614  23.183  1.00  0.00    -0.237 OA
ATOM     76  O   UNL A   1      52.405  26.301  24.019  1.00  0.00    -0.744 OA
ENDBRANCH  72  73
ENDBRANCH  40  65
ENDBRANCH  14  15
ENDBRANCH   7   9
ENDBRANCH   6   7
ENDBRANCH   5   6
ENDBRANCH   4   5
ENDBRANCH   3   4
ENDBRANCH   2   3
ENDBRANCH   1   2
BRANCH   1  77
ATOM     77  O   UNL A   1      34.577  33.765  27.657  1.00  0.00    -0.377 OA
BRANCH  77  78
ATOM     78  C   UNL A   1      35.150  32.482  27.610  1.00  0.00     0.188 C 
BRANCH  78  79
ATOM     79  C   UNL A   1      34.269  31.225  27.638  1.00  0.00     0.188 C 
BRANCH  79  80
ATOM     80  O   UNL A   1      34.891  29.962  27.644  1.00  0.00    -0.376 OA
BRANCH  80  81
ATOM     81  C   UNL A   1      34.102  28.849  27.244  1.00  0.00     0.202 C 
BRANCH  81  82
ATOM     82  C   UNL A   1      32.898  29.065  26.296  1.00  0.00     0.261 C 
BRANCH  82  83
ATOM     83  O   UNL A   1      33.188  29.062  24.873  1.00  0.00    -0.460 OA
BRANCH  83  84
ATOM     84  C   UNL A   1      32.754  28.013  24.115  1.00  0.00     0.338 C 
ATOM     85  O   UNL A   1      33.421  27.094  23.686  1.00  0.00    -0.246 OA
BRANCH  84  86
ATOM     86  C   UNL A   1      31.290  28.150  23.848  1.00  0.00     0.068 A 
ATOM     87  C   UNL A   1      30.854  29.441  23.486  1.00  0.00     0.018 A 
ATOM     88  C   UNL A   1      30.355  27.077  23.912  1.00  0.00    -0.002 A 
ATOM     89  C   UNL A   1      29.517  29.679  23.167  1.00  0.00     0.021 A 
ATOM     90  C   UNL A   1      29.016  27.350  23.557  1.00  0.00     0.030 A 
ATOM     91  C   UNL A   1      28.607  28.631  23.190  1.00  0.00     0.041 A 
ATOM     92  Cl  UNL A   1      26.956  28.915  22.798  1.00  0.00    -0.084 Cl
BRANCH  88  93
ATOM     93  C   UNL A   1      30.609  25.726  24.464  1.00  0.00    -0.014 A 
ATOM     94  C   UNL A   1      30.272  25.456  25.811  1.00  0.00     0.013 A 
ATOM     95  C   UNL A   1      31.040  24.651  23.686  1.00  0.00     0.052 A 
ATOM     96  C   UNL A   1      30.520  24.218  26.412  1.00  0.00     0.050 A 
ATOM     97  C   UNL A   1      31.207  23.386  24.265  1.00  0.00     0.165 A 
ATOM     98  C   UNL A   1      31.000  23.183  25.629  1.00  0.00     0.151 A 
ATOM     99  F   UNL A   1      31.566  22.358  23.482  1.00  0.00    -0.203 F 
BRANCH  98 100
ATOM    100  O   UNL A   1      31.244  21.958  26.177  1.00  0.00    -0.505 OA
ATOM    101  H   UNL A   1      30.896  21.745  27.021  1.00  0.00     0.293 HD
ENDBRANCH  98 100
ENDBRANCH  88  93
ENDBRANCH  84  86
ENDBRANCH  83  84
ENDBRANCH  82  83
ENDBRANCH  81  82
ENDBRANCH  80  81
ENDBRANCH  79  80
ENDBRANCH  78  79
ENDBRANCH  77  78
ENDBRANCH   1  77
TORSDOF 25
ENDMDL
MODEL 2
REMARK VINA RESULT:      -9.7      5.583     12.455
REMARK SMILES O=C(OCCOCCOCCOCCOC(=O)c1ccc(Cl)cc1-c1ccc(O)c(F)c1)c1ccc(-c2c3nc(c(-c4c(F)cc(S(=O)(=O)[O-])cc4F)c4ccc([nH]4)c(-c4c(F)cc(S(=O)(=O)[O-])cc4F)c4nc(c(-c5c(F)cc(S(=O)(=O)[O-])cc5F)c5ccc2[nH]5)C=C4)C=C3)cc1
REMARK SMILES IDX 8 1 7 2 6 3 5 4 4 5 3 6 2 7 1 8 33 9 34 10 98 11 35 12 97 13
REMARK SMILES IDX 36 14 37 15 38 16 91 17 39 18 96 19 90 20 92 21 40 22 95 23
REMARK SMILES IDX 89 24 88 25 41 27 75 28 54 29 74 30 55 31 58 32 73 33 93 34
REMARK SMILES IDX 56 35 57 36 72 38 94 39 59 40 42 41 43 42 52 43 44 44 45 45
REMARK SMILES IDX 51 46 53 47 46 48 47 49 48 50 49 51 50 52 76 53 77 54 86 55
REMARK SMILES IDX 78 56 79 57 85 58 87 59 80 60 81 61 82 62 83 63 84 64 60 65
REMARK SMILES IDX 61 66 70 67 62 68 63 69 69 70 71 71 64 72 65 73 66 74 67 75
REMARK SMILES IDX 68 76 9 77 10 78 11 79 12 80 13 81 14 82 15 83 16 84 17 85
REMARK SMILES IDX 18 86 19 87 24 88 20 89 23 90 21 91 22 92 25 93 26 94 32 95
REMARK SMILES IDX 27 96 30 97 28 98 31 99 29 100
REMARK H PARENT 92 26 58 37 29 101
REMARK Flexibility Score: inf
ROOT
ATOM      1  C   UNL A   1      43.873  20.133  25.419  1.00  0.00     0.188 C 
ENDROOT
BRANCH   1   2
ATOM      2  C   UNL A   1      43.030  18.859  25.422  1.00  0.00     0.188 C 
BRANCH   2   3
ATOM      3  O   UNL A   1      41.669  19.043  25.742  1.00  0.00    -0.376 OA
BRANCH   3   4
ATOM      4  C   UNL A   1      41.320  19.920  26.793  1.00  0.00     0.202 C 
BRANCH   4   5
ATOM      5  C   UNL A   1      40.264  20.903  26.284  1.00  0.00     0.261 C 
BRANCH   5   6
ATOM      6  O   UNL A   1      40.718  22.264  26.369  1.00  0.00    -0.460 OA
BRANCH   6   7
ATOM      7  C   UNL A   1      39.913  23.345  26.514  1.00  0.00     0.338 C 
ATOM      8  O   UNL A   1      38.693  23.186  26.482  1.00  0.00    -0.246 OA
BRANCH   7   9
ATOM      9  C   UNL A   1      40.439  24.703  26.877  1.00  0.00     0.060 A 
ATOM     10  C   UNL A   1      40.812  25.719  25.985  1.00  0.00     0.016 A 
ATOM     11  C   UNL A   1      40.409  25.008  28.246  1.00  0.00     0.016 A 
ATOM     12  C   UNL A   1      41.121  27.005  26.434  1.00  0.00     0.010 A 
ATOM     13  C   UNL A   1      40.728  26.286  28.704  1.00  0.00     0.010 A 
ATOM     14  C   UNL A   1      41.082  27.291  27.797  1.00  0.00    -0.014 A 
BRANCH  14  15
ATOM     15  C   UNL A   1      41.530  28.606  28.294  1.00  0.00     0.031 A 
ATOM     16  C   UNL A   1      43.001  28.893  28.267  1.00  0.00     0.074 A 
ATOM     17  C   UNL A   1      40.643  29.500  28.767  1.00  0.00     0.049 A 
ATOM     18  N   UNL A   1      43.664  29.873  28.813  1.00  0.00    -0.248 NA
ATOM     19  C   UNL A   1      43.841  27.934  27.523  1.00  0.00     0.031 C 
ATOM     20  C   UNL A   1      39.187  29.340  28.750  1.00  0.00     0.029 A 
ATOM     21  N   UNL A   1      40.837  30.715  29.375  1.00  0.00    -0.354 N 
ATOM     22  C   UNL A   1      45.000  29.627  28.519  1.00  0.00     0.074 A 
ATOM     23  C   UNL A   1      45.056  28.416  27.736  1.00  0.00     0.031 C 
ATOM     24  C   UNL A   1      38.623  30.402  29.351  1.00  0.00     0.029 A 
ATOM     25  C   UNL A   1      39.675  31.284  29.847  1.00  0.00     0.049 A 
ATOM     26  H   UNL A   1      41.721  31.139  29.466  1.00  0.00     0.167 HD
ATOM     27  C   UNL A   1      46.076  30.352  28.893  1.00  0.00     0.037 A 
ATOM     28  C   UNL A   1      39.499  32.360  30.640  1.00  0.00     0.037 A 
ATOM     29  C   UNL A   1      45.980  31.561  29.664  1.00  0.00     0.049 A 
ATOM     30  C   UNL A   1      40.728  33.109  31.102  1.00  0.00     0.074 A 
ATOM     31  C   UNL A   1      46.997  32.394  30.087  1.00  0.00     0.029 A 
ATOM     32  N   UNL A   1      44.791  32.101  30.135  1.00  0.00    -0.354 N 
ATOM     33  N   UNL A   1      41.989  32.883  30.811  1.00  0.00    -0.248 NA
ATOM     34  C   UNL A   1      40.518  34.241  32.015  1.00  0.00     0.031 C 
ATOM     35  C   UNL A   1      46.430  33.402  30.871  1.00  0.00     0.029 A 
ATOM     36  C   UNL A   1      45.053  33.233  30.883  1.00  0.00     0.049 A 
ATOM     37  H   UNL A   1      43.894  31.733  29.962  1.00  0.00     0.167 HD
ATOM     38  C   UNL A   1      42.718  33.853  31.491  1.00  0.00     0.074 A 
ATOM     39  C   UNL A   1      41.756  34.683  32.186  1.00  0.00     0.031 C 
ATOM     40  C   UNL A   1      44.060  34.039  31.550  1.00  0.00     0.037 A 
BRANCH  27  41
ATOM     41  C   UNL A   1      47.438  29.833  28.536  1.00  0.00     0.058 A 
ATOM     42  C   UNL A   1      47.915  29.825  27.217  1.00  0.00     0.135 A 
ATOM     43  C   UNL A   1      48.301  29.381  29.548  1.00  0.00     0.135 A 
ATOM     44  F   UNL A   1      47.119  30.211  26.207  1.00  0.00    -0.206 F 
ATOM     45  C   UNL A   1      49.202  29.393  26.914  1.00  0.00     0.059 A 
ATOM     46  C   UNL A   1      49.600  28.967  29.272  1.00  0.00     0.059 A 
ATOM     47  F   UNL A   1      47.885  29.348  30.824  1.00  0.00    -0.206 F 
ATOM     48  C   UNL A   1      50.041  28.977  27.950  1.00  0.00     0.060 A 
BRANCH  48  49
ATOM     49  S   UNL A   1      51.727  28.473  27.546  1.00  0.00     0.124 S 
ATOM     50  O   UNL A   1      51.994  27.484  28.585  1.00  0.00    -0.237 OA
ATOM     51  O   UNL A   1      51.574  27.946  26.193  1.00  0.00    -0.237 OA
ATOM     52  O   UNL A   1      52.489  29.714  27.651  1.00  0.00    -0.744 OA
ENDBRANCH  48  49
ENDBRANCH  27  41
BRANCH  28  53
ATOM     53  C   UNL A   1      38.140  32.750  31.119  1.00  0.00     0.058 A 
ATOM     54  C   UNL A   1      37.331  33.638  30.394  1.00  0.00     0.135 A 
ATOM     55  C   UNL A   1      37.642  32.281  32.347  1.00  0.00     0.135 A 
ATOM     56  F   UNL A   1      37.760  34.129  29.222  1.00  0.00    -0.206 F 
ATOM     57  C   UNL A   1      36.101  34.076  30.882  1.00  0.00     0.059 A 
ATOM     58  C   UNL A   1      36.401  32.676  32.839  1.00  0.00     0.059 A 
ATOM     59  F   UNL A   1      38.365  31.425  33.086  1.00  0.00    -0.206 F 
ATOM     60  C   UNL A   1      35.647  33.592  32.110  1.00  0.00     0.060 A 
BRANCH  60  61
ATOM     61  S   UNL A   1      34.056  34.171  32.740  1.00  0.00     0.124 S 
ATOM     62  O   UNL A   1      33.416  34.654  31.522  1.00  0.00    -0.237 OA
ATOM     63  O   UNL A   1      33.492  32.956  33.318  1.00  0.00    -0.237 OA
ATOM     64  O   UNL A   1      34.430  35.201  33.705  1.00  0.00    -0.744 OA
ENDBRANCH  60  61
ENDBRANCH  28  53
BRANCH  40  65
ATOM     65  C   UNL A   1      44.563  35.186  32.378  1.00  0.00     0.058 A 
ATOM     66  C   UNL A   1      44.590  36.495  31.872  1.00  0.00     0.135 A 
ATOM     67  C   UNL A   1      44.928  34.987  33.718  1.00  0.00     0.135 A 
ATOM     68  F   UNL A   1      44.258  36.734  30.594  1.00  0.00    -0.206 F 
ATOM     69  C   UNL A   1      44.970  37.568  32.668  1.00  0.00     0.059 A 
ATOM     70  C   UNL A   1      45.281  36.051  34.542  1.00  0.00     0.059 A 
ATOM     71  F   UNL A   1      44.907  33.755  34.251  1.00  0.00    -0.206 F 
ATOM     72  C   UNL A   1      45.304  37.337  34.004  1.00  0.00     0.060 A 
BRANCH  72  73
ATOM     73  S   UNL A   1      45.725  38.751  35.043  1.00  0.00     0.124 S 
ATOM     74  O   UNL A   1      45.994  38.106  36.323  1.00  0.00    -0.237 OA
ATOM     75  O   UNL A   1      46.887  39.306  34.356  1.00  0.00    -0.237 OA
ATOM     76  O   UNL A   1      44.523  39.579  34.996  1.00  0.00    -0.744 OA
ENDBRANCH  72  73
ENDBRANCH  40  65
ENDBRANCH  14  15
ENDBRANCH   7   9
ENDBRANCH   6   7
ENDBRANCH   5   6
ENDBRANCH   4   5
ENDBRANCH   3   4
ENDBRANCH   2   3
ENDBRANCH   1   2
BRANCH   1  77
ATOM     77  O   UNL A   1      44.282  20.802  24.243  1.00  0.00    -0.377 OA
BRANCH  77  78
ATOM     78  C   UNL A   1      44.605  22.170  24.205  1.00  0.00     0.188 C 
BRANCH  78  79
ATOM     79  C   UNL A   1      43.561  23.235  24.569  1.00  0.00     0.188 C 
BRANCH  79  80
ATOM     80  O   UNL A   1      43.996  24.435  25.164  1.00  0.00    -0.376 OA
BRANCH  80  81
ATOM     81  C   UNL A   1      44.760  24.327  26.357  1.00  0.00     0.202 C 
BRANCH  81  82
ATOM     82  C   UNL A   1      44.096  23.787  27.646  1.00  0.00     0.261 C 
BRANCH  82  83
ATOM     83  O   UNL A   1      43.785  24.766  28.672  1.00  0.00    -0.460 OA
BRANCH  83  84
ATOM     84  C   UNL A   1      44.263  24.569  29.935  1.00  0.00     0.338 C 
ATOM     85  O   UNL A   1      44.456  23.506  30.488  1.00  0.00    -0.246 OA
BRANCH  84  86
ATOM     86  C   UNL A   1      44.510  25.886  30.597  1.00  0.00     0.068 A 
ATOM     87  C   UNL A   1      43.369  26.537  31.107  1.00  0.00     0.018 A 
ATOM     88  C   UNL A   1      45.796  26.479  30.754  1.00  0.00    -0.002 A 
ATOM     89  C   UNL A   1      43.483  27.750  31.787  1.00  0.00     0.021 A 
ATOM     90  C   UNL A   1      45.875  27.693  31.471  1.00  0.00     0.030 A 
ATOM     91  C   UNL A   1      44.736  28.316  31.979  1.00  0.00     0.041 A 
ATOM     92  Cl  UNL A   1      44.887  29.811  32.815  1.00  0.00    -0.084 Cl
BRANCH  88  93
ATOM     93  C   UNL A   1      47.052  26.032  30.109  1.00  0.00    -0.014 A 
ATOM     94  C   UNL A   1      47.113  25.950  28.699  1.00  0.00     0.013 A 
ATOM     95  C   UNL A   1      48.238  25.815  30.813  1.00  0.00     0.052 A 
ATOM     96  C   UNL A   1      48.250  25.498  28.022  1.00  0.00     0.050 A 
ATOM     97  C   UNL A   1      49.403  25.445  30.129  1.00  0.00     0.165 A 
ATOM     98  C   UNL A   1      49.397  25.237  28.750  1.00  0.00     0.151 A 
ATOM     99  F   UNL A   1      50.542  25.300  30.822  1.00  0.00    -0.203 F 
BRANCH  98 100
ATOM    100  O   UNL A   1      50.528  24.804  28.125  1.00  0.00    -0.505 OA
ATOM    101  H   UNL A   1      51.279  25.364  28.074  1.00  0.00     0.293 HD
ENDBRANCH  98 100
ENDBRANCH  88  93
ENDBRANCH  84  86
ENDBRANCH  83  84
ENDBRANCH  82  83
ENDBRANCH  81  82
ENDBRANCH  80  81
ENDBRANCH  79  80
ENDBRANCH  78  79
ENDBRANCH  77  78
ENDBRANCH   1  77
TORSDOF 25
ENDMDL
MODEL 3
REMARK VINA RESULT:      -9.6      3.731      9.895
REMARK SMILES O=C(OCCOCCOCCOCCOC(=O)c1ccc(Cl)cc1-c1ccc(O)c(F)c1)c1ccc(-c2c3nc(c(-c4c(F)cc(S(=O)(=O)[O-])cc4F)c4ccc([nH]4)c(-c4c(F)cc(S(=O)(=O)[O-])cc4F)c4nc(c(-c5c(F)cc(S(=O)(=O)[O-])cc5F)c5ccc2[nH]5)C=C4)C=C3)cc1
REMARK SMILES IDX 8 1 7 2 6 3 5 4 4 5 3 6 2 7 1 8 33 9 34 10 98 11 35 12 97 13
REMARK SMILES IDX 36 14 37 15 38 16 91 17 39 18 96 19 90 20 92 21 40 22 95 23
REMARK SMILES IDX 89 24 88 25 41 27 75 28 54 29 74 30 55 31 58 32 73 33 93 34
REMARK SMILES IDX 56 35 57 36 72 38 94 39 59 40 42 41 43 42 52 43 44 44 45 45
REMARK SMILES IDX 51 46 53 47 46 48 47 49 48 50 49 51 50 52 76 53 77 54 86 55
REMARK SMILES IDX 78 56 79 57 85 58 87 59 80 60 81 61 82 62 83 63 84 64 60 65
REMARK SMILES IDX 61 66 70 67 62 68 63 69 69 70 71 71 64 72 65 73 66 74 67 75
REMARK SMILES IDX 68 76 9 77 10 78 11 79 12 80 13 81 14 82 15 83 16 84 17 85
REMARK SMILES IDX 18 86 19 87 24 88 20 89 23 90 21 91 22 92 25 93 26 94 32 95
REMARK SMILES IDX 27 96 30 97 28 98 31 99 29 100
REMARK H PARENT 92 26 58 37 29 101
REMARK Flexibility Score: inf
ROOT
ATOM      1  C   UNL A   1      41.393  32.852  32.554  1.00  0.00     0.188 C 
ENDROOT
BRANCH   1   2
ATOM      2  C   UNL A   1      40.144  32.258  33.204  1.00  0.00     0.188 C 
BRANCH   2   3
ATOM      3  O   UNL A   1      40.391  31.350  34.255  1.00  0.00    -0.376 OA
BRANCH   3   4
ATOM      4  C   UNL A   1      39.313  30.913  35.057  1.00  0.00     0.202 C 
BRANCH   4   5
ATOM      5  C   UNL A   1      38.046  30.875  34.200  1.00  0.00     0.261 C 
BRANCH   5   6
ATOM      6  O   UNL A   1      37.843  29.584  33.605  1.00  0.00    -0.460 OA
BRANCH   6   7
ATOM      7  C   UNL A   1      37.666  29.356  32.280  1.00  0.00     0.338 C 
ATOM      8  O   UNL A   1      36.533  29.442  31.809  1.00  0.00    -0.246 OA
BRANCH   7   9
ATOM      9  C   UNL A   1      38.813  29.164  31.331  1.00  0.00     0.060 A 
ATOM     10  C   UNL A   1      38.854  29.552  29.983  1.00  0.00     0.016 A 
ATOM     11  C   UNL A   1      39.993  28.677  31.913  1.00  0.00     0.016 A 
ATOM     12  C   UNL A   1      40.037  29.484  29.243  1.00  0.00     0.010 A 
ATOM     13  C   UNL A   1      41.175  28.594  31.176  1.00  0.00     0.010 A 
ATOM     14  C   UNL A   1      41.200  29.001  29.837  1.00  0.00    -0.014 A 
BRANCH  14  15
ATOM     15  C   UNL A   1      42.421  28.803  29.032  1.00  0.00     0.031 A 
ATOM     16  C   UNL A   1      42.635  27.451  28.421  1.00  0.00     0.074 A 
ATOM     17  C   UNL A   1      43.308  29.801  28.872  1.00  0.00     0.049 A 
ATOM     18  N   UNL A   1      43.696  26.963  27.843  1.00  0.00    -0.248 NA
ATOM     19  C   UNL A   1      41.493  26.519  28.478  1.00  0.00     0.031 C 
ATOM     20  C   UNL A   1      43.137  31.173  29.358  1.00  0.00     0.029 A 
ATOM     21  N   UNL A   1      44.544  29.811  28.276  1.00  0.00    -0.354 N 
ATOM     22  C   UNL A   1      43.367  25.656  27.506  1.00  0.00     0.074 A 
ATOM     23  C   UNL A   1      42.006  25.427  27.931  1.00  0.00     0.031 C 
ATOM     24  C   UNL A   1      44.242  31.881  29.066  1.00  0.00     0.029 A 
ATOM     25  C   UNL A   1      45.218  31.002  28.431  1.00  0.00     0.049 A 
ATOM     26  H   UNL A   1      44.912  29.042  27.783  1.00  0.00     0.167 HD
ATOM     27  C   UNL A   1      44.152  24.732  26.909  1.00  0.00     0.037 A 
ATOM     28  C   UNL A   1      46.499  31.313  28.145  1.00  0.00     0.037 A 
ATOM     29  C   UNL A   1      45.500  25.000  26.489  1.00  0.00     0.049 A 
ATOM     30  C   UNL A   1      47.374  30.237  27.545  1.00  0.00     0.074 A 
ATOM     31  C   UNL A   1      46.388  24.152  25.855  1.00  0.00     0.029 A 
ATOM     32  N   UNL A   1      46.156  26.210  26.673  1.00  0.00    -0.354 N 
ATOM     33  N   UNL A   1      47.056  29.006  27.214  1.00  0.00    -0.248 NA
ATOM     34  C   UNL A   1      48.781  30.579  27.297  1.00  0.00     0.031 C 
ATOM     35  C   UNL A   1      47.602  24.828  25.716  1.00  0.00     0.029 A 
ATOM     36  C   UNL A   1      47.452  26.117  26.206  1.00  0.00     0.049 A 
ATOM     37  H   UNL A   1      45.756  27.014  27.077  1.00  0.00     0.167 HD
ATOM     38  C   UNL A   1      48.218  28.434  26.706  1.00  0.00     0.074 A 
ATOM     39  C   UNL A   1      49.238  29.462  26.749  1.00  0.00     0.031 C 
ATOM     40  C   UNL A   1      48.433  27.173  26.257  1.00  0.00     0.037 A 
BRANCH  27  41
ATOM     41  C   UNL A   1      43.605  23.346  26.734  1.00  0.00     0.058 A 
ATOM     42  C   UNL A   1      43.273  22.825  25.475  1.00  0.00     0.135 A 
ATOM     43  C   UNL A   1      43.462  22.506  27.851  1.00  0.00     0.135 A 
ATOM     44  F   UNL A   1      43.357  23.596  24.379  1.00  0.00    -0.206 F 
ATOM     45  C   UNL A   1      42.822  21.516  25.328  1.00  0.00     0.059 A 
ATOM     46  C   UNL A   1      43.036  21.187  27.726  1.00  0.00     0.059 A 
ATOM     47  F   UNL A   1      43.745  22.963  29.081  1.00  0.00    -0.206 F 
ATOM     48  C   UNL A   1      42.718  20.702  26.458  1.00  0.00     0.060 A 
BRANCH  48  49
ATOM     49  S   UNL A   1      42.186  18.991  26.242  1.00  0.00     0.124 S 
ATOM     50  O   UNL A   1      43.122  18.520  25.226  1.00  0.00    -0.237 OA
ATOM     51  O   UNL A   1      42.374  18.439  27.580  1.00  0.00    -0.237 OA
ATOM     52  O   UNL A   1      40.799  19.116  25.806  1.00  0.00    -0.744 OA
ENDBRANCH  48  49
ENDBRANCH  27  41
BRANCH  28  53
ATOM     53  C   UNL A   1      47.061  32.652  28.491  1.00  0.00     0.058 A 
ATOM     54  C   UNL A   1      47.605  32.916  29.757  1.00  0.00     0.135 A 
ATOM     55  C   UNL A   1      47.015  33.718  27.575  1.00  0.00     0.135 A 
ATOM     56  F   UNL A   1      47.663  31.941  30.677  1.00  0.00    -0.206 F 
ATOM     57  C   UNL A   1      48.047  34.188  30.116  1.00  0.00     0.059 A 
ATOM     58  C   UNL A   1      47.483  34.988  27.897  1.00  0.00     0.059 A 
ATOM     59  F   UNL A   1      46.511  33.529  26.345  1.00  0.00    -0.206 F 
ATOM     60  C   UNL A   1      47.976  35.220  29.179  1.00  0.00     0.060 A 
BRANCH  60  61
ATOM     61  S   UNL A   1      48.542  36.869  29.654  1.00  0.00     0.124 S 
ATOM     62  O   UNL A   1      48.649  36.736  31.102  1.00  0.00    -0.237 OA
ATOM     63  O   UNL A   1      49.803  36.984  28.929  1.00  0.00    -0.237 OA
ATOM     64  O   UNL A   1      47.473  37.742  29.179  1.00  0.00    -0.744 OA
ENDBRANCH  60  61
ENDBRANCH  28  53
BRANCH  40  65
ATOM     65  C   UNL A   1      49.813  26.841  25.764  1.00  0.00     0.058 A 
ATOM     66  C   UNL A   1      50.186  27.067  24.430  1.00  0.00     0.135 A 
ATOM     67  C   UNL A   1      50.795  26.384  26.657  1.00  0.00     0.135 A 
ATOM     68  F   UNL A   1      49.279  27.496  23.537  1.00  0.00    -0.206 F 
ATOM     69  C   UNL A   1      51.486  26.845  23.997  1.00  0.00     0.059 A 
ATOM     70  C   UNL A   1      52.110  26.186  26.251  1.00  0.00     0.059 A 
ATOM     71  F   UNL A   1      50.489  26.164  27.945  1.00  0.00    -0.206 F 
ATOM     72  C   UNL A   1      52.444  26.414  24.918  1.00  0.00     0.060 A 
BRANCH  72  73
ATOM     73  S   UNL A   1      54.144  26.199  24.354  1.00  0.00     0.124 S 
ATOM     74  O   UNL A   1      53.997  26.355  22.911  1.00  0.00    -0.237 OA
ATOM     75  O   UNL A   1      54.839  27.283  25.041  1.00  0.00    -0.237 OA
ATOM     76  O   UNL A   1      54.487  24.855  24.809  1.00  0.00    -0.744 OA
ENDBRANCH  72  73
ENDBRANCH  40  65
ENDBRANCH  14  15
ENDBRANCH   7   9
ENDBRANCH   6   7
ENDBRANCH   5   6
ENDBRANCH   4   5
ENDBRANCH   3   4
ENDBRANCH   2   3
ENDBRANCH   1   2
BRANCH   1  77
ATOM     77  O   UNL A   1      41.803  34.194  32.722  1.00  0.00    -0.377 OA
BRANCH  77  78
ATOM     78  C   UNL A   1      42.059  35.064  31.648  1.00  0.00     0.188 C 
BRANCH  78  79
ATOM     79  C   UNL A   1      42.117  34.539  30.206  1.00  0.00     0.188 C 
BRANCH  79  80
ATOM     80  O   UNL A   1      40.949  34.584  29.420  1.00  0.00    -0.376 OA
BRANCH  80  81
ATOM     81  C   UNL A   1      39.736  34.916  30.082  1.00  0.00     0.202 C 
BRANCH  81  82
ATOM     82  C   UNL A   1      38.385  34.479  29.468  1.00  0.00     0.261 C 
BRANCH  82  83
ATOM     83  O   UNL A   1      38.055  33.069  29.569  1.00  0.00    -0.460 OA
BRANCH  83  84
ATOM     84  C   UNL A   1      36.927  32.704  30.247  1.00  0.00     0.338 C 
ATOM     85  O   UNL A   1      36.749  32.742  31.447  1.00  0.00    -0.246 OA
BRANCH  84  86
ATOM     86  C   UNL A   1      35.896  32.206  29.287  1.00  0.00     0.068 A 
ATOM     87  C   UNL A   1      36.241  31.044  28.568  1.00  0.00     0.018 A 
ATOM     88  C   UNL A   1      34.621  32.810  29.090  1.00  0.00    -0.002 A 
ATOM     89  C   UNL A   1      35.339  30.460  27.678  1.00  0.00     0.021 A 
ATOM     90  C   UNL A   1      33.724  32.177  28.202  1.00  0.00     0.030 A 
ATOM     91  C   UNL A   1      34.080  31.021  27.509  1.00  0.00     0.041 A 
ATOM     92  Cl  UNL A   1      32.961  30.309  26.414  1.00  0.00    -0.084 Cl
BRANCH  88  93
ATOM     93  C   UNL A   1      34.187  34.129  29.606  1.00  0.00    -0.014 A 
ATOM     94  C   UNL A   1      33.776  35.127  28.693  1.00  0.00     0.013 A 
ATOM     95  C   UNL A   1      34.028  34.403  30.966  1.00  0.00     0.052 A 
ATOM     96  C   UNL A   1      33.392  36.408  29.104  1.00  0.00     0.050 A 
ATOM     97  C   UNL A   1      33.561  35.657  31.380  1.00  0.00     0.165 A 
ATOM     98  C   UNL A   1      33.295  36.670  30.459  1.00  0.00     0.151 A 
ATOM     99  F   UNL A   1      33.362  35.874  32.688  1.00  0.00    -0.203 F 
BRANCH  98 100
ATOM    100  O   UNL A   1      32.915  37.903  30.898  1.00  0.00    -0.505 OA
ATOM    101  H   UNL A   1      32.533  38.516  30.301  1.00  0.00     0.293 HD
ENDBRANCH  98 100
ENDBRANCH  88  93
ENDBRANCH  84  86
ENDBRANCH  83  84
ENDBRANCH  82  83
ENDBRANCH  81  82
ENDBRANCH  80  81
ENDBRANCH  79  80
ENDBRANCH  78  79
ENDBRANCH  77  78
ENDBRANCH   1  77
TORSDOF 25
ENDMDL
