MODEL 1
REMARK VINA RESULT:      -9.9      0.000      0.000
REMARK SMILES CC(C)[C@H](C)CNC(=O)N1CC(n2cc(C(=O)OCCOCCOCCOCCOC(=O)c3ccc(-c4c5nc(c(-c6c(F)cc(S(=O)(=O)[O-])cc6F)c6ccc([nH]6)c(-c6c(F)cc(S(=O)(=O)[O-])cc6F)c6nc(c(-c7c(F)cc(S(=O)(=O)[O-])cc7F)c7ccc4[nH]7)C=C6)C=C5)cc3)nn2)C1
REMARK SMILES IDX 23 1 22 2 21 3 20 4 19 5 18 6 16 7 17 8 15 9 13 10 14 11
REMARK SMILES IDX 100 12 99 13 12 14 7 15 8 16 9 18 10 19 11 20 101 21 6 22
REMARK SMILES IDX 4 23 5 24 2 25 1 26 3 27 24 28 25 29 26 30 27 31 28 32 29 33
REMARK SMILES IDX 30 34 31 35 32 36 33 37 34 38 98 39 35 40 97 41 36 42 37 43
REMARK SMILES IDX 38 44 91 45 39 46 96 47 90 48 92 49 40 50 95 51 89 52 88 53
REMARK SMILES IDX 41 55 75 56 54 57 74 58 55 59 58 60 73 61 93 62 56 63 57 64
REMARK SMILES IDX 72 66 94 67 59 68 42 69 43 70 52 71 44 72 45 73 51 74 53 75
REMARK SMILES IDX 46 76 47 77 48 78 49 79 50 80 76 81 77 82 86 83 78 84 79 85
REMARK SMILES IDX 85 86 87 87 80 88 81 89 82 90 83 91 84 92 60 93 61 94 70 95
REMARK SMILES IDX 62 96 63 97 69 98 71 99 64 100 65 101 66 102 67 103 68 104
REMARK H PARENT 7 17 92 54 58 65
REMARK Flexibility Score: inf
ROOT
ATOM      1  C   UNL A   1      37.213  23.370  25.821  1.00  0.00     0.188 C 
ENDROOT
BRANCH   1   2
ATOM      2  C   UNL A   1      36.882  22.210  24.855  1.00  0.00     0.188 C 
BRANCH   2   3
ATOM      3  O   UNL A   1      36.182  21.037  25.265  1.00  0.00    -0.376 OA
BRANCH   3   4
ATOM      4  C   UNL A   1      34.768  20.957  25.277  1.00  0.00     0.202 C 
BRANCH   4   5
ATOM      5  C   UNL A   1      34.052  19.658  24.884  1.00  0.00     0.261 C 
BRANCH   5   6
ATOM      6  O   UNL A   1      32.654  19.783  24.614  1.00  0.00    -0.458 OA
BRANCH   6   7
ATOM      7  C   UNL A   1      32.348  20.299  23.393  1.00  0.00     0.360 C 
ATOM      8  O   UNL A   1      32.087  19.621  22.398  1.00  0.00    -0.244 OA
BRANCH   7   9
ATOM      9  C   UNL A   1      32.277  21.749  23.409  1.00  0.00     0.190 A 
ATOM     10  N   UNL A   1      32.498  23.876  23.066  1.00  0.00    -0.245 N 
ATOM     11  C   UNL A   1      32.984  22.667  22.651  1.00  0.00     0.147 A 
ATOM     12  N   UNL A   1      31.618  23.729  24.067  1.00  0.00    -0.066 NA
ATOM     13  N   UNL A   1      31.469  22.432  24.285  1.00  0.00    -0.123 NA
BRANCH  10  14
ATOM     14  C   UNL A   1      32.704  25.098  22.350  1.00  0.00     0.148 C 
ATOM     15  N   UNL A   1      31.885  29.193  23.087  1.00  0.00    -0.338 N 
ATOM     16  C   UNL A   1      32.953  28.389  22.850  1.00  0.00     0.317 C 
ATOM     17  H   UNL A   1      31.913  30.065  22.631  1.00  0.00     0.165 HD
ATOM     18  O   UNL A   1      34.012  28.911  22.505  1.00  0.00    -0.249 OA
ATOM     19  N   UNL A   1      32.821  27.051  22.993  1.00  0.00    -0.320 N 
ATOM     20  C   UNL A   1      33.833  26.008  22.854  1.00  0.00     0.150 C 
ATOM     21  C   UNL A   1      31.704  26.145  22.869  1.00  0.00     0.150 C 
BRANCH  15  22
ATOM     22  C   UNL A   1      30.703  28.967  23.909  1.00  0.00     0.121 C 
BRANCH  22  23
ATOM     23  C   UNL A   1      29.416  29.428  23.189  1.00  0.00     0.008 C 
ATOM     24  C   UNL A   1      29.809  30.093  21.856  1.00  0.00     0.010 C 
BRANCH  23  25
ATOM     25  C   UNL A   1      28.375  28.293  22.930  1.00  0.00    -0.013 C 
ATOM     26  C   UNL A   1      28.625  27.012  23.732  1.00  0.00     0.008 C 
ATOM     27  C   UNL A   1      26.952  28.781  23.251  1.00  0.00     0.008 C 
ENDBRANCH  23  25
ENDBRANCH  22  23
ENDBRANCH  15  22
ENDBRANCH  10  14
ENDBRANCH   7   9
ENDBRANCH   6   7
ENDBRANCH   5   6
ENDBRANCH   4   5
ENDBRANCH   3   4
ENDBRANCH   2   3
ENDBRANCH   1   2
BRANCH   1  28
ATOM     28  O   UNL A   1      38.488  23.284  26.435  1.00  0.00    -0.377 OA
BRANCH  28  29
ATOM     29  C   UNL A   1      39.206  22.078  26.169  1.00  0.00     0.188 C 
BRANCH  29  30
ATOM     30  C   UNL A   1      40.753  22.123  26.280  1.00  0.00     0.188 C 
BRANCH  30  31
ATOM     31  O   UNL A   1      41.239  22.085  27.619  1.00  0.00    -0.376 OA
BRANCH  31  32
ATOM     32  C   UNL A   1      41.367  23.286  28.366  1.00  0.00     0.202 C 
BRANCH  32  33
ATOM     33  C   UNL A   1      41.641  24.541  27.543  1.00  0.00     0.261 C 
BRANCH  33  34
ATOM     34  O   UNL A   1      42.984  24.636  27.107  1.00  0.00    -0.460 OA
BRANCH  34  35
ATOM     35  C   UNL A   1      43.157  25.110  25.862  1.00  0.00     0.338 C 
ATOM     36  O   UNL A   1      43.172  24.463  24.820  1.00  0.00    -0.246 OA
BRANCH  35  37
ATOM     37  C   UNL A   1      43.430  26.542  25.958  1.00  0.00     0.060 A 
ATOM     38  C   UNL A   1      44.366  26.908  26.922  1.00  0.00     0.016 A 
ATOM     39  C   UNL A   1      42.495  27.443  25.419  1.00  0.00     0.016 A 
ATOM     40  C   UNL A   1      44.129  28.071  27.603  1.00  0.00     0.010 A 
ATOM     41  C   UNL A   1      42.251  28.595  26.110  1.00  0.00     0.010 A 
ATOM     42  C   UNL A   1      42.994  28.813  27.263  1.00  0.00    -0.014 A 
BRANCH  42  43
ATOM     43  C   UNL A   1      42.586  29.841  28.182  1.00  0.00     0.031 A 
ATOM     44  C   UNL A   1      43.602  30.895  28.323  1.00  0.00     0.074 A 
ATOM     45  C   UNL A   1      41.374  29.823  28.762  1.00  0.00     0.049 A 
ATOM     46  N   UNL A   1      44.360  31.128  29.338  1.00  0.00    -0.248 NA
ATOM     47  C   UNL A   1      43.967  31.633  27.103  1.00  0.00     0.031 C 
ATOM     48  C   UNL A   1      40.223  28.969  28.447  1.00  0.00     0.029 A 
ATOM     49  N   UNL A   1      40.881  30.660  29.704  1.00  0.00    -0.354 N 
ATOM     50  C   UNL A   1      45.125  32.223  28.963  1.00  0.00     0.074 A 
ATOM     51  C   UNL A   1      45.017  32.331  27.532  1.00  0.00     0.031 C 
ATOM     52  C   UNL A   1      39.114  29.499  29.014  1.00  0.00     0.029 A 
ATOM     53  C   UNL A   1      39.500  30.646  29.821  1.00  0.00     0.049 A 
ATOM     54  H   UNL A   1      41.456  31.234  30.260  1.00  0.00     0.167 HD
ATOM     55  C   UNL A   1      45.535  33.136  29.881  1.00  0.00     0.037 A 
ATOM     56  C   UNL A   1      38.756  31.595  30.443  1.00  0.00     0.037 A 
ATOM     57  C   UNL A   1      45.490  32.600  31.217  1.00  0.00     0.049 A 
ATOM     58  C   UNL A   1      39.675  32.338  31.356  1.00  0.00     0.074 A 
ATOM     59  C   UNL A   1      46.071  31.508  31.836  1.00  0.00     0.029 A 
ATOM     60  N   UNL A   1      44.450  32.981  32.032  1.00  0.00    -0.354 N 
ATOM     61  N   UNL A   1      40.246  31.805  32.405  1.00  0.00    -0.248 NA
ATOM     62  C   UNL A   1      40.335  33.527  30.834  1.00  0.00     0.031 C 
ATOM     63  C   UNL A   1      45.076  31.007  32.724  1.00  0.00     0.029 A 
ATOM     64  C   UNL A   1      43.965  31.848  32.639  1.00  0.00     0.049 A 
ATOM     65  H   UNL A   1      44.113  33.898  32.157  1.00  0.00     0.167 HD
ATOM     66  C   UNL A   1      41.532  32.330  32.426  1.00  0.00     0.074 A 
ATOM     67  C   UNL A   1      41.500  33.445  31.482  1.00  0.00     0.031 C 
ATOM     68  C   UNL A   1      42.573  31.642  32.982  1.00  0.00     0.037 A 
BRANCH  55  69
ATOM     69  C   UNL A   1      45.587  34.611  29.583  1.00  0.00     0.058 A 
ATOM     70  C   UNL A   1      44.415  35.273  29.179  1.00  0.00     0.135 A 
ATOM     71  C   UNL A   1      46.791  35.339  29.420  1.00  0.00     0.135 A 
ATOM     72  F   UNL A   1      43.223  34.664  29.271  1.00  0.00    -0.206 F 
ATOM     73  C   UNL A   1      44.442  36.540  28.598  1.00  0.00     0.059 A 
ATOM     74  C   UNL A   1      46.834  36.625  28.906  1.00  0.00     0.059 A 
ATOM     75  F   UNL A   1      47.996  34.804  29.651  1.00  0.00    -0.206 F 
ATOM     76  C   UNL A   1      45.661  37.199  28.454  1.00  0.00     0.060 A 
BRANCH  76  77
ATOM     77  S   UNL A   1      45.722  38.780  27.597  1.00  0.00     0.124 S 
ATOM     78  O   UNL A   1      44.347  38.905  27.130  1.00  0.00    -0.237 OA
ATOM     79  O   UNL A   1      46.122  39.687  28.667  1.00  0.00    -0.237 OA
ATOM     80  O   UNL A   1      46.726  38.560  26.560  1.00  0.00    -0.744 OA
ENDBRANCH  76  77
ENDBRANCH  55  69
BRANCH  56  81
ATOM     81  C   UNL A   1      37.450  32.142  29.986  1.00  0.00     0.058 A 
ATOM     82  C   UNL A   1      36.249  31.789  30.624  1.00  0.00     0.135 A 
ATOM     83  C   UNL A   1      37.375  33.226  29.084  1.00  0.00     0.135 A 
ATOM     84  F   UNL A   1      36.232  30.788  31.518  1.00  0.00    -0.206 F 
ATOM     85  C   UNL A   1      35.057  32.492  30.415  1.00  0.00     0.059 A 
ATOM     86  C   UNL A   1      36.198  33.932  28.849  1.00  0.00     0.059 A 
ATOM     87  F   UNL A   1      38.469  33.699  28.469  1.00  0.00    -0.206 F 
ATOM     88  C   UNL A   1      35.046  33.575  29.536  1.00  0.00     0.060 A 
BRANCH  88  89
ATOM     89  S   UNL A   1      33.558  34.591  29.385  1.00  0.00     0.124 S 
ATOM     90  O   UNL A   1      33.185  34.788  30.781  1.00  0.00    -0.237 OA
ATOM     91  O   UNL A   1      34.059  35.770  28.685  1.00  0.00    -0.237 OA
ATOM     92  O   UNL A   1      32.650  33.749  28.609  1.00  0.00    -0.744 OA
ENDBRANCH  88  89
ENDBRANCH  56  81
BRANCH  68  93
ATOM     93  C   UNL A   1      42.257  30.431  33.825  1.00  0.00     0.058 A 
ATOM     94  C   UNL A   1      42.064  29.136  33.309  1.00  0.00     0.135 A 
ATOM     95  C   UNL A   1      42.312  30.559  35.221  1.00  0.00     0.135 A 
ATOM     96  F   UNL A   1      42.109  28.908  31.990  1.00  0.00    -0.206 F 
ATOM     97  C   UNL A   1      41.888  28.029  34.143  1.00  0.00     0.059 A 
ATOM     98  C   UNL A   1      42.171  29.465  36.071  1.00  0.00     0.059 A 
ATOM     99  F   UNL A   1      42.560  31.757  35.776  1.00  0.00    -0.206 F 
ATOM    100  C   UNL A   1      41.946  28.204  35.525  1.00  0.00     0.060 A 
BRANCH 100 101
ATOM    101  S   UNL A   1      41.800  26.760  36.601  1.00  0.00     0.124 S 
ATOM    102  O   UNL A   1      40.549  27.025  37.304  1.00  0.00    -0.237 OA
ATOM    103  O   UNL A   1      41.771  25.655  35.648  1.00  0.00    -0.237 OA
ATOM    104  O   UNL A   1      43.005  26.826  37.426  1.00  0.00    -0.744 OA
ENDBRANCH 100 101
ENDBRANCH  68  93
ENDBRANCH  42  43
ENDBRANCH  35  37
ENDBRANCH  34  35
ENDBRANCH  33  34
ENDBRANCH  32  33
ENDBRANCH  31  32
ENDBRANCH  30  31
ENDBRANCH  29  30
ENDBRANCH  28  29
ENDBRANCH   1  28
TORSDOF 27
ENDMDL
MODEL 2
REMARK VINA RESULT:      -9.0      2.061      7.145
REMARK SMILES CC(C)[C@H](C)CNC(=O)N1CC(n2cc(C(=O)OCCOCCOCCOCCOC(=O)c3ccc(-c4c5nc(c(-c6c(F)cc(S(=O)(=O)[O-])cc6F)c6ccc([nH]6)c(-c6c(F)cc(S(=O)(=O)[O-])cc6F)c6nc(c(-c7c(F)cc(S(=O)(=O)[O-])cc7F)c7ccc4[nH]7)C=C6)C=C5)cc3)nn2)C1
REMARK SMILES IDX 23 1 22 2 21 3 20 4 19 5 18 6 16 7 17 8 15 9 13 10 14 11
REMARK SMILES IDX 100 12 99 13 12 14 7 15 8 16 9 18 10 19 11 20 101 21 6 22
REMARK SMILES IDX 4 23 5 24 2 25 1 26 3 27 24 28 25 29 26 30 27 31 28 32 29 33
REMARK SMILES IDX 30 34 31 35 32 36 33 37 34 38 98 39 35 40 97 41 36 42 37 43
REMARK SMILES IDX 38 44 91 45 39 46 96 47 90 48 92 49 40 50 95 51 89 52 88 53
REMARK SMILES IDX 41 55 75 56 54 57 74 58 55 59 58 60 73 61 93 62 56 63 57 64
REMARK SMILES IDX 72 66 94 67 59 68 42 69 43 70 52 71 44 72 45 73 51 74 53 75
REMARK SMILES IDX 46 76 47 77 48 78 49 79 50 80 76 81 77 82 86 83 78 84 79 85
REMARK SMILES IDX 85 86 87 87 80 88 81 89 82 90 83 91 84 92 60 93 61 94 70 95
REMARK SMILES IDX 62 96 63 97 69 98 71 99 64 100 65 101 66 102 67 103 68 104
REMARK H PARENT 7 17 92 54 58 65
REMARK Flexibility Score: inf
ROOT
ATOM      1  C   UNL A   1      36.786  21.861  24.684  1.00  0.00     0.188 C 
ENDROOT
BRANCH   1   2
ATOM      2  C   UNL A   1      35.602  20.923  25.012  1.00  0.00     0.188 C 
BRANCH   2   3
ATOM      3  O   UNL A   1      34.660  21.198  26.047  1.00  0.00    -0.376 OA
BRANCH   3   4
ATOM      4  C   UNL A   1      33.638  22.169  25.909  1.00  0.00     0.202 C 
BRANCH   4   5
ATOM      5  C   UNL A   1      32.243  21.773  25.407  1.00  0.00     0.261 C 
BRANCH   5   6
ATOM      6  O   UNL A   1      31.623  22.700  24.513  1.00  0.00    -0.458 OA
BRANCH   6   7
ATOM      7  C   UNL A   1      32.166  22.750  23.268  1.00  0.00     0.360 C 
ATOM      8  O   UNL A   1      32.205  21.798  22.487  1.00  0.00    -0.244 OA
BRANCH   7   9
ATOM      9  C   UNL A   1      32.625  24.082  22.919  1.00  0.00     0.190 A 
ATOM     10  N   UNL A   1      32.986  26.211  22.744  1.00  0.00    -0.245 N 
ATOM     11  C   UNL A   1      32.195  25.309  23.399  1.00  0.00     0.147 A 
ATOM     12  N   UNL A   1      33.789  25.602  21.858  1.00  0.00    -0.066 NA
ATOM     13  N   UNL A   1      33.582  24.299  21.958  1.00  0.00    -0.123 NA
BRANCH  10  14
ATOM     14  C   UNL A   1      33.120  27.579  23.141  1.00  0.00     0.148 C 
ATOM     15  N   UNL A   1      30.449  30.626  24.392  1.00  0.00    -0.338 N 
ATOM     16  C   UNL A   1      31.525  29.949  24.868  1.00  0.00     0.317 C 
ATOM     17  H   UNL A   1      30.440  31.589  24.597  1.00  0.00     0.165 HD
ATOM     18  O   UNL A   1      32.129  30.416  25.833  1.00  0.00    -0.249 OA
ATOM     19  N   UNL A   1      31.902  28.796  24.271  1.00  0.00    -0.320 N 
ATOM     20  C   UNL A   1      32.974  27.877  24.640  1.00  0.00     0.150 C 
ATOM     21  C   UNL A   1      31.772  28.287  22.926  1.00  0.00     0.150 C 
BRANCH  15  22
ATOM     22  C   UNL A   1      29.305  30.151  23.624  1.00  0.00     0.121 C 
BRANCH  22  23
ATOM     23  C   UNL A   1      29.122  30.963  22.322  1.00  0.00     0.008 C 
ATOM     24  C   UNL A   1      28.423  30.071  21.279  1.00  0.00     0.010 C 
BRANCH  23  25
ATOM     25  C   UNL A   1      28.330  32.298  22.496  1.00  0.00    -0.013 C 
ATOM     26  C   UNL A   1      29.141  33.436  23.124  1.00  0.00     0.008 C 
ATOM     27  C   UNL A   1      27.796  32.791  21.141  1.00  0.00     0.008 C 
ENDBRANCH  23  25
ENDBRANCH  22  23
ENDBRANCH  15  22
ENDBRANCH  10  14
ENDBRANCH   7   9
ENDBRANCH   6   7
ENDBRANCH   5   6
ENDBRANCH   4   5
ENDBRANCH   3   4
ENDBRANCH   2   3
ENDBRANCH   1   2
BRANCH   1  28
ATOM     28  O   UNL A   1      37.811  21.883  25.663  1.00  0.00    -0.377 OA
BRANCH  28  29
ATOM     29  C   UNL A   1      38.747  20.806  25.583  1.00  0.00     0.188 C 
BRANCH  29  30
ATOM     30  C   UNL A   1      40.177  21.054  26.129  1.00  0.00     0.188 C 
BRANCH  30  31
ATOM     31  O   UNL A   1      40.223  21.342  27.524  1.00  0.00    -0.376 OA
BRANCH  31  32
ATOM     32  C   UNL A   1      40.993  22.436  28.002  1.00  0.00     0.202 C 
BRANCH  32  33
ATOM     33  C   UNL A   1      41.382  23.470  26.950  1.00  0.00     0.261 C 
BRANCH  33  34
ATOM     34  O   UNL A   1      42.728  23.892  27.060  1.00  0.00    -0.460 OA
BRANCH  34  35
ATOM     35  C   UNL A   1      43.302  24.301  25.916  1.00  0.00     0.338 C 
ATOM     36  O   UNL A   1      43.655  23.599  24.974  1.00  0.00    -0.246 OA
BRANCH  35  37
ATOM     37  C   UNL A   1      43.535  25.740  26.017  1.00  0.00     0.060 A 
ATOM     38  C   UNL A   1      44.710  26.109  26.668  1.00  0.00     0.016 A 
ATOM     39  C   UNL A   1      42.445  26.612  25.853  1.00  0.00     0.016 A 
ATOM     40  C   UNL A   1      44.651  27.221  27.464  1.00  0.00     0.010 A 
ATOM     41  C   UNL A   1      42.383  27.711  26.659  1.00  0.00     0.010 A 
ATOM     42  C   UNL A   1      43.438  27.913  27.539  1.00  0.00    -0.014 A 
BRANCH  42  43
ATOM     43  C   UNL A   1      43.295  28.869  28.605  1.00  0.00     0.031 A 
ATOM     44  C   UNL A   1      43.321  28.232  29.930  1.00  0.00     0.074 A 
ATOM     45  C   UNL A   1      43.220  30.188  28.358  1.00  0.00     0.049 A 
ATOM     46  N   UNL A   1      42.339  28.074  30.748  1.00  0.00    -0.248 NA
ATOM     47  C   UNL A   1      44.539  27.484  30.284  1.00  0.00     0.031 C 
ATOM     48  C   UNL A   1      43.474  30.899  27.100  1.00  0.00     0.029 A 
ATOM     49  N   UNL A   1      42.998  31.194  29.236  1.00  0.00    -0.354 N 
ATOM     50  C   UNL A   1      42.892  27.427  31.844  1.00  0.00     0.074 A 
ATOM     51  C   UNL A   1      44.153  26.887  31.409  1.00  0.00     0.031 C 
ATOM     52  C   UNL A   1      43.627  32.217  27.364  1.00  0.00     0.029 A 
ATOM     53  C   UNL A   1      43.362  32.449  28.774  1.00  0.00     0.049 A 
ATOM     54  H   UNL A   1      42.610  31.047  30.129  1.00  0.00     0.167 HD
ATOM     55  C   UNL A   1      42.420  27.648  33.098  1.00  0.00     0.037 A 
ATOM     56  C   UNL A   1      43.538  33.548  29.550  1.00  0.00     0.037 A 
ATOM     57  C   UNL A   1      41.091  28.204  33.072  1.00  0.00     0.049 A 
ATOM     58  C   UNL A   1      42.820  33.294  30.834  1.00  0.00     0.074 A 
ATOM     59  C   UNL A   1      39.884  27.789  32.539  1.00  0.00     0.029 A 
ATOM     60  N   UNL A   1      40.948  29.550  33.315  1.00  0.00    -0.354 N 
ATOM     61  N   UNL A   1      41.521  33.182  30.932  1.00  0.00    -0.248 NA
ATOM     62  C   UNL A   1      43.573  32.688  31.924  1.00  0.00     0.031 C 
ATOM     63  C   UNL A   1      39.261  28.975  32.055  1.00  0.00     0.029 A 
ATOM     64  C   UNL A   1      40.092  30.053  32.365  1.00  0.00     0.049 A 
ATOM     65  H   UNL A   1      41.381  30.061  34.036  1.00  0.00     0.167 HD
ATOM     66  C   UNL A   1      41.311  32.162  31.851  1.00  0.00     0.074 A 
ATOM     67  C   UNL A   1      42.610  31.953  32.487  1.00  0.00     0.031 C 
ATOM     68  C   UNL A   1      40.186  31.387  31.810  1.00  0.00     0.037 A 
BRANCH  55  69
ATOM     69  C   UNL A   1      43.325  27.724  34.297  1.00  0.00     0.058 A 
ATOM     70  C   UNL A   1      43.045  26.929  35.422  1.00  0.00     0.135 A 
ATOM     71  C   UNL A   1      44.296  28.737  34.488  1.00  0.00     0.135 A 
ATOM     72  F   UNL A   1      42.126  25.954  35.355  1.00  0.00    -0.206 F 
ATOM     73  C   UNL A   1      43.640  27.163  36.661  1.00  0.00     0.059 A 
ATOM     74  C   UNL A   1      44.947  28.945  35.693  1.00  0.00     0.059 A 
ATOM     75  F   UNL A   1      44.587  29.645  33.548  1.00  0.00    -0.206 F 
ATOM     76  C   UNL A   1      44.579  28.184  36.787  1.00  0.00     0.060 A 
BRANCH  76  77
ATOM     77  S   UNL A   1      45.261  28.574  38.406  1.00  0.00     0.124 S 
ATOM     78  O   UNL A   1      44.750  27.466  39.204  1.00  0.00    -0.237 OA
ATOM     79  O   UNL A   1      46.695  28.565  38.138  1.00  0.00    -0.237 OA
ATOM     80  O   UNL A   1      44.692  29.884  38.702  1.00  0.00    -0.744 OA
ENDBRANCH  76  77
ENDBRANCH  55  69
BRANCH  56  81
ATOM     81  C   UNL A   1      44.607  34.574  29.409  1.00  0.00     0.058 A 
ATOM     82  C   UNL A   1      45.951  34.205  29.225  1.00  0.00     0.135 A 
ATOM     83  C   UNL A   1      44.305  35.935  29.186  1.00  0.00     0.135 A 
ATOM     84  F   UNL A   1      46.326  32.927  29.388  1.00  0.00    -0.206 F 
ATOM     85  C   UNL A   1      46.926  35.118  28.805  1.00  0.00     0.059 A 
ATOM     86  C   UNL A   1      45.260  36.865  28.783  1.00  0.00     0.059 A 
ATOM     87  F   UNL A   1      43.045  36.391  29.262  1.00  0.00    -0.206 F 
ATOM     88  C   UNL A   1      46.565  36.445  28.570  1.00  0.00     0.060 A 
BRANCH  88  89
ATOM     89  S   UNL A   1      47.776  37.591  27.870  1.00  0.00     0.124 S 
ATOM     90  O   UNL A   1      48.704  37.763  28.981  1.00  0.00    -0.237 OA
ATOM     91  O   UNL A   1      48.282  36.842  26.724  1.00  0.00    -0.237 OA
ATOM     92  O   UNL A   1      46.976  38.767  27.537  1.00  0.00    -0.744 OA
ENDBRANCH  88  89
ENDBRANCH  56  81
BRANCH  68  93
ATOM     93  C   UNL A   1      39.044  31.836  30.933  1.00  0.00     0.058 A 
ATOM     94  C   UNL A   1      38.826  31.378  29.621  1.00  0.00     0.135 A 
ATOM     95  C   UNL A   1      38.043  32.638  31.502  1.00  0.00     0.135 A 
ATOM     96  F   UNL A   1      39.677  30.520  29.043  1.00  0.00    -0.206 F 
ATOM     97  C   UNL A   1      37.689  31.737  28.893  1.00  0.00     0.059 A 
ATOM     98  C   UNL A   1      36.886  32.983  30.807  1.00  0.00     0.059 A 
ATOM     99  F   UNL A   1      38.157  33.054  32.774  1.00  0.00    -0.206 F 
ATOM    100  C   UNL A   1      36.722  32.539  29.497  1.00  0.00     0.060 A 
BRANCH 100 101
ATOM    101  S   UNL A   1      35.214  32.936  28.585  1.00  0.00     0.124 S 
ATOM    102  O   UNL A   1      34.396  33.579  29.609  1.00  0.00    -0.237 OA
ATOM    103  O   UNL A   1      35.704  33.811  27.524  1.00  0.00    -0.237 OA
ATOM    104  O   UNL A   1      34.735  31.631  28.133  1.00  0.00    -0.744 OA
ENDBRANCH 100 101
ENDBRANCH  68  93
ENDBRANCH  42  43
ENDBRANCH  35  37
ENDBRANCH  34  35
ENDBRANCH  33  34
ENDBRANCH  32  33
ENDBRANCH  31  32
ENDBRANCH  30  31
ENDBRANCH  29  30
ENDBRANCH  28  29
ENDBRANCH   1  28
TORSDOF 27
ENDMDL
MODEL 3
REMARK VINA RESULT:      -9.0      5.131     10.935
REMARK SMILES CC(C)[C@H](C)CNC(=O)N1CC(n2cc(C(=O)OCCOCCOCCOCCOC(=O)c3ccc(-c4c5nc(c(-c6c(F)cc(S(=O)(=O)[O-])cc6F)c6ccc([nH]6)c(-c6c(F)cc(S(=O)(=O)[O-])cc6F)c6nc(c(-c7c(F)cc(S(=O)(=O)[O-])cc7F)c7ccc4[nH]7)C=C6)C=C5)cc3)nn2)C1
REMARK SMILES IDX 23 1 22 2 21 3 20 4 19 5 18 6 16 7 17 8 15 9 13 10 14 11
REMARK SMILES IDX 100 12 99 13 12 14 7 15 8 16 9 18 10 19 11 20 101 21 6 22
REMARK SMILES IDX 4 23 5 24 2 25 1 26 3 27 24 28 25 29 26 30 27 31 28 32 29 33
REMARK SMILES IDX 30 34 31 35 32 36 33 37 34 38 98 39 35 40 97 41 36 42 37 43
REMARK SMILES IDX 38 44 91 45 39 46 96 47 90 48 92 49 40 50 95 51 89 52 88 53
REMARK SMILES IDX 41 55 75 56 54 57 74 58 55 59 58 60 73 61 93 62 56 63 57 64
REMARK SMILES IDX 72 66 94 67 59 68 42 69 43 70 52 71 44 72 45 73 51 74 53 75
REMARK SMILES IDX 46 76 47 77 48 78 49 79 50 80 76 81 77 82 86 83 78 84 79 85
REMARK SMILES IDX 85 86 87 87 80 88 81 89 82 90 83 91 84 92 60 93 61 94 70 95
REMARK SMILES IDX 62 96 63 97 69 98 71 99 64 100 65 101 66 102 67 103 68 104
REMARK H PARENT 7 17 92 54 58 65
REMARK Flexibility Score: inf
ROOT
ATOM      1  C   UNL A   1      41.877  28.944  26.165  1.00  0.00     0.188 C 
ENDROOT
BRANCH   1   2
ATOM      2  C   UNL A   1      41.683  28.960  27.699  1.00  0.00     0.188 C 
BRANCH   2   3
ATOM      3  O   UNL A   1      40.562  29.576  28.330  1.00  0.00    -0.376 OA
BRANCH   3   4
ATOM      4  C   UNL A   1      39.228  29.175  28.076  1.00  0.00     0.202 C 
BRANCH   4   5
ATOM      5  C   UNL A   1      38.049  30.077  28.465  1.00  0.00     0.261 C 
BRANCH   5   6
ATOM      6  O   UNL A   1      36.884  29.957  27.647  1.00  0.00    -0.458 OA
BRANCH   6   7
ATOM      7  C   UNL A   1      35.901  30.858  27.910  1.00  0.00     0.360 C 
ATOM      8  O   UNL A   1      36.082  31.943  28.464  1.00  0.00    -0.244 OA
BRANCH   7   9
ATOM      9  C   UNL A   1      34.613  30.439  27.386  1.00  0.00     0.190 A 
ATOM     10  N   UNL A   1      32.951  29.433  26.427  1.00  0.00    -0.245 N 
ATOM     11  C   UNL A   1      34.305  29.345  26.595  1.00  0.00     0.147 A 
ATOM     12  N   UNL A   1      32.462  30.545  26.996  1.00  0.00    -0.066 NA
ATOM     13  N   UNL A   1      33.467  31.168  27.590  1.00  0.00    -0.123 NA
BRANCH  10  14
ATOM     14  C   UNL A   1      32.143  28.356  25.943  1.00  0.00     0.148 C 
ATOM     15  N   UNL A   1      32.475  24.129  25.896  1.00  0.00    -0.338 N 
ATOM     16  C   UNL A   1      31.642  25.085  26.382  1.00  0.00     0.317 C 
ATOM     17  H   UNL A   1      32.024  23.337  25.522  1.00  0.00     0.165 HD
ATOM     18  O   UNL A   1      30.511  24.752  26.732  1.00  0.00    -0.249 OA
ATOM     19  N   UNL A   1      32.075  26.364  26.460  1.00  0.00    -0.320 N 
ATOM     20  C   UNL A   1      31.388  27.535  26.998  1.00  0.00     0.150 C 
ATOM     21  C   UNL A   1      33.044  27.131  25.714  1.00  0.00     0.150 C 
BRANCH  15  22
ATOM     22  C   UNL A   1      33.930  24.090  25.841  1.00  0.00     0.121 C 
BRANCH  22  23
ATOM     23  C   UNL A   1      34.429  23.424  24.539  1.00  0.00     0.008 C 
ATOM     24  C   UNL A   1      34.288  24.433  23.384  1.00  0.00     0.010 C 
BRANCH  23  25
ATOM     25  C   UNL A   1      35.896  22.891  24.604  1.00  0.00    -0.013 C 
ATOM     26  C   UNL A   1      36.610  22.841  23.250  1.00  0.00     0.008 C 
ATOM     27  C   UNL A   1      36.744  23.753  25.553  1.00  0.00     0.008 C 
ENDBRANCH  23  25
ENDBRANCH  22  23
ENDBRANCH  15  22
ENDBRANCH  10  14
ENDBRANCH   7   9
ENDBRANCH   6   7
ENDBRANCH   5   6
ENDBRANCH   4   5
ENDBRANCH   3   4
ENDBRANCH   2   3
ENDBRANCH   1   2
BRANCH   1  28
ATOM     28  O   UNL A   1      41.161  27.925  25.489  1.00  0.00    -0.377 OA
BRANCH  28  29
ATOM     29  C   UNL A   1      41.439  26.595  25.931  1.00  0.00     0.188 C 
BRANCH  29  30
ATOM     30  C   UNL A   1      40.355  25.878  26.777  1.00  0.00     0.188 C 
BRANCH  30  31
ATOM     31  O   UNL A   1      40.091  24.539  26.364  1.00  0.00    -0.376 OA
BRANCH  31  32
ATOM     32  C   UNL A   1      40.580  23.447  27.128  1.00  0.00     0.202 C 
BRANCH  32  33
ATOM     33  C   UNL A   1      41.503  22.488  26.380  1.00  0.00     0.261 C 
BRANCH  33  34
ATOM     34  O   UNL A   1      42.864  22.865  26.447  1.00  0.00    -0.460 OA
BRANCH  34  35
ATOM     35  C   UNL A   1      43.511  22.911  25.270  1.00  0.00     0.338 C 
ATOM     36  O   UNL A   1      43.180  22.366  24.222  1.00  0.00    -0.246 OA
BRANCH  35  37
ATOM     37  C   UNL A   1      44.755  23.651  25.467  1.00  0.00     0.060 A 
ATOM     38  C   UNL A   1      45.706  23.018  26.264  1.00  0.00     0.016 A 
ATOM     39  C   UNL A   1      44.761  25.035  25.223  1.00  0.00     0.016 A 
ATOM     40  C   UNL A   1      46.439  23.815  27.101  1.00  0.00     0.010 A 
ATOM     41  C   UNL A   1      45.481  25.827  26.070  1.00  0.00     0.010 A 
ATOM     42  C   UNL A   1      46.203  25.193  27.072  1.00  0.00    -0.014 A 
BRANCH  42  43
ATOM     43  C   UNL A   1      46.733  25.970  28.160  1.00  0.00     0.031 A 
ATOM     44  C   UNL A   1      45.676  26.646  28.928  1.00  0.00     0.074 A 
ATOM     45  C   UNL A   1      48.048  25.984  28.436  1.00  0.00     0.049 A 
ATOM     46  N   UNL A   1      45.402  27.904  28.954  1.00  0.00    -0.248 NA
ATOM     47  C   UNL A   1      44.666  25.785  29.565  1.00  0.00     0.031 C 
ATOM     48  C   UNL A   1      49.105  25.120  27.898  1.00  0.00     0.029 A 
ATOM     49  N   UNL A   1      48.704  26.726  29.359  1.00  0.00    -0.354 N 
ATOM     50  C   UNL A   1      44.331  28.014  29.829  1.00  0.00     0.074 A 
ATOM     51  C   UNL A   1      43.782  26.692  29.976  1.00  0.00     0.031 C 
ATOM     52  C   UNL A   1      50.204  25.230  28.680  1.00  0.00     0.029 A 
ATOM     53  C   UNL A   1      49.965  26.252  29.686  1.00  0.00     0.049 A 
ATOM     54  H   UNL A   1      48.317  27.534  29.766  1.00  0.00     0.167 HD
ATOM     55  C   UNL A   1      44.171  29.119  30.602  1.00  0.00     0.037 A 
ATOM     56  C   UNL A   1      50.677  26.614  30.783  1.00  0.00     0.037 A 
ATOM     57  C   UNL A   1      44.907  30.242  30.079  1.00  0.00     0.049 A 
ATOM     58  C   UNL A   1      50.108  27.907  31.265  1.00  0.00     0.074 A 
ATOM     59  C   UNL A   1      44.907  30.914  28.870  1.00  0.00     0.029 A 
ATOM     60  N   UNL A   1      46.087  30.586  30.697  1.00  0.00    -0.354 N 
ATOM     61  N   UNL A   1      50.180  29.028  30.596  1.00  0.00    -0.248 NA
ATOM     62  C   UNL A   1      49.045  27.851  32.259  1.00  0.00     0.031 C 
ATOM     63  C   UNL A   1      46.271  31.240  28.622  1.00  0.00     0.029 A 
ATOM     64  C   UNL A   1      47.022  30.798  29.713  1.00  0.00     0.049 A 
ATOM     65  H   UNL A   1      46.235  30.665  31.667  1.00  0.00     0.167 HD
ATOM     66  C   UNL A   1      48.951  29.646  30.786  1.00  0.00     0.074 A 
ATOM     67  C   UNL A   1      48.324  28.912  31.883  1.00  0.00     0.031 C 
ATOM     68  C   UNL A   1      48.432  30.501  29.854  1.00  0.00     0.037 A 
BRANCH  55  69
ATOM     69  C   UNL A   1      43.673  29.045  32.020  1.00  0.00     0.058 A 
ATOM     70  C   UNL A   1      44.374  28.263  32.955  1.00  0.00     0.135 A 
ATOM     71  C   UNL A   1      42.394  29.493  32.430  1.00  0.00     0.135 A 
ATOM     72  F   UNL A   1      45.587  27.771  32.658  1.00  0.00    -0.206 F 
ATOM     73  C   UNL A   1      43.819  27.901  34.182  1.00  0.00     0.059 A 
ATOM     74  C   UNL A   1      41.851  29.199  33.670  1.00  0.00     0.059 A 
ATOM     75  F   UNL A   1      41.562  30.148  31.612  1.00  0.00    -0.206 F 
ATOM     76  C   UNL A   1      42.550  28.363  34.521  1.00  0.00     0.060 A 
BRANCH  76  77
ATOM     77  S   UNL A   1      41.776  27.803  36.045  1.00  0.00     0.124 S 
ATOM     78  O   UNL A   1      42.911  27.807  36.960  1.00  0.00    -0.237 OA
ATOM     79  O   UNL A   1      40.769  28.835  36.268  1.00  0.00    -0.237 OA
ATOM     80  O   UNL A   1      41.251  26.489  35.691  1.00  0.00    -0.744 OA
ENDBRANCH  76  77
ENDBRANCH  55  69
BRANCH  56  81
ATOM     81  C   UNL A   1      51.501  25.720  31.643  1.00  0.00     0.058 A 
ATOM     82  C   UNL A   1      50.926  24.632  32.322  1.00  0.00     0.135 A 
ATOM     83  C   UNL A   1      52.911  25.752  31.610  1.00  0.00     0.135 A 
ATOM     84  F   UNL A   1      49.592  24.504  32.381  1.00  0.00    -0.206 F 
ATOM     85  C   UNL A   1      51.701  23.616  32.895  1.00  0.00     0.059 A 
ATOM     86  C   UNL A   1      53.703  24.762  32.186  1.00  0.00     0.059 A 
ATOM     87  F   UNL A   1      53.572  26.703  30.932  1.00  0.00    -0.206 F 
ATOM     88  C   UNL A   1      53.092  23.683  32.807  1.00  0.00     0.060 A 
BRANCH  88  89
ATOM     89  S   UNL A   1      54.093  22.298  33.397  1.00  0.00     0.124 S 
ATOM     90  O   UNL A   1      53.408  21.935  34.632  1.00  0.00    -0.237 OA
ATOM     91  O   UNL A   1      53.977  21.344  32.298  1.00  0.00    -0.237 OA
ATOM     92  O   UNL A   1      55.419  22.887  33.568  1.00  0.00    -0.744 OA
ENDBRANCH  88  89
ENDBRANCH  56  81
BRANCH  68  93
ATOM     93  C   UNL A   1      49.339  30.987  28.751  1.00  0.00     0.058 A 
ATOM     94  C   UNL A   1      49.702  30.218  27.629  1.00  0.00     0.135 A 
ATOM     95  C   UNL A   1      49.723  32.336  28.750  1.00  0.00     0.135 A 
ATOM     96  F   UNL A   1      49.282  28.953  27.498  1.00  0.00    -0.206 F 
ATOM     97  C   UNL A   1      50.451  30.755  26.579  1.00  0.00     0.059 A 
ATOM     98  C   UNL A   1      50.442  32.901  27.699  1.00  0.00     0.059 A 
ATOM     99  F   UNL A   1      49.351  33.141  29.759  1.00  0.00    -0.206 F 
ATOM    100  C   UNL A   1      50.815  32.100  26.622  1.00  0.00     0.060 A 
BRANCH 100 101
ATOM    101  S   UNL A   1      51.712  32.814  25.226  1.00  0.00     0.124 S 
ATOM    102  O   UNL A   1      50.947  34.027  24.958  1.00  0.00    -0.237 OA
ATOM    103  O   UNL A   1      53.049  33.015  25.777  1.00  0.00    -0.237 OA
ATOM    104  O   UNL A   1      51.622  31.779  24.197  1.00  0.00    -0.744 OA
ENDBRANCH 100 101
ENDBRANCH  68  93
ENDBRANCH  42  43
ENDBRANCH  35  37
ENDBRANCH  34  35
ENDBRANCH  33  34
ENDBRANCH  32  33
ENDBRANCH  31  32
ENDBRANCH  30  31
ENDBRANCH  29  30
ENDBRANCH  28  29
ENDBRANCH   1  28
TORSDOF 27
ENDMDL
