MODEL 1
REMARK VINA RESULT:      -8.8      0.000      0.000
REMARK SMILES CC[C@@H](C)CN(CC)C(=O)Nc1c(Br)cccc1C(=O)OCCOCCOCCOCCOC(=O)c1ccc(-c2c3nc(c(-c4c(F)cc(S(=O)(=O)[O-])cc4F)c4ccc([nH]4)c(-c4c(F)cc(S(=O)(=O)[O-])cc4F)c4nc(c(-c5c(F)cc(S(=O)(=O)[O-])cc5F)c5ccc2[nH]5)C=C4)C=C3)cc1
REMARK SMILES IDX 26 1 25 2 24 3 23 4 22 5 21 6 19 7 20 8 18 9 12 10 13 11
REMARK SMILES IDX 14 12 15 13 17 14 16 15 11 16 9 17 10 18 6 20 5 21 3 22 4 23
REMARK SMILES IDX 2 24 1 25 7 26 8 27 27 28 28 29 29 30 30 31 31 32 32 33
REMARK SMILES IDX 33 34 34 35 35 36 36 37 37 38 101 39 38 40 100 41 39 42
REMARK SMILES IDX 40 43 41 44 94 45 42 46 99 47 93 48 95 49 43 50 98 51 92 52
REMARK SMILES IDX 91 53 44 55 78 56 57 57 77 58 58 59 61 60 76 61 96 62 59 63
REMARK SMILES IDX 60 64 75 66 97 67 62 68 45 69 46 70 55 71 47 72 48 73 54 74
REMARK SMILES IDX 56 75 49 76 50 77 51 78 52 79 53 80 79 81 80 82 89 83 81 84
REMARK SMILES IDX 82 85 88 86 90 87 83 88 84 89 85 90 86 91 87 92 63 93 64 94
REMARK SMILES IDX 73 95 65 96 66 97 72 98 74 99 67 100 68 101 69 102 70 103
REMARK SMILES IDX 71 104
REMARK H PARENT 11 19 95 54 61 65
REMARK Flexibility Score: inf
ROOT
ATOM      1  C   UNL A   1      39.448  23.263  26.827  1.00  0.00     0.188 C 
ENDROOT
BRANCH   1   2
ATOM      2  C   UNL A   1      38.080  22.954  26.183  1.00  0.00     0.188 C 
BRANCH   2   3
ATOM      3  O   UNL A   1      38.129  22.037  25.102  1.00  0.00    -0.376 OA
BRANCH   3   4
ATOM      4  C   UNL A   1      36.965  21.880  24.310  1.00  0.00     0.202 C 
BRANCH   4   5
ATOM      5  C   UNL A   1      35.750  21.238  24.999  1.00  0.00     0.261 C 
BRANCH   5   6
ATOM      6  O   UNL A   1      34.784  22.160  25.533  1.00  0.00    -0.460 OA
BRANCH   6   7
ATOM      7  C   UNL A   1      33.526  21.688  25.655  1.00  0.00     0.340 C 
ATOM      8  O   UNL A   1      33.213  20.511  25.756  1.00  0.00    -0.246 OA
BRANCH   7   9
ATOM      9  C   UNL A   1      32.536  22.786  25.800  1.00  0.00     0.084 A 
ATOM     10  C   UNL A   1      32.329  23.815  24.865  1.00  0.00     0.071 A 
ATOM     11  C   UNL A   1      31.071  24.428  24.876  1.00  0.00     0.042 A 
ATOM     12  Br  UNL A   1      30.292  25.111  23.272  1.00  0.00    -0.049 Br
ATOM     13  C   UNL A   1      30.244  24.343  26.002  1.00  0.00     0.018 A 
ATOM     14  C   UNL A   1      31.713  22.705  26.940  1.00  0.00     0.018 A 
ATOM     15  C   UNL A   1      30.614  23.545  27.077  1.00  0.00     0.002 A 
BRANCH  10  16
ATOM     16  N   UNL A   1      33.359  24.201  23.988  1.00  0.00    -0.306 N 
ATOM     17  C   UNL A   1      33.635  25.368  23.341  1.00  0.00     0.321 C 
ATOM     18  O   UNL A   1      34.118  25.253  22.210  1.00  0.00    -0.248 OA
ATOM     19  H   UNL A   1      34.011  23.486  23.807  1.00  0.00     0.171 HD
BRANCH  17  20
ATOM     20  N   UNL A   1      33.545  26.604  23.973  1.00  0.00    -0.325 N 
BRANCH  20  21
ATOM     21  C   UNL A   1      33.945  26.640  25.396  1.00  0.00     0.124 C 
BRANCH  21  22
ATOM     22  C   UNL A   1      33.580  27.965  26.121  1.00  0.00     0.005 C 
ATOM     23  C   UNL A   1      34.849  28.612  26.691  1.00  0.00     0.009 C 
BRANCH  22  24
ATOM     24  C   UNL A   1      32.525  27.722  27.216  1.00  0.00     0.002 C 
ATOM     25  C   UNL A   1      31.095  27.737  26.718  1.00  0.00     0.004 C 
ENDBRANCH  22  24
ENDBRANCH  21  22
ENDBRANCH  20  21
BRANCH  20  26
ATOM     26  C   UNL A   1      32.908  27.833  23.480  1.00  0.00     0.118 C 
ATOM     27  C   UNL A   1      33.727  28.550  22.406  1.00  0.00     0.027 C 
ENDBRANCH  20  26
ENDBRANCH  17  20
ENDBRANCH  10  16
ENDBRANCH   7   9
ENDBRANCH   6   7
ENDBRANCH   5   6
ENDBRANCH   4   5
ENDBRANCH   3   4
ENDBRANCH   2   3
ENDBRANCH   1   2
BRANCH   1  28
ATOM     28  O   UNL A   1      40.626  22.705  26.268  1.00  0.00    -0.377 OA
BRANCH  28  29
ATOM     29  C   UNL A   1      41.333  21.683  26.964  1.00  0.00     0.188 C 
BRANCH  29  30
ATOM     30  C   UNL A   1      42.432  20.851  26.263  1.00  0.00     0.188 C 
BRANCH  30  31
ATOM     31  O   UNL A   1      43.160  21.552  25.264  1.00  0.00    -0.376 OA
BRANCH  31  32
ATOM     32  C   UNL A   1      44.242  22.348  25.714  1.00  0.00     0.202 C 
BRANCH  32  33
ATOM     33  C   UNL A   1      44.116  23.848  25.419  1.00  0.00     0.261 C 
BRANCH  33  34
ATOM     34  O   UNL A   1      43.399  24.617  26.399  1.00  0.00    -0.460 OA
BRANCH  34  35
ATOM     35  C   UNL A   1      42.658  25.660  25.961  1.00  0.00     0.338 C 
ATOM     36  O   UNL A   1      42.231  25.842  24.834  1.00  0.00    -0.246 OA
BRANCH  35  37
ATOM     37  C   UNL A   1      42.301  26.467  27.144  1.00  0.00     0.060 A 
ATOM     38  C   UNL A   1      42.913  27.710  27.355  1.00  0.00     0.016 A 
ATOM     39  C   UNL A   1      41.327  25.999  28.023  1.00  0.00     0.016 A 
ATOM     40  C   UNL A   1      42.544  28.495  28.452  1.00  0.00     0.010 A 
ATOM     41  C   UNL A   1      40.978  26.774  29.129  1.00  0.00     0.010 A 
ATOM     42  C   UNL A   1      41.588  28.021  29.359  1.00  0.00    -0.014 A 
BRANCH  42  43
ATOM     43  C   UNL A   1      41.350  28.713  30.651  1.00  0.00     0.031 A 
ATOM     44  C   UNL A   1      40.220  29.705  30.710  1.00  0.00     0.074 A 
ATOM     45  C   UNL A   1      42.129  28.507  31.730  1.00  0.00     0.049 A 
ATOM     46  N   UNL A   1      39.883  30.526  31.669  1.00  0.00    -0.248 NA
ATOM     47  C   UNL A   1      39.359  29.787  29.518  1.00  0.00     0.031 C 
ATOM     48  C   UNL A   1      43.235  27.555  31.813  1.00  0.00     0.029 A 
ATOM     49  N   UNL A   1      42.125  29.120  32.961  1.00  0.00    -0.354 N 
ATOM     50  C   UNL A   1      38.787  31.232  31.190  1.00  0.00     0.074 A 
ATOM     51  C   UNL A   1      38.534  30.768  29.844  1.00  0.00     0.031 C 
ATOM     52  C   UNL A   1      43.833  27.681  33.012  1.00  0.00     0.029 A 
ATOM     53  C   UNL A   1      43.163  28.731  33.776  1.00  0.00     0.049 A 
ATOM     54  H   UNL A   1      41.442  29.775  33.233  1.00  0.00     0.167 HD
ATOM     55  C   UNL A   1      38.048  32.173  31.820  1.00  0.00     0.037 A 
ATOM     56  C   UNL A   1      43.544  29.191  34.987  1.00  0.00     0.037 A 
ATOM     57  C   UNL A   1      38.291  32.617  33.165  1.00  0.00     0.049 A 
ATOM     58  C   UNL A   1      42.735  30.280  35.650  1.00  0.00     0.074 A 
ATOM     59  C   UNL A   1      37.565  33.526  33.913  1.00  0.00     0.029 A 
ATOM     60  N   UNL A   1      39.344  32.192  33.961  1.00  0.00    -0.354 N 
ATOM     61  N   UNL A   1      41.666  30.899  35.209  1.00  0.00    -0.248 NA
ATOM     62  C   UNL A   1      43.178  30.726  36.980  1.00  0.00     0.031 C 
ATOM     63  C   UNL A   1      38.211  33.696  35.139  1.00  0.00     0.029 A 
ATOM     64  C   UNL A   1      39.306  32.846  35.181  1.00  0.00     0.049 A 
ATOM     65  H   UNL A   1      40.018  31.525  33.699  1.00  0.00     0.167 HD
ATOM     66  C   UNL A   1      41.292  31.782  36.218  1.00  0.00     0.074 A 
ATOM     67  C   UNL A   1      42.242  31.611  37.296  1.00  0.00     0.031 C 
ATOM     68  C   UNL A   1      40.252  32.654  36.251  1.00  0.00     0.037 A 
BRANCH  55  69
ATOM     69  C   UNL A   1      36.919  32.801  31.055  1.00  0.00     0.058 A 
ATOM     70  C   UNL A   1      37.135  33.834  30.130  1.00  0.00     0.135 A 
ATOM     71  C   UNL A   1      35.607  32.331  31.219  1.00  0.00     0.135 A 
ATOM     72  F   UNL A   1      38.367  34.339  29.952  1.00  0.00    -0.206 F 
ATOM     73  C   UNL A   1      36.086  34.390  29.406  1.00  0.00     0.059 A 
ATOM     74  C   UNL A   1      34.547  32.853  30.486  1.00  0.00     0.059 A 
ATOM     75  F   UNL A   1      35.344  31.351  32.099  1.00  0.00    -0.206 F 
ATOM     76  C   UNL A   1      34.795  33.889  29.587  1.00  0.00     0.060 A 
BRANCH  76  77
ATOM     77  S   UNL A   1      33.451  34.602  28.618  1.00  0.00     0.124 S 
ATOM     78  O   UNL A   1      32.557  35.083  29.667  1.00  0.00    -0.237 OA
ATOM     79  O   UNL A   1      34.137  35.635  27.848  1.00  0.00    -0.237 OA
ATOM     80  O   UNL A   1      32.954  33.471  27.840  1.00  0.00    -0.744 OA
ENDBRANCH  76  77
ENDBRANCH  55  69
BRANCH  56  81
ATOM     81  C   UNL A   1      44.759  28.642  35.653  1.00  0.00     0.058 A 
ATOM     82  C   UNL A   1      46.034  29.166  35.392  1.00  0.00     0.135 A 
ATOM     83  C   UNL A   1      44.672  27.558  36.542  1.00  0.00     0.135 A 
ATOM     84  F   UNL A   1      46.175  30.192  34.539  1.00  0.00    -0.206 F 
ATOM     85  C   UNL A   1      47.179  28.625  35.969  1.00  0.00     0.059 A 
ATOM     86  C   UNL A   1      45.800  27.018  37.155  1.00  0.00     0.059 A 
ATOM     87  F   UNL A   1      43.476  27.020  36.829  1.00  0.00    -0.206 F 
ATOM     88  C   UNL A   1      47.051  27.549  36.851  1.00  0.00     0.060 A 
BRANCH  88  89
ATOM     89  S   UNL A   1      48.546  26.875  37.610  1.00  0.00     0.124 S 
ATOM     90  O   UNL A   1      48.142  25.501  37.884  1.00  0.00    -0.237 OA
ATOM     91  O   UNL A   1      49.533  27.049  36.548  1.00  0.00    -0.237 OA
ATOM     92  O   UNL A   1      48.740  27.721  38.783  1.00  0.00    -0.744 OA
ENDBRANCH  88  89
ENDBRANCH  56  81
BRANCH  68  93
ATOM     93  C   UNL A   1      40.054  33.465  37.502  1.00  0.00     0.058 A 
ATOM     94  C   UNL A   1      40.715  34.686  37.706  1.00  0.00     0.135 A 
ATOM     95  C   UNL A   1      39.128  33.052  38.476  1.00  0.00     0.135 A 
ATOM     96  F   UNL A   1      41.613  35.126  36.810  1.00  0.00    -0.206 F 
ATOM     97  C   UNL A   1      40.479  35.460  38.837  1.00  0.00     0.059 A 
ATOM     98  C   UNL A   1      38.854  33.824  39.600  1.00  0.00     0.059 A 
ATOM     99  F   UNL A   1      38.458  31.899  38.324  1.00  0.00    -0.206 F 
ATOM    100  C   UNL A   1      39.542  35.024  39.776  1.00  0.00     0.060 A 
BRANCH 100 101
ATOM    101  S   UNL A   1      39.209  36.062  41.216  1.00  0.00     0.124 S 
ATOM    102  O   UNL A   1      40.195  35.568  42.170  1.00  0.00    -0.237 OA
ATOM    103  O   UNL A   1      39.447  37.404  40.694  1.00  0.00    -0.237 OA
ATOM    104  O   UNL A   1      37.817  35.761  41.539  1.00  0.00    -0.744 OA
ENDBRANCH 100 101
ENDBRANCH  68  93
ENDBRANCH  42  43
ENDBRANCH  35  37
ENDBRANCH  34  35
ENDBRANCH  33  34
ENDBRANCH  32  33
ENDBRANCH  31  32
ENDBRANCH  30  31
ENDBRANCH  29  30
ENDBRANCH  28  29
ENDBRANCH   1  28
TORSDOF 29
ENDMDL
MODEL 2
REMARK VINA RESULT:      -8.4      1.383      2.483
REMARK SMILES CC[C@@H](C)CN(CC)C(=O)Nc1c(Br)cccc1C(=O)OCCOCCOCCOCCOC(=O)c1ccc(-c2c3nc(c(-c4c(F)cc(S(=O)(=O)[O-])cc4F)c4ccc([nH]4)c(-c4c(F)cc(S(=O)(=O)[O-])cc4F)c4nc(c(-c5c(F)cc(S(=O)(=O)[O-])cc5F)c5ccc2[nH]5)C=C4)C=C3)cc1
REMARK SMILES IDX 26 1 25 2 24 3 23 4 22 5 21 6 19 7 20 8 18 9 12 10 13 11
REMARK SMILES IDX 14 12 15 13 17 14 16 15 11 16 9 17 10 18 6 20 5 21 3 22 4 23
REMARK SMILES IDX 2 24 1 25 7 26 8 27 27 28 28 29 29 30 30 31 31 32 32 33
REMARK SMILES IDX 33 34 34 35 35 36 36 37 37 38 101 39 38 40 100 41 39 42
REMARK SMILES IDX 40 43 41 44 94 45 42 46 99 47 93 48 95 49 43 50 98 51 92 52
REMARK SMILES IDX 91 53 44 55 78 56 57 57 77 58 58 59 61 60 76 61 96 62 59 63
REMARK SMILES IDX 60 64 75 66 97 67 62 68 45 69 46 70 55 71 47 72 48 73 54 74
REMARK SMILES IDX 56 75 49 76 50 77 51 78 52 79 53 80 79 81 80 82 89 83 81 84
REMARK SMILES IDX 82 85 88 86 90 87 83 88 84 89 85 90 86 91 87 92 63 93 64 94
REMARK SMILES IDX 73 95 65 96 66 97 72 98 74 99 67 100 68 101 69 102 70 103
REMARK SMILES IDX 71 104
REMARK H PARENT 11 19 95 54 61 65
REMARK Flexibility Score: inf
ROOT
ATOM      1  C   UNL A   1      39.011  23.304  26.705  1.00  0.00     0.188 C 
ENDROOT
BRANCH   1   2
ATOM      2  C   UNL A   1      37.648  23.071  26.019  1.00  0.00     0.188 C 
BRANCH   2   3
ATOM      3  O   UNL A   1      37.624  21.985  25.107  1.00  0.00    -0.376 OA
BRANCH   3   4
ATOM      4  C   UNL A   1      36.695  22.034  24.038  1.00  0.00     0.202 C 
BRANCH   4   5
ATOM      5  C   UNL A   1      35.211  22.134  24.427  1.00  0.00     0.261 C 
BRANCH   5   6
ATOM      6  O   UNL A   1      34.641  23.453  24.356  1.00  0.00    -0.460 OA
BRANCH   6   7
ATOM      7  C   UNL A   1      33.337  23.512  24.018  1.00  0.00     0.340 C 
ATOM      8  O   UNL A   1      32.457  22.774  24.436  1.00  0.00    -0.246 OA
BRANCH   7   9
ATOM      9  C   UNL A   1      33.041  24.692  23.164  1.00  0.00     0.084 A 
ATOM     10  C   UNL A   1      33.130  26.032  23.579  1.00  0.00     0.071 A 
ATOM     11  C   UNL A   1      33.336  26.986  22.576  1.00  0.00     0.042 A 
ATOM     12  Br  UNL A   1      34.334  28.578  22.919  1.00  0.00    -0.049 Br
ATOM     13  C   UNL A   1      33.032  26.696  21.241  1.00  0.00     0.018 A 
ATOM     14  C   UNL A   1      32.724  24.397  21.825  1.00  0.00     0.018 A 
ATOM     15  C   UNL A   1      32.637  25.414  20.881  1.00  0.00     0.002 A 
BRANCH  10  16
ATOM     16  N   UNL A   1      32.996  26.369  24.939  1.00  0.00    -0.306 N 
ATOM     17  C   UNL A   1      32.642  27.520  25.576  1.00  0.00     0.321 C 
ATOM     18  O   UNL A   1      33.226  27.745  26.640  1.00  0.00    -0.248 OA
ATOM     19  H   UNL A   1      33.199  25.625  25.551  1.00  0.00     0.171 HD
BRANCH  17  20
ATOM     20  N   UNL A   1      31.571  28.300  25.152  1.00  0.00    -0.325 N 
BRANCH  20  21
ATOM     21  C   UNL A   1      30.584  27.636  24.275  1.00  0.00     0.124 C 
BRANCH  21  22
ATOM     22  C   UNL A   1      29.629  28.617  23.541  1.00  0.00     0.005 C 
ATOM     23  C   UNL A   1      28.239  27.983  23.405  1.00  0.00     0.009 C 
BRANCH  22  24
ATOM     24  C   UNL A   1      30.203  29.028  22.174  1.00  0.00     0.002 C 
ATOM     25  C   UNL A   1      29.516  30.220  21.541  1.00  0.00     0.004 C 
ENDBRANCH  22  24
ENDBRANCH  21  22
ENDBRANCH  20  21
BRANCH  20  26
ATOM     26  C   UNL A   1      31.397  29.754  25.286  1.00  0.00     0.118 C 
ATOM     27  C   UNL A   1      32.231  30.362  26.415  1.00  0.00     0.027 C 
ENDBRANCH  20  26
ENDBRANCH  17  20
ENDBRANCH  10  16
ENDBRANCH   7   9
ENDBRANCH   6   7
ENDBRANCH   5   6
ENDBRANCH   4   5
ENDBRANCH   3   4
ENDBRANCH   2   3
ENDBRANCH   1   2
BRANCH   1  28
ATOM     28  O   UNL A   1      40.171  22.674  26.189  1.00  0.00    -0.377 OA
BRANCH  28  29
ATOM     29  C   UNL A   1      40.967  21.843  27.028  1.00  0.00     0.188 C 
BRANCH  29  30
ATOM     30  C   UNL A   1      42.035  20.895  26.434  1.00  0.00     0.188 C 
BRANCH  30  31
ATOM     31  O   UNL A   1      42.902  21.499  25.485  1.00  0.00    -0.376 OA
BRANCH  31  32
ATOM     32  C   UNL A   1      44.045  22.157  26.004  1.00  0.00     0.202 C 
BRANCH  32  33
ATOM     33  C   UNL A   1      44.087  23.672  25.771  1.00  0.00     0.261 C 
BRANCH  33  34
ATOM     34  O   UNL A   1      43.369  24.469  26.728  1.00  0.00    -0.460 OA
BRANCH  34  35
ATOM     35  C   UNL A   1      42.599  25.476  26.256  1.00  0.00     0.338 C 
ATOM     36  O   UNL A   1      42.156  25.602  25.129  1.00  0.00    -0.246 OA
BRANCH  35  37
ATOM     37  C   UNL A   1      42.238  26.323  27.410  1.00  0.00     0.060 A 
ATOM     38  C   UNL A   1      42.728  27.633  27.499  1.00  0.00     0.016 A 
ATOM     39  C   UNL A   1      41.377  25.822  28.384  1.00  0.00     0.016 A 
ATOM     40  C   UNL A   1      42.351  28.451  28.568  1.00  0.00     0.010 A 
ATOM     41  C   UNL A   1      41.021  26.633  29.462  1.00  0.00     0.010 A 
ATOM     42  C   UNL A   1      41.511  27.947  29.569  1.00  0.00    -0.014 A 
BRANCH  42  43
ATOM     43  C   UNL A   1      41.286  28.700  30.830  1.00  0.00     0.031 A 
ATOM     44  C   UNL A   1      40.165  29.703  30.850  1.00  0.00     0.074 A 
ATOM     45  C   UNL A   1      42.069  28.536  31.913  1.00  0.00     0.049 A 
ATOM     46  N   UNL A   1      39.841  30.570  31.772  1.00  0.00    -0.248 NA
ATOM     47  C   UNL A   1      39.298  29.738  29.659  1.00  0.00     0.031 C 
ATOM     48  C   UNL A   1      43.168  27.579  32.034  1.00  0.00     0.029 A 
ATOM     49  N   UNL A   1      42.078  29.205  33.115  1.00  0.00    -0.354 N 
ATOM     50  C   UNL A   1      38.748  31.263  31.267  1.00  0.00     0.074 A 
ATOM     51  C   UNL A   1      38.483  30.741  29.945  1.00  0.00     0.031 C 
ATOM     52  C   UNL A   1      43.774  27.754  33.222  1.00  0.00     0.029 A 
ATOM     53  C   UNL A   1      43.117  28.844  33.941  1.00  0.00     0.049 A 
ATOM     54  H   UNL A   1      41.402  29.878  33.360  1.00  0.00     0.167 HD
ATOM     55  C   UNL A   1      38.021  32.238  31.857  1.00  0.00     0.037 A 
ATOM     56  C   UNL A   1      43.510  29.356  35.127  1.00  0.00     0.037 A 
ATOM     57  C   UNL A   1      38.275  32.741  33.180  1.00  0.00     0.049 A 
ATOM     58  C   UNL A   1      42.713  30.481  35.745  1.00  0.00     0.074 A 
ATOM     59  C   UNL A   1      37.561  33.690  33.888  1.00  0.00     0.029 A 
ATOM     60  N   UNL A   1      39.329  32.343  33.989  1.00  0.00    -0.354 N 
ATOM     61  N   UNL A   1      41.647  31.089  35.282  1.00  0.00    -0.248 NA
ATOM     62  C   UNL A   1      43.168  30.983  37.051  1.00  0.00     0.031 C 
ATOM     63  C   UNL A   1      38.216  33.909  35.103  1.00  0.00     0.029 A 
ATOM     64  C   UNL A   1      39.304  33.053  35.177  1.00  0.00     0.049 A 
ATOM     65  H   UNL A   1      39.996  31.659  33.753  1.00  0.00     0.167 HD
ATOM     66  C   UNL A   1      41.286  32.020  36.252  1.00  0.00     0.074 A 
ATOM     67  C   UNL A   1      42.241  31.890  37.331  1.00  0.00     0.031 C 
ATOM     68  C   UNL A   1      40.255  32.901  36.250  1.00  0.00     0.037 A 
BRANCH  55  69
ATOM     69  C   UNL A   1      36.893  32.841  31.070  1.00  0.00     0.058 A 
ATOM     70  C   UNL A   1      35.551  32.530  31.341  1.00  0.00     0.135 A 
ATOM     71  C   UNL A   1      37.159  33.777  30.058  1.00  0.00     0.135 A 
ATOM     72  F   UNL A   1      35.242  31.623  32.282  1.00  0.00    -0.206 F 
ATOM     73  C   UNL A   1      34.513  33.115  30.625  1.00  0.00     0.059 A 
ATOM     74  C   UNL A   1      36.135  34.395  29.348  1.00  0.00     0.059 A 
ATOM     75  F   UNL A   1      38.426  34.101  29.753  1.00  0.00    -0.206 F 
ATOM     76  C   UNL A   1      34.815  34.050  29.633  1.00  0.00     0.060 A 
BRANCH  76  77
ATOM     77  S   UNL A   1      33.454  34.822  28.735  1.00  0.00     0.124 S 
ATOM     78  O   UNL A   1      32.459  34.982  29.791  1.00  0.00    -0.237 OA
ATOM     79  O   UNL A   1      34.063  36.055  28.246  1.00  0.00    -0.237 OA
ATOM     80  O   UNL A   1      33.123  33.840  27.707  1.00  0.00    -0.744 OA
ENDBRANCH  76  77
ENDBRANCH  55  69
BRANCH  56  81
ATOM     81  C   UNL A   1      44.723  28.826  35.811  1.00  0.00     0.058 A 
ATOM     82  C   UNL A   1      44.635  27.792  36.755  1.00  0.00     0.135 A 
ATOM     83  C   UNL A   1      45.994  29.366  35.556  1.00  0.00     0.135 A 
ATOM     84  F   UNL A   1      43.442  27.252  37.048  1.00  0.00    -0.206 F 
ATOM     85  C   UNL A   1      45.756  27.328  37.438  1.00  0.00     0.059 A 
ATOM     86  C   UNL A   1      47.135  28.898  36.204  1.00  0.00     0.059 A 
ATOM     87  F   UNL A   1      46.136  30.355  34.660  1.00  0.00    -0.206 F 
ATOM     88  C   UNL A   1      47.003  27.887  37.155  1.00  0.00     0.060 A 
BRANCH  88  89
ATOM     89  S   UNL A   1      48.451  27.255  38.031  1.00  0.00     0.124 S 
ATOM     90  O   UNL A   1      48.544  28.183  39.153  1.00  0.00    -0.237 OA
ATOM     91  O   UNL A   1      48.038  25.895  38.363  1.00  0.00    -0.237 OA
ATOM     92  O   UNL A   1      49.517  27.356  37.040  1.00  0.00    -0.744 OA
ENDBRANCH  88  89
ENDBRANCH  56  81
BRANCH  68  93
ATOM     93  C   UNL A   1      40.071  33.771  37.464  1.00  0.00     0.058 A 
ATOM     94  C   UNL A   1      40.777  34.972  37.629  1.00  0.00     0.135 A 
ATOM     95  C   UNL A   1      39.114  33.434  38.438  1.00  0.00     0.135 A 
ATOM     96  F   UNL A   1      41.704  35.339  36.730  1.00  0.00    -0.206 F 
ATOM     97  C   UNL A   1      40.555  35.801  38.724  1.00  0.00     0.059 A 
ATOM     98  C   UNL A   1      38.855  34.262  39.525  1.00  0.00     0.059 A 
ATOM     99  F   UNL A   1      38.401  32.303  38.323  1.00  0.00    -0.206 F 
ATOM    100  C   UNL A   1      39.587  35.440  39.664  1.00  0.00     0.060 A 
BRANCH 100 101
ATOM    101  S   UNL A   1      39.275  36.549  41.055  1.00  0.00     0.124 S 
ATOM    102  O   UNL A   1      38.516  37.619  40.415  1.00  0.00    -0.237 OA
ATOM    103  O   UNL A   1      38.521  35.697  41.969  1.00  0.00    -0.237 OA
ATOM    104  O   UNL A   1      40.614  36.914  41.508  1.00  0.00    -0.744 OA
ENDBRANCH 100 101
ENDBRANCH  68  93
ENDBRANCH  42  43
ENDBRANCH  35  37
ENDBRANCH  34  35
ENDBRANCH  33  34
ENDBRANCH  32  33
ENDBRANCH  31  32
ENDBRANCH  30  31
ENDBRANCH  29  30
ENDBRANCH  28  29
ENDBRANCH   1  28
TORSDOF 29
ENDMDL
MODEL 3
REMARK VINA RESULT:      -8.1      2.655      8.651
REMARK SMILES CC[C@@H](C)CN(CC)C(=O)Nc1c(Br)cccc1C(=O)OCCOCCOCCOCCOC(=O)c1ccc(-c2c3nc(c(-c4c(F)cc(S(=O)(=O)[O-])cc4F)c4ccc([nH]4)c(-c4c(F)cc(S(=O)(=O)[O-])cc4F)c4nc(c(-c5c(F)cc(S(=O)(=O)[O-])cc5F)c5ccc2[nH]5)C=C4)C=C3)cc1
REMARK SMILES IDX 26 1 25 2 24 3 23 4 22 5 21 6 19 7 20 8 18 9 12 10 13 11
REMARK SMILES IDX 14 12 15 13 17 14 16 15 11 16 9 17 10 18 6 20 5 21 3 22 4 23
REMARK SMILES IDX 2 24 1 25 7 26 8 27 27 28 28 29 29 30 30 31 31 32 32 33
REMARK SMILES IDX 33 34 34 35 35 36 36 37 37 38 101 39 38 40 100 41 39 42
REMARK SMILES IDX 40 43 41 44 94 45 42 46 99 47 93 48 95 49 43 50 98 51 92 52
REMARK SMILES IDX 91 53 44 55 78 56 57 57 77 58 58 59 61 60 76 61 96 62 59 63
REMARK SMILES IDX 60 64 75 66 97 67 62 68 45 69 46 70 55 71 47 72 48 73 54 74
REMARK SMILES IDX 56 75 49 76 50 77 51 78 52 79 53 80 79 81 80 82 89 83 81 84
REMARK SMILES IDX 82 85 88 86 90 87 83 88 84 89 85 90 86 91 87 92 63 93 64 94
REMARK SMILES IDX 73 95 65 96 66 97 72 98 74 99 67 100 68 101 69 102 70 103
REMARK SMILES IDX 71 104
REMARK H PARENT 11 19 95 54 61 65
REMARK Flexibility Score: inf
ROOT
ATOM      1  C   UNL A   1      40.114  22.766  26.770  1.00  0.00     0.188 C 
ENDROOT
BRANCH   1   2
ATOM      2  C   UNL A   1      38.689  22.793  26.180  1.00  0.00     0.188 C 
BRANCH   2   3
ATOM      3  O   UNL A   1      38.107  21.515  25.982  1.00  0.00    -0.376 OA
BRANCH   3   4
ATOM      4  C   UNL A   1      37.287  21.326  24.841  1.00  0.00     0.202 C 
BRANCH   4   5
ATOM      5  C   UNL A   1      35.790  21.627  25.017  1.00  0.00     0.261 C 
BRANCH   5   6
ATOM      6  O   UNL A   1      35.261  22.654  24.161  1.00  0.00    -0.460 OA
BRANCH   6   7
ATOM      7  C   UNL A   1      34.794  23.755  24.782  1.00  0.00     0.340 C 
ATOM      8  O   UNL A   1      35.437  24.482  25.525  1.00  0.00    -0.246 OA
BRANCH   7   9
ATOM      9  C   UNL A   1      33.411  24.089  24.351  1.00  0.00     0.084 A 
ATOM     10  C   UNL A   1      33.046  25.238  23.629  1.00  0.00     0.071 A 
ATOM     11  C   UNL A   1      31.873  25.155  22.871  1.00  0.00     0.042 A 
ATOM     12  Br  UNL A   1      31.684  26.125  21.237  1.00  0.00    -0.049 Br
ATOM     13  C   UNL A   1      30.907  24.182  23.152  1.00  0.00     0.018 A 
ATOM     14  C   UNL A   1      32.440  23.113  24.646  1.00  0.00     0.018 A 
ATOM     15  C   UNL A   1      31.160  23.209  24.111  1.00  0.00     0.002 A 
BRANCH  10  16
ATOM     16  N   UNL A   1      33.830  26.405  23.700  1.00  0.00    -0.306 N 
ATOM     17  C   UNL A   1      33.529  27.729  23.586  1.00  0.00     0.321 C 
ATOM     18  O   UNL A   1      34.384  28.427  23.032  1.00  0.00    -0.248 OA
ATOM     19  H   UNL A   1      34.784  26.230  23.865  1.00  0.00     0.171 HD
BRANCH  17  20
ATOM     20  N   UNL A   1      32.418  28.292  24.206  1.00  0.00    -0.325 N 
BRANCH  20  21
ATOM     21  C   UNL A   1      31.491  29.042  23.332  1.00  0.00     0.124 C 
BRANCH  21  22
ATOM     22  C   UNL A   1      30.031  29.098  23.860  1.00  0.00     0.005 C 
ATOM     23  C   UNL A   1      29.259  27.861  23.381  1.00  0.00     0.009 C 
BRANCH  22  24
ATOM     24  C   UNL A   1      29.338  30.402  23.429  1.00  0.00     0.002 C 
ATOM     25  C   UNL A   1      27.865  30.251  23.112  1.00  0.00     0.004 C 
ENDBRANCH  22  24
ENDBRANCH  21  22
ENDBRANCH  20  21
BRANCH  20  26
ATOM     26  C   UNL A   1      32.149  28.422  25.646  1.00  0.00     0.118 C 
ATOM     27  C   UNL A   1      31.671  27.120  26.291  1.00  0.00     0.027 C 
ENDBRANCH  20  26
ENDBRANCH  17  20
ENDBRANCH  10  16
ENDBRANCH   7   9
ENDBRANCH   6   7
ENDBRANCH   5   6
ENDBRANCH   4   5
ENDBRANCH   3   4
ENDBRANCH   2   3
ENDBRANCH   1   2
BRANCH   1  28
ATOM     28  O   UNL A   1      41.037  21.787  26.324  1.00  0.00    -0.377 OA
BRANCH  28  29
ATOM     29  C   UNL A   1      41.262  20.611  27.096  1.00  0.00     0.188 C 
BRANCH  29  30
ATOM     30  C   UNL A   1      41.651  19.274  26.423  1.00  0.00     0.188 C 
BRANCH  30  31
ATOM     31  O   UNL A   1      42.337  19.410  25.186  1.00  0.00    -0.376 OA
BRANCH  31  32
ATOM     32  C   UNL A   1      43.741  19.221  25.220  1.00  0.00     0.202 C 
BRANCH  32  33
ATOM     33  C   UNL A   1      44.574  20.438  24.798  1.00  0.00     0.261 C 
BRANCH  33  34
ATOM     34  O   UNL A   1      43.919  21.712  24.916  1.00  0.00    -0.460 OA
BRANCH  34  35
ATOM     35  C   UNL A   1      44.619  22.814  24.566  1.00  0.00     0.338 C 
ATOM     36  O   UNL A   1      45.086  23.076  23.472  1.00  0.00    -0.246 OA
BRANCH  35  37
ATOM     37  C   UNL A   1      44.568  23.743  25.712  1.00  0.00     0.060 A 
ATOM     38  C   UNL A   1      44.038  23.316  26.937  1.00  0.00     0.016 A 
ATOM     39  C   UNL A   1      45.084  25.029  25.574  1.00  0.00     0.016 A 
ATOM     40  C   UNL A   1      44.030  24.180  28.036  1.00  0.00     0.010 A 
ATOM     41  C   UNL A   1      45.053  25.898  26.665  1.00  0.00     0.010 A 
ATOM     42  C   UNL A   1      44.518  25.486  27.900  1.00  0.00    -0.014 A 
BRANCH  42  43
ATOM     43  C   UNL A   1      44.306  26.497  28.967  1.00  0.00     0.031 A 
ATOM     44  C   UNL A   1      45.323  26.563  30.074  1.00  0.00     0.074 A 
ATOM     45  C   UNL A   1      43.230  27.306  28.985  1.00  0.00     0.049 A 
ATOM     46  N   UNL A   1      45.306  27.262  31.177  1.00  0.00    -0.248 NA
ATOM     47  C   UNL A   1      46.517  25.716  29.915  1.00  0.00     0.031 C 
ATOM     48  C   UNL A   1      42.188  27.362  27.961  1.00  0.00     0.029 A 
ATOM     49  N   UNL A   1      42.818  28.219  29.928  1.00  0.00    -0.354 N 
ATOM     50  C   UNL A   1      46.474  26.925  31.851  1.00  0.00     0.074 A 
ATOM     51  C   UNL A   1      47.161  25.937  31.050  1.00  0.00     0.031 C 
ATOM     52  C   UNL A   1      41.234  28.226  28.352  1.00  0.00     0.029 A 
ATOM     53  C   UNL A   1      41.588  28.774  29.660  1.00  0.00     0.049 A 
ATOM     54  H   UNL A   1      43.355  28.454  30.719  1.00  0.00     0.167 HD
ATOM     55  C   UNL A   1      46.940  27.407  33.026  1.00  0.00     0.037 A 
ATOM     56  C   UNL A   1      40.823  29.604  30.401  1.00  0.00     0.037 A 
ATOM     57  C   UNL A   1      46.263  28.405  33.809  1.00  0.00     0.049 A 
ATOM     58  C   UNL A   1      41.339  30.089  31.734  1.00  0.00     0.074 A 
ATOM     59  C   UNL A   1      46.680  28.999  34.987  1.00  0.00     0.029 A 
ATOM     60  N   UNL A   1      45.026  28.949  33.500  1.00  0.00    -0.354 N 
ATOM     61  N   UNL A   1      42.472  29.807  32.334  1.00  0.00    -0.248 NA
ATOM     62  C   UNL A   1      40.478  31.014  32.489  1.00  0.00     0.031 C 
ATOM     63  C   UNL A   1      45.670  29.859  35.421  1.00  0.00     0.029 A 
ATOM     64  C   UNL A   1      44.648  29.848  34.483  1.00  0.00     0.049 A 
ATOM     65  H   UNL A   1      44.494  28.729  32.702  1.00  0.00     0.167 HD
ATOM     66  C   UNL A   1      42.472  30.542  33.516  1.00  0.00     0.074 A 
ATOM     67  C   UNL A   1      41.233  31.288  33.544  1.00  0.00     0.031 C 
ATOM     68  C   UNL A   1      43.416  30.596  34.489  1.00  0.00     0.037 A 
BRANCH  55  69
ATOM     69  C   UNL A   1      48.232  26.848  33.546  1.00  0.00     0.058 A 
ATOM     70  C   UNL A   1      49.469  27.445  33.256  1.00  0.00     0.135 A 
ATOM     71  C   UNL A   1      48.228  25.721  34.384  1.00  0.00     0.135 A 
ATOM     72  F   UNL A   1      49.532  28.510  32.440  1.00  0.00    -0.206 F 
ATOM     73  C   UNL A   1      50.658  26.935  33.766  1.00  0.00     0.059 A 
ATOM     74  C   UNL A   1      49.402  25.211  34.927  1.00  0.00     0.059 A 
ATOM     75  F   UNL A   1      47.072  25.106  34.684  1.00  0.00    -0.206 F 
ATOM     76  C   UNL A   1      50.613  25.821  34.605  1.00  0.00     0.060 A 
BRANCH  76  77
ATOM     77  S   UNL A   1      52.163  25.191  35.282  1.00  0.00     0.124 S 
ATOM     78  O   UNL A   1      52.668  26.361  35.993  1.00  0.00    -0.237 OA
ATOM     79  O   UNL A   1      51.709  24.086  36.122  1.00  0.00    -0.237 OA
ATOM     80  O   UNL A   1      52.920  24.802  34.097  1.00  0.00    -0.744 OA
ENDBRANCH  76  77
ENDBRANCH  55  69
BRANCH  56  81
ATOM     81  C   UNL A   1      39.478  30.024  29.914  1.00  0.00     0.058 A 
ATOM     82  C   UNL A   1      39.241  31.332  29.465  1.00  0.00     0.135 A 
ATOM     83  C   UNL A   1      38.394  29.132  29.916  1.00  0.00     0.135 A 
ATOM     84  F   UNL A   1      40.240  32.228  29.457  1.00  0.00    -0.206 F 
ATOM     85  C   UNL A   1      37.977  31.748  29.059  1.00  0.00     0.059 A 
ATOM     86  C   UNL A   1      37.125  29.515  29.487  1.00  0.00     0.059 A 
ATOM     87  F   UNL A   1      38.565  27.867  30.334  1.00  0.00    -0.206 F 
ATOM     88  C   UNL A   1      36.924  30.831  29.073  1.00  0.00     0.060 A 
BRANCH  88  89
ATOM     89  S   UNL A   1      35.294  31.380  28.519  1.00  0.00     0.124 S 
ATOM     90  O   UNL A   1      35.646  32.427  27.566  1.00  0.00    -0.237 OA
ATOM     91  O   UNL A   1      34.738  30.158  27.946  1.00  0.00    -0.237 OA
ATOM     92  O   UNL A   1      34.655  31.836  29.748  1.00  0.00    -0.744 OA
ENDBRANCH  88  89
ENDBRANCH  56  81
BRANCH  68  93
ATOM     93  C   UNL A   1      43.175  31.520  35.652  1.00  0.00     0.058 A 
ATOM     94  C   UNL A   1      43.547  32.872  35.613  1.00  0.00     0.135 A 
ATOM     95  C   UNL A   1      42.491  31.062  36.791  1.00  0.00     0.135 A 
ATOM     96  F   UNL A   1      44.206  33.362  34.550  1.00  0.00    -0.206 F 
ATOM     97  C   UNL A   1      43.265  33.734  36.668  1.00  0.00     0.059 A 
ATOM     98  C   UNL A   1      42.172  31.913  37.845  1.00  0.00     0.059 A 
ATOM     99  F   UNL A   1      42.100  29.780  36.875  1.00  0.00    -0.206 F 
ATOM    100  C   UNL A   1      42.571  33.247  37.777  1.00  0.00     0.060 A 
BRANCH 100 101
ATOM    101  S   UNL A   1      42.169  34.387  39.118  1.00  0.00     0.124 S 
ATOM    102  O   UNL A   1      41.504  33.502  40.068  1.00  0.00    -0.237 OA
ATOM    103  O   UNL A   1      43.485  34.874  39.519  1.00  0.00    -0.237 OA
ATOM    104  O   UNL A   1      41.310  35.379  38.477  1.00  0.00    -0.744 OA
ENDBRANCH 100 101
ENDBRANCH  68  93
ENDBRANCH  42  43
ENDBRANCH  35  37
ENDBRANCH  34  35
ENDBRANCH  33  34
ENDBRANCH  32  33
ENDBRANCH  31  32
ENDBRANCH  30  31
ENDBRANCH  29  30
ENDBRANCH  28  29
ENDBRANCH   1  28
TORSDOF 29
ENDMDL
