MODEL 1
REMARK VINA RESULT:      -7.4      0.000      0.000
REMARK SMILES O=C(OCCOCCOCCOCCOC(=O)[C@@H]1CCCC[C@H]1C(=O)Nc1ccc(NC(=O)c2ccco2)cc1)c1ccc(-c2c3nc(c(-c4c(F)cc(S(=O)(=O)[O-])cc4F)c4ccc([nH]4)c(-c4c(F)cc(S(=O)(=O)[O-])cc4F)c4nc(c(-c5c(F)cc(S(=O)(=O)[O-])cc5F)c5ccc2[nH]5)C=C4)C=C3)cc1
REMARK SMILES IDX 10 1 9 2 8 3 7 4 6 5 5 6 4 7 3 8 2 9 1 10 41 11 42 12 106 13
REMARK SMILES IDX 43 14 105 15 44 16 45 17 46 18 99 19 47 20 104 21 98 22
REMARK SMILES IDX 100 23 48 24 103 25 97 26 96 27 49 29 83 30 62 31 82 32
REMARK SMILES IDX 63 33 66 34 81 35 101 36 64 37 65 38 80 40 102 41 67 42
REMARK SMILES IDX 50 43 51 44 60 45 52 46 53 47 59 48 61 49 54 50 55 51 56 52
REMARK SMILES IDX 57 53 58 54 84 55 85 56 94 57 86 58 87 59 93 60 95 61 88 62
REMARK SMILES IDX 89 63 90 64 91 65 92 66 68 67 69 68 78 69 70 70 71 71 77 72
REMARK SMILES IDX 79 73 72 74 73 75 74 76 75 77 76 78 11 79 12 80 13 81 14 82
REMARK SMILES IDX 15 83 16 84 17 85 18 86 19 87 23 88 20 89 22 90 21 91 24 92
REMARK SMILES IDX 25 93 26 94 27 96 28 97 40 98 29 99 39 100 30 101 31 102
REMARK SMILES IDX 32 103 33 105 34 106 35 107 38 108 36 109 37 110
REMARK H PARENT 100 28 66 39 26 95 31 104
REMARK Flexibility Score: inf
ROOT
ATOM      1  C   UNL A   1      44.108  18.508  25.203  1.00  0.00     0.188 C 
ENDROOT
BRANCH   1   2
ATOM      2  O   UNL A   1      45.456  18.974  25.232  1.00  0.00    -0.377 OA
BRANCH   2   3
ATOM      3  C   UNL A   1      45.741  20.086  24.380  1.00  0.00     0.188 C 
BRANCH   3   4
ATOM      4  C   UNL A   1      45.079  21.361  24.894  1.00  0.00     0.188 C 
BRANCH   4   5
ATOM      5  O   UNL A   1      46.115  22.282  25.247  1.00  0.00    -0.376 OA
BRANCH   5   6
ATOM      6  C   UNL A   1      46.713  22.953  24.145  1.00  0.00     0.202 C 
BRANCH   6   7
ATOM      7  C   UNL A   1      47.194  24.351  24.536  1.00  0.00     0.261 C 
BRANCH   7   8
ATOM      8  O   UNL A   1      46.479  24.839  25.683  1.00  0.00    -0.460 OA
BRANCH   8   9
ATOM      9  C   UNL A   1      45.378  25.630  25.716  1.00  0.00     0.338 C 
ATOM     10  O   UNL A   1      44.354  25.211  25.176  1.00  0.00    -0.246 OA
BRANCH   9  11
ATOM     11  C   UNL A   1      45.298  26.961  26.410  1.00  0.00     0.060 A 
ATOM     12  C   UNL A   1      44.390  27.985  26.128  1.00  0.00     0.016 A 
ATOM     13  C   UNL A   1      46.194  27.164  27.479  1.00  0.00     0.016 A 
ATOM     14  C   UNL A   1      44.403  29.187  26.828  1.00  0.00     0.010 A 
ATOM     15  C   UNL A   1      46.209  28.366  28.196  1.00  0.00     0.010 A 
ATOM     16  C   UNL A   1      45.329  29.392  27.846  1.00  0.00    -0.014 A 
BRANCH  16  17
ATOM     17  C   UNL A   1      45.461  30.754  28.392  1.00  0.00     0.031 A 
ATOM     18  C   UNL A   1      44.538  31.150  29.507  1.00  0.00     0.074 A 
ATOM     19  C   UNL A   1      46.474  31.546  27.996  1.00  0.00     0.049 A 
ATOM     20  N   UNL A   1      44.435  32.291  30.130  1.00  0.00    -0.248 NA
ATOM     21  C   UNL A   1      43.619  30.108  30.000  1.00  0.00     0.031 C 
ATOM     22  C   UNL A   1      47.496  31.180  27.014  1.00  0.00     0.029 A 
ATOM     23  N   UNL A   1      46.826  32.808  28.390  1.00  0.00    -0.354 N 
ATOM     24  C   UNL A   1      43.426  32.114  31.070  1.00  0.00     0.074 A 
ATOM     25  C   UNL A   1      42.954  30.754  30.947  1.00  0.00     0.031 C 
ATOM     26  C   UNL A   1      48.366  32.197  26.887  1.00  0.00     0.029 A 
ATOM     27  C   UNL A   1      47.930  33.302  27.734  1.00  0.00     0.049 A 
ATOM     28  H   UNL A   1      46.338  33.315  29.079  1.00  0.00     0.167 HD
ATOM     29  C   UNL A   1      42.932  33.018  31.944  1.00  0.00     0.037 A 
ATOM     30  C   UNL A   1      48.488  34.526  27.791  1.00  0.00     0.037 A 
ATOM     31  C   UNL A   1      43.419  34.366  32.035  1.00  0.00     0.049 A 
ATOM     32  C   UNL A   1      47.860  35.546  28.708  1.00  0.00     0.074 A 
ATOM     33  C   UNL A   1      42.953  35.404  32.819  1.00  0.00     0.029 A 
ATOM     34  N   UNL A   1      44.494  34.858  31.307  1.00  0.00    -0.354 N 
ATOM     35  N   UNL A   1      46.855  35.395  29.540  1.00  0.00    -0.248 NA
ATOM     36  C   UNL A   1      48.420  36.903  28.679  1.00  0.00     0.031 C 
ATOM     37  C   UNL A   1      43.728  36.535  32.539  1.00  0.00     0.029 A 
ATOM     38  C   UNL A   1      44.699  36.190  31.609  1.00  0.00     0.049 A 
ATOM     39  H   UNL A   1      45.032  34.334  30.669  1.00  0.00     0.167 HD
ATOM     40  C   UNL A   1      46.661  36.636  30.135  1.00  0.00     0.074 A 
ATOM     41  C   UNL A   1      47.672  37.520  29.585  1.00  0.00     0.031 C 
ATOM     42  C   UNL A   1      45.729  37.023  31.040  1.00  0.00     0.037 A 
BRANCH  29  43
ATOM     43  C   UNL A   1      41.773  32.591  32.795  1.00  0.00     0.058 A 
ATOM     44  C   UNL A   1      41.953  31.940  34.024  1.00  0.00     0.135 A 
ATOM     45  C   UNL A   1      40.459  32.819  32.356  1.00  0.00     0.135 A 
ATOM     46  F   UNL A   1      43.189  31.667  34.470  1.00  0.00    -0.206 F 
ATOM     47  C   UNL A   1      40.867  31.515  34.784  1.00  0.00     0.059 A 
ATOM     48  C   UNL A   1      39.359  32.417  33.108  1.00  0.00     0.059 A 
ATOM     49  F   UNL A   1      40.234  33.421  31.178  1.00  0.00    -0.206 F 
ATOM     50  C   UNL A   1      39.574  31.754  34.315  1.00  0.00     0.060 A 
BRANCH  50  51
ATOM     51  S   UNL A   1      38.173  31.187  35.305  1.00  0.00     0.124 S 
ATOM     52  O   UNL A   1      37.879  29.901  34.681  1.00  0.00    -0.237 OA
ATOM     53  O   UNL A   1      38.744  31.124  36.646  1.00  0.00    -0.237 OA
ATOM     54  O   UNL A   1      37.170  32.227  35.101  1.00  0.00    -0.744 OA
ENDBRANCH  50  51
ENDBRANCH  29  43
BRANCH  30  55
ATOM     55  C   UNL A   1      49.637  34.882  26.913  1.00  0.00     0.058 A 
ATOM     56  C   UNL A   1      50.951  34.938  27.403  1.00  0.00     0.135 A 
ATOM     57  C   UNL A   1      49.437  35.208  25.561  1.00  0.00     0.135 A 
ATOM     58  F   UNL A   1      51.199  34.647  28.689  1.00  0.00    -0.206 F 
ATOM     59  C   UNL A   1      52.018  35.327  26.595  1.00  0.00     0.059 A 
ATOM     60  C   UNL A   1      50.490  35.573  24.727  1.00  0.00     0.059 A 
ATOM     61  F   UNL A   1      48.203  35.166  25.034  1.00  0.00    -0.206 F 
ATOM     62  C   UNL A   1      51.774  35.648  25.258  1.00  0.00     0.060 A 
BRANCH  62  63
ATOM     63  S   UNL A   1      53.157  36.147  24.207  1.00  0.00     0.124 S 
ATOM     64  O   UNL A   1      54.269  35.440  24.832  1.00  0.00    -0.237 OA
ATOM     65  O   UNL A   1      52.746  35.658  22.895  1.00  0.00    -0.237 OA
ATOM     66  O   UNL A   1      53.173  37.601  24.347  1.00  0.00    -0.744 OA
ENDBRANCH  62  63
ENDBRANCH  30  55
BRANCH  42  67
ATOM     67  C   UNL A   1      45.774  38.451  31.492  1.00  0.00     0.058 A 
ATOM     68  C   UNL A   1      44.924  39.417  30.935  1.00  0.00     0.135 A 
ATOM     69  C   UNL A   1      46.621  38.835  32.543  1.00  0.00     0.135 A 
ATOM     70  F   UNL A   1      44.100  39.091  29.926  1.00  0.00    -0.206 F 
ATOM     71  C   UNL A   1      44.919  40.726  31.398  1.00  0.00     0.059 A 
ATOM     72  C   UNL A   1      46.618  40.134  33.035  1.00  0.00     0.059 A 
ATOM     73  F   UNL A   1      47.442  37.940  33.112  1.00  0.00    -0.206 F 
ATOM     74  C   UNL A   1      45.769  41.074  32.451  1.00  0.00     0.060 A 
BRANCH  74  75
ATOM     75  S   UNL A   1      45.718  42.764  33.083  1.00  0.00     0.124 S 
ATOM     76  O   UNL A   1      46.851  42.766  34.002  1.00  0.00    -0.237 OA
ATOM     77  O   UNL A   1      45.881  43.560  31.871  1.00  0.00    -0.237 OA
ATOM     78  O   UNL A   1      44.400  42.849  33.707  1.00  0.00    -0.744 OA
ENDBRANCH  74  75
ENDBRANCH  42  67
ENDBRANCH  16  17
ENDBRANCH   9  11
ENDBRANCH   8   9
ENDBRANCH   7   8
ENDBRANCH   6   7
ENDBRANCH   5   6
ENDBRANCH   4   5
ENDBRANCH   3   4
ENDBRANCH   2   3
ENDBRANCH   1   2
BRANCH   1  79
ATOM     79  C   UNL A   1      43.388  18.368  26.534  1.00  0.00     0.188 C 
BRANCH  79  80
ATOM     80  O   UNL A   1      42.335  19.291  26.797  1.00  0.00    -0.376 OA
BRANCH  80  81
ATOM     81  C   UNL A   1      41.780  20.011  25.702  1.00  0.00     0.202 C 
BRANCH  81  82
ATOM     82  C   UNL A   1      41.239  21.369  26.175  1.00  0.00     0.261 C 
BRANCH  82  83
ATOM     83  O   UNL A   1      42.246  22.251  26.738  1.00  0.00    -0.463 OA
BRANCH  83  84
ATOM     84  C   UNL A   1      42.048  22.632  28.026  1.00  0.00     0.309 C 
ATOM     85  O   UNL A   1      41.283  22.066  28.803  1.00  0.00    -0.252 OA
BRANCH  84  86
ATOM     86  C   UNL A   1      42.732  23.942  28.423  1.00  0.00     0.111 C 
ATOM     87  C   UNL A   1      43.538  23.647  29.704  1.00  0.00     0.016 C 
ATOM     88  C   UNL A   1      41.953  25.266  28.581  1.00  0.00     0.093 C 
ATOM     89  C   UNL A   1      44.529  24.768  29.992  1.00  0.00     0.001 C 
ATOM     90  C   UNL A   1      42.946  26.410  28.910  1.00  0.00     0.014 C 
ATOM     91  C   UNL A   1      43.818  26.107  30.124  1.00  0.00     0.001 C 
BRANCH  88  92
ATOM     92  C   UNL A   1      40.955  25.891  27.584  1.00  0.00     0.228 C 
ATOM     93  O   UNL A   1      40.823  25.318  26.486  1.00  0.00    -0.274 OA
ATOM     94  N   UNL A   1      40.016  26.847  27.802  1.00  0.00    -0.326 N 
ATOM     95  H   UNL A   1      39.466  27.039  27.009  1.00  0.00     0.169 HD
BRANCH  94  96
ATOM     96  C   UNL A   1      39.669  27.612  28.910  1.00  0.00     0.041 A 
ATOM     97  C   UNL A   1      40.010  28.959  28.909  1.00  0.00     0.028 A 
ATOM     98  C   UNL A   1      39.026  27.108  30.018  1.00  0.00     0.028 A 
ATOM     99  C   UNL A   1      39.450  29.816  29.859  1.00  0.00     0.028 A 
ATOM    100  C   UNL A   1      38.420  27.958  30.940  1.00  0.00     0.028 A 
ATOM    101  C   UNL A   1      38.527  29.337  30.785  1.00  0.00     0.041 A 
BRANCH 101 102
ATOM    102  N   UNL A   1      37.646  30.123  31.543  1.00  0.00    -0.319 N 
ATOM    103  C   UNL A   1      36.497  30.826  31.215  1.00  0.00     0.291 C 
ATOM    104  H   UNL A   1      37.892  30.188  32.495  1.00  0.00     0.170 HD
ATOM    105  O   UNL A   1      35.874  31.346  32.126  1.00  0.00    -0.265 OA
BRANCH 103 106
ATOM    106  C   UNL A   1      36.058  30.879  29.839  1.00  0.00     0.191 A 
ATOM    107  C   UNL A   1      35.608  31.911  29.035  1.00  0.00     0.056 A 
ATOM    108  O   UNL A   1      36.026  29.705  29.137  1.00  0.00    -0.459 OA
ATOM    109  C   UNL A   1      35.232  31.323  27.800  1.00  0.00     0.043 A 
ATOM    110  C   UNL A   1      35.515  29.983  27.912  1.00  0.00     0.196 A 
ENDBRANCH 103 106
ENDBRANCH 101 102
ENDBRANCH  94  96
ENDBRANCH  88  92
ENDBRANCH  84  86
ENDBRANCH  83  84
ENDBRANCH  82  83
ENDBRANCH  81  82
ENDBRANCH  80  81
ENDBRANCH  79  80
ENDBRANCH   1  79
TORSDOF 27
ENDMDL
MODEL 2
REMARK VINA RESULT:      -6.9      0.855      7.760
REMARK SMILES O=C(OCCOCCOCCOCCOC(=O)[C@@H]1CCCC[C@H]1C(=O)Nc1ccc(NC(=O)c2ccco2)cc1)c1ccc(-c2c3nc(c(-c4c(F)cc(S(=O)(=O)[O-])cc4F)c4ccc([nH]4)c(-c4c(F)cc(S(=O)(=O)[O-])cc4F)c4nc(c(-c5c(F)cc(S(=O)(=O)[O-])cc5F)c5ccc2[nH]5)C=C4)C=C3)cc1
REMARK SMILES IDX 10 1 9 2 8 3 7 4 6 5 5 6 4 7 3 8 2 9 1 10 41 11 42 12 106 13
REMARK SMILES IDX 43 14 105 15 44 16 45 17 46 18 99 19 47 20 104 21 98 22
REMARK SMILES IDX 100 23 48 24 103 25 97 26 96 27 49 29 83 30 62 31 82 32
REMARK SMILES IDX 63 33 66 34 81 35 101 36 64 37 65 38 80 40 102 41 67 42
REMARK SMILES IDX 50 43 51 44 60 45 52 46 53 47 59 48 61 49 54 50 55 51 56 52
REMARK SMILES IDX 57 53 58 54 84 55 85 56 94 57 86 58 87 59 93 60 95 61 88 62
REMARK SMILES IDX 89 63 90 64 91 65 92 66 68 67 69 68 78 69 70 70 71 71 77 72
REMARK SMILES IDX 79 73 72 74 73 75 74 76 75 77 76 78 11 79 12 80 13 81 14 82
REMARK SMILES IDX 15 83 16 84 17 85 18 86 19 87 23 88 20 89 22 90 21 91 24 92
REMARK SMILES IDX 25 93 26 94 27 96 28 97 40 98 29 99 39 100 30 101 31 102
REMARK SMILES IDX 32 103 33 105 34 106 35 107 38 108 36 109 37 110
REMARK H PARENT 100 28 66 39 26 95 31 104
REMARK Flexibility Score: inf
ROOT
ATOM      1  C   UNL A   1      43.758  18.599  25.383  1.00  0.00     0.188 C 
ENDROOT
BRANCH   1   2
ATOM      2  O   UNL A   1      45.083  19.127  25.377  1.00  0.00    -0.377 OA
BRANCH   2   3
ATOM      3  C   UNL A   1      45.354  20.096  24.361  1.00  0.00     0.188 C 
BRANCH   3   4
ATOM      4  C   UNL A   1      44.590  21.392  24.612  1.00  0.00     0.188 C 
BRANCH   4   5
ATOM      5  O   UNL A   1      45.509  22.348  25.145  1.00  0.00    -0.376 OA
BRANCH   5   6
ATOM      6  C   UNL A   1      46.426  22.881  24.198  1.00  0.00     0.202 C 
BRANCH   6   7
ATOM      7  C   UNL A   1      47.072  24.170  24.709  1.00  0.00     0.261 C 
BRANCH   7   8
ATOM      8  O   UNL A   1      46.342  24.703  25.826  1.00  0.00    -0.460 OA
BRANCH   8   9
ATOM      9  C   UNL A   1      45.430  25.707  25.836  1.00  0.00     0.338 C 
ATOM     10  O   UNL A   1      44.344  25.501  25.291  1.00  0.00    -0.246 OA
BRANCH   9  11
ATOM     11  C   UNL A   1      45.624  27.036  26.508  1.00  0.00     0.060 A 
ATOM     12  C   UNL A   1      46.494  27.306  27.568  1.00  0.00     0.016 A 
ATOM     13  C   UNL A   1      44.892  28.118  25.978  1.00  0.00     0.016 A 
ATOM     14  C   UNL A   1      46.595  28.576  28.127  1.00  0.00     0.010 A 
ATOM     15  C   UNL A   1      44.994  29.402  26.527  1.00  0.00     0.010 A 
ATOM     16  C   UNL A   1      45.827  29.622  27.626  1.00  0.00    -0.014 A 
BRANCH  16  17
ATOM     17  C   UNL A   1      45.790  30.878  28.395  1.00  0.00     0.031 A 
ATOM     18  C   UNL A   1      46.788  31.941  28.040  1.00  0.00     0.074 A 
ATOM     19  C   UNL A   1      44.797  31.103  29.274  1.00  0.00     0.049 A 
ATOM     20  N   UNL A   1      46.980  33.111  28.584  1.00  0.00    -0.248 NA
ATOM     21  C   UNL A   1      47.681  31.652  26.902  1.00  0.00     0.031 C 
ATOM     22  C   UNL A   1      43.709  30.172  29.574  1.00  0.00     0.029 A 
ATOM     23  N   UNL A   1      44.528  32.195  30.055  1.00  0.00    -0.354 N 
ATOM     24  C   UNL A   1      48.027  33.686  27.873  1.00  0.00     0.074 A 
ATOM     25  C   UNL A   1      48.424  32.746  26.851  1.00  0.00     0.031 C 
ATOM     26  C   UNL A   1      42.884  30.737  30.473  1.00  0.00     0.029 A 
ATOM     27  C   UNL A   1      43.418  32.041  30.851  1.00  0.00     0.049 A 
ATOM     28  H   UNL A   1      45.076  33.013  30.047  1.00  0.00     0.167 HD
ATOM     29  C   UNL A   1      48.609  34.889  28.074  1.00  0.00     0.037 A 
ATOM     30  C   UNL A   1      42.923  32.854  31.804  1.00  0.00     0.037 A 
ATOM     31  C   UNL A   1      48.194  35.798  29.106  1.00  0.00     0.049 A 
ATOM     32  C   UNL A   1      43.647  34.150  32.072  1.00  0.00     0.074 A 
ATOM     33  C   UNL A   1      48.750  37.009  29.468  1.00  0.00     0.029 A 
ATOM     34  N   UNL A   1      47.107  35.584  29.943  1.00  0.00    -0.354 N 
ATOM     35  N   UNL A   1      44.686  34.655  31.447  1.00  0.00    -0.248 NA
ATOM     36  C   UNL A   1      43.154  34.973  33.182  1.00  0.00     0.031 C 
ATOM     37  C   UNL A   1      48.017  37.513  30.549  1.00  0.00     0.029 A 
ATOM     38  C   UNL A   1      46.983  36.632  30.833  1.00  0.00     0.049 A 
ATOM     39  H   UNL A   1      46.512  34.800  29.907  1.00  0.00     0.167 HD
ATOM     40  C   UNL A   1      44.971  35.855  32.086  1.00  0.00     0.074 A 
ATOM     41  C   UNL A   1      43.977  36.012  33.131  1.00  0.00     0.031 C 
ATOM     42  C   UNL A   1      45.967  36.744  31.850  1.00  0.00     0.037 A 
BRANCH  29  43
ATOM     43  C   UNL A   1      49.789  35.234  27.215  1.00  0.00     0.058 A 
ATOM     44  C   UNL A   1      51.097  34.869  27.565  1.00  0.00     0.135 A 
ATOM     45  C   UNL A   1      49.605  35.967  26.031  1.00  0.00     0.135 A 
ATOM     46  F   UNL A   1      51.330  34.200  28.705  1.00  0.00    -0.206 F 
ATOM     47  C   UNL A   1      52.186  35.232  26.778  1.00  0.00     0.059 A 
ATOM     48  C   UNL A   1      50.677  36.326  25.220  1.00  0.00     0.059 A 
ATOM     49  F   UNL A   1      48.374  36.357  25.662  1.00  0.00    -0.206 F 
ATOM     50  C   UNL A   1      51.966  35.963  25.609  1.00  0.00     0.060 A 
BRANCH  50  51
ATOM     51  S   UNL A   1      53.388  36.438  24.602  1.00  0.00     0.124 S 
ATOM     52  O   UNL A   1      52.743  37.152  23.504  1.00  0.00    -0.237 OA
ATOM     53  O   UNL A   1      54.164  37.261  25.524  1.00  0.00    -0.237 OA
ATOM     54  O   UNL A   1      53.994  35.159  24.247  1.00  0.00    -0.744 OA
ENDBRANCH  50  51
ENDBRANCH  29  43
BRANCH  30  55
ATOM     55  C   UNL A   1      41.748  32.444  32.623  1.00  0.00     0.058 A 
ATOM     56  C   UNL A   1      40.439  32.796  32.262  1.00  0.00     0.135 A 
ATOM     57  C   UNL A   1      41.918  31.713  33.811  1.00  0.00     0.135 A 
ATOM     58  F   UNL A   1      40.219  33.503  31.143  1.00  0.00    -0.206 F 
ATOM     59  C   UNL A   1      39.345  32.461  33.059  1.00  0.00     0.059 A 
ATOM     60  C   UNL A   1      40.839  31.343  34.608  1.00  0.00     0.059 A 
ATOM     61  F   UNL A   1      43.147  31.342  34.204  1.00  0.00    -0.206 F 
ATOM     62  C   UNL A   1      39.558  31.739  34.234  1.00  0.00     0.060 A 
BRANCH  62  63
ATOM     63  S   UNL A   1      38.140  31.299  35.265  1.00  0.00     0.124 S 
ATOM     64  O   UNL A   1      37.752  30.014  34.696  1.00  0.00    -0.237 OA
ATOM     65  O   UNL A   1      38.726  31.254  36.601  1.00  0.00    -0.237 OA
ATOM     66  O   UNL A   1      37.208  32.400  35.037  1.00  0.00    -0.744 OA
ENDBRANCH  62  63
ENDBRANCH  30  55
BRANCH  42  67
ATOM     67  C   UNL A   1      46.016  37.958  32.726  1.00  0.00     0.058 A 
ATOM     68  C   UNL A   1      45.100  39.008  32.565  1.00  0.00     0.135 A 
ATOM     69  C   UNL A   1      46.937  38.034  33.782  1.00  0.00     0.135 A 
ATOM     70  F   UNL A   1      44.205  38.976  31.565  1.00  0.00    -0.206 F 
ATOM     71  C   UNL A   1      45.103  40.105  33.417  1.00  0.00     0.059 A 
ATOM     72  C   UNL A   1      46.944  39.112  34.659  1.00  0.00     0.059 A 
ATOM     73  F   UNL A   1      47.823  37.046  33.980  1.00  0.00    -0.206 F 
ATOM     74  C   UNL A   1      46.028  40.146  34.463  1.00  0.00     0.060 A 
BRANCH  74  75
ATOM     75  S   UNL A   1      45.989  41.547  35.600  1.00  0.00     0.124 S 
ATOM     76  O   UNL A   1      47.366  42.024  35.522  1.00  0.00    -0.237 OA
ATOM     77  O   UNL A   1      44.982  42.415  34.998  1.00  0.00    -0.237 OA
ATOM     78  O   UNL A   1      45.603  40.940  36.870  1.00  0.00    -0.744 OA
ENDBRANCH  74  75
ENDBRANCH  42  67
ENDBRANCH  16  17
ENDBRANCH   9  11
ENDBRANCH   8   9
ENDBRANCH   7   8
ENDBRANCH   6   7
ENDBRANCH   5   6
ENDBRANCH   4   5
ENDBRANCH   3   4
ENDBRANCH   2   3
ENDBRANCH   1   2
BRANCH   1  79
ATOM     79  C   UNL A   1      43.063  18.468  26.729  1.00  0.00     0.188 C 
BRANCH  79  80
ATOM     80  O   UNL A   1      41.970  19.346  26.977  1.00  0.00    -0.376 OA
BRANCH  80  81
ATOM     81  C   UNL A   1      41.336  19.966  25.864  1.00  0.00     0.202 C 
BRANCH  81  82
ATOM     82  C   UNL A   1      40.813  21.357  26.253  1.00  0.00     0.261 C 
BRANCH  82  83
ATOM     83  O   UNL A   1      41.847  22.294  26.658  1.00  0.00    -0.463 OA
BRANCH  83  84
ATOM     84  C   UNL A   1      41.783  22.728  27.942  1.00  0.00     0.309 C 
ATOM     85  O   UNL A   1      41.126  22.181  28.823  1.00  0.00    -0.252 OA
BRANCH  84  86
ATOM     86  C   UNL A   1      42.471  24.071  28.203  1.00  0.00     0.111 C 
ATOM     87  C   UNL A   1      43.409  23.857  29.408  1.00  0.00     0.016 C 
ATOM     88  C   UNL A   1      41.679  25.385  28.373  1.00  0.00     0.093 C 
ATOM     89  C   UNL A   1      44.396  25.011  29.538  1.00  0.00     0.001 C 
ATOM     90  C   UNL A   1      42.672  26.564  28.543  1.00  0.00     0.014 C 
ATOM     91  C   UNL A   1      43.669  26.340  29.675  1.00  0.00     0.001 C 
BRANCH  88  92
ATOM     92  C   UNL A   1      40.571  25.939  27.453  1.00  0.00     0.228 C 
ATOM     93  O   UNL A   1      40.354  25.315  26.397  1.00  0.00    -0.274 OA
ATOM     94  N   UNL A   1      39.628  26.877  27.722  1.00  0.00    -0.326 N 
ATOM     95  H   UNL A   1      38.999  27.019  26.979  1.00  0.00     0.169 HD
BRANCH  94  96
ATOM     96  C   UNL A   1      39.364  27.679  28.826  1.00  0.00     0.041 A 
ATOM     97  C   UNL A   1      39.632  29.039  28.727  1.00  0.00     0.028 A 
ATOM     98  C   UNL A   1      38.874  27.202  30.021  1.00  0.00     0.028 A 
ATOM     99  C   UNL A   1      39.134  29.915  29.694  1.00  0.00     0.028 A 
ATOM    100  C   UNL A   1      38.329  28.067  30.966  1.00  0.00     0.028 A 
ATOM    101  C   UNL A   1      38.344  29.440  30.738  1.00  0.00     0.041 A 
BRANCH 101 102
ATOM    102  N   UNL A   1      37.512  30.220  31.554  1.00  0.00    -0.319 N 
ATOM    103  C   UNL A   1      36.370  30.961  31.293  1.00  0.00     0.291 C 
ATOM    104  H   UNL A   1      37.794  30.246  32.498  1.00  0.00     0.170 HD
ATOM    105  O   UNL A   1      35.793  31.465  32.243  1.00  0.00    -0.265 OA
BRANCH 103 106
ATOM    106  C   UNL A   1      35.883  31.073  29.936  1.00  0.00     0.191 A 
ATOM    107  C   UNL A   1      35.913  30.213  28.853  1.00  0.00     0.056 A 
ATOM    108  O   UNL A   1      35.288  32.249  29.571  1.00  0.00    -0.459 OA
ATOM    109  C   UNL A   1      35.357  30.924  27.760  1.00  0.00     0.043 A 
ATOM    110  C   UNL A   1      34.985  32.153  28.252  1.00  0.00     0.196 A 
ENDBRANCH 103 106
ENDBRANCH 101 102
ENDBRANCH  94  96
ENDBRANCH  88  92
ENDBRANCH  84  86
ENDBRANCH  83  84
ENDBRANCH  82  83
ENDBRANCH  81  82
ENDBRANCH  80  81
ENDBRANCH  79  80
ENDBRANCH   1  79
TORSDOF 27
ENDMDL
MODEL 3
REMARK VINA RESULT:      -6.8      6.941     11.181
REMARK SMILES O=C(OCCOCCOCCOCCOC(=O)[C@@H]1CCCC[C@H]1C(=O)Nc1ccc(NC(=O)c2ccco2)cc1)c1ccc(-c2c3nc(c(-c4c(F)cc(S(=O)(=O)[O-])cc4F)c4ccc([nH]4)c(-c4c(F)cc(S(=O)(=O)[O-])cc4F)c4nc(c(-c5c(F)cc(S(=O)(=O)[O-])cc5F)c5ccc2[nH]5)C=C4)C=C3)cc1
REMARK SMILES IDX 10 1 9 2 8 3 7 4 6 5 5 6 4 7 3 8 2 9 1 10 41 11 42 12 106 13
REMARK SMILES IDX 43 14 105 15 44 16 45 17 46 18 99 19 47 20 104 21 98 22
REMARK SMILES IDX 100 23 48 24 103 25 97 26 96 27 49 29 83 30 62 31 82 32
REMARK SMILES IDX 63 33 66 34 81 35 101 36 64 37 65 38 80 40 102 41 67 42
REMARK SMILES IDX 50 43 51 44 60 45 52 46 53 47 59 48 61 49 54 50 55 51 56 52
REMARK SMILES IDX 57 53 58 54 84 55 85 56 94 57 86 58 87 59 93 60 95 61 88 62
REMARK SMILES IDX 89 63 90 64 91 65 92 66 68 67 69 68 78 69 70 70 71 71 77 72
REMARK SMILES IDX 79 73 72 74 73 75 74 76 75 77 76 78 11 79 12 80 13 81 14 82
REMARK SMILES IDX 15 83 16 84 17 85 18 86 19 87 23 88 20 89 22 90 21 91 24 92
REMARK SMILES IDX 25 93 26 94 27 96 28 97 40 98 29 99 39 100 30 101 31 102
REMARK SMILES IDX 32 103 33 105 34 106 35 107 38 108 36 109 37 110
REMARK H PARENT 100 28 66 39 26 95 31 104
REMARK Flexibility Score: inf
ROOT
ATOM      1  C   UNL A   1      40.749  24.308  27.600  1.00  0.00     0.188 C 
ENDROOT
BRANCH   1   2
ATOM      2  O   UNL A   1      41.612  23.723  28.574  1.00  0.00    -0.377 OA
BRANCH   2   3
ATOM      3  C   UNL A   1      43.012  23.874  28.325  1.00  0.00     0.188 C 
BRANCH   3   4
ATOM      4  C   UNL A   1      43.531  25.201  28.871  1.00  0.00     0.188 C 
BRANCH   4   5
ATOM      5  O   UNL A   1      44.800  25.460  28.263  1.00  0.00    -0.376 OA
BRANCH   5   6
ATOM      6  C   UNL A   1      45.213  26.820  28.312  1.00  0.00     0.202 C 
BRANCH   6   7
ATOM      7  C   UNL A   1      46.572  26.967  28.999  1.00  0.00     0.261 C 
BRANCH   7   8
ATOM      8  O   UNL A   1      46.550  26.381  30.311  1.00  0.00    -0.460 OA
BRANCH   8   9
ATOM      9  C   UNL A   1      46.961  26.926  31.484  1.00  0.00     0.338 C 
ATOM     10  O   UNL A   1      48.130  26.741  31.824  1.00  0.00    -0.246 OA
BRANCH   9  11
ATOM     11  C   UNL A   1      46.110  27.785  32.375  1.00  0.00     0.060 A 
ATOM     12  C   UNL A   1      46.256  29.160  32.582  1.00  0.00     0.016 A 
ATOM     13  C   UNL A   1      45.032  27.145  33.020  1.00  0.00     0.016 A 
ATOM     14  C   UNL A   1      45.416  29.865  33.437  1.00  0.00     0.010 A 
ATOM     15  C   UNL A   1      44.175  27.847  33.875  1.00  0.00     0.010 A 
ATOM     16  C   UNL A   1      44.389  29.207  34.106  1.00  0.00    -0.014 A 
BRANCH  16  17
ATOM     17  C   UNL A   1      43.683  29.939  35.172  1.00  0.00     0.031 A 
ATOM     18  C   UNL A   1      44.354  30.037  36.511  1.00  0.00     0.074 A 
ATOM     19  C   UNL A   1      42.553  30.614  34.895  1.00  0.00     0.049 A 
ATOM     20  N   UNL A   1      43.929  30.595  37.611  1.00  0.00    -0.248 NA
ATOM     21  C   UNL A   1      45.698  29.441  36.618  1.00  0.00     0.031 C 
ATOM     22  C   UNL A   1      41.911  30.680  33.581  1.00  0.00     0.029 A 
ATOM     23  N   UNL A   1      41.760  31.393  35.694  1.00  0.00    -0.354 N 
ATOM     24  C   UNL A   1      44.939  30.396  38.545  1.00  0.00     0.074 A 
ATOM     25  C   UNL A   1      46.005  29.678  37.884  1.00  0.00     0.031 C 
ATOM     26  C   UNL A   1      40.823  31.465  33.664  1.00  0.00     0.029 A 
ATOM     27  C   UNL A   1      40.662  31.908  35.045  1.00  0.00     0.049 A 
ATOM     28  H   UNL A   1      41.958  31.570  36.642  1.00  0.00     0.167 HD
ATOM     29  C   UNL A   1      44.959  30.770  39.843  1.00  0.00     0.037 A 
ATOM     30  C   UNL A   1      39.630  32.620  35.535  1.00  0.00     0.037 A 
ATOM     31  C   UNL A   1      43.879  31.477  40.472  1.00  0.00     0.049 A 
ATOM     32  C   UNL A   1      39.632  32.946  37.008  1.00  0.00     0.074 A 
ATOM     33  C   UNL A   1      43.738  31.844  41.796  1.00  0.00     0.029 A 
ATOM     34  N   UNL A   1      42.746  31.925  39.804  1.00  0.00    -0.354 N 
ATOM     35  N   UNL A   1      40.556  32.688  37.905  1.00  0.00    -0.248 NA
ATOM     36  C   UNL A   1      38.450  33.633  37.541  1.00  0.00     0.031 C 
ATOM     37  C   UNL A   1      42.502  32.486  41.935  1.00  0.00     0.029 A 
ATOM     38  C   UNL A   1      41.892  32.551  40.690  1.00  0.00     0.049 A 
ATOM     39  H   UNL A   1      42.578  31.813  38.840  1.00  0.00     0.167 HD
ATOM     40  C   UNL A   1      40.069  33.181  39.109  1.00  0.00     0.074 A 
ATOM     41  C   UNL A   1      38.778  33.776  38.819  1.00  0.00     0.031 C 
ATOM     42  C   UNL A   1      40.621  33.138  40.347  1.00  0.00     0.037 A 
BRANCH  29  43
ATOM     43  C   UNL A   1      46.144  30.351  40.661  1.00  0.00     0.058 A 
ATOM     44  C   UNL A   1      47.307  31.132  40.742  1.00  0.00     0.135 A 
ATOM     45  C   UNL A   1      46.120  29.132  41.358  1.00  0.00     0.135 A 
ATOM     46  F   UNL A   1      47.393  32.287  40.065  1.00  0.00    -0.206 F 
ATOM     47  C   UNL A   1      48.413  30.710  41.474  1.00  0.00     0.059 A 
ATOM     48  C   UNL A   1      47.209  28.699  42.109  1.00  0.00     0.059 A 
ATOM     49  F   UNL A   1      45.038  28.340  41.297  1.00  0.00    -0.206 F 
ATOM     50  C   UNL A   1      48.355  29.490  42.151  1.00  0.00     0.060 A 
BRANCH  50  51
ATOM     51  S   UNL A   1      49.802  28.949  43.088  1.00  0.00     0.124 S 
ATOM     52  O   UNL A   1      49.886  27.543  42.707  1.00  0.00    -0.237 OA
ATOM     53  O   UNL A   1      50.855  29.812  42.562  1.00  0.00    -0.237 OA
ATOM     54  O   UNL A   1      49.423  29.202  44.474  1.00  0.00    -0.744 OA
ENDBRANCH  50  51
ENDBRANCH  29  43
BRANCH  30  55
ATOM     55  C   UNL A   1      38.483  33.000  34.663  1.00  0.00     0.058 A 
ATOM     56  C   UNL A   1      38.369  34.286  34.113  1.00  0.00     0.135 A 
ATOM     57  C   UNL A   1      37.453  32.084  34.388  1.00  0.00     0.135 A 
ATOM     58  F   UNL A   1      39.318  35.204  34.352  1.00  0.00    -0.206 F 
ATOM     59  C   UNL A   1      37.267  34.658  33.344  1.00  0.00     0.059 A 
ATOM     60  C   UNL A   1      36.357  32.424  33.601  1.00  0.00     0.059 A 
ATOM     61  F   UNL A   1      37.511  30.837  34.882  1.00  0.00    -0.206 F 
ATOM     62  C   UNL A   1      36.263  33.719  33.099  1.00  0.00     0.060 A 
BRANCH  62  63
ATOM     63  S   UNL A   1      34.836  34.198  32.099  1.00  0.00     0.124 S 
ATOM     64  O   UNL A   1      34.648  35.586  32.504  1.00  0.00    -0.237 OA
ATOM     65  O   UNL A   1      35.324  33.992  30.738  1.00  0.00    -0.237 OA
ATOM     66  O   UNL A   1      33.799  33.265  32.530  1.00  0.00    -0.744 OA
ENDBRANCH  62  63
ENDBRANCH  30  55
BRANCH  42  67
ATOM     67  C   UNL A   1      39.837  33.759  41.462  1.00  0.00     0.058 A 
ATOM     68  C   UNL A   1      38.931  33.005  42.221  1.00  0.00     0.135 A 
ATOM     69  C   UNL A   1      40.052  35.099  41.819  1.00  0.00     0.135 A 
ATOM     70  F   UNL A   1      38.693  31.721  41.910  1.00  0.00    -0.206 F 
ATOM     71  C   UNL A   1      38.251  33.564  43.295  1.00  0.00     0.059 A 
ATOM     72  C   UNL A   1      39.399  35.672  42.903  1.00  0.00     0.059 A 
ATOM     73  F   UNL A   1      40.920  35.853  41.126  1.00  0.00    -0.206 F 
ATOM     74  C   UNL A   1      38.494  34.898  43.630  1.00  0.00     0.060 A 
BRANCH  74  75
ATOM     75  S   UNL A   1      37.649  35.600  45.062  1.00  0.00     0.124 S 
ATOM     76  O   UNL A   1      38.329  36.884  45.201  1.00  0.00    -0.237 OA
ATOM     77  O   UNL A   1      36.262  35.662  44.611  1.00  0.00    -0.237 OA
ATOM     78  O   UNL A   1      37.914  34.629  46.119  1.00  0.00    -0.744 OA
ENDBRANCH  74  75
ENDBRANCH  42  67
ENDBRANCH  16  17
ENDBRANCH   9  11
ENDBRANCH   8   9
ENDBRANCH   7   8
ENDBRANCH   6   7
ENDBRANCH   5   6
ENDBRANCH   4   5
ENDBRANCH   3   4
ENDBRANCH   2   3
ENDBRANCH   1   2
BRANCH   1  79
ATOM     79  C   UNL A   1      40.111  23.377  26.583  1.00  0.00     0.188 C 
BRANCH  79  80
ATOM     80  O   UNL A   1      38.716  23.123  26.727  1.00  0.00    -0.376 OA
BRANCH  80  81
ATOM     81  C   UNL A   1      37.804  23.943  26.004  1.00  0.00     0.202 C 
BRANCH  81  82
ATOM     82  C   UNL A   1      36.769  23.075  25.274  1.00  0.00     0.261 C 
BRANCH  82  83
ATOM     83  O   UNL A   1      36.583  21.754  25.849  1.00  0.00    -0.463 OA
BRANCH  83  84
ATOM     84  C   UNL A   1      35.462  21.091  25.463  1.00  0.00     0.309 C 
ATOM     85  O   UNL A   1      35.466  20.014  24.874  1.00  0.00    -0.252 OA
BRANCH  84  86
ATOM     86  C   UNL A   1      34.155  21.862  25.670  1.00  0.00     0.111 C 
ATOM     87  C   UNL A   1      33.873  21.850  27.186  1.00  0.00     0.016 C 
ATOM     88  C   UNL A   1      32.867  21.527  24.888  1.00  0.00     0.093 C 
ATOM     89  C   UNL A   1      32.802  22.872  27.546  1.00  0.00     0.001 C 
ATOM     90  C   UNL A   1      31.756  22.537  25.272  1.00  0.00     0.014 C 
ATOM     91  C   UNL A   1      31.515  22.610  26.777  1.00  0.00     0.001 C 
BRANCH  88  92
ATOM     92  C   UNL A   1      32.716  21.342  23.363  1.00  0.00     0.228 C 
ATOM     93  O   UNL A   1      32.186  20.284  22.974  1.00  0.00    -0.274 OA
ATOM     94  N   UNL A   1      32.862  22.261  22.375  1.00  0.00    -0.326 N 
ATOM     95  H   UNL A   1      32.659  21.903  21.480  1.00  0.00     0.169 HD
BRANCH  94  96
ATOM     96  C   UNL A   1      33.237  23.599  22.359  1.00  0.00     0.041 A 
ATOM     97  C   UNL A   1      32.689  24.422  21.383  1.00  0.00     0.028 A 
ATOM     98  C   UNL A   1      34.139  24.152  23.240  1.00  0.00     0.028 A 
ATOM     99  C   UNL A   1      32.819  25.808  21.493  1.00  0.00     0.028 A 
ATOM    100  C   UNL A   1      34.235  25.533  23.390  1.00  0.00     0.028 A 
ATOM    101  C   UNL A   1      33.465  26.372  22.590  1.00  0.00     0.041 A 
BRANCH 101 102
ATOM    102  N   UNL A   1      33.365  27.710  22.999  1.00  0.00    -0.319 N 
ATOM    103  C   UNL A   1      32.666  28.328  24.024  1.00  0.00     0.291 C 
ATOM    104  H   UNL A   1      33.895  28.333  22.449  1.00  0.00     0.170 HD
ATOM    105  O   UNL A   1      32.857  29.520  24.199  1.00  0.00    -0.265 OA
BRANCH 103 106
ATOM    106  C   UNL A   1      31.788  27.547  24.865  1.00  0.00     0.191 A 
ATOM    107  C   UNL A   1      31.897  27.084  26.164  1.00  0.00     0.056 A 
ATOM    108  O   UNL A   1      30.607  27.118  24.324  1.00  0.00    -0.459 OA
ATOM    109  C   UNL A   1      30.748  26.288  26.405  1.00  0.00     0.043 A 
ATOM    110  C   UNL A   1      29.993  26.350  25.258  1.00  0.00     0.196 A 
ENDBRANCH 103 106
ENDBRANCH 101 102
ENDBRANCH  94  96
ENDBRANCH  88  92
ENDBRANCH  84  86
ENDBRANCH  83  84
ENDBRANCH  82  83
ENDBRANCH  81  82
ENDBRANCH  80  81
ENDBRANCH  79  80
ENDBRANCH   1  79
TORSDOF 27
ENDMDL
