MODEL 1
REMARK VINA RESULT:     -11.0      0.000      0.000
REMARK SMILES O=C(OCCOCCOCCOCCOC(=O)[C@H]1Cc2[nH]cnc2CN1C(=O)c1ccncc1Cl)c1ccc(-c2c3nc(c(-c4c(F)cc(S(=O)(=O)[O-])cc4F)c4ccc([nH]4)c(-c4c(F)cc(S(=O)(=O)[O-])cc4F)c4nc(c(-c5c(F)cc(S(=O)(=O)[O-])cc5F)c5ccc2[nH]5)C=C4)C=C3)cc1
REMARK SMILES IDX 8 1 7 2 6 3 5 4 4 5 3 6 2 7 1 8 36 9 37 10 101 11 38 12
REMARK SMILES IDX 100 13 39 14 40 15 41 16 94 17 42 18 99 19 93 20 95 21 43 22
REMARK SMILES IDX 98 23 92 24 91 25 44 27 78 28 57 29 77 30 58 31 61 32 76 33
REMARK SMILES IDX 96 34 59 35 60 36 75 38 97 39 62 40 45 41 46 42 55 43 47 44
REMARK SMILES IDX 48 45 54 46 56 47 49 48 50 49 51 50 52 51 53 52 79 53 80 54
REMARK SMILES IDX 89 55 81 56 82 57 88 58 90 59 83 60 84 61 85 62 86 63 87 64
REMARK SMILES IDX 63 65 64 66 73 67 65 68 66 69 72 70 74 71 67 72 68 73 69 74
REMARK SMILES IDX 70 75 71 76 9 77 10 78 11 79 12 80 13 81 14 82 15 83 16 84
REMARK SMILES IDX 17 85 18 86 19 87 26 88 20 89 25 90 21 91 24 92 22 93 23 95
REMARK SMILES IDX 27 96 28 97 29 98 30 99 34 100 31 101 33 102 35 103 32 104
REMARK H PARENT 95 26 61 37 21 94
REMARK Flexibility Score: inf
ROOT
ATOM      1  C   UNL A   1      37.363  23.174  25.302  1.00  0.00     0.188 C 
ENDROOT
BRANCH   1   2
ATOM      2  C   UNL A   1      37.666  21.767  25.832  1.00  0.00     0.188 C 
BRANCH   2   3
ATOM      3  O   UNL A   1      38.964  21.203  25.813  1.00  0.00    -0.376 OA
BRANCH   3   4
ATOM      4  C   UNL A   1      40.232  21.823  25.757  1.00  0.00     0.202 C 
BRANCH   4   5
ATOM      5  C   UNL A   1      41.570  21.284  26.265  1.00  0.00     0.261 C 
BRANCH   5   6
ATOM      6  O   UNL A   1      42.670  22.173  26.182  1.00  0.00    -0.460 OA
BRANCH   6   7
ATOM      7  C   UNL A   1      42.706  23.391  25.599  1.00  0.00     0.338 C 
ATOM      8  O   UNL A   1      43.394  23.525  24.588  1.00  0.00    -0.246 OA
BRANCH   7   9
ATOM      9  C   UNL A   1      42.126  24.614  26.221  1.00  0.00     0.060 A 
ATOM     10  C   UNL A   1      41.592  25.715  25.547  1.00  0.00     0.016 A 
ATOM     11  C   UNL A   1      42.136  24.629  27.630  1.00  0.00     0.016 A 
ATOM     12  C   UNL A   1      41.258  26.861  26.238  1.00  0.00     0.010 A 
ATOM     13  C   UNL A   1      41.765  25.764  28.333  1.00  0.00     0.010 A 
ATOM     14  C   UNL A   1      41.416  26.901  27.619  1.00  0.00    -0.014 A 
BRANCH  14  15
ATOM     15  C   UNL A   1      41.265  28.201  28.242  1.00  0.00     0.031 A 
ATOM     16  C   UNL A   1      42.420  29.122  28.088  1.00  0.00     0.074 A 
ATOM     17  C   UNL A   1      40.164  28.500  28.955  1.00  0.00     0.049 A 
ATOM     18  N   UNL A   1      43.251  29.518  28.996  1.00  0.00    -0.248 NA
ATOM     19  C   UNL A   1      42.780  29.539  26.725  1.00  0.00     0.031 C 
ATOM     20  C   UNL A   1      38.883  27.788  29.006  1.00  0.00     0.029 A 
ATOM     21  N   UNL A   1      39.942  29.580  29.744  1.00  0.00    -0.354 N 
ATOM     22  C   UNL A   1      44.120  30.404  28.362  1.00  0.00     0.074 A 
ATOM     23  C   UNL A   1      43.878  30.262  26.949  1.00  0.00     0.031 C 
ATOM     24  C   UNL A   1      37.955  28.583  29.583  1.00  0.00     0.029 A 
ATOM     25  C   UNL A   1      38.611  29.781  30.075  1.00  0.00     0.049 A 
ATOM     26  H   UNL A   1      40.664  30.173  30.055  1.00  0.00     0.167 HD
ATOM     27  C   UNL A   1      44.831  31.334  29.059  1.00  0.00     0.037 A 
ATOM     28  C   UNL A   1      38.089  30.896  30.641  1.00  0.00     0.037 A 
ATOM     29  C   UNL A   1      44.912  30.995  30.455  1.00  0.00     0.049 A 
ATOM     30  C   UNL A   1      39.209  31.600  31.323  1.00  0.00     0.074 A 
ATOM     31  C   UNL A   1      45.456  29.944  31.166  1.00  0.00     0.029 A 
ATOM     32  N   UNL A   1      44.064  31.637  31.326  1.00  0.00    -0.354 N 
ATOM     33  N   UNL A   1      39.845  31.116  32.359  1.00  0.00    -0.248 NA
ATOM     34  C   UNL A   1      39.930  32.616  30.571  1.00  0.00     0.031 C 
ATOM     35  C   UNL A   1      44.550  29.718  32.240  1.00  0.00     0.029 A 
ATOM     36  C   UNL A   1      43.540  30.679  32.155  1.00  0.00     0.049 A 
ATOM     37  H   UNL A   1      43.871  32.601  31.350  1.00  0.00     0.167 HD
ATOM     38  C   UNL A   1      41.176  31.455  32.155  1.00  0.00     0.074 A 
ATOM     39  C   UNL A   1      41.155  32.442  31.077  1.00  0.00     0.031 C 
ATOM     40  C   UNL A   1      42.192  30.711  32.682  1.00  0.00     0.037 A 
BRANCH  27  41
ATOM     41  C   UNL A   1      45.155  32.718  28.549  1.00  0.00     0.058 A 
ATOM     42  C   UNL A   1      46.501  33.080  28.324  1.00  0.00     0.135 A 
ATOM     43  C   UNL A   1      44.231  33.787  28.559  1.00  0.00     0.135 A 
ATOM     44  F   UNL A   1      47.465  32.146  28.291  1.00  0.00    -0.206 F 
ATOM     45  C   UNL A   1      46.907  34.410  28.211  1.00  0.00     0.059 A 
ATOM     46  C   UNL A   1      44.608  35.114  28.396  1.00  0.00     0.059 A 
ATOM     47  F   UNL A   1      42.933  33.607  28.827  1.00  0.00    -0.206 F 
ATOM     48  C   UNL A   1      45.954  35.421  28.272  1.00  0.00     0.060 A 
BRANCH  48  49
ATOM     49  S   UNL A   1      46.484  37.142  28.265  1.00  0.00     0.124 S 
ATOM     50  O   UNL A   1      45.870  37.627  27.034  1.00  0.00    -0.237 OA
ATOM     51  O   UNL A   1      45.908  37.641  29.509  1.00  0.00    -0.237 OA
ATOM     52  O   UNL A   1      47.940  37.043  28.249  1.00  0.00    -0.744 OA
ENDBRANCH  48  49
ENDBRANCH  27  41
BRANCH  28  53
ATOM     53  C   UNL A   1      36.820  31.564  30.246  1.00  0.00     0.058 A 
ATOM     54  C   UNL A   1      35.950  32.103  31.208  1.00  0.00     0.135 A 
ATOM     55  C   UNL A   1      36.564  31.926  28.905  1.00  0.00     0.135 A 
ATOM     56  F   UNL A   1      36.134  31.833  32.509  1.00  0.00    -0.206 F 
ATOM     57  C   UNL A   1      34.913  32.980  30.866  1.00  0.00     0.059 A 
ATOM     58  C   UNL A   1      35.533  32.787  28.540  1.00  0.00     0.059 A 
ATOM     59  F   UNL A   1      37.371  31.523  27.911  1.00  0.00    -0.206 F 
ATOM     60  C   UNL A   1      34.725  33.331  29.529  1.00  0.00     0.060 A 
BRANCH  60  61
ATOM     61  S   UNL A   1      33.499  34.590  29.100  1.00  0.00     0.124 S 
ATOM     62  O   UNL A   1      34.331  35.626  28.496  1.00  0.00    -0.237 OA
ATOM     63  O   UNL A   1      32.622  33.865  28.187  1.00  0.00    -0.237 OA
ATOM     64  O   UNL A   1      32.904  34.938  30.387  1.00  0.00    -0.744 OA
ENDBRANCH  60  61
ENDBRANCH  28  53
BRANCH  40  65
ATOM     65  C   UNL A   1      41.867  29.670  33.721  1.00  0.00     0.058 A 
ATOM     66  C   UNL A   1      41.499  28.347  33.423  1.00  0.00     0.135 A 
ATOM     67  C   UNL A   1      42.154  29.972  35.061  1.00  0.00     0.135 A 
ATOM     68  F   UNL A   1      41.303  27.954  32.156  1.00  0.00    -0.206 F 
ATOM     69  C   UNL A   1      41.411  27.369  34.417  1.00  0.00     0.059 A 
ATOM     70  C   UNL A   1      42.101  29.008  36.064  1.00  0.00     0.059 A 
ATOM     71  F   UNL A   1      42.570  31.205  35.398  1.00  0.00    -0.206 F 
ATOM     72  C   UNL A   1      41.727  27.707  35.734  1.00  0.00     0.060 A 
BRANCH  72  73
ATOM     73  S   UNL A   1      41.747  26.411  36.993  1.00  0.00     0.124 S 
ATOM     74  O   UNL A   1      40.510  26.665  37.718  1.00  0.00    -0.237 OA
ATOM     75  O   UNL A   1      41.779  25.191  36.194  1.00  0.00    -0.237 OA
ATOM     76  O   UNL A   1      42.976  26.683  37.743  1.00  0.00    -0.744 OA
ENDBRANCH  72  73
ENDBRANCH  40  65
ENDBRANCH  14  15
ENDBRANCH   7   9
ENDBRANCH   6   7
ENDBRANCH   5   6
ENDBRANCH   4   5
ENDBRANCH   3   4
ENDBRANCH   2   3
ENDBRANCH   1   2
BRANCH   1  77
ATOM     77  O   UNL A   1      36.009  23.574  25.363  1.00  0.00    -0.377 OA
BRANCH  77  78
ATOM     78  C   UNL A   1      35.145  22.597  25.892  1.00  0.00     0.188 C 
BRANCH  78  79
ATOM     79  C   UNL A   1      34.099  22.068  24.887  1.00  0.00     0.188 C 
BRANCH  79  80
ATOM     80  O   UNL A   1      32.803  22.644  24.813  1.00  0.00    -0.376 OA
BRANCH  80  81
ATOM     81  C   UNL A   1      32.247  22.946  23.544  1.00  0.00     0.202 C 
BRANCH  81  82
ATOM     82  C   UNL A   1      33.145  23.628  22.502  1.00  0.00     0.261 C 
BRANCH  82  83
ATOM     83  O   UNL A   1      33.993  24.690  22.996  1.00  0.00    -0.462 OA
BRANCH  83  84
ATOM     84  C   UNL A   1      33.628  25.959  22.695  1.00  0.00     0.329 C 
ATOM     85  O   UNL A   1      33.666  26.418  21.555  1.00  0.00    -0.250 OA
BRANCH  84  86
ATOM     86  C   UNL A   1      32.931  26.734  23.840  1.00  0.00     0.201 C 
ATOM     87  C   UNL A   1      33.689  28.109  23.993  1.00  0.00     0.093 C 
ATOM     88  N   UNL A   1      31.460  26.866  24.207  1.00  0.00    -0.318 N 
ATOM     89  C   UNL A   1      33.215  28.826  25.194  1.00  0.00     0.042 A 
ATOM     90  C   UNL A   1      31.238  27.307  25.622  1.00  0.00     0.179 C 
ATOM     91  N   UNL A   1      33.692  29.980  25.739  1.00  0.00    -0.348 N 
ATOM     92  C   UNL A   1      32.106  28.486  25.924  1.00  0.00     0.081 A 
ATOM     93  C   UNL A   1      32.877  30.273  26.801  1.00  0.00     0.197 A 
ATOM     94  H   UNL A   1      34.469  30.501  25.430  1.00  0.00     0.167 HD
ATOM     95  N   UNL A   1      31.922  29.378  26.947  1.00  0.00    -0.240 NA
BRANCH  88  96
ATOM     96  C   UNL A   1      30.282  26.764  23.467  1.00  0.00     0.256 C 
ATOM     97  O   UNL A   1      29.815  25.670  23.128  1.00  0.00    -0.269 OA
BRANCH  96  98
ATOM     98  C   UNL A   1      29.495  27.887  22.955  1.00  0.00     0.061 A 
ATOM     99  C   UNL A   1      30.217  28.948  22.391  1.00  0.00     0.035 A 
ATOM    100  C   UNL A   1      28.156  28.076  23.285  1.00  0.00     0.072 A 
ATOM    101  C   UNL A   1      29.550  30.126  22.100  1.00  0.00     0.112 A 
ATOM    102  C   UNL A   1      27.575  29.288  22.932  1.00  0.00     0.132 A 
ATOM    103  Cl  UNL A   1      27.208  26.905  24.121  1.00  0.00    -0.082 Cl
ATOM    104  N   UNL A   1      28.236  30.313  22.342  1.00  0.00    -0.263 NA
ENDBRANCH  96  98
ENDBRANCH  88  96
ENDBRANCH  84  86
ENDBRANCH  83  84
ENDBRANCH  82  83
ENDBRANCH  81  82
ENDBRANCH  80  81
ENDBRANCH  79  80
ENDBRANCH  78  79
ENDBRANCH  77  78
ENDBRANCH   1  77
TORSDOF 25
ENDMDL
MODEL 2
REMARK VINA RESULT:     -10.7      1.135      2.473
REMARK SMILES O=C(OCCOCCOCCOCCOC(=O)[C@H]1Cc2[nH]cnc2CN1C(=O)c1ccncc1Cl)c1ccc(-c2c3nc(c(-c4c(F)cc(S(=O)(=O)[O-])cc4F)c4ccc([nH]4)c(-c4c(F)cc(S(=O)(=O)[O-])cc4F)c4nc(c(-c5c(F)cc(S(=O)(=O)[O-])cc5F)c5ccc2[nH]5)C=C4)C=C3)cc1
REMARK SMILES IDX 8 1 7 2 6 3 5 4 4 5 3 6 2 7 1 8 36 9 37 10 101 11 38 12
REMARK SMILES IDX 100 13 39 14 40 15 41 16 94 17 42 18 99 19 93 20 95 21 43 22
REMARK SMILES IDX 98 23 92 24 91 25 44 27 78 28 57 29 77 30 58 31 61 32 76 33
REMARK SMILES IDX 96 34 59 35 60 36 75 38 97 39 62 40 45 41 46 42 55 43 47 44
REMARK SMILES IDX 48 45 54 46 56 47 49 48 50 49 51 50 52 51 53 52 79 53 80 54
REMARK SMILES IDX 89 55 81 56 82 57 88 58 90 59 83 60 84 61 85 62 86 63 87 64
REMARK SMILES IDX 63 65 64 66 73 67 65 68 66 69 72 70 74 71 67 72 68 73 69 74
REMARK SMILES IDX 70 75 71 76 9 77 10 78 11 79 12 80 13 81 14 82 15 83 16 84
REMARK SMILES IDX 17 85 18 86 19 87 26 88 20 89 25 90 21 91 24 92 22 93 23 95
REMARK SMILES IDX 27 96 28 97 29 98 30 99 34 100 31 101 33 102 35 103 32 104
REMARK H PARENT 95 26 61 37 21 94
REMARK Flexibility Score: inf
ROOT
ATOM      1  C   UNL A   1      37.796  22.270  25.311  1.00  0.00     0.188 C 
ENDROOT
BRANCH   1   2
ATOM      2  C   UNL A   1      38.243  20.803  25.373  1.00  0.00     0.188 C 
BRANCH   2   3
ATOM      3  O   UNL A   1      39.556  20.417  25.732  1.00  0.00    -0.376 OA
BRANCH   3   4
ATOM      4  C   UNL A   1      40.516  21.068  26.538  1.00  0.00     0.202 C 
BRANCH   4   5
ATOM      5  C   UNL A   1      42.033  20.876  26.540  1.00  0.00     0.261 C 
BRANCH   5   6
ATOM      6  O   UNL A   1      42.809  22.059  26.462  1.00  0.00    -0.460 OA
BRANCH   6   7
ATOM      7  C   UNL A   1      42.555  23.166  25.731  1.00  0.00     0.338 C 
ATOM      8  O   UNL A   1      42.956  23.194  24.568  1.00  0.00    -0.246 OA
BRANCH   7   9
ATOM      9  C   UNL A   1      42.001  24.421  26.312  1.00  0.00     0.060 A 
ATOM     10  C   UNL A   1      41.492  25.511  25.601  1.00  0.00     0.016 A 
ATOM     11  C   UNL A   1      42.009  24.482  27.720  1.00  0.00     0.016 A 
ATOM     12  C   UNL A   1      41.180  26.685  26.254  1.00  0.00     0.010 A 
ATOM     13  C   UNL A   1      41.661  25.646  28.385  1.00  0.00     0.010 A 
ATOM     14  C   UNL A   1      41.337  26.767  27.634  1.00  0.00    -0.014 A 
BRANCH  14  15
ATOM     15  C   UNL A   1      41.213  28.090  28.214  1.00  0.00     0.031 A 
ATOM     16  C   UNL A   1      42.368  28.996  27.994  1.00  0.00     0.074 A 
ATOM     17  C   UNL A   1      40.135  28.422  28.947  1.00  0.00     0.049 A 
ATOM     18  N   UNL A   1      43.228  29.418  28.862  1.00  0.00    -0.248 NA
ATOM     19  C   UNL A   1      42.691  29.361  26.607  1.00  0.00     0.031 C 
ATOM     20  C   UNL A   1      38.851  27.721  29.061  1.00  0.00     0.029 A 
ATOM     21  N   UNL A   1      39.943  29.531  29.703  1.00  0.00    -0.354 N 
ATOM     22  C   UNL A   1      44.084  30.274  28.172  1.00  0.00     0.074 A 
ATOM     23  C   UNL A   1      43.800  30.083  26.773  1.00  0.00     0.031 C 
ATOM     24  C   UNL A   1      37.946  28.544  29.636  1.00  0.00     0.029 A 
ATOM     25  C   UNL A   1      38.623  29.753  30.066  1.00  0.00     0.049 A 
ATOM     26  H   UNL A   1      40.678  30.129  29.972  1.00  0.00     0.167 HD
ATOM     27  C   UNL A   1      44.821  31.223  28.814  1.00  0.00     0.037 A 
ATOM     28  C   UNL A   1      38.126  30.892  30.607  1.00  0.00     0.037 A 
ATOM     29  C   UNL A   1      44.941  30.933  30.219  1.00  0.00     0.049 A 
ATOM     30  C   UNL A   1      39.270  31.611  31.230  1.00  0.00     0.074 A 
ATOM     31  C   UNL A   1      45.499  29.904  30.951  1.00  0.00     0.029 A 
ATOM     32  N   UNL A   1      44.123  31.612  31.090  1.00  0.00    -0.354 N 
ATOM     33  N   UNL A   1      39.933  31.159  32.263  1.00  0.00    -0.248 NA
ATOM     34  C   UNL A   1      39.975  32.594  30.421  1.00  0.00     0.031 C 
ATOM     35  C   UNL A   1      44.623  29.723  32.058  1.00  0.00     0.029 A 
ATOM     36  C   UNL A   1      43.618  30.688  31.968  1.00  0.00     0.049 A 
ATOM     37  H   UNL A   1      43.937  32.578  31.085  1.00  0.00     0.167 HD
ATOM     38  C   UNL A   1      41.259  31.481  32.008  1.00  0.00     0.074 A 
ATOM     39  C   UNL A   1      41.213  32.429  30.897  1.00  0.00     0.031 C 
ATOM     40  C   UNL A   1      42.285  30.749  32.532  1.00  0.00     0.037 A 
BRANCH  27  41
ATOM     41  C   UNL A   1      45.138  32.585  28.246  1.00  0.00     0.058 A 
ATOM     42  C   UNL A   1      46.484  32.950  28.022  1.00  0.00     0.135 A 
ATOM     43  C   UNL A   1      44.205  33.644  28.194  1.00  0.00     0.135 A 
ATOM     44  F   UNL A   1      47.457  32.025  28.044  1.00  0.00    -0.206 F 
ATOM     45  C   UNL A   1      46.879  34.278  27.854  1.00  0.00     0.059 A 
ATOM     46  C   UNL A   1      44.571  34.966  27.977  1.00  0.00     0.059 A 
ATOM     47  F   UNL A   1      42.905  33.464  28.454  1.00  0.00    -0.206 F 
ATOM     48  C   UNL A   1      45.915  35.281  27.856  1.00  0.00     0.060 A 
BRANCH  48  49
ATOM     49  S   UNL A   1      46.429  37.005  27.777  1.00  0.00     0.124 S 
ATOM     50  O   UNL A   1      47.556  37.013  28.705  1.00  0.00    -0.237 OA
ATOM     51  O   UNL A   1      46.761  37.157  26.365  1.00  0.00    -0.237 OA
ATOM     52  O   UNL A   1      45.242  37.729  28.218  1.00  0.00    -0.744 OA
ENDBRANCH  48  49
ENDBRANCH  27  41
BRANCH  28  53
ATOM     53  C   UNL A   1      36.850  31.554  30.225  1.00  0.00     0.058 A 
ATOM     54  C   UNL A   1      36.051  32.203  31.181  1.00  0.00     0.135 A 
ATOM     55  C   UNL A   1      36.522  31.798  28.873  1.00  0.00     0.135 A 
ATOM     56  F   UNL A   1      36.308  32.049  32.489  1.00  0.00    -0.206 F 
ATOM     57  C   UNL A   1      35.015  33.073  30.819  1.00  0.00     0.059 A 
ATOM     58  C   UNL A   1      35.489  32.650  28.489  1.00  0.00     0.059 A 
ATOM     59  F   UNL A   1      37.258  31.283  27.876  1.00  0.00    -0.206 F 
ATOM     60  C   UNL A   1      34.754  33.304  29.468  1.00  0.00     0.060 A 
BRANCH  60  61
ATOM     61  S   UNL A   1      33.532  34.551  28.994  1.00  0.00     0.124 S 
ATOM     62  O   UNL A   1      34.378  35.613  28.460  1.00  0.00    -0.237 OA
ATOM     63  O   UNL A   1      32.721  33.830  28.019  1.00  0.00    -0.237 OA
ATOM     64  O   UNL A   1      32.859  34.862  30.252  1.00  0.00    -0.744 OA
ENDBRANCH  60  61
ENDBRANCH  28  53
BRANCH  40  65
ATOM     65  C   UNL A   1      41.984  29.748  33.617  1.00  0.00     0.058 A 
ATOM     66  C   UNL A   1      41.449  28.470  33.384  1.00  0.00     0.135 A 
ATOM     67  C   UNL A   1      42.462  30.019  34.908  1.00  0.00     0.135 A 
ATOM     68  F   UNL A   1      41.060  28.099  32.155  1.00  0.00    -0.206 F 
ATOM     69  C   UNL A   1      41.383  27.507  34.394  1.00  0.00     0.059 A 
ATOM     70  C   UNL A   1      42.433  29.066  35.923  1.00  0.00     0.059 A 
ATOM     71  F   UNL A   1      43.041  31.202  35.175  1.00  0.00    -0.206 F 
ATOM     72  C   UNL A   1      41.891  27.811  35.658  1.00  0.00     0.060 A 
BRANCH  72  73
ATOM     73  S   UNL A   1      41.930  26.521  36.923  1.00  0.00     0.124 S 
ATOM     74  O   UNL A   1      42.180  25.323  36.134  1.00  0.00    -0.237 OA
ATOM     75  O   UNL A   1      43.024  26.955  37.787  1.00  0.00    -0.237 OA
ATOM     76  O   UNL A   1      40.601  26.601  37.533  1.00  0.00    -0.744 OA
ENDBRANCH  72  73
ENDBRANCH  40  65
ENDBRANCH  14  15
ENDBRANCH   7   9
ENDBRANCH   6   7
ENDBRANCH   5   6
ENDBRANCH   4   5
ENDBRANCH   3   4
ENDBRANCH   2   3
ENDBRANCH   1   2
BRANCH   1  77
ATOM     77  O   UNL A   1      36.404  22.490  25.407  1.00  0.00    -0.377 OA
BRANCH  77  78
ATOM     78  C   UNL A   1      35.702  21.461  26.062  1.00  0.00     0.188 C 
BRANCH  78  79
ATOM     79  C   UNL A   1      34.550  20.856  25.232  1.00  0.00     0.188 C 
BRANCH  79  80
ATOM     80  O   UNL A   1      33.253  20.702  25.789  1.00  0.00    -0.376 OA
BRANCH  80  81
ATOM     81  C   UNL A   1      32.116  21.037  25.010  1.00  0.00     0.202 C 
BRANCH  81  82
ATOM     82  C   UNL A   1      32.192  22.281  24.114  1.00  0.00     0.261 C 
BRANCH  82  83
ATOM     83  O   UNL A   1      30.930  22.918  23.809  1.00  0.00    -0.462 OA
BRANCH  83  84
ATOM     84  C   UNL A   1      30.592  23.998  24.552  1.00  0.00     0.329 C 
ATOM     85  O   UNL A   1      30.464  23.961  25.775  1.00  0.00    -0.250 OA
BRANCH  84  86
ATOM     86  C   UNL A   1      30.602  25.350  23.796  1.00  0.00     0.201 C 
ATOM     87  C   UNL A   1      29.276  26.109  24.191  1.00  0.00     0.093 C 
ATOM     88  N   UNL A   1      31.735  26.323  23.506  1.00  0.00    -0.318 N 
ATOM     89  C   UNL A   1      29.111  27.319  23.362  1.00  0.00     0.042 A 
ATOM     90  C   UNL A   1      31.439  27.259  22.373  1.00  0.00     0.179 C 
ATOM     91  N   UNL A   1      28.054  28.176  23.309  1.00  0.00    -0.348 N 
ATOM     92  C   UNL A   1      30.081  27.855  22.555  1.00  0.00     0.081 A 
ATOM     93  C   UNL A   1      28.408  29.176  22.442  1.00  0.00     0.197 A 
ATOM     94  H   UNL A   1      27.202  28.093  23.797  1.00  0.00     0.167 HD
ATOM     95  N   UNL A   1      29.620  28.999  21.958  1.00  0.00    -0.240 NA
BRANCH  88  96
ATOM     96  C   UNL A   1      32.945  26.593  24.147  1.00  0.00     0.256 C 
ATOM     97  O   UNL A   1      33.968  25.940  23.913  1.00  0.00    -0.269 OA
BRANCH  96  98
ATOM     98  C   UNL A   1      33.156  27.603  25.185  1.00  0.00     0.061 A 
ATOM     99  C   UNL A   1      32.631  27.313  26.452  1.00  0.00     0.035 A 
ATOM    100  C   UNL A   1      33.545  28.908  24.893  1.00  0.00     0.072 A 
ATOM    101  C   UNL A   1      32.599  28.317  27.405  1.00  0.00     0.112 A 
ATOM    102  C   UNL A   1      33.493  29.836  25.926  1.00  0.00     0.132 A 
ATOM    103  Cl  UNL A   1      34.058  29.421  23.331  1.00  0.00    -0.082 Cl
ATOM    104  N   UNL A   1      33.037  29.572  27.174  1.00  0.00    -0.263 NA
ENDBRANCH  96  98
ENDBRANCH  88  96
ENDBRANCH  84  86
ENDBRANCH  83  84
ENDBRANCH  82  83
ENDBRANCH  81  82
ENDBRANCH  80  81
ENDBRANCH  79  80
ENDBRANCH  78  79
ENDBRANCH  77  78
ENDBRANCH   1  77
TORSDOF 25
ENDMDL
MODEL 3
REMARK VINA RESULT:      -9.3      1.875      3.320
REMARK SMILES O=C(OCCOCCOCCOCCOC(=O)[C@H]1Cc2[nH]cnc2CN1C(=O)c1ccncc1Cl)c1ccc(-c2c3nc(c(-c4c(F)cc(S(=O)(=O)[O-])cc4F)c4ccc([nH]4)c(-c4c(F)cc(S(=O)(=O)[O-])cc4F)c4nc(c(-c5c(F)cc(S(=O)(=O)[O-])cc5F)c5ccc2[nH]5)C=C4)C=C3)cc1
REMARK SMILES IDX 8 1 7 2 6 3 5 4 4 5 3 6 2 7 1 8 36 9 37 10 101 11 38 12
REMARK SMILES IDX 100 13 39 14 40 15 41 16 94 17 42 18 99 19 93 20 95 21 43 22
REMARK SMILES IDX 98 23 92 24 91 25 44 27 78 28 57 29 77 30 58 31 61 32 76 33
REMARK SMILES IDX 96 34 59 35 60 36 75 38 97 39 62 40 45 41 46 42 55 43 47 44
REMARK SMILES IDX 48 45 54 46 56 47 49 48 50 49 51 50 52 51 53 52 79 53 80 54
REMARK SMILES IDX 89 55 81 56 82 57 88 58 90 59 83 60 84 61 85 62 86 63 87 64
REMARK SMILES IDX 63 65 64 66 73 67 65 68 66 69 72 70 74 71 67 72 68 73 69 74
REMARK SMILES IDX 70 75 71 76 9 77 10 78 11 79 12 80 13 81 14 82 15 83 16 84
REMARK SMILES IDX 17 85 18 86 19 87 26 88 20 89 25 90 21 91 24 92 22 93 23 95
REMARK SMILES IDX 27 96 28 97 29 98 30 99 34 100 31 101 33 102 35 103 32 104
REMARK H PARENT 95 26 61 37 21 94
REMARK Flexibility Score: inf
ROOT
ATOM      1  C   UNL A   1      38.603  21.417  25.773  1.00  0.00     0.188 C 
ENDROOT
BRANCH   1   2
ATOM      2  C   UNL A   1      39.772  22.199  26.385  1.00  0.00     0.188 C 
BRANCH   2   3
ATOM      3  O   UNL A   1      41.126  21.882  26.125  1.00  0.00    -0.376 OA
BRANCH   3   4
ATOM      4  C   UNL A   1      42.290  22.678  26.220  1.00  0.00     0.202 C 
BRANCH   4   5
ATOM      5  C   UNL A   1      43.039  23.392  25.094  1.00  0.00     0.261 C 
BRANCH   5   6
ATOM      6  O   UNL A   1      43.067  24.807  25.167  1.00  0.00    -0.460 OA
BRANCH   6   7
ATOM      7  C   UNL A   1      42.069  25.634  25.547  1.00  0.00     0.338 C 
ATOM      8  O   UNL A   1      40.972  25.500  25.007  1.00  0.00    -0.246 OA
BRANCH   7   9
ATOM      9  C   UNL A   1      42.278  26.818  26.426  1.00  0.00     0.060 A 
ATOM     10  C   UNL A   1      42.967  26.839  27.641  1.00  0.00     0.016 A 
ATOM     11  C   UNL A   1      41.708  28.019  25.958  1.00  0.00     0.016 A 
ATOM     12  C   UNL A   1      42.929  27.958  28.447  1.00  0.00     0.010 A 
ATOM     13  C   UNL A   1      41.699  29.158  26.745  1.00  0.00     0.010 A 
ATOM     14  C   UNL A   1      42.233  29.085  28.023  1.00  0.00    -0.014 A 
BRANCH  14  15
ATOM     15  C   UNL A   1      42.044  30.128  29.012  1.00  0.00     0.031 A 
ATOM     16  C   UNL A   1      43.129  31.139  29.092  1.00  0.00     0.074 A 
ATOM     17  C   UNL A   1      40.974  30.119  29.828  1.00  0.00     0.049 A 
ATOM     18  N   UNL A   1      43.991  31.311  30.040  1.00  0.00    -0.248 NA
ATOM     19  C   UNL A   1      43.377  31.965  27.902  1.00  0.00     0.031 C 
ATOM     20  C   UNL A   1      39.743  29.328  29.718  1.00  0.00     0.029 A 
ATOM     21  N   UNL A   1      40.738  30.898  30.912  1.00  0.00    -0.354 N 
ATOM     22  C   UNL A   1      44.763  32.407  29.663  1.00  0.00     0.074 A 
ATOM     23  C   UNL A   1      44.442  32.671  28.284  1.00  0.00     0.031 C 
ATOM     24  C   UNL A   1      38.808  29.845  30.545  1.00  0.00     0.029 A 
ATOM     25  C   UNL A   1      39.420  30.890  31.344  1.00  0.00     0.049 A 
ATOM     26  H   UNL A   1      41.441  31.425  31.355  1.00  0.00     0.167 HD
ATOM     27  C   UNL A   1      45.460  33.141  30.576  1.00  0.00     0.037 A 
ATOM     28  C   UNL A   1      38.869  31.745  32.240  1.00  0.00     0.037 A 
ATOM     29  C   UNL A   1      45.649  32.412  31.802  1.00  0.00     0.049 A 
ATOM     30  C   UNL A   1      39.986  32.300  33.053  1.00  0.00     0.074 A 
ATOM     31  C   UNL A   1      46.299  31.243  32.143  1.00  0.00     0.029 A 
ATOM     32  N   UNL A   1      44.821  32.703  32.860  1.00  0.00    -0.354 N 
ATOM     33  N   UNL A   1      40.714  31.581  33.868  1.00  0.00    -0.248 NA
ATOM     34  C   UNL A   1      40.597  33.544  32.608  1.00  0.00     0.031 C 
ATOM     35  C   UNL A   1      45.477  30.642  33.138  1.00  0.00     0.029 A 
ATOM     36  C   UNL A   1      44.409  31.506  33.387  1.00  0.00     0.049 A 
ATOM     37  H   UNL A   1      44.572  33.599  33.179  1.00  0.00     0.167 HD
ATOM     38  C   UNL A   1      42.007  32.066  33.718  1.00  0.00     0.074 A 
ATOM     39  C   UNL A   1      41.859  33.322  32.987  1.00  0.00     0.031 C 
ATOM     40  C   UNL A   1      43.097  31.279  33.955  1.00  0.00     0.037 A 
BRANCH  27  41
ATOM     41  C   UNL A   1      45.667  34.634  30.489  1.00  0.00     0.058 A 
ATOM     42  C   UNL A   1      46.972  35.164  30.596  1.00  0.00     0.135 A 
ATOM     43  C   UNL A   1      44.619  35.574  30.605  1.00  0.00     0.135 A 
ATOM     44  F   UNL A   1      48.046  34.363  30.498  1.00  0.00    -0.206 F 
ATOM     45  C   UNL A   1      47.211  36.507  30.889  1.00  0.00     0.059 A 
ATOM     46  C   UNL A   1      44.837  36.925  30.846  1.00  0.00     0.059 A 
ATOM     47  F   UNL A   1      43.331  35.213  30.594  1.00  0.00    -0.206 F 
ATOM     48  C   UNL A   1      46.133  37.374  31.035  1.00  0.00     0.060 A 
BRANCH  48  49
ATOM     49  S   UNL A   1      46.427  39.076  31.547  1.00  0.00     0.124 S 
ATOM     50  O   UNL A   1      46.337  38.960  32.998  1.00  0.00    -0.237 OA
ATOM     51  O   UNL A   1      47.759  39.328  31.006  1.00  0.00    -0.237 OA
ATOM     52  O   UNL A   1      45.345  39.812  30.902  1.00  0.00    -0.744 OA
ENDBRANCH  48  49
ENDBRANCH  27  41
BRANCH  28  53
ATOM     53  C   UNL A   1      37.540  32.402  32.116  1.00  0.00     0.058 A 
ATOM     54  C   UNL A   1      36.686  32.532  33.223  1.00  0.00     0.135 A 
ATOM     55  C   UNL A   1      37.194  33.154  30.972  1.00  0.00     0.135 A 
ATOM     56  F   UNL A   1      36.954  31.873  34.361  1.00  0.00    -0.206 F 
ATOM     57  C   UNL A   1      35.578  33.387  33.213  1.00  0.00     0.059 A 
ATOM     58  C   UNL A   1      36.090  34.002  30.934  1.00  0.00     0.059 A 
ATOM     59  F   UNL A   1      37.974  33.158  29.881  1.00  0.00    -0.206 F 
ATOM     60  C   UNL A   1      35.298  34.133  32.067  1.00  0.00     0.060 A 
BRANCH  60  61
ATOM     61  S   UNL A   1      33.971  35.361  32.102  1.00  0.00     0.124 S 
ATOM     62  O   UNL A   1      32.848  34.575  32.601  1.00  0.00    -0.237 OA
ATOM     63  O   UNL A   1      34.504  36.364  33.017  1.00  0.00    -0.237 OA
ATOM     64  O   UNL A   1      33.865  35.786  30.709  1.00  0.00    -0.744 OA
ENDBRANCH  60  61
ENDBRANCH  28  53
BRANCH  40  65
ATOM     65  C   UNL A   1      42.901  29.956  34.649  1.00  0.00     0.058 A 
ATOM     66  C   UNL A   1      42.872  29.794  36.045  1.00  0.00     0.135 A 
ATOM     67  C   UNL A   1      42.512  28.858  33.866  1.00  0.00     0.135 A 
ATOM     68  F   UNL A   1      43.136  30.822  36.864  1.00  0.00    -0.206 F 
ATOM     69  C   UNL A   1      42.482  28.589  36.635  1.00  0.00     0.059 A 
ATOM     70  C   UNL A   1      42.092  27.658  34.433  1.00  0.00     0.059 A 
ATOM     71  F   UNL A   1      42.461  28.972  32.528  1.00  0.00    -0.206 F 
ATOM     72  C   UNL A   1      42.081  27.530  35.819  1.00  0.00     0.060 A 
BRANCH  72  73
ATOM     73  S   UNL A   1      41.446  26.022  36.586  1.00  0.00     0.124 S 
ATOM     74  O   UNL A   1      40.584  26.548  37.635  1.00  0.00    -0.237 OA
ATOM     75  O   UNL A   1      40.770  25.360  35.476  1.00  0.00    -0.237 OA
ATOM     76  O   UNL A   1      42.657  25.344  37.056  1.00  0.00    -0.744 OA
ENDBRANCH  72  73
ENDBRANCH  40  65
ENDBRANCH  14  15
ENDBRANCH   7   9
ENDBRANCH   6   7
ENDBRANCH   5   6
ENDBRANCH   4   5
ENDBRANCH   3   4
ENDBRANCH   2   3
ENDBRANCH   1   2
BRANCH   1  77
ATOM     77  O   UNL A   1      37.774  22.144  24.890  1.00  0.00    -0.377 OA
BRANCH  77  78
ATOM     78  C   UNL A   1      37.327  23.376  25.404  1.00  0.00     0.188 C 
BRANCH  78  79
ATOM     79  C   UNL A   1      35.855  23.370  25.867  1.00  0.00     0.188 C 
BRANCH  79  80
ATOM     80  O   UNL A   1      34.954  24.385  25.448  1.00  0.00    -0.376 OA
BRANCH  80  81
ATOM     81  C   UNL A   1      34.112  24.150  24.332  1.00  0.00     0.202 C 
BRANCH  81  82
ATOM     82  C   UNL A   1      33.743  25.342  23.438  1.00  0.00     0.261 C 
BRANCH  82  83
ATOM     83  O   UNL A   1      32.492  25.233  22.722  1.00  0.00    -0.462 OA
BRANCH  83  84
ATOM     84  C   UNL A   1      31.376  25.647  23.367  1.00  0.00     0.329 C 
ATOM     85  O   UNL A   1      30.915  25.074  24.353  1.00  0.00    -0.250 OA
BRANCH  84  86
ATOM     86  C   UNL A   1      30.838  27.032  22.931  1.00  0.00     0.201 C 
ATOM     87  C   UNL A   1      29.394  27.181  23.550  1.00  0.00     0.093 C 
ATOM     88  N   UNL A   1      31.532  28.381  22.809  1.00  0.00    -0.318 N 
ATOM     89  C   UNL A   1      28.730  28.389  23.020  1.00  0.00     0.042 A 
ATOM     90  C   UNL A   1      30.801  29.348  21.928  1.00  0.00     0.179 C 
ATOM     91  N   UNL A   1      27.448  28.808  23.211  1.00  0.00    -0.348 N 
ATOM     92  C   UNL A   1      29.355  29.378  22.305  1.00  0.00     0.081 A 
ATOM     93  C   UNL A   1      27.335  30.014  22.572  1.00  0.00     0.197 A 
ATOM     94  H   UNL A   1      26.742  28.336  23.710  1.00  0.00     0.167 HD
ATOM     95  N   UNL A   1      28.466  30.375  22.001  1.00  0.00    -0.240 NA
BRANCH  88  96
ATOM     96  C   UNL A   1      32.651  28.934  23.432  1.00  0.00     0.256 C 
ATOM     97  O   UNL A   1      33.630  29.328  22.789  1.00  0.00    -0.269 OA
BRANCH  96  98
ATOM     98  C   UNL A   1      32.844  29.069  24.878  1.00  0.00     0.061 A 
ATOM     99  C   UNL A   1      33.691  28.131  25.483  1.00  0.00     0.035 A 
ATOM    100  C   UNL A   1      32.008  29.846  25.676  1.00  0.00     0.072 A 
ATOM    101  C   UNL A   1      33.733  28.067  26.866  1.00  0.00     0.112 A 
ATOM    102  C   UNL A   1      32.143  29.720  27.054  1.00  0.00     0.132 A 
ATOM    103  Cl  UNL A   1      30.817  30.918  25.045  1.00  0.00    -0.082 Cl
ATOM    104  N   UNL A   1      32.988  28.857  27.667  1.00  0.00    -0.263 NA
ENDBRANCH  96  98
ENDBRANCH  88  96
ENDBRANCH  84  86
ENDBRANCH  83  84
ENDBRANCH  82  83
ENDBRANCH  81  82
ENDBRANCH  80  81
ENDBRANCH  79  80
ENDBRANCH  78  79
ENDBRANCH  77  78
ENDBRANCH   1  77
TORSDOF 25
ENDMDL
