MODEL 1
REMARK VINA RESULT:      -7.8      0.000      0.000
REMARK SMILES COc1ccccc1C[N@@H+](C)[C@@H](C)c1ccc(C(=O)OCCOCCOCCOCCOC(=O)c2ccc(-c3c4nc(c(-c5c(F)cc(S(=O)(=O)[O-])cc5F)c5ccc([nH]5)c(-c5c(F)cc(S(=O)(=O)[O-])cc5F)c5nc(c(-c6c(F)cc(S(=O)(=O)[O-])cc6F)c6ccc3[nH]6)C=C5)C=C4)cc2)o1
REMARK SMILES IDX 25 1 24 2 23 3 22 4 21 5 20 6 18 7 19 8 17 9 14 10 15 11
REMARK SMILES IDX 101 12 16 13 12 14 13 15 10 16 11 17 9 19 8 20 3 21 4 22
REMARK SMILES IDX 5 23 7 24 6 25 2 26 1 27 26 28 27 29 28 30 29 31 30 32 31 33
REMARK SMILES IDX 32 34 33 35 34 36 35 37 36 38 100 39 37 40 99 41 38 42 39 43
REMARK SMILES IDX 40 44 93 45 41 46 98 47 92 48 94 49 42 50 97 51 91 52 90 53
REMARK SMILES IDX 43 55 77 56 56 57 76 58 57 59 60 60 75 61 95 62 58 63 59 64
REMARK SMILES IDX 74 66 96 67 61 68 44 69 45 70 54 71 46 72 47 73 53 74 55 75
REMARK SMILES IDX 48 76 49 77 50 78 51 79 52 80 78 81 79 82 88 83 80 84 81 85
REMARK SMILES IDX 87 86 89 87 82 88 83 89 84 90 85 91 86 92 62 93 63 94 72 95
REMARK SMILES IDX 64 96 65 97 71 98 73 99 66 100 67 101 68 102 69 103 70 104
REMARK H PARENT 10 18 94 54 60 65
REMARK Flexibility Score: inf
ROOT
ATOM      1  C   UNL A   1      45.803  26.958  25.662  1.00  0.00     0.188 C 
ENDROOT
BRANCH   1   2
ATOM      2  C   UNL A   1      44.716  25.954  25.264  1.00  0.00     0.188 C 
BRANCH   2   3
ATOM      3  O   UNL A   1      43.975  25.530  26.407  1.00  0.00    -0.376 OA
BRANCH   3   4
ATOM      4  C   UNL A   1      44.342  24.224  26.849  1.00  0.00     0.202 C 
BRANCH   4   5
ATOM      5  C   UNL A   1      43.491  23.094  26.250  1.00  0.00     0.261 C 
BRANCH   5   6
ATOM      6  O   UNL A   1      42.254  22.797  26.941  1.00  0.00    -0.457 OA
BRANCH   6   7
ATOM      7  C   UNL A   1      41.381  21.846  26.484  1.00  0.00     0.374 C 
ATOM      8  O   UNL A   1      41.697  20.682  26.279  1.00  0.00    -0.242 OA
BRANCH   7   9
ATOM      9  C   UNL A   1      40.065  22.465  26.337  1.00  0.00     0.212 A 
ATOM     10  C   UNL A   1      37.891  22.632  25.825  1.00  0.00     0.162 A 
ATOM     11  C   UNL A   1      38.269  23.813  26.443  1.00  0.00     0.053 A 
ATOM     12  O   UNL A   1      39.006  21.821  25.708  1.00  0.00    -0.448 OA
ATOM     13  C   UNL A   1      39.635  23.711  26.760  1.00  0.00     0.059 A 
BRANCH  10  14
ATOM     14  C   UNL A   1      36.535  22.262  25.196  1.00  0.00     0.248 C 
ATOM     15  C   UNL A   1      36.536  22.629  23.696  1.00  0.00     0.084 C 
BRANCH  14  16
ATOM     16  N   UNL A   1      35.280  22.648  25.909  1.00  0.00    -0.325 N 
ATOM     17  C   UNL A   1      34.732  21.506  26.647  1.00  0.00     0.333 C 
ATOM     18  H   UNL A   1      35.580  23.401  26.528  1.00  0.00     0.348 HD
BRANCH  16  19
ATOM     19  C   UNL A   1      34.197  23.206  25.063  1.00  0.00     0.303 C 
BRANCH  19  20
ATOM     20  C   UNL A   1      33.629  24.451  25.671  1.00  0.00     0.048 A 
ATOM     21  C   UNL A   1      32.381  24.464  26.296  1.00  0.00     0.127 A 
ATOM     22  C   UNL A   1      31.707  25.663  26.458  1.00  0.00     0.047 A 
ATOM     23  C   UNL A   1      32.350  26.854  26.139  1.00  0.00     0.004 A 
ATOM     24  C   UNL A   1      34.296  25.662  25.422  1.00  0.00     0.013 A 
ATOM     25  C   UNL A   1      33.648  26.867  25.641  1.00  0.00     0.001 A 
BRANCH  21  26
ATOM     26  O   UNL A   1      31.764  23.304  26.677  1.00  0.00    -0.496 OA
ATOM     27  C   UNL A   1      30.728  22.985  25.743  1.00  0.00     0.278 C 
ENDBRANCH  21  26
ENDBRANCH  19  20
ENDBRANCH  16  19
ENDBRANCH  14  16
ENDBRANCH  10  14
ENDBRANCH   7   9
ENDBRANCH   6   7
ENDBRANCH   5   6
ENDBRANCH   4   5
ENDBRANCH   3   4
ENDBRANCH   2   3
ENDBRANCH   1   2
BRANCH   1  28
ATOM     28  O   UNL A   1      45.343  28.145  26.291  1.00  0.00    -0.377 OA
BRANCH  28  29
ATOM     29  C   UNL A   1      46.191  29.265  26.152  1.00  0.00     0.188 C 
BRANCH  29  30
ATOM     30  C   UNL A   1      45.546  30.607  26.558  1.00  0.00     0.188 C 
BRANCH  30  31
ATOM     31  O   UNL A   1      45.845  31.823  25.876  1.00  0.00    -0.376 OA
BRANCH  31  32
ATOM     32  C   UNL A   1      46.568  32.869  26.513  1.00  0.00     0.202 C 
BRANCH  32  33
ATOM     33  C   UNL A   1      46.357  34.325  26.078  1.00  0.00     0.261 C 
BRANCH  33  34
ATOM     34  O   UNL A   1      47.138  35.276  26.808  1.00  0.00    -0.460 OA
BRANCH  34  35
ATOM     35  C   UNL A   1      46.615  36.520  26.902  1.00  0.00     0.338 C 
ATOM     36  O   UNL A   1      46.479  37.339  26.006  1.00  0.00    -0.246 OA
BRANCH  35  37
ATOM     37  C   UNL A   1      46.012  36.664  28.239  1.00  0.00     0.060 A 
ATOM     38  C   UNL A   1      46.595  35.956  29.303  1.00  0.00     0.016 A 
ATOM     39  C   UNL A   1      44.943  37.536  28.461  1.00  0.00     0.016 A 
ATOM     40  C   UNL A   1      46.119  36.130  30.598  1.00  0.00     0.010 A 
ATOM     41  C   UNL A   1      44.423  37.658  29.750  1.00  0.00     0.010 A 
ATOM     42  C   UNL A   1      44.994  36.936  30.812  1.00  0.00    -0.014 A 
BRANCH  42  43
ATOM     43  C   UNL A   1      44.222  36.765  32.061  1.00  0.00     0.031 A 
ATOM     44  C   UNL A   1      44.606  37.651  33.213  1.00  0.00     0.074 A 
ATOM     45  C   UNL A   1      43.240  35.856  32.175  1.00  0.00     0.049 A 
ATOM     46  N   UNL A   1      44.173  37.649  34.443  1.00  0.00    -0.248 NA
ATOM     47  C   UNL A   1      45.624  38.681  32.934  1.00  0.00     0.031 C 
ATOM     48  C   UNL A   1      42.755  34.990  31.101  1.00  0.00     0.029 A 
ATOM     49  N   UNL A   1      42.487  35.500  33.264  1.00  0.00    -0.354 N 
ATOM     50  C   UNL A   1      44.867  38.669  35.083  1.00  0.00     0.074 A 
ATOM     51  C   UNL A   1      45.758  39.262  34.114  1.00  0.00     0.031 C 
ATOM     52  C   UNL A   1      41.799  34.180  31.595  1.00  0.00     0.029 A 
ATOM     53  C   UNL A   1      41.635  34.449  33.024  1.00  0.00     0.049 A 
ATOM     54  H   UNL A   1      42.549  35.955  34.134  1.00  0.00     0.167 HD
ATOM     55  C   UNL A   1      44.774  39.072  36.369  1.00  0.00     0.037 A 
ATOM     56  C   UNL A   1      40.843  33.767  33.878  1.00  0.00     0.037 A 
ATOM     57  C   UNL A   1      43.913  38.446  37.332  1.00  0.00     0.049 A 
ATOM     58  C   UNL A   1      40.818  34.176  35.331  1.00  0.00     0.074 A 
ATOM     59  C   UNL A   1      43.754  38.749  38.669  1.00  0.00     0.029 A 
ATOM     60  N   UNL A   1      43.077  37.374  37.055  1.00  0.00    -0.354 N 
ATOM     61  N   UNL A   1      41.473  35.145  35.927  1.00  0.00    -0.248 NA
ATOM     62  C   UNL A   1      39.954  33.397  36.229  1.00  0.00     0.031 C 
ATOM     63  C   UNL A   1      42.851  37.830  39.214  1.00  0.00     0.029 A 
ATOM     64  C   UNL A   1      42.407  36.992  38.202  1.00  0.00     0.049 A 
ATOM     65  H   UNL A   1      42.974  36.949  36.172  1.00  0.00     0.167 HD
ATOM     66  C   UNL A   1      41.070  35.118  37.258  1.00  0.00     0.074 A 
ATOM     67  C   UNL A   1      40.120  34.032  37.382  1.00  0.00     0.031 C 
ATOM     68  C   UNL A   1      41.444  35.922  38.284  1.00  0.00     0.037 A 
BRANCH  55  69
ATOM     69  C   UNL A   1      45.662  40.202  36.799  1.00  0.00     0.058 A 
ATOM     70  C   UNL A   1      46.939  39.972  37.336  1.00  0.00     0.135 A 
ATOM     71  C   UNL A   1      45.224  41.531  36.691  1.00  0.00     0.135 A 
ATOM     72  F   UNL A   1      47.392  38.718  37.492  1.00  0.00    -0.206 F 
ATOM     73  C   UNL A   1      47.741  41.020  37.774  1.00  0.00     0.059 A 
ATOM     74  C   UNL A   1      46.020  42.596  37.098  1.00  0.00     0.059 A 
ATOM     75  F   UNL A   1      44.005  41.803  36.200  1.00  0.00    -0.206 F 
ATOM     76  C   UNL A   1      47.272  42.329  37.652  1.00  0.00     0.060 A 
BRANCH  76  77
ATOM     77  S   UNL A   1      48.322  43.679  38.227  1.00  0.00     0.124 S 
ATOM     78  O   UNL A   1      49.544  43.444  37.464  1.00  0.00    -0.237 OA
ATOM     79  O   UNL A   1      47.552  44.859  37.844  1.00  0.00    -0.237 OA
ATOM     80  O   UNL A   1      48.424  43.442  39.664  1.00  0.00    -0.744 OA
ENDBRANCH  76  77
ENDBRANCH  55  69
BRANCH  56  81
ATOM     81  C   UNL A   1      40.026  32.623  33.390  1.00  0.00     0.058 A 
ATOM     82  C   UNL A   1      40.517  31.309  33.438  1.00  0.00     0.135 A 
ATOM     83  C   UNL A   1      38.739  32.818  32.865  1.00  0.00     0.135 A 
ATOM     84  F   UNL A   1      41.746  31.070  33.918  1.00  0.00    -0.206 F 
ATOM     85  C   UNL A   1      39.767  30.232  32.973  1.00  0.00     0.059 A 
ATOM     86  C   UNL A   1      37.960  31.755  32.417  1.00  0.00     0.059 A 
ATOM     87  F   UNL A   1      38.218  34.053  32.802  1.00  0.00    -0.206 F 
ATOM     88  C   UNL A   1      38.487  30.464  32.468  1.00  0.00     0.060 A 
BRANCH  88  89
ATOM     89  S   UNL A   1      37.502  29.054  31.918  1.00  0.00     0.124 S 
ATOM     90  O   UNL A   1      36.230  29.692  31.596  1.00  0.00    -0.237 OA
ATOM     91  O   UNL A   1      38.277  28.564  30.782  1.00  0.00    -0.237 OA
ATOM     92  O   UNL A   1      37.492  28.176  33.084  1.00  0.00    -0.744 OA
ENDBRANCH  88  89
ENDBRANCH  56  81
BRANCH  68  93
ATOM     93  C   UNL A   1      40.785  35.712  39.618  1.00  0.00     0.058 A 
ATOM     94  C   UNL A   1      39.584  36.347  39.960  1.00  0.00     0.135 A 
ATOM     95  C   UNL A   1      41.311  34.767  40.516  1.00  0.00     0.135 A 
ATOM     96  F   UNL A   1      39.043  37.259  39.137  1.00  0.00    -0.206 F 
ATOM     97  C   UNL A   1      38.925  36.056  41.150  1.00  0.00     0.059 A 
ATOM     98  C   UNL A   1      40.656  34.442  41.698  1.00  0.00     0.059 A 
ATOM     99  F   UNL A   1      42.454  34.123  40.227  1.00  0.00    -0.206 F 
ATOM    100  C   UNL A   1      39.466  35.095  42.008  1.00  0.00     0.060 A 
BRANCH 100 101
ATOM    101  S   UNL A   1      38.561  34.671  43.512  1.00  0.00     0.124 S 
ATOM    102  O   UNL A   1      39.432  35.223  44.544  1.00  0.00    -0.237 OA
ATOM    103  O   UNL A   1      37.290  35.363  43.319  1.00  0.00    -0.237 OA
ATOM    104  O   UNL A   1      38.487  33.214  43.465  1.00  0.00    -0.744 OA
ENDBRANCH 100 101
ENDBRANCH  68  93
ENDBRANCH  42  43
ENDBRANCH  35  37
ENDBRANCH  34  35
ENDBRANCH  33  34
ENDBRANCH  32  33
ENDBRANCH  31  32
ENDBRANCH  30  31
ENDBRANCH  29  30
ENDBRANCH  28  29
ENDBRANCH   1  28
TORSDOF 28
ENDMDL
MODEL 2
REMARK VINA RESULT:      -7.3     10.525     14.568
REMARK SMILES COc1ccccc1C[N@@H+](C)[C@@H](C)c1ccc(C(=O)OCCOCCOCCOCCOC(=O)c2ccc(-c3c4nc(c(-c5c(F)cc(S(=O)(=O)[O-])cc5F)c5ccc([nH]5)c(-c5c(F)cc(S(=O)(=O)[O-])cc5F)c5nc(c(-c6c(F)cc(S(=O)(=O)[O-])cc6F)c6ccc3[nH]6)C=C5)C=C4)cc2)o1
REMARK SMILES IDX 25 1 24 2 23 3 22 4 21 5 20 6 18 7 19 8 17 9 14 10 15 11
REMARK SMILES IDX 101 12 16 13 12 14 13 15 10 16 11 17 9 19 8 20 3 21 4 22
REMARK SMILES IDX 5 23 7 24 6 25 2 26 1 27 26 28 27 29 28 30 29 31 30 32 31 33
REMARK SMILES IDX 32 34 33 35 34 36 35 37 36 38 100 39 37 40 99 41 38 42 39 43
REMARK SMILES IDX 40 44 93 45 41 46 98 47 92 48 94 49 42 50 97 51 91 52 90 53
REMARK SMILES IDX 43 55 77 56 56 57 76 58 57 59 60 60 75 61 95 62 58 63 59 64
REMARK SMILES IDX 74 66 96 67 61 68 44 69 45 70 54 71 46 72 47 73 53 74 55 75
REMARK SMILES IDX 48 76 49 77 50 78 51 79 52 80 78 81 79 82 88 83 80 84 81 85
REMARK SMILES IDX 87 86 89 87 82 88 83 89 84 90 85 91 86 92 62 93 63 94 72 95
REMARK SMILES IDX 64 96 65 97 71 98 73 99 66 100 67 101 68 102 69 103 70 104
REMARK H PARENT 10 18 94 54 60 65
REMARK Flexibility Score: inf
ROOT
ATOM      1  C   UNL A   1      49.939  20.643  40.307  1.00  0.00     0.188 C 
ENDROOT
BRANCH   1   2
ATOM      2  C   UNL A   1      49.606  19.537  41.315  1.00  0.00     0.188 C 
BRANCH   2   3
ATOM      3  O   UNL A   1      48.194  19.367  41.433  1.00  0.00    -0.376 OA
BRANCH   3   4
ATOM      4  C   UNL A   1      47.831  18.486  42.495  1.00  0.00     0.202 C 
BRANCH   4   5
ATOM      5  C   UNL A   1      47.082  17.225  42.040  1.00  0.00     0.261 C 
BRANCH   5   6
ATOM      6  O   UNL A   1      45.639  17.326  41.995  1.00  0.00    -0.457 OA
BRANCH   6   7
ATOM      7  C   UNL A   1      44.960  17.460  40.813  1.00  0.00     0.374 C 
ATOM      8  O   UNL A   1      45.285  18.248  39.934  1.00  0.00    -0.242 OA
BRANCH   7   9
ATOM      9  C   UNL A   1      43.857  16.502  40.806  1.00  0.00     0.212 A 
ATOM     10  C   UNL A   1      42.669  14.693  41.385  1.00  0.00     0.162 A 
ATOM     11  C   UNL A   1      41.899  15.439  40.507  1.00  0.00     0.053 A 
ATOM     12  O   UNL A   1      43.897  15.316  41.530  1.00  0.00    -0.448 OA
ATOM     13  C   UNL A   1      42.646  16.572  40.140  1.00  0.00     0.059 A 
BRANCH  10  14
ATOM     14  C   UNL A   1      42.365  13.320  42.011  1.00  0.00     0.248 C 
ATOM     15  C   UNL A   1      41.327  12.570  41.147  1.00  0.00     0.084 C 
BRANCH  14  16
ATOM     16  N   UNL A   1      42.097  13.239  43.479  1.00  0.00    -0.325 N 
ATOM     17  C   UNL A   1      40.798  13.840  43.801  1.00  0.00     0.333 C 
ATOM     18  H   UNL A   1      42.119  12.238  43.670  1.00  0.00     0.348 HD
BRANCH  16  19
ATOM     19  C   UNL A   1      43.116  13.858  44.361  1.00  0.00     0.303 C 
BRANCH  19  20
ATOM     20  C   UNL A   1      44.236  12.903  44.639  1.00  0.00     0.048 A 
ATOM     21  C   UNL A   1      45.571  13.310  44.630  1.00  0.00     0.127 A 
ATOM     22  C   UNL A   1      46.574  12.370  44.462  1.00  0.00     0.047 A 
ATOM     23  C   UNL A   1      46.246  11.018  44.461  1.00  0.00     0.004 A 
ATOM     24  C   UNL A   1      43.924  11.535  44.710  1.00  0.00     0.013 A 
ATOM     25  C   UNL A   1      44.931  10.590  44.604  1.00  0.00     0.001 A 
BRANCH  21  26
ATOM     26  O   UNL A   1      45.912  14.633  44.699  1.00  0.00    -0.496 OA
ATOM     27  C   UNL A   1      47.238  14.757  45.223  1.00  0.00     0.278 C 
ENDBRANCH  21  26
ENDBRANCH  19  20
ENDBRANCH  16  19
ENDBRANCH  14  16
ENDBRANCH  10  14
ENDBRANCH   7   9
ENDBRANCH   6   7
ENDBRANCH   5   6
ENDBRANCH   4   5
ENDBRANCH   3   4
ENDBRANCH   2   3
ENDBRANCH   1   2
BRANCH   1  28
ATOM     28  O   UNL A   1      49.103  21.789  40.355  1.00  0.00    -0.377 OA
BRANCH  28  29
ATOM     29  C   UNL A   1      48.671  22.269  39.100  1.00  0.00     0.188 C 
BRANCH  29  30
ATOM     30  C   UNL A   1      48.885  21.283  37.932  1.00  0.00     0.188 C 
BRANCH  30  31
ATOM     31  O   UNL A   1      47.832  20.456  37.441  1.00  0.00    -0.376 OA
BRANCH  31  32
ATOM     32  C   UNL A   1      47.651  20.237  36.049  1.00  0.00     0.202 C 
BRANCH  32  33
ATOM     33  C   UNL A   1      47.450  21.427  35.103  1.00  0.00     0.261 C 
BRANCH  33  34
ATOM     34  O   UNL A   1      47.061  22.639  35.756  1.00  0.00    -0.460 OA
BRANCH  34  35
ATOM     35  C   UNL A   1      45.728  22.846  35.869  1.00  0.00     0.338 C 
ATOM     36  O   UNL A   1      44.908  22.126  36.419  1.00  0.00    -0.246 OA
BRANCH  35  37
ATOM     37  C   UNL A   1      45.436  24.216  35.412  1.00  0.00     0.060 A 
ATOM     38  C   UNL A   1      44.411  24.390  34.467  1.00  0.00     0.016 A 
ATOM     39  C   UNL A   1      46.100  25.318  35.957  1.00  0.00     0.016 A 
ATOM     40  C   UNL A   1      44.036  25.670  34.074  1.00  0.00     0.010 A 
ATOM     41  C   UNL A   1      45.769  26.598  35.511  1.00  0.00     0.010 A 
ATOM     42  C   UNL A   1      44.756  26.771  34.552  1.00  0.00    -0.014 A 
BRANCH  42  43
ATOM     43  C   UNL A   1      44.680  28.049  33.812  1.00  0.00     0.031 A 
ATOM     44  C   UNL A   1      44.056  29.207  34.538  1.00  0.00     0.074 A 
ATOM     45  C   UNL A   1      45.124  28.171  32.550  1.00  0.00     0.049 A 
ATOM     46  N   UNL A   1      43.769  30.403  34.104  1.00  0.00    -0.248 NA
ATOM     47  C   UNL A   1      43.705  28.979  35.952  1.00  0.00     0.031 C 
ATOM     48  C   UNL A   1      45.795  27.125  31.780  1.00  0.00     0.029 A 
ATOM     49  N   UNL A   1      45.057  29.235  31.689  1.00  0.00    -0.354 N 
ATOM     50  C   UNL A   1      43.203  31.065  35.186  1.00  0.00     0.074 A 
ATOM     51  C   UNL A   1      43.172  30.140  36.293  1.00  0.00     0.031 C 
ATOM     52  C   UNL A   1      46.054  27.594  30.545  1.00  0.00     0.029 A 
ATOM     53  C   UNL A   1      45.535  28.957  30.431  1.00  0.00     0.049 A 
ATOM     54  H   UNL A   1      44.701  30.116  31.947  1.00  0.00     0.167 HD
ATOM     55  C   UNL A   1      42.742  32.334  35.249  1.00  0.00     0.037 A 
ATOM     56  C   UNL A   1      45.518  29.713  29.314  1.00  0.00     0.037 A 
ATOM     57  C   UNL A   1      42.742  33.230  34.127  1.00  0.00     0.049 A 
ATOM     58  C   UNL A   1      44.919  31.097  29.381  1.00  0.00     0.074 A 
ATOM     59  C   UNL A   1      42.276  34.528  34.063  1.00  0.00     0.029 A 
ATOM     60  N   UNL A   1      43.220  32.906  32.866  1.00  0.00    -0.354 N 
ATOM     61  N   UNL A   1      44.389  31.718  30.409  1.00  0.00    -0.248 NA
ATOM     62  C   UNL A   1      44.907  31.881  28.138  1.00  0.00     0.031 C 
ATOM     63  C   UNL A   1      42.433  34.976  32.748  1.00  0.00     0.029 A 
ATOM     64  C   UNL A   1      43.048  33.977  32.009  1.00  0.00     0.049 A 
ATOM     65  H   UNL A   1      43.623  32.042  32.618  1.00  0.00     0.167 HD
ATOM     66  C   UNL A   1      44.020  32.977  29.949  1.00  0.00     0.074 A 
ATOM     67  C   UNL A   1      44.379  33.028  28.546  1.00  0.00     0.031 C 
ATOM     68  C   UNL A   1      43.443  34.003  30.623  1.00  0.00     0.037 A 
BRANCH  55  69
ATOM     69  C   UNL A   1      42.161  32.788  36.555  1.00  0.00     0.058 A 
ATOM     70  C   UNL A   1      40.795  32.646  36.844  1.00  0.00     0.135 A 
ATOM     71  C   UNL A   1      42.978  33.391  37.524  1.00  0.00     0.135 A 
ATOM     72  F   UNL A   1      39.964  32.106  35.937  1.00  0.00    -0.206 F 
ATOM     73  C   UNL A   1      40.253  33.108  38.038  1.00  0.00     0.059 A 
ATOM     74  C   UNL A   1      42.463  33.837  38.736  1.00  0.00     0.059 A 
ATOM     75  F   UNL A   1      44.288  33.566  37.290  1.00  0.00    -0.206 F 
ATOM     76  C   UNL A   1      41.095  33.704  38.978  1.00  0.00     0.060 A 
BRANCH  76  77
ATOM     77  S   UNL A   1      40.379  34.302  40.522  1.00  0.00     0.124 S 
ATOM     78  O   UNL A   1      40.929  33.353  41.486  1.00  0.00    -0.237 OA
ATOM     79  O   UNL A   1      40.902  35.662  40.603  1.00  0.00    -0.237 OA
ATOM     80  O   UNL A   1      38.942  34.200  40.292  1.00  0.00    -0.744 OA
ENDBRANCH  76  77
ENDBRANCH  55  69
BRANCH  56  81
ATOM     81  C   UNL A   1      46.067  29.178  28.038  1.00  0.00     0.058 A 
ATOM     82  C   UNL A   1      45.235  28.553  27.097  1.00  0.00     0.135 A 
ATOM     83  C   UNL A   1      47.433  29.278  27.734  1.00  0.00     0.135 A 
ATOM     84  F   UNL A   1      43.923  28.420  27.345  1.00  0.00    -0.206 F 
ATOM     85  C   UNL A   1      45.738  28.037  25.906  1.00  0.00     0.059 A 
ATOM     86  C   UNL A   1      47.957  28.791  26.539  1.00  0.00     0.059 A 
ATOM     87  F   UNL A   1      48.273  29.871  28.596  1.00  0.00    -0.206 F 
ATOM     88  C   UNL A   1      47.101  28.164  25.634  1.00  0.00     0.060 A 
BRANCH  88  89
ATOM     89  S   UNL A   1      47.735  27.540  24.062  1.00  0.00     0.124 S 
ATOM     90  O   UNL A   1      46.870  28.221  23.105  1.00  0.00    -0.237 OA
ATOM     91  O   UNL A   1      49.125  27.982  24.095  1.00  0.00    -0.237 OA
ATOM     92  O   UNL A   1      47.542  26.097  24.171  1.00  0.00    -0.744 OA
ENDBRANCH  88  89
ENDBRANCH  56  81
BRANCH  68  93
ATOM     93  C   UNL A   1      43.219  35.293  29.884  1.00  0.00     0.058 A 
ATOM     94  C   UNL A   1      44.181  36.312  29.866  1.00  0.00     0.135 A 
ATOM     95  C   UNL A   1      42.071  35.452  29.090  1.00  0.00     0.135 A 
ATOM     96  F   UNL A   1      45.293  36.207  30.610  1.00  0.00    -0.206 F 
ATOM     97  C   UNL A   1      44.012  37.451  29.085  1.00  0.00     0.059 A 
ATOM     98  C   UNL A   1      41.894  36.571  28.284  1.00  0.00     0.059 A 
ATOM     99  F   UNL A   1      41.128  34.497  29.065  1.00  0.00    -0.206 F 
ATOM    100  C   UNL A   1      42.868  37.566  28.291  1.00  0.00     0.060 A 
BRANCH 100 101
ATOM    101  S   UNL A   1      42.697  39.014  27.225  1.00  0.00     0.124 S 
ATOM    102  O   UNL A   1      43.942  38.970  26.466  1.00  0.00    -0.237 OA
ATOM    103  O   UNL A   1      41.484  38.707  26.473  1.00  0.00    -0.237 OA
ATOM    104  O   UNL A   1      42.576  40.119  28.171  1.00  0.00    -0.744 OA
ENDBRANCH 100 101
ENDBRANCH  68  93
ENDBRANCH  42  43
ENDBRANCH  35  37
ENDBRANCH  34  35
ENDBRANCH  33  34
ENDBRANCH  32  33
ENDBRANCH  31  32
ENDBRANCH  30  31
ENDBRANCH  29  30
ENDBRANCH  28  29
ENDBRANCH   1  28
TORSDOF 28
ENDMDL
MODEL 3
REMARK VINA RESULT:      -7.3      1.703      2.499
REMARK SMILES COc1ccccc1C[N@@H+](C)[C@@H](C)c1ccc(C(=O)OCCOCCOCCOCCOC(=O)c2ccc(-c3c4nc(c(-c5c(F)cc(S(=O)(=O)[O-])cc5F)c5ccc([nH]5)c(-c5c(F)cc(S(=O)(=O)[O-])cc5F)c5nc(c(-c6c(F)cc(S(=O)(=O)[O-])cc6F)c6ccc3[nH]6)C=C5)C=C4)cc2)o1
REMARK SMILES IDX 25 1 24 2 23 3 22 4 21 5 20 6 18 7 19 8 17 9 14 10 15 11
REMARK SMILES IDX 101 12 16 13 12 14 13 15 10 16 11 17 9 19 8 20 3 21 4 22
REMARK SMILES IDX 5 23 7 24 6 25 2 26 1 27 26 28 27 29 28 30 29 31 30 32 31 33
REMARK SMILES IDX 32 34 33 35 34 36 35 37 36 38 100 39 37 40 99 41 38 42 39 43
REMARK SMILES IDX 40 44 93 45 41 46 98 47 92 48 94 49 42 50 97 51 91 52 90 53
REMARK SMILES IDX 43 55 77 56 56 57 76 58 57 59 60 60 75 61 95 62 58 63 59 64
REMARK SMILES IDX 74 66 96 67 61 68 44 69 45 70 54 71 46 72 47 73 53 74 55 75
REMARK SMILES IDX 48 76 49 77 50 78 51 79 52 80 78 81 79 82 88 83 80 84 81 85
REMARK SMILES IDX 87 86 89 87 82 88 83 89 84 90 85 91 86 92 62 93 63 94 72 95
REMARK SMILES IDX 64 96 65 97 71 98 73 99 66 100 67 101 68 102 69 103 70 104
REMARK H PARENT 10 18 94 54 60 65
REMARK Flexibility Score: inf
ROOT
ATOM      1  C   UNL A   1      42.133  28.690  26.847  1.00  0.00     0.188 C 
ENDROOT
BRANCH   1   2
ATOM      2  C   UNL A   1      40.601  28.730  26.875  1.00  0.00     0.188 C 
BRANCH   2   3
ATOM      3  O   UNL A   1      40.075  27.559  27.497  1.00  0.00    -0.376 OA
BRANCH   3   4
ATOM      4  C   UNL A   1      40.891  26.407  27.285  1.00  0.00     0.202 C 
BRANCH   4   5
ATOM      5  C   UNL A   1      40.289  25.380  26.314  1.00  0.00     0.261 C 
BRANCH   5   6
ATOM      6  O   UNL A   1      39.050  24.761  26.734  1.00  0.00    -0.457 OA
BRANCH   6   7
ATOM      7  C   UNL A   1      38.741  23.467  26.408  1.00  0.00     0.374 C 
ATOM      8  O   UNL A   1      39.481  22.519  26.635  1.00  0.00    -0.242 OA
BRANCH   7   9
ATOM      9  C   UNL A   1      37.411  23.451  25.804  1.00  0.00     0.212 A 
ATOM     10  C   UNL A   1      35.178  23.584  25.687  1.00  0.00     0.162 A 
ATOM     11  C   UNL A   1      35.660  23.462  24.394  1.00  0.00     0.053 A 
ATOM     12  O   UNL A   1      36.248  23.523  26.563  1.00  0.00    -0.448 OA
ATOM     13  C   UNL A   1      37.061  23.373  24.467  1.00  0.00     0.059 A 
BRANCH  10  14
ATOM     14  C   UNL A   1      33.718  23.620  26.175  1.00  0.00     0.248 C 
ATOM     15  C   UNL A   1      33.154  22.183  26.244  1.00  0.00     0.084 C 
BRANCH  14  16
ATOM     16  N   UNL A   1      32.777  24.607  25.563  1.00  0.00    -0.325 N 
ATOM     17  C   UNL A   1      32.177  25.457  26.596  1.00  0.00     0.333 C 
ATOM     18  H   UNL A   1      33.369  25.135  24.923  1.00  0.00     0.348 HD
BRANCH  16  19
ATOM     19  C   UNL A   1      31.677  24.037  24.747  1.00  0.00     0.303 C 
BRANCH  19  20
ATOM     20  C   UNL A   1      31.825  24.421  23.307  1.00  0.00     0.048 A 
ATOM     21  C   UNL A   1      32.628  23.691  22.428  1.00  0.00     0.127 A 
ATOM     22  C   UNL A   1      33.083  24.283  21.262  1.00  0.00     0.047 A 
ATOM     23  C   UNL A   1      32.606  25.540  20.906  1.00  0.00     0.004 A 
ATOM     24  C   UNL A   1      31.294  25.657  22.902  1.00  0.00     0.013 A 
ATOM     25  C   UNL A   1      31.699  26.226  21.706  1.00  0.00     0.001 A 
BRANCH  21  26
ATOM     26  O   UNL A   1      33.049  22.426  22.734  1.00  0.00    -0.496 OA
ATOM     27  C   UNL A   1      32.040  21.483  22.360  1.00  0.00     0.278 C 
ENDBRANCH  21  26
ENDBRANCH  19  20
ENDBRANCH  16  19
ENDBRANCH  14  16
ENDBRANCH  10  14
ENDBRANCH   7   9
ENDBRANCH   6   7
ENDBRANCH   5   6
ENDBRANCH   4   5
ENDBRANCH   3   4
ENDBRANCH   2   3
ENDBRANCH   1   2
BRANCH   1  28
ATOM     28  O   UNL A   1      42.787  29.690  27.614  1.00  0.00    -0.377 OA
BRANCH  28  29
ATOM     29  C   UNL A   1      43.870  30.327  26.969  1.00  0.00     0.188 C 
BRANCH  29  30
ATOM     30  C   UNL A   1      44.034  31.820  27.324  1.00  0.00     0.188 C 
BRANCH  30  31
ATOM     31  O   UNL A   1      44.396  32.792  26.345  1.00  0.00    -0.376 OA
BRANCH  31  32
ATOM     32  C   UNL A   1      45.672  33.418  26.361  1.00  0.00     0.202 C 
BRANCH  32  33
ATOM     33  C   UNL A   1      45.867  34.782  25.688  1.00  0.00     0.261 C 
BRANCH  33  34
ATOM     34  O   UNL A   1      46.985  35.527  26.182  1.00  0.00    -0.460 OA
BRANCH  34  35
ATOM     35  C   UNL A   1      46.746  36.828  26.471  1.00  0.00     0.338 C 
ATOM     36  O   UNL A   1      46.832  37.785  25.717  1.00  0.00    -0.246 OA
BRANCH  35  37
ATOM     37  C   UNL A   1      46.133  36.895  27.810  1.00  0.00     0.060 A 
ATOM     38  C   UNL A   1      46.707  36.125  28.835  1.00  0.00     0.016 A 
ATOM     39  C   UNL A   1      45.065  37.756  28.075  1.00  0.00     0.016 A 
ATOM     40  C   UNL A   1      46.223  36.225  30.135  1.00  0.00     0.010 A 
ATOM     41  C   UNL A   1      44.537  37.804  29.365  1.00  0.00     0.010 A 
ATOM     42  C   UNL A   1      45.099  37.019  30.387  1.00  0.00    -0.014 A 
BRANCH  42  43
ATOM     43  C   UNL A   1      44.317  36.779  31.619  1.00  0.00     0.031 A 
ATOM     44  C   UNL A   1      44.676  37.615  32.815  1.00  0.00     0.074 A 
ATOM     45  C   UNL A   1      43.349  35.850  31.680  1.00  0.00     0.049 A 
ATOM     46  N   UNL A   1      44.232  37.548  34.039  1.00  0.00    -0.248 NA
ATOM     47  C   UNL A   1      45.681  38.673  32.595  1.00  0.00     0.031 C 
ATOM     48  C   UNL A   1      42.887  35.028  30.562  1.00  0.00     0.029 A 
ATOM     49  N   UNL A   1      42.591  35.432  32.743  1.00  0.00    -0.354 N 
ATOM     50  C   UNL A   1      44.904  38.548  34.733  1.00  0.00     0.074 A 
ATOM     51  C   UNL A   1      45.794  39.199  33.802  1.00  0.00     0.031 C 
ATOM     52  C   UNL A   1      41.940  34.182  31.008  1.00  0.00     0.029 A 
ATOM     53  C   UNL A   1      41.758  34.380  32.446  1.00  0.00     0.049 A 
ATOM     54  H   UNL A   1      42.638  35.847  33.634  1.00  0.00     0.167 HD
ATOM     55  C   UNL A   1      44.791  38.889  36.035  1.00  0.00     0.037 A 
ATOM     56  C   UNL A   1      40.969  33.647  33.259  1.00  0.00     0.037 A 
ATOM     57  C   UNL A   1      43.931  38.205  36.959  1.00  0.00     0.049 A 
ATOM     58  C   UNL A   1      40.924  33.986  34.729  1.00  0.00     0.074 A 
ATOM     59  C   UNL A   1      43.755  38.443  38.307  1.00  0.00     0.029 A 
ATOM     60  N   UNL A   1      43.115  37.135  36.624  1.00  0.00    -0.354 N 
ATOM     61  N   UNL A   1      41.558  34.937  35.377  1.00  0.00    -0.248 NA
ATOM     62  C   UNL A   1      40.063  33.154  35.581  1.00  0.00     0.031 C 
ATOM     63  C   UNL A   1      42.862  37.486  38.799  1.00  0.00     0.029 A 
ATOM     64  C   UNL A   1      42.441  36.689  37.745  1.00  0.00     0.049 A 
ATOM     65  H   UNL A   1      43.028  36.750  35.721  1.00  0.00     0.167 HD
ATOM     66  C   UNL A   1      41.142  34.842  36.700  1.00  0.00     0.074 A 
ATOM     67  C   UNL A   1      40.208  33.736  36.764  1.00  0.00     0.031 C 
ATOM     68  C   UNL A   1      41.494  35.602  37.767  1.00  0.00     0.037 A 
BRANCH  55  69
ATOM     69  C   UNL A   1      45.658  40.010  36.527  1.00  0.00     0.058 A 
ATOM     70  C   UNL A   1      45.233  41.348  36.476  1.00  0.00     0.135 A 
ATOM     71  C   UNL A   1      46.938  39.747  37.040  1.00  0.00     0.135 A 
ATOM     72  F   UNL A   1      44.031  41.657  35.963  1.00  0.00    -0.206 F 
ATOM     73  C   UNL A   1      46.057  42.387  36.893  1.00  0.00     0.059 A 
ATOM     74  C   UNL A   1      47.769  40.768  37.487  1.00  0.00     0.059 A 
ATOM     75  F   UNL A   1      47.397  38.487  37.095  1.00  0.00    -0.206 F 
ATOM     76  C   UNL A   1      47.324  42.088  37.396  1.00  0.00     0.060 A 
BRANCH  76  77
ATOM     77  S   UNL A   1      48.384  43.446  37.930  1.00  0.00     0.124 S 
ATOM     78  O   UNL A   1      47.410  44.365  38.511  1.00  0.00    -0.237 OA
ATOM     79  O   UNL A   1      49.280  42.790  38.878  1.00  0.00    -0.237 OA
ATOM     80  O   UNL A   1      49.010  43.897  36.691  1.00  0.00    -0.744 OA
ENDBRANCH  76  77
ENDBRANCH  55  69
BRANCH  56  81
ATOM     81  C   UNL A   1      40.175  32.514  32.710  1.00  0.00     0.058 A 
ATOM     82  C   UNL A   1      40.711  31.220  32.639  1.00  0.00     0.135 A 
ATOM     83  C   UNL A   1      38.864  32.702  32.244  1.00  0.00     0.135 A 
ATOM     84  F   UNL A   1      41.965  30.990  33.059  1.00  0.00    -0.206 F 
ATOM     85  C   UNL A   1      39.983  30.155  32.116  1.00  0.00     0.059 A 
ATOM     86  C   UNL A   1      38.107  31.649  31.739  1.00  0.00     0.059 A 
ATOM     87  F   UNL A   1      38.300  33.918  32.295  1.00  0.00    -0.206 F 
ATOM     88  C   UNL A   1      38.679  30.379  31.672  1.00  0.00     0.060 A 
BRANCH  88  89
ATOM     89  S   UNL A   1      37.724  28.979  31.045  1.00  0.00     0.124 S 
ATOM     90  O   UNL A   1      38.151  28.933  29.651  1.00  0.00    -0.237 OA
ATOM     91  O   UNL A   1      38.190  27.887  31.893  1.00  0.00    -0.237 OA
ATOM     92  O   UNL A   1      36.341  29.390  31.269  1.00  0.00    -0.744 OA
ENDBRANCH  88  89
ENDBRANCH  56  81
BRANCH  68  93
ATOM     93  C   UNL A   1      40.826  35.319  39.083  1.00  0.00     0.058 A 
ATOM     94  C   UNL A   1      41.367  34.416  40.009  1.00  0.00     0.135 A 
ATOM     95  C   UNL A   1      39.692  36.056  39.464  1.00  0.00     0.135 A 
ATOM     96  F   UNL A   1      42.448  33.687  39.691  1.00  0.00    -0.206 F 
ATOM     97  C   UNL A   1      40.803  34.249  41.269  1.00  0.00     0.059 A 
ATOM     98  C   UNL A   1      39.127  35.923  40.727  1.00  0.00     0.059 A 
ATOM     99  F   UNL A   1      39.145  36.942  38.615  1.00  0.00    -0.206 F 
ATOM    100  C   UNL A   1      39.688  35.014  41.622  1.00  0.00     0.060 A 
BRANCH 100 101
ATOM    101  S   UNL A   1      39.012  34.843  43.287  1.00  0.00     0.124 S 
ATOM    102  O   UNL A   1      40.177  34.376  44.031  1.00  0.00    -0.237 OA
ATOM    103  O   UNL A   1      38.571  36.202  43.587  1.00  0.00    -0.237 OA
ATOM    104  O   UNL A   1      37.940  33.866  43.120  1.00  0.00    -0.744 OA
ENDBRANCH 100 101
ENDBRANCH  68  93
ENDBRANCH  42  43
ENDBRANCH  35  37
ENDBRANCH  34  35
ENDBRANCH  33  34
ENDBRANCH  32  33
ENDBRANCH  31  32
ENDBRANCH  30  31
ENDBRANCH  29  30
ENDBRANCH  28  29
ENDBRANCH   1  28
TORSDOF 28
ENDMDL
