MODEL 1
REMARK VINA RESULT:      -8.5      0.000      0.000
REMARK SMILES O=C(OCCOCCOCCOCCOC(=O)[C@H]1[C@H]2CC[C@H](CC2)[C@H]1C(=O)Nc1ccc(C(=O)N2CCCC2)cc1)c1ccc(-c2c3nc(c(-c4c(F)cc(S(=O)(=O)[O-])cc4F)c4ccc([nH]4)c(-c4c(F)cc(S(=O)(=O)[O-])cc4F)c4nc(c(-c5c(F)cc(S(=O)(=O)[O-])cc5F)c5ccc2[nH]5)C=C4)C=C3)cc1
REMARK SMILES IDX 9 1 8 2 7 3 6 4 5 5 4 6 3 7 2 8 1 9 42 10 43 11 107 12 44 13
REMARK SMILES IDX 106 14 45 15 46 16 47 17 100 18 48 19 105 20 99 21 101 22
REMARK SMILES IDX 49 23 104 24 98 25 97 26 50 28 84 29 63 30 83 31 64 32 67 33
REMARK SMILES IDX 82 34 102 35 65 36 66 37 81 39 103 40 68 41 51 42 52 43
REMARK SMILES IDX 61 44 53 45 54 46 60 47 62 48 55 49 56 50 57 51 58 52 59 53
REMARK SMILES IDX 85 54 86 55 95 56 87 57 88 58 94 59 96 60 89 61 90 62 91 63
REMARK SMILES IDX 92 64 93 65 69 66 70 67 79 68 71 69 72 70 78 71 80 72 73 73
REMARK SMILES IDX 74 74 75 75 76 76 77 77 10 78 11 79 12 80 13 81 14 82 15 83
REMARK SMILES IDX 16 84 17 85 18 86 19 87 25 88 24 89 20 90 22 91 23 92 21 93
REMARK SMILES IDX 26 94 27 95 28 96 29 98 30 99 41 100 31 101 40 102 32 103
REMARK SMILES IDX 33 104 34 105 35 106 36 107 39 108 37 109 38 110
REMARK H PARENT 101 27 67 38 28 97
REMARK Flexibility Score: inf
ROOT
ATOM      1  O   UNL A   1      34.287  36.574  33.431  1.00  0.00    -0.377 OA
ENDROOT
BRANCH   1   2
ATOM      2  C   UNL A   1      33.096  36.877  32.713  1.00  0.00     0.188 C 
BRANCH   2   3
ATOM      3  C   UNL A   1      33.275  36.995  31.210  1.00  0.00     0.188 C 
BRANCH   3   4
ATOM      4  O   UNL A   1      32.496  36.020  30.531  1.00  0.00    -0.376 OA
BRANCH   4   5
ATOM      5  C   UNL A   1      32.933  35.652  29.228  1.00  0.00     0.202 C 
BRANCH   5   6
ATOM      6  C   UNL A   1      33.573  34.271  29.145  1.00  0.00     0.261 C 
BRANCH   6   7
ATOM      7  O   UNL A   1      34.491  34.014  30.215  1.00  0.00    -0.460 OA
BRANCH   7   8
ATOM      8  C   UNL A   1      34.832  32.828  30.775  1.00  0.00     0.338 C 
ATOM      9  O   UNL A   1      34.028  32.328  31.563  1.00  0.00    -0.246 OA
BRANCH   8  10
ATOM     10  C   UNL A   1      36.131  32.101  30.567  1.00  0.00     0.060 A 
ATOM     11  C   UNL A   1      36.853  31.389  31.531  1.00  0.00     0.016 A 
ATOM     12  C   UNL A   1      36.614  32.063  29.246  1.00  0.00     0.016 A 
ATOM     13  C   UNL A   1      37.969  30.630  31.212  1.00  0.00     0.010 A 
ATOM     14  C   UNL A   1      37.781  31.369  28.921  1.00  0.00     0.010 A 
ATOM     15  C   UNL A   1      38.469  30.670  29.919  1.00  0.00    -0.014 A 
BRANCH  15  16
ATOM     16  C   UNL A   1      39.874  30.285  29.741  1.00  0.00     0.031 A 
ATOM     17  C   UNL A   1      40.891  31.339  30.059  1.00  0.00     0.074 A 
ATOM     18  C   UNL A   1      40.214  29.021  29.450  1.00  0.00     0.049 A 
ATOM     19  N   UNL A   1      42.178  31.339  29.870  1.00  0.00    -0.248 NA
ATOM     20  C   UNL A   1      40.375  32.569  30.694  1.00  0.00     0.031 C 
ATOM     21  C   UNL A   1      39.279  27.903  29.316  1.00  0.00     0.029 A 
ATOM     22  N   UNL A   1      41.442  28.465  29.222  1.00  0.00    -0.354 N 
ATOM     23  C   UNL A   1      42.616  32.582  30.313  1.00  0.00     0.074 A 
ATOM     24  C   UNL A   1      41.466  33.306  30.794  1.00  0.00     0.031 C 
ATOM     25  C   UNL A   1      39.970  26.794  29.004  1.00  0.00     0.029 A 
ATOM     26  C   UNL A   1      41.378  27.145  28.847  1.00  0.00     0.049 A 
ATOM     27  H   UNL A   1      42.287  28.960  29.319  1.00  0.00     0.167 HD
ATOM     28  C   UNL A   1      43.874  33.072  30.290  1.00  0.00     0.037 A 
ATOM     29  C   UNL A   1      42.353  26.348  28.371  1.00  0.00     0.037 A 
ATOM     30  C   UNL A   1      44.978  32.307  29.785  1.00  0.00     0.049 A 
ATOM     31  C   UNL A   1      43.733  26.940  28.243  1.00  0.00     0.074 A 
ATOM     32  C   UNL A   1      46.294  32.685  29.618  1.00  0.00     0.029 A 
ATOM     33  N   UNL A   1      44.876  30.987  29.355  1.00  0.00    -0.354 N 
ATOM     34  N   UNL A   1      44.139  28.150  28.560  1.00  0.00    -0.248 NA
ATOM     35  C   UNL A   1      44.782  26.080  27.686  1.00  0.00     0.031 C 
ATOM     36  C   UNL A   1      46.976  31.609  29.038  1.00  0.00     0.029 A 
ATOM     37  C   UNL A   1      46.101  30.537  28.908  1.00  0.00     0.049 A 
ATOM     38  H   UNL A   1      44.049  30.453  29.369  1.00  0.00     0.167 HD
ATOM     39  C   UNL A   1      45.495  28.191  28.268  1.00  0.00     0.074 A 
ATOM     40  C   UNL A   1      45.839  26.879  27.747  1.00  0.00     0.031 C 
ATOM     41  C   UNL A   1      46.383  29.208  28.417  1.00  0.00     0.037 A 
BRANCH  28  42
ATOM     42  C   UNL A   1      44.059  34.504  30.712  1.00  0.00     0.058 A 
ATOM     43  C   UNL A   1      43.986  35.573  29.803  1.00  0.00     0.135 A 
ATOM     44  C   UNL A   1      44.405  34.801  32.039  1.00  0.00     0.135 A 
ATOM     45  F   UNL A   1      43.701  35.344  28.510  1.00  0.00    -0.206 F 
ATOM     46  C   UNL A   1      44.294  36.876  30.185  1.00  0.00     0.059 A 
ATOM     47  C   UNL A   1      44.686  36.101  32.451  1.00  0.00     0.059 A 
ATOM     48  F   UNL A   1      44.510  33.819  32.947  1.00  0.00    -0.206 F 
ATOM     49  C   UNL A   1      44.652  37.128  31.510  1.00  0.00     0.060 A 
BRANCH  49  50
ATOM     50  S   UNL A   1      45.094  38.814  31.983  1.00  0.00     0.124 S 
ATOM     51  O   UNL A   1      46.527  38.827  31.705  1.00  0.00    -0.237 OA
ATOM     52  O   UNL A   1      44.268  39.616  31.086  1.00  0.00    -0.237 OA
ATOM     53  O   UNL A   1      44.727  38.880  33.394  1.00  0.00    -0.744 OA
ENDBRANCH  49  50
ENDBRANCH  28  42
BRANCH  29  54
ATOM     54  C   UNL A   1      42.033  24.961  27.933  1.00  0.00     0.058 A 
ATOM     55  C   UNL A   1      42.404  23.846  28.697  1.00  0.00     0.135 A 
ATOM     56  C   UNL A   1      41.298  24.726  26.757  1.00  0.00     0.135 A 
ATOM     57  F   UNL A   1      43.115  24.011  29.823  1.00  0.00    -0.206 F 
ATOM     58  C   UNL A   1      42.055  22.552  28.317  1.00  0.00     0.059 A 
ATOM     59  C   UNL A   1      40.915  23.445  26.371  1.00  0.00     0.059 A 
ATOM     60  F   UNL A   1      40.908  25.758  25.991  1.00  0.00    -0.206 F 
ATOM     61  C   UNL A   1      41.302  22.363  27.156  1.00  0.00     0.060 A 
BRANCH  61  62
ATOM     62  S   UNL A   1      40.794  20.686  26.711  1.00  0.00     0.124 S 
ATOM     63  O   UNL A   1      39.528  20.932  26.032  1.00  0.00    -0.237 OA
ATOM     64  O   UNL A   1      41.900  20.249  25.865  1.00  0.00    -0.237 OA
ATOM     65  O   UNL A   1      40.698  20.010  28.001  1.00  0.00    -0.744 OA
ENDBRANCH  61  62
ENDBRANCH  29  54
BRANCH  41  66
ATOM     66  C   UNL A   1      47.814  28.923  28.075  1.00  0.00     0.058 A 
ATOM     67  C   UNL A   1      48.312  29.096  26.777  1.00  0.00     0.135 A 
ATOM     68  C   UNL A   1      48.716  28.582  29.096  1.00  0.00     0.135 A 
ATOM     69  F   UNL A   1      47.484  29.416  25.771  1.00  0.00    -0.206 F 
ATOM     70  C   UNL A   1      49.664  28.935  26.499  1.00  0.00     0.059 A 
ATOM     71  C   UNL A   1      50.075  28.447  28.847  1.00  0.00     0.059 A 
ATOM     72  F   UNL A   1      48.283  28.419  30.356  1.00  0.00    -0.206 F 
ATOM     73  C   UNL A   1      50.538  28.621  27.543  1.00  0.00     0.060 A 
BRANCH  73  74
ATOM     74  S   UNL A   1      52.300  28.491  27.183  1.00  0.00     0.124 S 
ATOM     75  O   UNL A   1      52.397  29.231  25.929  1.00  0.00    -0.237 OA
ATOM     76  O   UNL A   1      52.904  29.132  28.348  1.00  0.00    -0.237 OA
ATOM     77  O   UNL A   1      52.522  27.052  27.082  1.00  0.00    -0.744 OA
ENDBRANCH  73  74
ENDBRANCH  41  66
ENDBRANCH  15  16
ENDBRANCH   8  10
ENDBRANCH   7   8
ENDBRANCH   6   7
ENDBRANCH   5   6
ENDBRANCH   4   5
ENDBRANCH   3   4
ENDBRANCH   2   3
ENDBRANCH   1   2
BRANCH   1  78
ATOM     78  C   UNL A   1      34.765  35.226  33.390  1.00  0.00     0.188 C 
BRANCH  78  79
ATOM     79  C   UNL A   1      35.319  34.529  34.653  1.00  0.00     0.188 C 
BRANCH  79  80
ATOM     80  O   UNL A   1      35.692  33.169  34.487  1.00  0.00    -0.376 OA
BRANCH  80  81
ATOM     81  C   UNL A   1      37.081  32.917  34.676  1.00  0.00     0.202 C 
BRANCH  81  82
ATOM     82  C   UNL A   1      38.017  33.925  34.002  1.00  0.00     0.261 C 
BRANCH  82  83
ATOM     83  O   UNL A   1      39.105  34.371  34.834  1.00  0.00    -0.463 OA
BRANCH  83  84
ATOM     84  C   UNL A   1      40.373  34.144  34.485  1.00  0.00     0.310 C 
ATOM     85  O   UNL A   1      41.125  35.047  34.116  1.00  0.00    -0.252 OA
BRANCH  84  86
ATOM     86  C   UNL A   1      40.865  32.665  34.558  1.00  0.00     0.115 C 
ATOM     87  C   UNL A   1      42.133  31.836  34.049  1.00  0.00     0.004 C 
ATOM     88  C   UNL A   1      40.497  32.125  35.923  1.00  0.00     0.096 C 
ATOM     89  C   UNL A   1      43.161  31.255  35.090  1.00  0.00     0.005 C 
ATOM     90  C   UNL A   1      41.519  30.508  33.529  1.00  0.00     0.005 C 
ATOM     91  C   UNL A   1      40.985  30.654  36.053  1.00  0.00     0.002 C 
ATOM     92  C   UNL A   1      42.481  30.653  36.312  1.00  0.00     0.005 C 
ATOM     93  C   UNL A   1      40.758  29.860  34.715  1.00  0.00     0.005 C 
BRANCH  88  94
ATOM     94  C   UNL A   1      40.740  33.080  37.122  1.00  0.00     0.228 C 
ATOM     95  O   UNL A   1      41.753  33.800  37.046  1.00  0.00    -0.274 OA
ATOM     96  N   UNL A   1      39.960  33.352  38.211  1.00  0.00    -0.326 N 
ATOM     97  H   UNL A   1      40.364  34.077  38.742  1.00  0.00     0.169 HD
BRANCH  96  98
ATOM     98  C   UNL A   1      38.758  32.921  38.812  1.00  0.00     0.041 A 
ATOM     99  C   UNL A   1      38.783  32.574  40.164  1.00  0.00     0.027 A 
ATOM    100  C   UNL A   1      37.523  32.854  38.209  1.00  0.00     0.027 A 
ATOM    101  C   UNL A   1      37.579  32.456  40.902  1.00  0.00     0.016 A 
ATOM    102  C   UNL A   1      36.324  32.688  38.907  1.00  0.00     0.016 A 
ATOM    103  C   UNL A   1      36.327  32.605  40.281  1.00  0.00     0.040 A 
BRANCH 103 104
ATOM    104  C   UNL A   1      35.134  33.054  41.079  1.00  0.00     0.253 C 
ATOM    105  O   UNL A   1      34.041  33.076  40.512  1.00  0.00    -0.269 OA
ATOM    106  N   UNL A   1      35.227  33.145  42.462  1.00  0.00    -0.339 N 
ATOM    107  C   UNL A   1      36.204  33.833  43.291  1.00  0.00     0.120 C 
ATOM    108  C   UNL A   1      34.246  32.476  43.299  1.00  0.00     0.120 C 
ATOM    109  C   UNL A   1      36.273  32.951  44.529  1.00  0.00     0.023 C 
ATOM    110  C   UNL A   1      34.811  32.547  44.720  1.00  0.00     0.023 C 
ENDBRANCH 103 104
ENDBRANCH  96  98
ENDBRANCH  88  94
ENDBRANCH  84  86
ENDBRANCH  83  84
ENDBRANCH  82  83
ENDBRANCH  81  82
ENDBRANCH  80  81
ENDBRANCH  79  80
ENDBRANCH  78  79
ENDBRANCH   1  78
TORSDOF 26
ENDMDL
MODEL 2
REMARK VINA RESULT:      -8.5      2.196      4.456
REMARK SMILES O=C(OCCOCCOCCOCCOC(=O)[C@H]1[C@H]2CC[C@H](CC2)[C@H]1C(=O)Nc1ccc(C(=O)N2CCCC2)cc1)c1ccc(-c2c3nc(c(-c4c(F)cc(S(=O)(=O)[O-])cc4F)c4ccc([nH]4)c(-c4c(F)cc(S(=O)(=O)[O-])cc4F)c4nc(c(-c5c(F)cc(S(=O)(=O)[O-])cc5F)c5ccc2[nH]5)C=C4)C=C3)cc1
REMARK SMILES IDX 9 1 8 2 7 3 6 4 5 5 4 6 3 7 2 8 1 9 42 10 43 11 107 12 44 13
REMARK SMILES IDX 106 14 45 15 46 16 47 17 100 18 48 19 105 20 99 21 101 22
REMARK SMILES IDX 49 23 104 24 98 25 97 26 50 28 84 29 63 30 83 31 64 32 67 33
REMARK SMILES IDX 82 34 102 35 65 36 66 37 81 39 103 40 68 41 51 42 52 43
REMARK SMILES IDX 61 44 53 45 54 46 60 47 62 48 55 49 56 50 57 51 58 52 59 53
REMARK SMILES IDX 85 54 86 55 95 56 87 57 88 58 94 59 96 60 89 61 90 62 91 63
REMARK SMILES IDX 92 64 93 65 69 66 70 67 79 68 71 69 72 70 78 71 80 72 73 73
REMARK SMILES IDX 74 74 75 75 76 76 77 77 10 78 11 79 12 80 13 81 14 82 15 83
REMARK SMILES IDX 16 84 17 85 18 86 19 87 25 88 24 89 20 90 22 91 23 92 21 93
REMARK SMILES IDX 26 94 27 95 28 96 29 98 30 99 41 100 31 101 40 102 32 103
REMARK SMILES IDX 33 104 34 105 35 106 36 107 39 108 37 109 38 110
REMARK H PARENT 101 27 67 38 28 97
REMARK Flexibility Score: inf
ROOT
ATOM      1  O   UNL A   1      33.125  36.749  31.479  1.00  0.00    -0.377 OA
ENDROOT
BRANCH   1   2
ATOM      2  C   UNL A   1      32.304  36.151  30.481  1.00  0.00     0.188 C 
BRANCH   2   3
ATOM      3  C   UNL A   1      32.903  36.150  29.085  1.00  0.00     0.188 C 
BRANCH   3   4
ATOM      4  O   UNL A   1      32.525  34.978  28.376  1.00  0.00    -0.376 OA
BRANCH   4   5
ATOM      5  C   UNL A   1      33.583  34.187  27.847  1.00  0.00     0.202 C 
BRANCH   5   6
ATOM      6  C   UNL A   1      33.878  32.919  28.640  1.00  0.00     0.261 C 
BRANCH   6   7
ATOM      7  O   UNL A   1      34.475  33.181  29.916  1.00  0.00    -0.460 OA
BRANCH   7   8
ATOM      8  C   UNL A   1      35.053  32.311  30.778  1.00  0.00     0.338 C 
ATOM      9  O   UNL A   1      34.480  32.123  31.853  1.00  0.00    -0.246 OA
BRANCH   8  10
ATOM     10  C   UNL A   1      36.362  31.604  30.566  1.00  0.00     0.060 A 
ATOM     11  C   UNL A   1      37.104  30.914  31.531  1.00  0.00     0.016 A 
ATOM     12  C   UNL A   1      36.833  31.560  29.241  1.00  0.00     0.016 A 
ATOM     13  C   UNL A   1      38.231  30.172  31.209  1.00  0.00     0.010 A 
ATOM     14  C   UNL A   1      38.009  30.882  28.913  1.00  0.00     0.010 A 
ATOM     15  C   UNL A   1      38.718  30.206  29.912  1.00  0.00    -0.014 A 
BRANCH  15  16
ATOM     16  C   UNL A   1      40.128  29.843  29.725  1.00  0.00     0.031 A 
ATOM     17  C   UNL A   1      41.129  30.917  30.023  1.00  0.00     0.074 A 
ATOM     18  C   UNL A   1      40.487  28.582  29.443  1.00  0.00     0.049 A 
ATOM     19  N   UNL A   1      42.414  30.937  29.822  1.00  0.00    -0.248 NA
ATOM     20  C   UNL A   1      40.598  32.145  30.650  1.00  0.00     0.031 C 
ATOM     21  C   UNL A   1      39.569  27.447  29.329  1.00  0.00     0.029 A 
ATOM     22  N   UNL A   1      41.721  28.044  29.210  1.00  0.00    -0.354 N 
ATOM     23  C   UNL A   1      42.836  32.192  30.248  1.00  0.00     0.074 A 
ATOM     24  C   UNL A   1      41.677  32.901  30.732  1.00  0.00     0.031 C 
ATOM     25  C   UNL A   1      40.276  26.346  29.022  1.00  0.00     0.029 A 
ATOM     26  C   UNL A   1      41.677  26.720  28.848  1.00  0.00     0.049 A 
ATOM     27  H   UNL A   1      42.559  28.555  29.294  1.00  0.00     0.167 HD
ATOM     28  C   UNL A   1      44.085  32.702  30.209  1.00  0.00     0.037 A 
ATOM     29  C   UNL A   1      42.660  25.934  28.371  1.00  0.00     0.037 A 
ATOM     30  C   UNL A   1      45.197  31.951  29.701  1.00  0.00     0.049 A 
ATOM     31  C   UNL A   1      44.029  26.549  28.225  1.00  0.00     0.074 A 
ATOM     32  C   UNL A   1      46.505  32.350  29.518  1.00  0.00     0.029 A 
ATOM     33  N   UNL A   1      45.113  30.626  29.286  1.00  0.00    -0.354 N 
ATOM     34  N   UNL A   1      44.417  27.768  28.526  1.00  0.00    -0.248 NA
ATOM     35  C   UNL A   1      45.087  25.700  27.668  1.00  0.00     0.031 C 
ATOM     36  C   UNL A   1      47.199  31.279  28.943  1.00  0.00     0.029 A 
ATOM     37  C   UNL A   1      46.341  30.192  28.831  1.00  0.00     0.049 A 
ATOM     38  H   UNL A   1      44.296  30.077  29.312  1.00  0.00     0.167 HD
ATOM     39  C   UNL A   1      45.770  27.829  28.221  1.00  0.00     0.074 A 
ATOM     40  C   UNL A   1      46.131  26.518  27.711  1.00  0.00     0.031 C 
ATOM     41  C   UNL A   1      46.641  28.862  28.352  1.00  0.00     0.037 A 
BRANCH  28  42
ATOM     42  C   UNL A   1      44.249  34.142  30.614  1.00  0.00     0.058 A 
ATOM     43  C   UNL A   1      44.143  35.201  29.697  1.00  0.00     0.135 A 
ATOM     44  C   UNL A   1      44.609  34.458  31.934  1.00  0.00     0.135 A 
ATOM     45  F   UNL A   1      43.843  34.954  28.410  1.00  0.00    -0.206 F 
ATOM     46  C   UNL A   1      44.431  36.512  30.062  1.00  0.00     0.059 A 
ATOM     47  C   UNL A   1      44.872  35.767  32.329  1.00  0.00     0.059 A 
ATOM     48  F   UNL A   1      44.745  33.486  32.849  1.00  0.00    -0.206 F 
ATOM     49  C   UNL A   1      44.804  36.784  31.379  1.00  0.00     0.060 A 
BRANCH  49  50
ATOM     50  S   UNL A   1      45.222  38.482  31.830  1.00  0.00     0.124 S 
ATOM     51  O   UNL A   1      45.957  38.280  33.075  1.00  0.00    -0.237 OA
ATOM     52  O   UNL A   1      46.020  38.920  30.688  1.00  0.00    -0.237 OA
ATOM     53  O   UNL A   1      43.921  39.129  31.966  1.00  0.00    -0.744 OA
ENDBRANCH  49  50
ENDBRANCH  28  42
BRANCH  29  54
ATOM     54  C   UNL A   1      42.360  24.538  27.951  1.00  0.00     0.058 A 
ATOM     55  C   UNL A   1      42.657  23.443  28.774  1.00  0.00     0.135 A 
ATOM     56  C   UNL A   1      41.717  24.274  26.728  1.00  0.00     0.135 A 
ATOM     57  F   UNL A   1      43.280  23.636  29.947  1.00  0.00    -0.206 F 
ATOM     58  C   UNL A   1      42.325  22.141  28.406  1.00  0.00     0.059 A 
ATOM     59  C   UNL A   1      41.351  22.986  26.351  1.00  0.00     0.059 A 
ATOM     60  F   UNL A   1      41.400  25.286  25.904  1.00  0.00    -0.206 F 
ATOM     61  C   UNL A   1      41.663  21.924  27.196  1.00  0.00     0.060 A 
BRANCH  61  62
ATOM     62  S   UNL A   1      41.173  20.240  26.761  1.00  0.00     0.124 S 
ATOM     63  O   UNL A   1      40.021  20.480  25.901  1.00  0.00    -0.237 OA
ATOM     64  O   UNL A   1      42.372  19.736  26.099  1.00  0.00    -0.237 OA
ATOM     65  O   UNL A   1      40.879  19.630  28.054  1.00  0.00    -0.744 OA
ENDBRANCH  61  62
ENDBRANCH  29  54
BRANCH  41  66
ATOM     66  C   UNL A   1      48.074  28.598  28.000  1.00  0.00     0.058 A 
ATOM     67  C   UNL A   1      48.542  28.699  26.683  1.00  0.00     0.135 A 
ATOM     68  C   UNL A   1      49.006  28.354  29.022  1.00  0.00     0.135 A 
ATOM     69  F   UNL A   1      47.686  28.924  25.675  1.00  0.00    -0.206 F 
ATOM     70  C   UNL A   1      49.892  28.560  26.388  1.00  0.00     0.059 A 
ATOM     71  C   UNL A   1      50.363  28.243  28.753  1.00  0.00     0.059 A 
ATOM     72  F   UNL A   1      48.602  28.264  30.299  1.00  0.00    -0.206 F 
ATOM     73  C   UNL A   1      50.795  28.343  27.432  1.00  0.00     0.060 A 
BRANCH  73  74
ATOM     74  S   UNL A   1      52.554  28.242  27.044  1.00  0.00     0.124 S 
ATOM     75  O   UNL A   1      53.094  27.686  28.281  1.00  0.00    -0.237 OA
ATOM     76  O   UNL A   1      52.567  27.352  25.888  1.00  0.00    -0.237 OA
ATOM     77  O   UNL A   1      52.921  29.628  26.766  1.00  0.00    -0.744 OA
ENDBRANCH  73  74
ENDBRANCH  41  66
ENDBRANCH  15  16
ENDBRANCH   8  10
ENDBRANCH   7   8
ENDBRANCH   6   7
ENDBRANCH   5   6
ENDBRANCH   4   5
ENDBRANCH   3   4
ENDBRANCH   2   3
ENDBRANCH   1   2
BRANCH   1  78
ATOM     78  C   UNL A   1      34.129  35.933  32.091  1.00  0.00     0.188 C 
BRANCH  78  79
ATOM     79  C   UNL A   1      34.327  35.916  33.624  1.00  0.00     0.188 C 
BRANCH  79  80
ATOM     80  O   UNL A   1      35.600  35.470  34.070  1.00  0.00    -0.376 OA
BRANCH  80  81
ATOM     81  C   UNL A   1      35.652  34.084  34.397  1.00  0.00     0.202 C 
BRANCH  81  82
ATOM     82  C   UNL A   1      37.005  33.596  34.920  1.00  0.00     0.261 C 
BRANCH  82  83
ATOM     83  O   UNL A   1      38.027  34.610  34.957  1.00  0.00    -0.463 OA
BRANCH  83  84
ATOM     84  C   UNL A   1      39.321  34.282  34.957  1.00  0.00     0.310 C 
ATOM     85  O   UNL A   1      39.830  33.611  34.058  1.00  0.00    -0.252 OA
BRANCH  84  86
ATOM     86  C   UNL A   1      40.170  34.783  36.167  1.00  0.00     0.115 C 
ATOM     87  C   UNL A   1      39.986  35.831  37.360  1.00  0.00     0.004 C 
ATOM     88  C   UNL A   1      40.917  33.593  36.728  1.00  0.00     0.096 C 
ATOM     89  C   UNL A   1      39.872  35.319  38.844  1.00  0.00     0.005 C 
ATOM     90  C   UNL A   1      41.365  36.540  37.441  1.00  0.00     0.005 C 
ATOM     91  C   UNL A   1      41.767  34.039  37.952  1.00  0.00     0.002 C 
ATOM     92  C   UNL A   1      40.852  34.197  39.154  1.00  0.00     0.005 C 
ATOM     93  C   UNL A   1      42.430  35.442  37.703  1.00  0.00     0.005 C 
BRANCH  88  94
ATOM     94  C   UNL A   1      40.109  32.274  36.846  1.00  0.00     0.228 C 
ATOM     95  O   UNL A   1      39.079  32.329  37.544  1.00  0.00    -0.274 OA
ATOM     96  N   UNL A   1      40.273  31.074  36.214  1.00  0.00    -0.326 N 
ATOM     97  H   UNL A   1      39.532  30.467  36.443  1.00  0.00     0.169 HD
BRANCH  96  98
ATOM     98  C   UNL A   1      41.171  30.432  35.334  1.00  0.00     0.041 A 
ATOM     99  C   UNL A   1      42.274  29.772  35.881  1.00  0.00     0.027 A 
ATOM    100  C   UNL A   1      41.048  30.339  33.967  1.00  0.00     0.027 A 
ATOM    101  C   UNL A   1      43.017  28.845  35.108  1.00  0.00     0.016 A 
ATOM    102  C   UNL A   1      41.801  29.470  33.174  1.00  0.00     0.016 A 
ATOM    103  C   UNL A   1      42.719  28.622  33.753  1.00  0.00     0.040 A 
BRANCH 103 104
ATOM    104  C   UNL A   1      43.063  27.308  33.108  1.00  0.00     0.253 C 
ATOM    105  O   UNL A   1      43.179  27.285  31.882  1.00  0.00    -0.269 OA
ATOM    106  N   UNL A   1      43.518  26.256  33.892  1.00  0.00    -0.339 N 
ATOM    107  C   UNL A   1      42.945  25.665  35.091  1.00  0.00     0.120 C 
ATOM    108  C   UNL A   1      44.757  25.579  33.547  1.00  0.00     0.120 C 
ATOM    109  C   UNL A   1      44.176  25.219  35.866  1.00  0.00     0.023 C 
ATOM    110  C   UNL A   1      45.087  24.699  34.754  1.00  0.00     0.023 C 
ENDBRANCH 103 104
ENDBRANCH  96  98
ENDBRANCH  88  94
ENDBRANCH  84  86
ENDBRANCH  83  84
ENDBRANCH  82  83
ENDBRANCH  81  82
ENDBRANCH  80  81
ENDBRANCH  79  80
ENDBRANCH  78  79
ENDBRANCH   1  78
TORSDOF 26
ENDMDL
MODEL 3
REMARK VINA RESULT:      -8.1      3.632      7.954
REMARK SMILES O=C(OCCOCCOCCOCCOC(=O)[C@H]1[C@H]2CC[C@H](CC2)[C@H]1C(=O)Nc1ccc(C(=O)N2CCCC2)cc1)c1ccc(-c2c3nc(c(-c4c(F)cc(S(=O)(=O)[O-])cc4F)c4ccc([nH]4)c(-c4c(F)cc(S(=O)(=O)[O-])cc4F)c4nc(c(-c5c(F)cc(S(=O)(=O)[O-])cc5F)c5ccc2[nH]5)C=C4)C=C3)cc1
REMARK SMILES IDX 9 1 8 2 7 3 6 4 5 5 4 6 3 7 2 8 1 9 42 10 43 11 107 12 44 13
REMARK SMILES IDX 106 14 45 15 46 16 47 17 100 18 48 19 105 20 99 21 101 22
REMARK SMILES IDX 49 23 104 24 98 25 97 26 50 28 84 29 63 30 83 31 64 32 67 33
REMARK SMILES IDX 82 34 102 35 65 36 66 37 81 39 103 40 68 41 51 42 52 43
REMARK SMILES IDX 61 44 53 45 54 46 60 47 62 48 55 49 56 50 57 51 58 52 59 53
REMARK SMILES IDX 85 54 86 55 95 56 87 57 88 58 94 59 96 60 89 61 90 62 91 63
REMARK SMILES IDX 92 64 93 65 69 66 70 67 79 68 71 69 72 70 78 71 80 72 73 73
REMARK SMILES IDX 74 74 75 75 76 76 77 77 10 78 11 79 12 80 13 81 14 82 15 83
REMARK SMILES IDX 16 84 17 85 18 86 19 87 25 88 24 89 20 90 22 91 23 92 21 93
REMARK SMILES IDX 26 94 27 95 28 96 29 98 30 99 41 100 31 101 40 102 32 103
REMARK SMILES IDX 33 104 34 105 35 106 36 107 39 108 37 109 38 110
REMARK H PARENT 101 27 67 38 28 97
REMARK Flexibility Score: inf
ROOT
ATOM      1  O   UNL A   1      33.157  37.491  31.609  1.00  0.00    -0.377 OA
ENDROOT
BRANCH   1   2
ATOM      2  C   UNL A   1      32.920  36.484  30.630  1.00  0.00     0.188 C 
BRANCH   2   3
ATOM      3  C   UNL A   1      33.241  36.898  29.205  1.00  0.00     0.188 C 
BRANCH   3   4
ATOM      4  O   UNL A   1      33.281  35.765  28.348  1.00  0.00    -0.376 OA
BRANCH   4   5
ATOM      5  C   UNL A   1      34.562  35.196  28.107  1.00  0.00     0.202 C 
BRANCH   5   6
ATOM      6  C   UNL A   1      34.692  33.738  28.530  1.00  0.00     0.261 C 
BRANCH   6   7
ATOM      7  O   UNL A   1      34.395  33.527  29.916  1.00  0.00    -0.460 OA
BRANCH   7   8
ATOM      8  C   UNL A   1      35.052  32.761  30.818  1.00  0.00     0.338 C 
ATOM      9  O   UNL A   1      34.368  32.157  31.646  1.00  0.00    -0.246 OA
BRANCH   8  10
ATOM     10  C   UNL A   1      36.545  32.632  30.939  1.00  0.00     0.060 A 
ATOM     11  C   UNL A   1      37.362  33.248  31.894  1.00  0.00     0.016 A 
ATOM     12  C   UNL A   1      37.161  31.728  30.054  1.00  0.00     0.016 A 
ATOM     13  C   UNL A   1      38.712  32.956  32.014  1.00  0.00     0.010 A 
ATOM     14  C   UNL A   1      38.535  31.482  30.111  1.00  0.00     0.010 A 
ATOM     15  C   UNL A   1      39.311  32.121  31.084  1.00  0.00    -0.014 A 
BRANCH  15  16
ATOM     16  C   UNL A   1      40.767  32.230  30.937  1.00  0.00     0.031 A 
ATOM     17  C   UNL A   1      41.568  31.055  31.410  1.00  0.00     0.074 A 
ATOM     18  C   UNL A   1      41.322  33.264  30.287  1.00  0.00     0.049 A 
ATOM     19  N   UNL A   1      42.855  30.919  31.535  1.00  0.00    -0.248 NA
ATOM     20  C   UNL A   1      40.796  29.853  31.788  1.00  0.00     0.031 C 
ATOM     21  C   UNL A   1      40.583  34.347  29.634  1.00  0.00     0.029 A 
ATOM     22  N   UNL A   1      42.635  33.566  30.061  1.00  0.00    -0.354 N 
ATOM     23  C   UNL A   1      43.044  29.642  32.051  1.00  0.00     0.074 A 
ATOM     24  C   UNL A   1      41.745  29.035  32.204  1.00  0.00     0.031 C 
ATOM     25  C   UNL A   1      41.462  35.212  29.100  1.00  0.00     0.029 A 
ATOM     26  C   UNL A   1      42.814  34.777  29.439  1.00  0.00     0.049 A 
ATOM     27  H   UNL A   1      43.379  32.974  30.318  1.00  0.00     0.167 HD
ATOM     28  C   UNL A   1      44.210  29.050  32.387  1.00  0.00     0.037 A 
ATOM     29  C   UNL A   1      43.951  35.469  29.234  1.00  0.00     0.037 A 
ATOM     30  C   UNL A   1      45.473  29.712  32.225  1.00  0.00     0.049 A 
ATOM     31  C   UNL A   1      45.237  34.848  29.716  1.00  0.00     0.074 A 
ATOM     32  C   UNL A   1      46.733  29.284  32.590  1.00  0.00     0.029 A 
ATOM     33  N   UNL A   1      45.622  30.967  31.642  1.00  0.00    -0.354 N 
ATOM     34  N   UNL A   1      45.417  33.685  30.302  1.00  0.00    -0.248 NA
ATOM     35  C   UNL A   1      46.467  35.624  29.526  1.00  0.00     0.031 C 
ATOM     36  C   UNL A   1      47.636  30.304  32.274  1.00  0.00     0.029 A 
ATOM     37  C   UNL A   1      46.950  31.339  31.650  1.00  0.00     0.049 A 
ATOM     38  H   UNL A   1      44.886  31.510  31.278  1.00  0.00     0.167 HD
ATOM     39  C   UNL A   1      46.782  33.574  30.529  1.00  0.00     0.074 A 
ATOM     40  C   UNL A   1      47.380  34.794  30.014  1.00  0.00     0.031 C 
ATOM     41  C   UNL A   1      47.486  32.564  31.102  1.00  0.00     0.037 A 
BRANCH  28  42
ATOM     42  C   UNL A   1      44.127  27.703  33.051  1.00  0.00     0.058 A 
ATOM     43  C   UNL A   1      44.298  26.501  32.343  1.00  0.00     0.135 A 
ATOM     44  C   UNL A   1      43.779  27.615  34.408  1.00  0.00     0.135 A 
ATOM     45  F   UNL A   1      44.589  26.524  31.032  1.00  0.00    -0.206 F 
ATOM     46  C   UNL A   1      44.083  25.265  32.946  1.00  0.00     0.059 A 
ATOM     47  C   UNL A   1      43.590  26.388  35.039  1.00  0.00     0.059 A 
ATOM     48  F   UNL A   1      43.583  28.729  35.130  1.00  0.00    -0.206 F 
ATOM     49  C   UNL A   1      43.720  25.219  34.292  1.00  0.00     0.060 A 
BRANCH  49  50
ATOM     50  S   UNL A   1      43.399  23.611  35.050  1.00  0.00     0.124 S 
ATOM     51  O   UNL A   1      44.435  23.563  36.078  1.00  0.00    -0.237 OA
ATOM     52  O   UNL A   1      42.031  23.765  35.537  1.00  0.00    -0.237 OA
ATOM     53  O   UNL A   1      43.566  22.673  33.945  1.00  0.00    -0.744 OA
ENDBRANCH  49  50
ENDBRANCH  28  42
BRANCH  29  54
ATOM     54  C   UNL A   1      43.897  36.822  28.615  1.00  0.00     0.058 A 
ATOM     55  C   UNL A   1      43.874  36.993  27.224  1.00  0.00     0.135 A 
ATOM     56  C   UNL A   1      43.816  37.978  29.411  1.00  0.00     0.135 A 
ATOM     57  F   UNL A   1      43.959  35.924  26.416  1.00  0.00    -0.206 F 
ATOM     58  C   UNL A   1      43.766  38.254  26.644  1.00  0.00     0.059 A 
ATOM     59  C   UNL A   1      43.681  39.247  28.856  1.00  0.00     0.059 A 
ATOM     60  F   UNL A   1      43.826  37.875  30.749  1.00  0.00    -0.206 F 
ATOM     61  C   UNL A   1      43.661  39.376  27.470  1.00  0.00     0.060 A 
BRANCH  61  62
ATOM     62  S   UNL A   1      43.450  41.001  26.708  1.00  0.00     0.124 S 
ATOM     63  O   UNL A   1      44.161  40.830  25.447  1.00  0.00    -0.237 OA
ATOM     64  O   UNL A   1      41.997  41.107  26.615  1.00  0.00    -0.237 OA
ATOM     65  O   UNL A   1      44.076  41.906  27.667  1.00  0.00    -0.744 OA
ENDBRANCH  61  62
ENDBRANCH  29  54
BRANCH  41  66
ATOM     66  C   UNL A   1      48.978  32.706  31.142  1.00  0.00     0.058 A 
ATOM     67  C   UNL A   1      49.638  33.251  32.251  1.00  0.00     0.135 A 
ATOM     68  C   UNL A   1      49.753  32.178  30.097  1.00  0.00     0.135 A 
ATOM     69  F   UNL A   1      48.936  33.772  33.269  1.00  0.00    -0.206 F 
ATOM     70  C   UNL A   1      51.025  33.274  32.321  1.00  0.00     0.059 A 
ATOM     71  C   UNL A   1      51.139  32.163  30.160  1.00  0.00     0.059 A 
ATOM     72  F   UNL A   1      49.160  31.635  29.022  1.00  0.00    -0.206 F 
ATOM     73  C   UNL A   1      51.766  32.718  31.275  1.00  0.00     0.060 A 
BRANCH  73  74
ATOM     74  S   UNL A   1      53.564  32.684  31.414  1.00  0.00     0.124 S 
ATOM     75  O   UNL A   1      53.742  32.322  32.816  1.00  0.00    -0.237 OA
ATOM     76  O   UNL A   1      53.932  31.661  30.441  1.00  0.00    -0.237 OA
ATOM     77  O   UNL A   1      53.957  34.046  31.062  1.00  0.00    -0.744 OA
ENDBRANCH  73  74
ENDBRANCH  41  66
ENDBRANCH  15  16
ENDBRANCH   8  10
ENDBRANCH   7   8
ENDBRANCH   6   7
ENDBRANCH   5   6
ENDBRANCH   4   5
ENDBRANCH   3   4
ENDBRANCH   2   3
ENDBRANCH   1   2
BRANCH   1  78
ATOM     78  C   UNL A   1      33.878  37.118  32.787  1.00  0.00     0.188 C 
BRANCH  78  79
ATOM     79  C   UNL A   1      34.205  35.640  33.096  1.00  0.00     0.188 C 
BRANCH  79  80
ATOM     80  O   UNL A   1      35.157  35.427  34.129  1.00  0.00    -0.376 OA
BRANCH  80  81
ATOM     81  C   UNL A   1      35.324  34.062  34.498  1.00  0.00     0.202 C 
BRANCH  81  82
ATOM     82  C   UNL A   1      36.452  33.798  35.499  1.00  0.00     0.261 C 
BRANCH  82  83
ATOM     83  O   UNL A   1      37.147  32.553  35.293  1.00  0.00    -0.463 OA
BRANCH  83  84
ATOM     84  C   UNL A   1      37.896  32.017  36.259  1.00  0.00     0.310 C 
ATOM     85  O   UNL A   1      37.405  31.495  37.261  1.00  0.00    -0.252 OA
BRANCH  84  86
ATOM     86  C   UNL A   1      39.443  32.090  36.066  1.00  0.00     0.115 C 
ATOM     87  C   UNL A   1      40.452  32.340  34.852  1.00  0.00     0.004 C 
ATOM     88  C   UNL A   1      40.026  32.781  37.280  1.00  0.00     0.096 C 
ATOM     89  C   UNL A   1      41.317  33.655  34.807  1.00  0.00     0.005 C 
ATOM     90  C   UNL A   1      41.581  31.302  35.093  1.00  0.00     0.005 C 
ATOM     91  C   UNL A   1      41.569  32.896  37.127  1.00  0.00     0.002 C 
ATOM     92  C   UNL A   1      41.885  34.030  36.168  1.00  0.00     0.005 C 
ATOM     93  C   UNL A   1      42.176  31.590  36.497  1.00  0.00     0.005 C 
BRANCH  88  94
ATOM     94  C   UNL A   1      39.252  34.025  37.794  1.00  0.00     0.228 C 
ATOM     95  O   UNL A   1      39.178  34.983  37.002  1.00  0.00    -0.274 OA
ATOM     96  N   UNL A   1      38.529  34.208  38.938  1.00  0.00    -0.326 N 
ATOM     97  H   UNL A   1      38.085  35.087  38.920  1.00  0.00     0.169 HD
BRANCH  96  98
ATOM     98  C   UNL A   1      38.218  33.533  40.139  1.00  0.00     0.041 A 
ATOM     99  C   UNL A   1      36.997  32.861  40.222  1.00  0.00     0.027 A 
ATOM    100  C   UNL A   1      39.030  33.417  41.243  1.00  0.00     0.027 A 
ATOM    101  C   UNL A   1      36.766  31.905  41.243  1.00  0.00     0.016 A 
ATOM    102  C   UNL A   1      38.801  32.519  42.289  1.00  0.00     0.016 A 
ATOM    103  C   UNL A   1      37.723  31.664  42.244  1.00  0.00     0.040 A 
BRANCH 103 104
ATOM    104  C   UNL A   1      37.771  30.333  42.940  1.00  0.00     0.253 C 
ATOM    105  O   UNL A   1      38.324  29.400  42.355  1.00  0.00    -0.269 OA
ATOM    106  N   UNL A   1      37.472  30.253  44.293  1.00  0.00    -0.339 N 
ATOM    107  C   UNL A   1      36.313  30.740  45.026  1.00  0.00     0.120 C 
ATOM    108  C   UNL A   1      38.402  29.608  45.205  1.00  0.00     0.120 C 
ATOM    109  C   UNL A   1      36.900  31.089  46.386  1.00  0.00     0.023 C 
ATOM    110  C   UNL A   1      37.900  29.955  46.608  1.00  0.00     0.023 C 
ENDBRANCH 103 104
ENDBRANCH  96  98
ENDBRANCH  88  94
ENDBRANCH  84  86
ENDBRANCH  83  84
ENDBRANCH  82  83
ENDBRANCH  81  82
ENDBRANCH  80  81
ENDBRANCH  79  80
ENDBRANCH  78  79
ENDBRANCH   1  78
TORSDOF 26
ENDMDL
