MODEL 1
REMARK VINA RESULT:      -9.2      0.000      0.000
REMARK SMILES C[C@@H](C(=O)OCCOCCOCCOCCOC(=O)c1ccc(-c2c3nc(c(-c4c(F)cc(S(=O)(=O)[O-])cc4F)c4ccc([nH]4)c(-c4c(F)cc(S(=O)(=O)[O-])cc4F)c4nc(c(-c5c(F)cc(S(=O)(=O)[O-])cc5F)c5ccc2[nH]5)C=C4)C=C3)cc1)c1ccc(C[C@H]2CCC[C@H]2O)cc1
REMARK SMILES IDX 10 1 9 2 8 3 7 4 6 5 5 6 3 7 4 8 2 9 1 10 86 11 87 12 98 13
REMARK SMILES IDX 88 14 97 15 89 16 90 17 91 18 92 19 95 20 93 21 94 22 96 23
REMARK SMILES IDX 11 25 12 26 13 27 14 28 15 29 16 30 17 31 18 32 19 33 20 34
REMARK SMILES IDX 21 35 85 36 22 37 84 38 23 39 24 40 25 41 78 42 26 43 83 44
REMARK SMILES IDX 77 45 79 46 27 47 82 48 76 49 75 50 28 52 62 53 41 54 61 55
REMARK SMILES IDX 42 56 45 57 60 58 80 59 43 60 44 61 59 63 81 64 46 65 29 66
REMARK SMILES IDX 30 67 39 68 31 69 32 70 38 71 40 72 33 73 34 74 35 75 36 76
REMARK SMILES IDX 37 77 63 78 64 79 73 80 65 81 66 82 72 83 74 84 67 85 68 86
REMARK SMILES IDX 69 87 70 88 71 89 47 90 48 91 57 92 49 93 50 94 56 95 58 96
REMARK SMILES IDX 51 97 52 98 53 99 54 100 55 101
REMARK H PARENT 96 24 79 51 45 62
REMARK Flexibility Score: inf
ROOT
ATOM      1  C   UNL A   1      40.987  20.237  27.277  1.00  0.00     0.188 C 
ENDROOT
BRANCH   1   2
ATOM      2  C   UNL A   1      40.186  20.747  26.066  1.00  0.00     0.188 C 
BRANCH   2   3
ATOM      3  O   UNL A   1      38.797  21.016  26.182  1.00  0.00    -0.376 OA
BRANCH   3   4
ATOM      4  C   UNL A   1      37.971  21.080  25.028  1.00  0.00     0.202 C 
BRANCH   4   5
ATOM      5  C   UNL A   1      36.456  20.790  25.056  1.00  0.00     0.261 C 
BRANCH   5   6
ATOM      6  O   UNL A   1      35.627  21.534  24.148  1.00  0.00    -0.463 OA
BRANCH   6   7
ATOM      7  C   UNL A   1      36.116  22.718  23.711  1.00  0.00     0.313 C 
ATOM      8  O   UNL A   1      36.830  22.831  22.716  1.00  0.00    -0.252 OA
BRANCH   7   9
ATOM      9  C   UNL A   1      35.658  23.938  24.545  1.00  0.00     0.126 C 
ATOM     10  C   UNL A   1      36.111  23.990  26.013  1.00  0.00     0.025 C 
BRANCH   9  11
ATOM     11  C   UNL A   1      34.176  24.227  24.282  1.00  0.00    -0.034 A 
ATOM     12  C   UNL A   1      33.613  24.429  23.014  1.00  0.00     0.005 A 
ATOM     13  C   UNL A   1      33.341  24.416  25.397  1.00  0.00     0.005 A 
ATOM     14  C   UNL A   1      32.288  24.865  22.875  1.00  0.00     0.004 A 
ATOM     15  C   UNL A   1      32.026  24.862  25.259  1.00  0.00     0.004 A 
ATOM     16  C   UNL A   1      31.495  25.131  23.994  1.00  0.00    -0.048 A 
BRANCH  16  17
ATOM     17  C   UNL A   1      30.103  25.699  23.856  1.00  0.00     0.041 C 
BRANCH  17  18
ATOM     18  C   UNL A   1      29.916  27.220  24.007  1.00  0.00     0.022 C 
ATOM     19  C   UNL A   1      30.982  27.967  24.826  1.00  0.00     0.007 C 
ATOM     20  C   UNL A   1      29.751  28.055  22.729  1.00  0.00     0.117 C 
ATOM     21  C   UNL A   1      31.036  29.390  24.257  1.00  0.00     0.003 C 
ATOM     22  C   UNL A   1      29.901  29.483  23.243  1.00  0.00     0.032 C 
BRANCH  20  23
ATOM     23  O   UNL A   1      30.733  27.809  21.739  1.00  0.00    -0.393 OA
ATOM     24  H   UNL A   1      30.302  27.703  20.876  1.00  0.00     0.210 HD
ENDBRANCH  20  23
ENDBRANCH  17  18
ENDBRANCH  16  17
ENDBRANCH   9  11
ENDBRANCH   7   9
ENDBRANCH   6   7
ENDBRANCH   5   6
ENDBRANCH   4   5
ENDBRANCH   3   4
ENDBRANCH   2   3
ENDBRANCH   1   2
BRANCH   1  25
ATOM     25  O   UNL A   1      42.257  20.828  27.446  1.00  0.00    -0.377 OA
BRANCH  25  26
ATOM     26  C   UNL A   1      42.606  21.890  26.572  1.00  0.00     0.188 C 
BRANCH  26  27
ATOM     27  C   UNL A   1      43.668  21.634  25.487  1.00  0.00     0.188 C 
BRANCH  27  28
ATOM     28  O   UNL A   1      43.621  22.541  24.392  1.00  0.00    -0.376 OA
BRANCH  28  29
ATOM     29  C   UNL A   1      44.298  23.784  24.506  1.00  0.00     0.202 C 
BRANCH  29  30
ATOM     30  C   UNL A   1      43.486  24.995  24.997  1.00  0.00     0.261 C 
BRANCH  30  31
ATOM     31  O   UNL A   1      44.139  25.871  25.927  1.00  0.00    -0.460 OA
BRANCH  31  32
ATOM     32  C   UNL A   1      44.347  25.416  27.180  1.00  0.00     0.338 C 
ATOM     33  O   UNL A   1      45.041  24.468  27.509  1.00  0.00    -0.246 OA
BRANCH  32  34
ATOM     34  C   UNL A   1      43.751  26.390  28.120  1.00  0.00     0.060 A 
ATOM     35  C   UNL A   1      44.177  27.724  28.071  1.00  0.00     0.016 A 
ATOM     36  C   UNL A   1      42.771  25.995  29.034  1.00  0.00     0.016 A 
ATOM     37  C   UNL A   1      43.651  28.659  28.964  1.00  0.00     0.010 A 
ATOM     38  C   UNL A   1      42.263  26.927  29.943  1.00  0.00     0.010 A 
ATOM     39  C   UNL A   1      42.728  28.255  29.936  1.00  0.00    -0.014 A 
BRANCH  39  40
ATOM     40  C   UNL A   1      42.410  29.158  31.069  1.00  0.00     0.031 A 
ATOM     41  C   UNL A   1      41.169  30.005  30.976  1.00  0.00     0.074 A 
ATOM     42  C   UNL A   1      43.186  29.212  32.166  1.00  0.00     0.049 A 
ATOM     43  N   UNL A   1      40.711  30.905  31.805  1.00  0.00    -0.248 NA
ATOM     44  C   UNL A   1      40.333  29.807  29.779  1.00  0.00     0.031 C 
ATOM     45  C   UNL A   1      44.387  28.410  32.395  1.00  0.00     0.029 A 
ATOM     46  N   UNL A   1      43.081  29.990  33.294  1.00  0.00    -0.354 N 
ATOM     47  C   UNL A   1      39.540  31.387  31.229  1.00  0.00     0.074 A 
ATOM     48  C   UNL A   1      39.376  30.704  29.965  1.00  0.00     0.031 C 
ATOM     49  C   UNL A   1      44.917  28.749  33.583  1.00  0.00     0.029 A 
ATOM     50  C   UNL A   1      44.115  29.815  34.183  1.00  0.00     0.049 A 
ATOM     51  H   UNL A   1      42.336  30.615  33.450  1.00  0.00     0.167 HD
ATOM     52  C   UNL A   1      38.676  32.310  31.713  1.00  0.00     0.037 A 
ATOM     53  C   UNL A   1      44.395  30.462  35.334  1.00  0.00     0.037 A 
ATOM     54  C   UNL A   1      38.850  32.989  32.971  1.00  0.00     0.049 A 
ATOM     55  C   UNL A   1      43.460  31.543  35.818  1.00  0.00     0.074 A 
ATOM     56  C   UNL A   1      38.027  33.934  33.558  1.00  0.00     0.029 A 
ATOM     57  N   UNL A   1      39.925  32.807  33.830  1.00  0.00    -0.354 N 
ATOM     58  N   UNL A   1      42.347  31.978  35.275  1.00  0.00    -0.248 NA
ATOM     59  C   UNL A   1      43.817  32.221  37.073  1.00  0.00     0.031 C 
ATOM     60  C   UNL A   1      38.634  34.366  34.742  1.00  0.00     0.029 A 
ATOM     61  C   UNL A   1      39.801  33.641  34.928  1.00  0.00     0.049 A 
ATOM     62  H   UNL A   1      40.667  32.177  33.680  1.00  0.00     0.167 HD
ATOM     63  C   UNL A   1      41.855  32.953  36.137  1.00  0.00     0.074 A 
ATOM     64  C   UNL A   1      42.787  33.038  37.243  1.00  0.00     0.031 C 
ATOM     65  C   UNL A   1      40.733  33.709  36.027  1.00  0.00     0.037 A 
BRANCH  52  66
ATOM     66  C   UNL A   1      37.483  32.661  30.868  1.00  0.00     0.058 A 
ATOM     67  C   UNL A   1      36.216  32.101  31.100  1.00  0.00     0.135 A 
ATOM     68  C   UNL A   1      37.603  33.594  29.824  1.00  0.00     0.135 A 
ATOM     69  F   UNL A   1      36.048  31.188  32.070  1.00  0.00    -0.206 F 
ATOM     70  C   UNL A   1      35.118  32.434  30.313  1.00  0.00     0.059 A 
ATOM     71  C   UNL A   1      36.511  33.966  29.045  1.00  0.00     0.059 A 
ATOM     72  F   UNL A   1      38.791  34.157  29.553  1.00  0.00    -0.206 F 
ATOM     73  C   UNL A   1      35.275  33.370  29.290  1.00  0.00     0.060 A 
BRANCH  73  74
ATOM     74  S   UNL A   1      33.838  33.796  28.284  1.00  0.00     0.124 S 
ATOM     75  O   UNL A   1      33.460  32.491  27.748  1.00  0.00    -0.237 OA
ATOM     76  O   UNL A   1      32.926  34.363  29.272  1.00  0.00    -0.237 OA
ATOM     77  O   UNL A   1      34.371  34.742  27.309  1.00  0.00    -0.744 OA
ENDBRANCH  73  74
ENDBRANCH  52  66
BRANCH  53  78
ATOM     78  C   UNL A   1      45.623  30.119  36.103  1.00  0.00     0.058 A 
ATOM     79  C   UNL A   1      45.599  29.155  37.122  1.00  0.00     0.135 A 
ATOM     80  C   UNL A   1      46.846  30.757  35.839  1.00  0.00     0.135 A 
ATOM     81  F   UNL A   1      44.453  28.528  37.425  1.00  0.00    -0.206 F 
ATOM     82  C   UNL A   1      46.738  28.844  37.859  1.00  0.00     0.059 A 
ATOM     83  C   UNL A   1      48.005  30.443  36.542  1.00  0.00     0.059 A 
ATOM     84  F   UNL A   1      46.927  31.684  34.871  1.00  0.00    -0.206 F 
ATOM     85  C   UNL A   1      47.939  29.490  37.559  1.00  0.00     0.060 A 
BRANCH  85  86
ATOM     86  S   UNL A   1      49.421  29.040  38.487  1.00  0.00     0.124 S 
ATOM     87  O   UNL A   1      50.242  30.234  38.328  1.00  0.00    -0.237 OA
ATOM     88  O   UNL A   1      48.883  28.808  39.824  1.00  0.00    -0.237 OA
ATOM     89  O   UNL A   1      49.900  27.847  37.796  1.00  0.00    -0.744 OA
ENDBRANCH  85  86
ENDBRANCH  53  78
BRANCH  65  90
ATOM     90  C   UNL A   1      40.417  34.663  37.149  1.00  0.00     0.058 A 
ATOM     91  C   UNL A   1      40.948  35.961  37.193  1.00  0.00     0.135 A 
ATOM     92  C   UNL A   1      39.518  34.290  38.164  1.00  0.00     0.135 A 
ATOM     93  F   UNL A   1      41.814  36.370  36.252  1.00  0.00    -0.206 F 
ATOM     94  C   UNL A   1      40.620  36.847  38.216  1.00  0.00     0.059 A 
ATOM     95  C   UNL A   1      39.151  35.169  39.177  1.00  0.00     0.059 A 
ATOM     96  F   UNL A   1      38.969  33.065  38.164  1.00  0.00    -0.206 F 
ATOM     97  C   UNL A   1      39.717  36.443  39.202  1.00  0.00     0.060 A 
BRANCH  97  98
ATOM     98  S   UNL A   1      39.275  37.614  40.502  1.00  0.00     0.124 S 
ATOM     99  O   UNL A   1      38.149  38.316  39.896  1.00  0.00    -0.237 OA
ATOM    100  O   UNL A   1      38.945  36.733  41.618  1.00  0.00    -0.237 OA
ATOM    101  O   UNL A   1      40.489  38.407  40.674  1.00  0.00    -0.744 OA
ENDBRANCH  97  98
ENDBRANCH  65  90
ENDBRANCH  39  40
ENDBRANCH  32  34
ENDBRANCH  31  32
ENDBRANCH  30  31
ENDBRANCH  29  30
ENDBRANCH  28  29
ENDBRANCH  27  28
ENDBRANCH  26  27
ENDBRANCH  25  26
ENDBRANCH   1  25
TORSDOF 27
ENDMDL
MODEL 2
REMARK VINA RESULT:      -9.2      0.847      2.127
REMARK SMILES C[C@@H](C(=O)OCCOCCOCCOCCOC(=O)c1ccc(-c2c3nc(c(-c4c(F)cc(S(=O)(=O)[O-])cc4F)c4ccc([nH]4)c(-c4c(F)cc(S(=O)(=O)[O-])cc4F)c4nc(c(-c5c(F)cc(S(=O)(=O)[O-])cc5F)c5ccc2[nH]5)C=C4)C=C3)cc1)c1ccc(C[C@H]2CCC[C@H]2O)cc1
REMARK SMILES IDX 10 1 9 2 8 3 7 4 6 5 5 6 3 7 4 8 2 9 1 10 86 11 87 12 98 13
REMARK SMILES IDX 88 14 97 15 89 16 90 17 91 18 92 19 95 20 93 21 94 22 96 23
REMARK SMILES IDX 11 25 12 26 13 27 14 28 15 29 16 30 17 31 18 32 19 33 20 34
REMARK SMILES IDX 21 35 85 36 22 37 84 38 23 39 24 40 25 41 78 42 26 43 83 44
REMARK SMILES IDX 77 45 79 46 27 47 82 48 76 49 75 50 28 52 62 53 41 54 61 55
REMARK SMILES IDX 42 56 45 57 60 58 80 59 43 60 44 61 59 63 81 64 46 65 29 66
REMARK SMILES IDX 30 67 39 68 31 69 32 70 38 71 40 72 33 73 34 74 35 75 36 76
REMARK SMILES IDX 37 77 63 78 64 79 73 80 65 81 66 82 72 83 74 84 67 85 68 86
REMARK SMILES IDX 69 87 70 88 71 89 47 90 48 91 57 92 49 93 50 94 56 95 58 96
REMARK SMILES IDX 51 97 52 98 53 99 54 100 55 101
REMARK H PARENT 96 24 79 51 45 62
REMARK Flexibility Score: inf
ROOT
ATOM      1  C   UNL A   1      39.833  20.608  26.192  1.00  0.00     0.188 C 
ENDROOT
BRANCH   1   2
ATOM      2  C   UNL A   1      38.668  21.604  26.051  1.00  0.00     0.188 C 
BRANCH   2   3
ATOM      3  O   UNL A   1      38.161  21.943  24.770  1.00  0.00    -0.376 OA
BRANCH   3   4
ATOM      4  C   UNL A   1      36.788  22.263  24.594  1.00  0.00     0.202 C 
BRANCH   4   5
ATOM      5  C   UNL A   1      36.184  22.681  23.237  1.00  0.00     0.261 C 
BRANCH   5   6
ATOM      6  O   UNL A   1      35.449  23.915  23.196  1.00  0.00    -0.463 OA
BRANCH   6   7
ATOM      7  C   UNL A   1      34.746  24.241  24.307  1.00  0.00     0.313 C 
ATOM      8  O   UNL A   1      35.272  24.545  25.376  1.00  0.00    -0.252 OA
BRANCH   7   9
ATOM      9  C   UNL A   1      33.213  24.247  24.106  1.00  0.00     0.126 C 
ATOM     10  C   UNL A   1      32.669  23.531  22.860  1.00  0.00     0.025 C 
BRANCH   9  11
ATOM     11  C   UNL A   1      32.653  25.647  24.381  1.00  0.00    -0.034 A 
ATOM     12  C   UNL A   1      31.436  25.909  25.026  1.00  0.00     0.005 A 
ATOM     13  C   UNL A   1      33.352  26.745  23.850  1.00  0.00     0.005 A 
ATOM     14  C   UNL A   1      30.913  27.209  25.078  1.00  0.00     0.004 A 
ATOM     15  C   UNL A   1      32.825  28.036  23.890  1.00  0.00     0.004 A 
ATOM     16  C   UNL A   1      31.577  28.279  24.471  1.00  0.00    -0.048 A 
BRANCH  16  17
ATOM     17  C   UNL A   1      30.973  29.661  24.432  1.00  0.00     0.041 C 
BRANCH  17  18
ATOM     18  C   UNL A   1      29.660  29.862  23.652  1.00  0.00     0.022 C 
ATOM     19  C   UNL A   1      29.047  31.272  23.684  1.00  0.00     0.007 C 
ATOM     20  C   UNL A   1      29.635  29.460  22.170  1.00  0.00     0.117 C 
ATOM     21  C   UNL A   1      28.278  31.433  22.368  1.00  0.00     0.003 C 
ATOM     22  C   UNL A   1      28.325  30.071  21.682  1.00  0.00     0.032 C 
BRANCH  20  23
ATOM     23  O   UNL A   1      30.706  29.981  21.405  1.00  0.00    -0.393 OA
ATOM     24  H   UNL A   1      30.435  30.053  20.476  1.00  0.00     0.210 HD
ENDBRANCH  20  23
ENDBRANCH  17  18
ENDBRANCH  16  17
ENDBRANCH   9  11
ENDBRANCH   7   9
ENDBRANCH   6   7
ENDBRANCH   5   6
ENDBRANCH   4   5
ENDBRANCH   3   4
ENDBRANCH   2   3
ENDBRANCH   1   2
BRANCH   1  25
ATOM     25  O   UNL A   1      41.026  21.152  26.711  1.00  0.00    -0.377 OA
BRANCH  25  26
ATOM     26  C   UNL A   1      41.687  22.139  25.934  1.00  0.00     0.188 C 
BRANCH  26  27
ATOM     27  C   UNL A   1      43.187  21.960  25.635  1.00  0.00     0.188 C 
BRANCH  27  28
ATOM     28  O   UNL A   1      43.625  22.584  24.434  1.00  0.00    -0.376 OA
BRANCH  28  29
ATOM     29  C   UNL A   1      44.261  23.852  24.516  1.00  0.00     0.202 C 
BRANCH  29  30
ATOM     30  C   UNL A   1      43.422  25.036  25.025  1.00  0.00     0.261 C 
BRANCH  30  31
ATOM     31  O   UNL A   1      44.053  25.908  25.975  1.00  0.00    -0.460 OA
BRANCH  31  32
ATOM     32  C   UNL A   1      44.237  25.444  27.228  1.00  0.00     0.338 C 
ATOM     33  O   UNL A   1      44.916  24.487  27.562  1.00  0.00    -0.246 OA
BRANCH  32  34
ATOM     34  C   UNL A   1      43.638  26.419  28.165  1.00  0.00     0.060 A 
ATOM     35  C   UNL A   1      44.127  27.732  28.178  1.00  0.00     0.016 A 
ATOM     36  C   UNL A   1      42.593  26.046  29.014  1.00  0.00     0.016 A 
ATOM     37  C   UNL A   1      43.599  28.666  29.070  1.00  0.00     0.010 A 
ATOM     38  C   UNL A   1      42.081  26.977  29.923  1.00  0.00     0.010 A 
ATOM     39  C   UNL A   1      42.607  28.281  29.980  1.00  0.00    -0.014 A 
BRANCH  39  40
ATOM     40  C   UNL A   1      42.272  29.167  31.122  1.00  0.00     0.031 A 
ATOM     41  C   UNL A   1      41.036  30.019  31.019  1.00  0.00     0.074 A 
ATOM     42  C   UNL A   1      43.028  29.200  32.234  1.00  0.00     0.049 A 
ATOM     43  N   UNL A   1      40.566  30.908  31.855  1.00  0.00    -0.248 NA
ATOM     44  C   UNL A   1      40.221  29.845  29.804  1.00  0.00     0.031 C 
ATOM     45  C   UNL A   1      44.221  28.389  32.471  1.00  0.00     0.029 A 
ATOM     46  N   UNL A   1      42.904  29.960  33.372  1.00  0.00    -0.354 N 
ATOM     47  C   UNL A   1      39.407  31.404  31.265  1.00  0.00     0.074 A 
ATOM     48  C   UNL A   1      39.264  30.741  29.987  1.00  0.00     0.031 C 
ATOM     49  C   UNL A   1      44.730  28.706  33.675  1.00  0.00     0.029 A 
ATOM     50  C   UNL A   1      43.921  29.766  34.277  1.00  0.00     0.049 A 
ATOM     51  H   UNL A   1      42.159  30.584  33.525  1.00  0.00     0.167 HD
ATOM     52  C   UNL A   1      38.538  32.322  31.749  1.00  0.00     0.037 A 
ATOM     53  C   UNL A   1      44.182  30.393  35.443  1.00  0.00     0.037 A 
ATOM     54  C   UNL A   1      38.691  32.980  33.020  1.00  0.00     0.049 A 
ATOM     55  C   UNL A   1      43.242  31.469  35.928  1.00  0.00     0.074 A 
ATOM     56  C   UNL A   1      37.860  33.918  33.607  1.00  0.00     0.029 A 
ATOM     57  N   UNL A   1      39.749  32.779  33.895  1.00  0.00    -0.354 N 
ATOM     58  N   UNL A   1      42.140  31.918  35.371  1.00  0.00    -0.248 NA
ATOM     59  C   UNL A   1      43.578  32.126  37.199  1.00  0.00     0.031 C 
ATOM     60  C   UNL A   1      38.447  34.329  34.809  1.00  0.00     0.029 A 
ATOM     61  C   UNL A   1      39.607  33.596  35.005  1.00  0.00     0.049 A 
ATOM     62  H   UNL A   1      40.491  32.149  33.749  1.00  0.00     0.167 HD
ATOM     63  C   UNL A   1      41.636  32.881  36.240  1.00  0.00     0.074 A 
ATOM     64  C   UNL A   1      42.548  32.944  37.364  1.00  0.00     0.031 C 
ATOM     65  C   UNL A   1      40.519  33.642  36.122  1.00  0.00     0.037 A 
BRANCH  52  66
ATOM     66  C   UNL A   1      37.362  32.691  30.887  1.00  0.00     0.058 A 
ATOM     67  C   UNL A   1      37.439  33.705  29.918  1.00  0.00     0.135 A 
ATOM     68  C   UNL A   1      36.145  32.001  31.013  1.00  0.00     0.135 A 
ATOM     69  F   UNL A   1      38.570  34.413  29.769  1.00  0.00    -0.206 F 
ATOM     70  C   UNL A   1      36.346  34.038  29.125  1.00  0.00     0.059 A 
ATOM     71  C   UNL A   1      35.049  32.295  30.207  1.00  0.00     0.059 A 
ATOM     72  F   UNL A   1      36.012  31.025  31.926  1.00  0.00    -0.206 F 
ATOM     73  C   UNL A   1      35.155  33.325  29.275  1.00  0.00     0.060 A 
BRANCH  73  74
ATOM     74  S   UNL A   1      33.750  33.765  28.231  1.00  0.00     0.124 S 
ATOM     75  O   UNL A   1      32.852  34.389  29.199  1.00  0.00    -0.237 OA
ATOM     76  O   UNL A   1      34.357  34.667  27.258  1.00  0.00    -0.237 OA
ATOM     77  O   UNL A   1      33.304  32.481  27.700  1.00  0.00    -0.744 OA
ENDBRANCH  73  74
ENDBRANCH  52  66
BRANCH  53  78
ATOM     78  C   UNL A   1      45.394  30.033  36.229  1.00  0.00     0.058 A 
ATOM     79  C   UNL A   1      46.640  30.619  35.958  1.00  0.00     0.135 A 
ATOM     80  C   UNL A   1      45.332  29.088  37.267  1.00  0.00     0.135 A 
ATOM     81  F   UNL A   1      46.757  31.516  34.968  1.00  0.00    -0.206 F 
ATOM     82  C   UNL A   1      47.781  30.273  36.675  1.00  0.00     0.059 A 
ATOM     83  C   UNL A   1      46.452  28.747  38.017  1.00  0.00     0.059 A 
ATOM     84  F   UNL A   1      44.164  28.500  37.572  1.00  0.00    -0.206 F 
ATOM     85  C   UNL A   1      47.677  29.339  37.708  1.00  0.00     0.060 A 
BRANCH  85  86
ATOM     86  S   UNL A   1      49.154  28.937  38.666  1.00  0.00     0.124 S 
ATOM     87  O   UNL A   1      50.108  29.917  38.161  1.00  0.00    -0.237 OA
ATOM     88  O   UNL A   1      48.691  29.141  40.035  1.00  0.00    -0.237 OA
ATOM     89  O   UNL A   1      49.422  27.549  38.303  1.00  0.00    -0.744 OA
ENDBRANCH  85  86
ENDBRANCH  53  78
BRANCH  65  90
ATOM     90  C   UNL A   1      40.186  34.579  37.253  1.00  0.00     0.058 A 
ATOM     91  C   UNL A   1      39.374  34.187  38.329  1.00  0.00     0.135 A 
ATOM     92  C   UNL A   1      40.740  35.870  37.290  1.00  0.00     0.135 A 
ATOM     93  F   UNL A   1      38.815  32.966  38.344  1.00  0.00    -0.206 F 
ATOM     94  C   UNL A   1      39.102  35.050  39.388  1.00  0.00     0.059 A 
ATOM     95  C   UNL A   1      40.509  36.737  38.353  1.00  0.00     0.059 A 
ATOM     96  F   UNL A   1      41.535  36.294  36.294  1.00  0.00    -0.206 F 
ATOM     97  C   UNL A   1      39.678  36.322  39.392  1.00  0.00     0.060 A 
BRANCH  97  98
ATOM     98  S   UNL A   1      39.345  37.416  40.788  1.00  0.00     0.124 S 
ATOM     99  O   UNL A   1      38.650  36.520  41.706  1.00  0.00    -0.237 OA
ATOM    100  O   UNL A   1      40.687  37.823  41.194  1.00  0.00    -0.237 OA
ATOM    101  O   UNL A   1      38.524  38.474  40.205  1.00  0.00    -0.744 OA
ENDBRANCH  97  98
ENDBRANCH  65  90
ENDBRANCH  39  40
ENDBRANCH  32  34
ENDBRANCH  31  32
ENDBRANCH  30  31
ENDBRANCH  29  30
ENDBRANCH  28  29
ENDBRANCH  27  28
ENDBRANCH  26  27
ENDBRANCH  25  26
ENDBRANCH   1  25
TORSDOF 27
ENDMDL
MODEL 3
REMARK VINA RESULT:      -9.0      1.513      2.529
REMARK SMILES C[C@@H](C(=O)OCCOCCOCCOCCOC(=O)c1ccc(-c2c3nc(c(-c4c(F)cc(S(=O)(=O)[O-])cc4F)c4ccc([nH]4)c(-c4c(F)cc(S(=O)(=O)[O-])cc4F)c4nc(c(-c5c(F)cc(S(=O)(=O)[O-])cc5F)c5ccc2[nH]5)C=C4)C=C3)cc1)c1ccc(C[C@H]2CCC[C@H]2O)cc1
REMARK SMILES IDX 10 1 9 2 8 3 7 4 6 5 5 6 3 7 4 8 2 9 1 10 86 11 87 12 98 13
REMARK SMILES IDX 88 14 97 15 89 16 90 17 91 18 92 19 95 20 93 21 94 22 96 23
REMARK SMILES IDX 11 25 12 26 13 27 14 28 15 29 16 30 17 31 18 32 19 33 20 34
REMARK SMILES IDX 21 35 85 36 22 37 84 38 23 39 24 40 25 41 78 42 26 43 83 44
REMARK SMILES IDX 77 45 79 46 27 47 82 48 76 49 75 50 28 52 62 53 41 54 61 55
REMARK SMILES IDX 42 56 45 57 60 58 80 59 43 60 44 61 59 63 81 64 46 65 29 66
REMARK SMILES IDX 30 67 39 68 31 69 32 70 38 71 40 72 33 73 34 74 35 75 36 76
REMARK SMILES IDX 37 77 63 78 64 79 73 80 65 81 66 82 72 83 74 84 67 85 68 86
REMARK SMILES IDX 69 87 70 88 71 89 47 90 48 91 57 92 49 93 50 94 56 95 58 96
REMARK SMILES IDX 51 97 52 98 53 99 54 100 55 101
REMARK H PARENT 96 24 79 51 45 62
REMARK Flexibility Score: inf
ROOT
ATOM      1  C   UNL A   1      40.181  21.036  26.506  1.00  0.00     0.188 C 
ENDROOT
BRANCH   1   2
ATOM      2  C   UNL A   1      39.127  21.752  25.644  1.00  0.00     0.188 C 
BRANCH   2   3
ATOM      3  O   UNL A   1      37.778  21.836  26.076  1.00  0.00    -0.376 OA
BRANCH   3   4
ATOM      4  C   UNL A   1      36.751  21.132  25.392  1.00  0.00     0.202 C 
BRANCH   4   5
ATOM      5  C   UNL A   1      35.547  21.830  24.725  1.00  0.00     0.261 C 
BRANCH   5   6
ATOM      6  O   UNL A   1      34.491  20.989  24.232  1.00  0.00    -0.463 OA
BRANCH   6   7
ATOM      7  C   UNL A   1      33.312  21.043  24.895  1.00  0.00     0.313 C 
ATOM      8  O   UNL A   1      33.160  20.628  26.043  1.00  0.00    -0.252 OA
BRANCH   7   9
ATOM      9  C   UNL A   1      32.170  21.719  24.101  1.00  0.00     0.126 C 
ATOM     10  C   UNL A   1      32.141  21.485  22.583  1.00  0.00     0.025 C 
BRANCH   9  11
ATOM     11  C   UNL A   1      31.995  23.170  24.566  1.00  0.00    -0.034 A 
ATOM     12  C   UNL A   1      31.264  23.564  25.696  1.00  0.00     0.005 A 
ATOM     13  C   UNL A   1      32.507  24.186  23.741  1.00  0.00     0.005 A 
ATOM     14  C   UNL A   1      31.004  24.918  25.950  1.00  0.00     0.004 A 
ATOM     15  C   UNL A   1      32.237  25.532  23.986  1.00  0.00     0.004 A 
ATOM     16  C   UNL A   1      31.447  25.914  25.074  1.00  0.00    -0.048 A 
BRANCH  16  17
ATOM     17  C   UNL A   1      31.084  27.364  25.283  1.00  0.00     0.041 C 
BRANCH  17  18
ATOM     18  C   UNL A   1      31.994  28.222  26.181  1.00  0.00     0.022 C 
ATOM     19  C   UNL A   1      33.344  27.606  26.584  1.00  0.00     0.007 C 
ATOM     20  C   UNL A   1      32.340  29.642  25.708  1.00  0.00     0.117 C 
ATOM     21  C   UNL A   1      34.306  28.782  26.789  1.00  0.00     0.003 C 
ATOM     22  C   UNL A   1      33.461  30.045  26.660  1.00  0.00     0.032 C 
BRANCH  20  23
ATOM     23  O   UNL A   1      32.811  29.716  24.375  1.00  0.00    -0.393 OA
ATOM     24  H   UNL A   1      33.689  29.306  24.319  1.00  0.00     0.210 HD
ENDBRANCH  20  23
ENDBRANCH  17  18
ENDBRANCH  16  17
ENDBRANCH   9  11
ENDBRANCH   7   9
ENDBRANCH   6   7
ENDBRANCH   5   6
ENDBRANCH   4   5
ENDBRANCH   3   4
ENDBRANCH   2   3
ENDBRANCH   1   2
BRANCH   1  25
ATOM     25  O   UNL A   1      40.500  21.682  27.720  1.00  0.00    -0.377 OA
BRANCH  25  26
ATOM     26  C   UNL A   1      41.872  21.919  27.994  1.00  0.00     0.188 C 
BRANCH  26  27
ATOM     27  C   UNL A   1      42.531  23.186  27.417  1.00  0.00     0.188 C 
BRANCH  27  28
ATOM     28  O   UNL A   1      41.852  23.744  26.300  1.00  0.00    -0.376 OA
BRANCH  28  29
ATOM     29  C   UNL A   1      42.578  24.576  25.405  1.00  0.00     0.202 C 
BRANCH  29  30
ATOM     30  C   UNL A   1      44.098  24.687  25.613  1.00  0.00     0.261 C 
BRANCH  30  31
ATOM     31  O   UNL A   1      44.546  25.675  26.553  1.00  0.00    -0.460 OA
BRANCH  31  32
ATOM     32  C   UNL A   1      44.369  26.974  26.233  1.00  0.00     0.338 C 
ATOM     33  O   UNL A   1      44.579  27.497  25.151  1.00  0.00    -0.246 OA
BRANCH  32  34
ATOM     34  C   UNL A   1      43.677  27.629  27.365  1.00  0.00     0.060 A 
ATOM     35  C   UNL A   1      43.782  29.018  27.509  1.00  0.00     0.016 A 
ATOM     36  C   UNL A   1      42.919  26.880  28.269  1.00  0.00     0.016 A 
ATOM     37  C   UNL A   1      43.162  29.659  28.582  1.00  0.00     0.010 A 
ATOM     38  C   UNL A   1      42.318  27.521  29.356  1.00  0.00     0.010 A 
ATOM     39  C   UNL A   1      42.467  28.908  29.538  1.00  0.00    -0.014 A 
BRANCH  39  40
ATOM     40  C   UNL A   1      42.082  29.533  30.827  1.00  0.00     0.031 A 
ATOM     41  C   UNL A   1      40.832  30.371  30.864  1.00  0.00     0.074 A 
ATOM     42  C   UNL A   1      42.806  29.346  31.945  1.00  0.00     0.049 A 
ATOM     43  N   UNL A   1      40.321  31.060  31.849  1.00  0.00    -0.248 NA
ATOM     44  C   UNL A   1      40.055  30.440  29.614  1.00  0.00     0.031 C 
ATOM     45  C   UNL A   1      44.008  28.521  32.047  1.00  0.00     0.029 A 
ATOM     46  N   UNL A   1      42.635  29.852  33.211  1.00  0.00    -0.354 N 
ATOM     47  C   UNL A   1      39.169  31.651  31.339  1.00  0.00     0.074 A 
ATOM     48  C   UNL A   1      39.075  31.266  29.948  1.00  0.00     0.031 C 
ATOM     49  C   UNL A   1      44.477  28.590  33.306  1.00  0.00     0.029 A 
ATOM     50  C   UNL A   1      43.630  29.490  34.088  1.00  0.00     0.049 A 
ATOM     51  H   UNL A   1      41.873  30.421  33.466  1.00  0.00     0.167 HD
ATOM     52  C   UNL A   1      38.268  32.436  31.974  1.00  0.00     0.037 A 
ATOM     53  C   UNL A   1      43.846  29.866  35.366  1.00  0.00     0.037 A 
ATOM     54  C   UNL A   1      38.372  32.819  33.357  1.00  0.00     0.049 A 
ATOM     55  C   UNL A   1      42.870  30.805  36.033  1.00  0.00     0.074 A 
ATOM     56  C   UNL A   1      37.506  33.603  34.100  1.00  0.00     0.029 A 
ATOM     57  N   UNL A   1      39.409  32.457  34.206  1.00  0.00    -0.354 N 
ATOM     58  N   UNL A   1      41.776  31.343  35.546  1.00  0.00    -0.248 NA
ATOM     59  C   UNL A   1      43.157  31.189  37.423  1.00  0.00     0.031 C 
ATOM     60  C   UNL A   1      38.051  33.765  35.378  1.00  0.00     0.029 A 
ATOM     61  C   UNL A   1      39.220  33.024  35.455  1.00  0.00     0.049 A 
ATOM     62  H   UNL A   1      40.168  31.881  33.956  1.00  0.00     0.167 HD
ATOM     63  C   UNL A   1      41.228  32.098  36.579  1.00  0.00     0.074 A 
ATOM     64  C   UNL A   1      42.106  31.940  37.720  1.00  0.00     0.031 C 
ATOM     65  C   UNL A   1      40.099  32.851  36.586  1.00  0.00     0.037 A 
BRANCH  52  66
ATOM     66  C   UNL A   1      37.109  32.959  31.170  1.00  0.00     0.058 A 
ATOM     67  C   UNL A   1      37.261  33.992  30.230  1.00  0.00     0.135 A 
ATOM     68  C   UNL A   1      35.830  32.399  31.322  1.00  0.00     0.135 A 
ATOM     69  F   UNL A   1      38.456  34.579  30.059  1.00  0.00    -0.206 F 
ATOM     70  C   UNL A   1      36.183  34.468  29.491  1.00  0.00     0.059 A 
ATOM     71  C   UNL A   1      34.744  32.837  30.569  1.00  0.00     0.059 A 
ATOM     72  F   UNL A   1      35.625  31.412  32.209  1.00  0.00    -0.206 F 
ATOM     73  C   UNL A   1      34.929  33.882  29.665  1.00  0.00     0.060 A 
BRANCH  73  74
ATOM     74  S   UNL A   1      33.543  34.505  28.691  1.00  0.00     0.124 S 
ATOM     75  O   UNL A   1      34.148  35.657  28.029  1.00  0.00    -0.237 OA
ATOM     76  O   UNL A   1      33.234  33.369  27.830  1.00  0.00    -0.237 OA
ATOM     77  O   UNL A   1      32.533  34.821  29.697  1.00  0.00    -0.744 OA
ENDBRANCH  73  74
ENDBRANCH  52  66
BRANCH  53  78
ATOM     78  C   UNL A   1      45.042  29.368  36.099  1.00  0.00     0.058 A 
ATOM     79  C   UNL A   1      46.268  30.047  36.038  1.00  0.00     0.135 A 
ATOM     80  C   UNL A   1      44.985  28.197  36.871  1.00  0.00     0.135 A 
ATOM     81  F   UNL A   1      46.382  31.163  35.303  1.00  0.00    -0.206 F 
ATOM     82  C   UNL A   1      47.397  29.577  36.704  1.00  0.00     0.059 A 
ATOM     83  C   UNL A   1      46.091  27.723  37.570  1.00  0.00     0.059 A 
ATOM     84  F   UNL A   1      43.835  27.510  36.968  1.00  0.00    -0.206 F 
ATOM     85  C   UNL A   1      47.297  28.416  37.473  1.00  0.00     0.060 A 
BRANCH  85  86
ATOM     86  S   UNL A   1      48.754  27.845  38.375  1.00  0.00     0.124 S 
ATOM     87  O   UNL A   1      49.744  27.756  37.309  1.00  0.00    -0.237 OA
ATOM     88  O   UNL A   1      48.951  28.921  39.342  1.00  0.00    -0.237 OA
ATOM     89  O   UNL A   1      48.320  26.573  38.942  1.00  0.00    -0.744 OA
ENDBRANCH  85  86
ENDBRANCH  53  78
BRANCH  65  90
ATOM     90  C   UNL A   1      39.715  33.528  37.875  1.00  0.00     0.058 A 
ATOM     91  C   UNL A   1      38.761  32.981  38.747  1.00  0.00     0.135 A 
ATOM     92  C   UNL A   1      40.359  34.713  38.271  1.00  0.00     0.135 A 
ATOM     93  F   UNL A   1      38.112  31.853  38.418  1.00  0.00    -0.206 F 
ATOM     94  C   UNL A   1      38.441  33.598  39.954  1.00  0.00     0.059 A 
ATOM     95  C   UNL A   1      40.078  35.328  39.487  1.00  0.00     0.059 A 
ATOM     96  F   UNL A   1      41.290  35.274  37.482  1.00  0.00    -0.206 F 
ATOM     97  C   UNL A   1      39.108  34.770  40.317  1.00  0.00     0.060 A 
BRANCH  97  98
ATOM     98  S   UNL A   1      38.707  35.538  41.900  1.00  0.00     0.124 S 
ATOM     99  O   UNL A   1      38.967  36.946  41.619  1.00  0.00    -0.237 OA
ATOM    100  O   UNL A   1      37.304  35.175  42.077  1.00  0.00    -0.237 OA
ATOM    101  O   UNL A   1      39.636  34.904  42.832  1.00  0.00    -0.744 OA
ENDBRANCH  97  98
ENDBRANCH  65  90
ENDBRANCH  39  40
ENDBRANCH  32  34
ENDBRANCH  31  32
ENDBRANCH  30  31
ENDBRANCH  29  30
ENDBRANCH  28  29
ENDBRANCH  27  28
ENDBRANCH  26  27
ENDBRANCH  25  26
ENDBRANCH   1  25
TORSDOF 27
ENDMDL
