MODEL 1
REMARK VINA RESULT:      -8.8      0.000      0.000
REMARK SMILES C=CCN(CC(=O)OCCOCCOCCOCCOC(=O)c1ccc(-c2c3nc(c(-c4c(F)cc(S(=O)(=O)[O-])cc4F)c4ccc([nH]4)c(-c4c(F)cc(S(=O)(=O)[O-])cc4F)c4nc(c(-c5c(F)cc(S(=O)(=O)[O-])cc5F)c5ccc2[nH]5)C=C4)C=C3)cc1)C(=O)N1CC[C@@H]([NH+]2CCCCC2)C1
REMARK SMILES IDX 13 1 12 2 11 3 10 4 9 5 8 6 6 7 7 8 5 9 4 10 3 11 2 12 1 13
REMARK SMILES IDX 89 14 90 15 91 16 92 17 101 18 93 19 94 20 95 21 96 22
REMARK SMILES IDX 100 23 97 25 99 26 98 27 14 28 15 29 16 30 17 31 18 32 19 33
REMARK SMILES IDX 20 34 21 35 22 36 23 37 24 38 88 39 25 40 87 41 26 42 27 43
REMARK SMILES IDX 28 44 81 45 29 46 86 47 80 48 82 49 30 50 85 51 79 52 78 53
REMARK SMILES IDX 31 55 65 56 44 57 64 58 45 59 48 60 63 61 83 62 46 63 47 64
REMARK SMILES IDX 62 66 84 67 49 68 32 69 33 70 42 71 34 72 35 73 41 74 43 75
REMARK SMILES IDX 36 76 37 77 38 78 39 79 40 80 66 81 67 82 76 83 68 84 69 85
REMARK SMILES IDX 75 86 77 87 70 88 71 89 72 90 73 91 74 92 50 93 51 94 60 95
REMARK SMILES IDX 52 96 53 97 59 98 61 99 54 100 55 101 56 102 57 103 58 104
REMARK H PARENT 95 24 82 54 48 65
REMARK Flexibility Score: inf
ROOT
ATOM      1  C   UNL A   1      31.690  32.575  26.727  1.00  0.00     0.188 C 
ENDROOT
BRANCH   1   2
ATOM      2  C   UNL A   1      30.610  32.666  25.640  1.00  0.00     0.188 C 
BRANCH   2   3
ATOM      3  O   UNL A   1      30.145  31.475  25.048  1.00  0.00    -0.376 OA
BRANCH   3   4
ATOM      4  C   UNL A   1      29.506  31.604  23.782  1.00  0.00     0.202 C 
BRANCH   4   5
ATOM      5  C   UNL A   1      28.229  30.771  23.531  1.00  0.00     0.261 C 
BRANCH   5   6
ATOM      6  O   UNL A   1      28.455  29.355  23.251  1.00  0.00    -0.462 OA
BRANCH   6   7
ATOM      7  C   UNL A   1      29.475  29.041  22.401  1.00  0.00     0.325 C 
ATOM      8  O   UNL A   1      29.738  29.699  21.396  1.00  0.00    -0.250 OA
BRANCH   7   9
ATOM      9  C   UNL A   1      30.255  27.729  22.708  1.00  0.00     0.244 C 
BRANCH   9  10
ATOM     10  N   UNL A   1      31.704  27.626  22.979  1.00  0.00    -0.310 N 
BRANCH  10  11
ATOM     11  C   UNL A   1      32.186  28.551  24.017  1.00  0.00     0.149 C 
BRANCH  11  12
ATOM     12  C   UNL A   1      31.750  28.079  25.383  1.00  0.00    -0.013 C 
ATOM     13  C   UNL A   1      31.909  28.798  26.505  1.00  0.00     0.006 C 
ENDBRANCH  11  12
ENDBRANCH  10  11
BRANCH  10  14
ATOM     14  C   UNL A   1      32.651  26.730  22.490  1.00  0.00     0.321 C 
ATOM     15  O   UNL A   1      33.616  27.154  21.839  1.00  0.00    -0.248 OA
BRANCH  14  16
ATOM     16  N   UNL A   1      32.571  25.366  22.674  1.00  0.00    -0.318 N 
ATOM     17  C   UNL A   1      33.520  24.281  22.550  1.00  0.00     0.128 C 
ATOM     18  C   UNL A   1      31.323  24.814  23.249  1.00  0.00     0.186 C 
ATOM     19  C   UNL A   1      32.666  23.035  22.429  1.00  0.00     0.088 C 
ATOM     20  C   UNL A   1      31.511  23.275  23.413  1.00  0.00     0.205 C 
BRANCH  20  21
ATOM     21  N   UNL A   1      31.610  22.634  24.733  1.00  0.00    -0.331 N 
ATOM     22  C   UNL A   1      31.054  23.178  25.959  1.00  0.00     0.262 C 
ATOM     23  C   UNL A   1      32.710  21.714  24.992  1.00  0.00     0.262 C 
ATOM     24  H   UNL A   1      30.780  22.148  24.395  1.00  0.00     0.348 HD
ATOM     25  C   UNL A   1      32.106  23.877  26.809  1.00  0.00     0.062 C 
ATOM     26  C   UNL A   1      33.862  22.372  25.755  1.00  0.00     0.062 C 
ATOM     27  C   UNL A   1      33.402  23.104  27.010  1.00  0.00     0.012 C 
ENDBRANCH  20  21
ENDBRANCH  14  16
ENDBRANCH  10  14
ENDBRANCH   9  10
ENDBRANCH   7   9
ENDBRANCH   6   7
ENDBRANCH   5   6
ENDBRANCH   4   5
ENDBRANCH   3   4
ENDBRANCH   2   3
ENDBRANCH   1   2
BRANCH   1  28
ATOM     28  O   UNL A   1      32.024  33.732  27.456  1.00  0.00    -0.377 OA
BRANCH  28  29
ATOM     29  C   UNL A   1      33.332  33.824  27.996  1.00  0.00     0.188 C 
BRANCH  29  30
ATOM     30  C   UNL A   1      33.502  34.526  29.344  1.00  0.00     0.188 C 
BRANCH  30  31
ATOM     31  O   UNL A   1      34.189  33.862  30.407  1.00  0.00    -0.376 OA
BRANCH  31  32
ATOM     32  C   UNL A   1      34.872  32.630  30.187  1.00  0.00     0.202 C 
BRANCH  32  33
ATOM     33  C   UNL A   1      35.300  31.998  31.509  1.00  0.00     0.261 C 
BRANCH  33  34
ATOM     34  O   UNL A   1      36.455  31.191  31.267  1.00  0.00    -0.460 OA
BRANCH  34  35
ATOM     35  C   UNL A   1      37.619  31.721  31.721  1.00  0.00     0.338 C 
ATOM     36  O   UNL A   1      37.770  32.464  32.659  1.00  0.00    -0.246 OA
BRANCH  35  37
ATOM     37  C   UNL A   1      38.718  31.016  31.015  1.00  0.00     0.060 A 
ATOM     38  C   UNL A   1      39.709  30.391  31.787  1.00  0.00     0.016 A 
ATOM     39  C   UNL A   1      38.736  30.912  29.620  1.00  0.00     0.016 A 
ATOM     40  C   UNL A   1      40.744  29.697  31.168  1.00  0.00     0.010 A 
ATOM     41  C   UNL A   1      39.781  30.245  28.997  1.00  0.00     0.010 A 
ATOM     42  C   UNL A   1      40.811  29.687  29.772  1.00  0.00    -0.014 A 
BRANCH  42  43
ATOM     43  C   UNL A   1      42.100  29.446  29.103  1.00  0.00     0.031 A 
ATOM     44  C   UNL A   1      42.318  28.062  28.563  1.00  0.00     0.074 A 
ATOM     45  C   UNL A   1      43.054  30.388  29.062  1.00  0.00     0.049 A 
ATOM     46  N   UNL A   1      43.406  27.512  28.098  1.00  0.00    -0.248 NA
ATOM     47  C   UNL A   1      41.147  27.166  28.574  1.00  0.00     0.031 C 
ATOM     48  C   UNL A   1      42.905  31.766  29.523  1.00  0.00     0.029 A 
ATOM     49  N   UNL A   1      44.350  30.308  28.631  1.00  0.00    -0.354 N 
ATOM     50  C   UNL A   1      43.054  26.202  27.789  1.00  0.00     0.074 A 
ATOM     51  C   UNL A   1      41.665  26.032  28.138  1.00  0.00     0.031 C 
ATOM     52  C   UNL A   1      44.080  32.402  29.368  1.00  0.00     0.029 A 
ATOM     53  C   UNL A   1      45.066  31.460  28.841  1.00  0.00     0.049 A 
ATOM     54  H   UNL A   1      44.731  29.504  28.211  1.00  0.00     0.167 HD
ATOM     55  C   UNL A   1      43.831  25.228  27.267  1.00  0.00     0.037 A 
ATOM     56  C   UNL A   1      46.379  31.699  28.653  1.00  0.00     0.037 A 
ATOM     57  C   UNL A   1      45.219  25.423  26.956  1.00  0.00     0.049 A 
ATOM     58  C   UNL A   1      47.247  30.581  28.133  1.00  0.00     0.074 A 
ATOM     59  C   UNL A   1      46.117  24.524  26.415  1.00  0.00     0.029 A 
ATOM     60  N   UNL A   1      45.913  26.606  27.181  1.00  0.00    -0.354 N 
ATOM     61  N   UNL A   1      46.910  29.350  27.823  1.00  0.00    -0.248 NA
ATOM     62  C   UNL A   1      48.672  30.880  27.941  1.00  0.00     0.031 C 
ATOM     63  C   UNL A   1      47.369  25.146  26.366  1.00  0.00     0.029 A 
ATOM     64  C   UNL A   1      47.235  26.455  26.811  1.00  0.00     0.049 A 
ATOM     65  H   UNL A   1      45.521  27.429  27.551  1.00  0.00     0.167 HD
ATOM     66  C   UNL A   1      48.069  28.741  27.355  1.00  0.00     0.074 A 
ATOM     67  C   UNL A   1      49.119  29.736  27.438  1.00  0.00     0.031 C 
ATOM     68  C   UNL A   1      48.248  27.481  26.886  1.00  0.00     0.037 A 
BRANCH  55  69
ATOM     69  C   UNL A   1      43.203  23.876  27.070  1.00  0.00     0.058 A 
ATOM     70  C   UNL A   1      42.713  23.456  25.821  1.00  0.00     0.135 A 
ATOM     71  C   UNL A   1      43.046  23.004  28.158  1.00  0.00     0.135 A 
ATOM     72  F   UNL A   1      42.812  24.261  24.751  1.00  0.00    -0.206 F 
ATOM     73  C   UNL A   1      42.049  22.244  25.669  1.00  0.00     0.059 A 
ATOM     74  C   UNL A   1      42.415  21.770  28.023  1.00  0.00     0.059 A 
ATOM     75  F   UNL A   1      43.484  23.356  29.376  1.00  0.00    -0.206 F 
ATOM     76  C   UNL A   1      41.899  21.410  26.779  1.00  0.00     0.060 A 
BRANCH  76  77
ATOM     77  S   UNL A   1      41.007  19.855  26.576  1.00  0.00     0.124 S 
ATOM     78  O   UNL A   1      40.920  19.387  27.956  1.00  0.00    -0.237 OA
ATOM     79  O   UNL A   1      39.750  20.291  25.976  1.00  0.00    -0.237 OA
ATOM     80  O   UNL A   1      41.878  19.075  25.702  1.00  0.00    -0.744 OA
ENDBRANCH  76  77
ENDBRANCH  55  69
BRANCH  56  81
ATOM     81  C   UNL A   1      46.930  33.050  28.935  1.00  0.00     0.058 A 
ATOM     82  C   UNL A   1      47.347  33.393  30.229  1.00  0.00     0.135 A 
ATOM     83  C   UNL A   1      47.103  34.003  27.919  1.00  0.00     0.135 A 
ATOM     84  F   UNL A   1      47.194  32.520  31.236  1.00  0.00    -0.206 F 
ATOM     85  C   UNL A   1      47.919  34.629  30.507  1.00  0.00     0.059 A 
ATOM     86  C   UNL A   1      47.694  35.238  28.168  1.00  0.00     0.059 A 
ATOM     87  F   UNL A   1      46.730  33.720  26.661  1.00  0.00    -0.206 F 
ATOM     88  C   UNL A   1      48.099  35.543  29.466  1.00  0.00     0.060 A 
BRANCH  88  89
ATOM     89  S   UNL A   1      48.924  37.108  29.827  1.00  0.00     0.124 S 
ATOM     90  O   UNL A   1      49.621  36.797  31.070  1.00  0.00    -0.237 OA
ATOM     91  O   UNL A   1      49.766  37.287  28.649  1.00  0.00    -0.237 OA
ATOM     92  O   UNL A   1      47.816  38.053  29.944  1.00  0.00    -0.744 OA
ENDBRANCH  88  89
ENDBRANCH  56  81
BRANCH  68  93
ATOM     93  C   UNL A   1      49.606  27.118  26.353  1.00  0.00     0.058 A 
ATOM     94  C   UNL A   1      49.966  27.346  25.018  1.00  0.00     0.135 A 
ATOM     95  C   UNL A   1      50.596  26.652  27.235  1.00  0.00     0.135 A 
ATOM     96  F   UNL A   1      49.055  27.785  24.136  1.00  0.00    -0.206 F 
ATOM     97  C   UNL A   1      51.265  27.122  24.573  1.00  0.00     0.059 A 
ATOM     98  C   UNL A   1      51.905  26.449  26.819  1.00  0.00     0.059 A 
ATOM     99  F   UNL A   1      50.301  26.431  28.526  1.00  0.00    -0.206 F 
ATOM    100  C   UNL A   1      52.230  26.686  25.484  1.00  0.00     0.060 A 
BRANCH 100 101
ATOM    101  S   UNL A   1      53.929  26.482  24.912  1.00  0.00     0.124 S 
ATOM    102  O   UNL A   1      54.016  27.507  23.878  1.00  0.00    -0.237 OA
ATOM    103  O   UNL A   1      54.699  26.736  26.126  1.00  0.00    -0.237 OA
ATOM    104  O   UNL A   1      53.965  25.103  24.433  1.00  0.00    -0.744 OA
ENDBRANCH 100 101
ENDBRANCH  68  93
ENDBRANCH  42  43
ENDBRANCH  35  37
ENDBRANCH  34  35
ENDBRANCH  33  34
ENDBRANCH  32  33
ENDBRANCH  31  32
ENDBRANCH  30  31
ENDBRANCH  29  30
ENDBRANCH  28  29
ENDBRANCH   1  28
TORSDOF 29
ENDMDL
MODEL 2
REMARK VINA RESULT:      -7.8      5.218      8.342
REMARK SMILES C=CCN(CC(=O)OCCOCCOCCOCCOC(=O)c1ccc(-c2c3nc(c(-c4c(F)cc(S(=O)(=O)[O-])cc4F)c4ccc([nH]4)c(-c4c(F)cc(S(=O)(=O)[O-])cc4F)c4nc(c(-c5c(F)cc(S(=O)(=O)[O-])cc5F)c5ccc2[nH]5)C=C4)C=C3)cc1)C(=O)N1CC[C@@H]([NH+]2CCCCC2)C1
REMARK SMILES IDX 13 1 12 2 11 3 10 4 9 5 8 6 6 7 7 8 5 9 4 10 3 11 2 12 1 13
REMARK SMILES IDX 89 14 90 15 91 16 92 17 101 18 93 19 94 20 95 21 96 22
REMARK SMILES IDX 100 23 97 25 99 26 98 27 14 28 15 29 16 30 17 31 18 32 19 33
REMARK SMILES IDX 20 34 21 35 22 36 23 37 24 38 88 39 25 40 87 41 26 42 27 43
REMARK SMILES IDX 28 44 81 45 29 46 86 47 80 48 82 49 30 50 85 51 79 52 78 53
REMARK SMILES IDX 31 55 65 56 44 57 64 58 45 59 48 60 63 61 83 62 46 63 47 64
REMARK SMILES IDX 62 66 84 67 49 68 32 69 33 70 42 71 34 72 35 73 41 74 43 75
REMARK SMILES IDX 36 76 37 77 38 78 39 79 40 80 66 81 67 82 76 83 68 84 69 85
REMARK SMILES IDX 75 86 77 87 70 88 71 89 72 90 73 91 74 92 50 93 51 94 60 95
REMARK SMILES IDX 52 96 53 97 59 98 61 99 54 100 55 101 56 102 57 103 58 104
REMARK H PARENT 95 24 82 54 48 65
REMARK Flexibility Score: inf
ROOT
ATOM      1  C   UNL A   1      37.861  29.667  27.965  1.00  0.00     0.188 C 
ENDROOT
BRANCH   1   2
ATOM      2  C   UNL A   1      36.860  30.699  28.503  1.00  0.00     0.188 C 
BRANCH   2   3
ATOM      3  O   UNL A   1      35.546  30.694  27.995  1.00  0.00    -0.376 OA
BRANCH   3   4
ATOM      4  C   UNL A   1      34.965  29.417  27.751  1.00  0.00     0.202 C 
BRANCH   4   5
ATOM      5  C   UNL A   1      33.627  29.369  26.978  1.00  0.00     0.261 C 
BRANCH   5   6
ATOM      6  O   UNL A   1      32.647  28.414  27.490  1.00  0.00    -0.462 OA
BRANCH   6   7
ATOM      7  C   UNL A   1      32.059  27.577  26.589  1.00  0.00     0.325 C 
ATOM      8  O   UNL A   1      31.534  26.511  26.906  1.00  0.00    -0.250 OA
BRANCH   7   9
ATOM      9  C   UNL A   1      32.164  27.987  25.090  1.00  0.00     0.244 C 
BRANCH   9  10
ATOM     10  N   UNL A   1      31.747  27.164  23.935  1.00  0.00    -0.310 N 
BRANCH  10  11
ATOM     11  C   UNL A   1      30.313  27.261  23.618  1.00  0.00     0.149 C 
BRANCH  11  12
ATOM     12  C   UNL A   1      29.912  28.706  23.446  1.00  0.00    -0.013 C 
ATOM     13  C   UNL A   1      29.635  29.264  22.257  1.00  0.00     0.006 C 
ENDBRANCH  11  12
ENDBRANCH  10  11
BRANCH  10  14
ATOM     14  C   UNL A   1      32.506  26.407  23.048  1.00  0.00     0.321 C 
ATOM     15  O   UNL A   1      33.000  26.948  22.048  1.00  0.00    -0.248 OA
BRANCH  14  16
ATOM     16  N   UNL A   1      32.734  25.056  23.204  1.00  0.00    -0.318 N 
ATOM     17  C   UNL A   1      33.920  24.261  23.435  1.00  0.00     0.128 C 
ATOM     18  C   UNL A   1      31.560  24.161  23.307  1.00  0.00     0.186 C 
ATOM     19  C   UNL A   1      33.524  22.854  23.032  1.00  0.00     0.088 C 
ATOM     20  C   UNL A   1      32.082  22.711  23.542  1.00  0.00     0.205 C 
BRANCH  20  21
ATOM     21  N   UNL A   1      31.889  22.006  24.819  1.00  0.00    -0.331 N 
ATOM     22  C   UNL A   1      30.911  22.374  25.826  1.00  0.00     0.262 C 
ATOM     23  C   UNL A   1      32.999  21.250  25.384  1.00  0.00     0.262 C 
ATOM     24  H   UNL A   1      31.290  21.422  24.235  1.00  0.00     0.348 HD
ATOM     25  C   UNL A   1      31.531  23.168  26.968  1.00  0.00     0.062 C 
ATOM     26  C   UNL A   1      33.746  22.024  26.473  1.00  0.00     0.062 C 
ATOM     27  C   UNL A   1      32.818  22.591  27.541  1.00  0.00     0.012 C 
ENDBRANCH  20  21
ENDBRANCH  14  16
ENDBRANCH  10  14
ENDBRANCH   9  10
ENDBRANCH   7   9
ENDBRANCH   6   7
ENDBRANCH   5   6
ENDBRANCH   4   5
ENDBRANCH   3   4
ENDBRANCH   2   3
ENDBRANCH   1   2
BRANCH   1  28
ATOM     28  O   UNL A   1      38.228  28.582  28.783  1.00  0.00    -0.377 OA
BRANCH  28  29
ATOM     29  C   UNL A   1      39.421  28.693  29.541  1.00  0.00     0.188 C 
BRANCH  29  30
ATOM     30  C   UNL A   1      40.736  28.289  28.871  1.00  0.00     0.188 C 
BRANCH  30  31
ATOM     31  O   UNL A   1      40.724  27.789  27.532  1.00  0.00    -0.376 OA
BRANCH  31  32
ATOM     32  C   UNL A   1      41.143  26.458  27.238  1.00  0.00     0.202 C 
BRANCH  32  33
ATOM     33  C   UNL A   1      40.911  26.124  25.767  1.00  0.00     0.261 C 
BRANCH  33  34
ATOM     34  O   UNL A   1      42.185  25.970  25.136  1.00  0.00    -0.460 OA
BRANCH  34  35
ATOM     35  C   UNL A   1      42.861  27.131  24.941  1.00  0.00     0.338 C 
ATOM     36  O   UNL A   1      42.421  28.175  24.528  1.00  0.00    -0.246 OA
BRANCH  35  37
ATOM     37  C   UNL A   1      44.194  26.965  25.572  1.00  0.00     0.060 A 
ATOM     38  C   UNL A   1      44.814  25.708  25.491  1.00  0.00     0.016 A 
ATOM     39  C   UNL A   1      44.854  28.043  26.170  1.00  0.00     0.016 A 
ATOM     40  C   UNL A   1      46.075  25.514  26.045  1.00  0.00     0.010 A 
ATOM     41  C   UNL A   1      46.099  27.847  26.749  1.00  0.00     0.010 A 
ATOM     42  C   UNL A   1      46.681  26.569  26.733  1.00  0.00    -0.014 A 
BRANCH  42  43
ATOM     43  C   UNL A   1      47.711  26.287  27.747  1.00  0.00     0.031 A 
ATOM     44  C   UNL A   1      47.216  26.038  29.143  1.00  0.00     0.074 A 
ATOM     45  C   UNL A   1      49.018  26.338  27.450  1.00  0.00     0.049 A 
ATOM     46  N   UNL A   1      47.886  25.948  30.258  1.00  0.00    -0.248 NA
ATOM     47  C   UNL A   1      45.757  25.897  29.302  1.00  0.00     0.031 C 
ATOM     48  C   UNL A   1      49.576  26.529  26.114  1.00  0.00     0.029 A 
ATOM     49  N   UNL A   1      50.109  26.259  28.270  1.00  0.00    -0.354 N 
ATOM     50  C   UNL A   1      46.927  25.768  31.250  1.00  0.00     0.074 A 
ATOM     51  C   UNL A   1      45.634  25.784  30.612  1.00  0.00     0.031 C 
ATOM     52  C   UNL A   1      50.917  26.573  26.209  1.00  0.00     0.029 A 
ATOM     53  C   UNL A   1      51.299  26.460  27.616  1.00  0.00     0.049 A 
ATOM     54  H   UNL A   1      50.047  26.077  29.236  1.00  0.00     0.167 HD
ATOM     55  C   UNL A   1      47.117  25.613  32.579  1.00  0.00     0.037 A 
ATOM     56  C   UNL A   1      52.545  26.568  28.118  1.00  0.00     0.037 A 
ATOM     57  C   UNL A   1      48.418  25.629  33.186  1.00  0.00     0.049 A 
ATOM     58  C   UNL A   1      52.733  26.459  29.609  1.00  0.00     0.074 A 
ATOM     59  C   UNL A   1      48.751  25.473  34.517  1.00  0.00     0.029 A 
ATOM     60  N   UNL A   1      49.603  25.833  32.491  1.00  0.00    -0.354 N 
ATOM     61  N   UNL A   1      51.830  26.270  30.543  1.00  0.00    -0.248 NA
ATOM     62  C   UNL A   1      54.105  26.582  30.118  1.00  0.00     0.031 C 
ATOM     63  C   UNL A   1      50.134  25.640  34.635  1.00  0.00     0.029 A 
ATOM     64  C   UNL A   1      50.671  25.830  33.368  1.00  0.00     0.049 A 
ATOM     65  H   UNL A   1      49.673  25.962  31.518  1.00  0.00     0.167 HD
ATOM     66  C   UNL A   1      52.526  26.203  31.745  1.00  0.00     0.074 A 
ATOM     67  C   UNL A   1      53.926  26.389  31.419  1.00  0.00     0.031 C 
ATOM     68  C   UNL A   1      52.057  25.994  33.000  1.00  0.00     0.037 A 
BRANCH  55  69
ATOM     69  C   UNL A   1      45.891  25.477  33.439  1.00  0.00     0.058 A 
ATOM     70  C   UNL A   1      45.377  24.224  33.814  1.00  0.00     0.135 A 
ATOM     71  C   UNL A   1      45.192  26.620  33.858  1.00  0.00     0.135 A 
ATOM     72  F   UNL A   1      45.990  23.096  33.419  1.00  0.00    -0.206 F 
ATOM     73  C   UNL A   1      44.190  24.108  34.530  1.00  0.00     0.059 A 
ATOM     74  C   UNL A   1      44.020  26.529  34.605  1.00  0.00     0.059 A 
ATOM     75  F   UNL A   1      45.629  27.843  33.522  1.00  0.00    -0.206 F 
ATOM     76  C   UNL A   1      43.515  25.267  34.915  1.00  0.00     0.060 A 
BRANCH  76  77
ATOM     77  S   UNL A   1      41.959  25.102  35.815  1.00  0.00     0.124 S 
ATOM     78  O   UNL A   1      41.181  26.203  35.254  1.00  0.00    -0.237 OA
ATOM     79  O   UNL A   1      41.521  23.761  35.438  1.00  0.00    -0.237 OA
ATOM     80  O   UNL A   1      42.355  25.260  37.210  1.00  0.00    -0.744 OA
ENDBRANCH  76  77
ENDBRANCH  55  69
BRANCH  56  81
ATOM     81  C   UNL A   1      53.695  26.765  27.197  1.00  0.00     0.058 A 
ATOM     82  C   UNL A   1      54.201  25.692  26.450  1.00  0.00     0.135 A 
ATOM     83  C   UNL A   1      54.275  28.029  27.002  1.00  0.00     0.135 A 
ATOM     84  F   UNL A   1      53.686  24.464  26.608  1.00  0.00    -0.206 F 
ATOM     85  C   UNL A   1      55.238  25.863  25.539  1.00  0.00     0.059 A 
ATOM     86  C   UNL A   1      55.298  28.229  26.079  1.00  0.00     0.059 A 
ATOM     87  F   UNL A   1      53.820  29.091  27.684  1.00  0.00    -0.206 F 
ATOM     88  C   UNL A   1      55.773  27.139  25.351  1.00  0.00     0.060 A 
BRANCH  88  89
ATOM     89  S   UNL A   1      57.058  27.359  24.102  1.00  0.00     0.124 S 
ATOM     90  O   UNL A   1      58.270  27.133  24.880  1.00  0.00    -0.237 OA
ATOM     91  O   UNL A   1      56.719  26.323  23.131  1.00  0.00    -0.237 OA
ATOM     92  O   UNL A   1      56.849  28.729  23.641  1.00  0.00    -0.744 OA
ENDBRANCH  88  89
ENDBRANCH  56  81
BRANCH  68  93
ATOM     93  C   UNL A   1      53.061  25.877  34.112  1.00  0.00     0.058 A 
ATOM     94  C   UNL A   1      53.416  26.972  34.911  1.00  0.00     0.135 A 
ATOM     95  C   UNL A   1      53.575  24.615  34.455  1.00  0.00     0.135 A 
ATOM     96  F   UNL A   1      52.956  28.200  34.621  1.00  0.00    -0.206 F 
ATOM     97  C   UNL A   1      54.250  26.821  36.014  1.00  0.00     0.059 A 
ATOM     98  C   UNL A   1      54.385  24.436  35.569  1.00  0.00     0.059 A 
ATOM     99  F   UNL A   1      53.253  23.534  33.727  1.00  0.00    -0.206 F 
ATOM    100  C   UNL A   1      54.718  25.546  36.342  1.00  0.00     0.060 A 
BRANCH 100 101
ATOM    101  S   UNL A   1      55.728  25.351  37.825  1.00  0.00     0.124 S 
ATOM    102  O   UNL A   1      57.077  25.435  37.275  1.00  0.00    -0.237 OA
ATOM    103  O   UNL A   1      55.304  26.483  38.642  1.00  0.00    -0.237 OA
ATOM    104  O   UNL A   1      55.339  24.038  38.333  1.00  0.00    -0.744 OA
ENDBRANCH 100 101
ENDBRANCH  68  93
ENDBRANCH  42  43
ENDBRANCH  35  37
ENDBRANCH  34  35
ENDBRANCH  33  34
ENDBRANCH  32  33
ENDBRANCH  31  32
ENDBRANCH  30  31
ENDBRANCH  29  30
ENDBRANCH  28  29
ENDBRANCH   1  28
TORSDOF 29
ENDMDL
MODEL 3
REMARK VINA RESULT:      -7.7      1.155      2.125
REMARK SMILES C=CCN(CC(=O)OCCOCCOCCOCCOC(=O)c1ccc(-c2c3nc(c(-c4c(F)cc(S(=O)(=O)[O-])cc4F)c4ccc([nH]4)c(-c4c(F)cc(S(=O)(=O)[O-])cc4F)c4nc(c(-c5c(F)cc(S(=O)(=O)[O-])cc5F)c5ccc2[nH]5)C=C4)C=C3)cc1)C(=O)N1CC[C@@H]([NH+]2CCCCC2)C1
REMARK SMILES IDX 13 1 12 2 11 3 10 4 9 5 8 6 6 7 7 8 5 9 4 10 3 11 2 12 1 13
REMARK SMILES IDX 89 14 90 15 91 16 92 17 101 18 93 19 94 20 95 21 96 22
REMARK SMILES IDX 100 23 97 25 99 26 98 27 14 28 15 29 16 30 17 31 18 32 19 33
REMARK SMILES IDX 20 34 21 35 22 36 23 37 24 38 88 39 25 40 87 41 26 42 27 43
REMARK SMILES IDX 28 44 81 45 29 46 86 47 80 48 82 49 30 50 85 51 79 52 78 53
REMARK SMILES IDX 31 55 65 56 44 57 64 58 45 59 48 60 63 61 83 62 46 63 47 64
REMARK SMILES IDX 62 66 84 67 49 68 32 69 33 70 42 71 34 72 35 73 41 74 43 75
REMARK SMILES IDX 36 76 37 77 38 78 39 79 40 80 66 81 67 82 76 83 68 84 69 85
REMARK SMILES IDX 75 86 77 87 70 88 71 89 72 90 73 91 74 92 50 93 51 94 60 95
REMARK SMILES IDX 52 96 53 97 59 98 61 99 54 100 55 101 56 102 57 103 58 104
REMARK H PARENT 95 24 82 54 48 65
REMARK Flexibility Score: inf
ROOT
ATOM      1  C   UNL A   1      31.341  32.451  26.418  1.00  0.00     0.188 C 
ENDROOT
BRANCH   1   2
ATOM      2  C   UNL A   1      30.282  32.706  25.336  1.00  0.00     0.188 C 
BRANCH   2   3
ATOM      3  O   UNL A   1      29.541  31.613  24.844  1.00  0.00    -0.376 OA
BRANCH   3   4
ATOM      4  C   UNL A   1      28.868  31.809  23.605  1.00  0.00     0.202 C 
BRANCH   4   5
ATOM      5  C   UNL A   1      27.380  31.400  23.520  1.00  0.00     0.261 C 
BRANCH   5   6
ATOM      6  O   UNL A   1      27.138  29.972  23.328  1.00  0.00    -0.462 OA
BRANCH   6   7
ATOM      7  C   UNL A   1      27.971  29.306  22.479  1.00  0.00     0.325 C 
ATOM      8  O   UNL A   1      28.235  29.705  21.346  1.00  0.00    -0.250 OA
BRANCH   7   9
ATOM      9  C   UNL A   1      28.517  27.934  22.976  1.00  0.00     0.244 C 
BRANCH   9  10
ATOM     10  N   UNL A   1      29.884  27.416  22.758  1.00  0.00    -0.310 N 
BRANCH  10  11
ATOM     11  C   UNL A   1      30.791  28.375  22.108  1.00  0.00     0.149 C 
BRANCH  11  12
ATOM     12  C   UNL A   1      31.933  28.725  23.030  1.00  0.00    -0.013 C 
ATOM     13  C   UNL A   1      33.215  28.787  22.637  1.00  0.00     0.006 C 
ENDBRANCH  11  12
ENDBRANCH  10  11
BRANCH  10  14
ATOM     14  C   UNL A   1      30.469  26.219  23.164  1.00  0.00     0.321 C 
ATOM     15  O   UNL A   1      30.321  25.201  22.474  1.00  0.00    -0.248 OA
BRANCH  14  16
ATOM     16  N   UNL A   1      31.205  26.089  24.322  1.00  0.00    -0.318 N 
ATOM     17  C   UNL A   1      32.545  25.625  24.610  1.00  0.00     0.128 C 
ATOM     18  C   UNL A   1      30.637  26.641  25.572  1.00  0.00     0.186 C 
ATOM     19  C   UNL A   1      32.530  25.303  26.091  1.00  0.00     0.088 C 
ATOM     20  C   UNL A   1      31.682  26.425  26.710  1.00  0.00     0.205 C 
BRANCH  20  21
ATOM     21  N   UNL A   1      32.404  27.545  27.334  1.00  0.00    -0.331 N 
ATOM     22  C   UNL A   1      31.819  28.839  27.633  1.00  0.00     0.262 C 
ATOM     23  C   UNL A   1      33.852  27.616  27.198  1.00  0.00     0.262 C 
ATOM     24  H   UNL A   1      32.126  27.055  28.184  1.00  0.00     0.348 HD
ATOM     25  C   UNL A   1      32.176  29.887  26.588  1.00  0.00     0.062 C 
ATOM     26  C   UNL A   1      34.295  28.575  26.090  1.00  0.00     0.062 C 
ATOM     27  C   UNL A   1      33.647  29.950  26.202  1.00  0.00     0.012 C 
ENDBRANCH  20  21
ENDBRANCH  14  16
ENDBRANCH  10  14
ENDBRANCH   9  10
ENDBRANCH   7   9
ENDBRANCH   6   7
ENDBRANCH   5   6
ENDBRANCH   4   5
ENDBRANCH   3   4
ENDBRANCH   2   3
ENDBRANCH   1   2
BRANCH   1  28
ATOM     28  O   UNL A   1      31.787  33.531  27.204  1.00  0.00    -0.377 OA
BRANCH  28  29
ATOM     29  C   UNL A   1      33.085  33.451  27.767  1.00  0.00     0.188 C 
BRANCH  29  30
ATOM     30  C   UNL A   1      33.372  34.272  29.026  1.00  0.00     0.188 C 
BRANCH  30  31
ATOM     31  O   UNL A   1      34.073  33.673  30.117  1.00  0.00    -0.376 OA
BRANCH  31  32
ATOM     32  C   UNL A   1      34.707  32.403  29.979  1.00  0.00     0.202 C 
BRANCH  32  33
ATOM     33  C   UNL A   1      35.258  31.918  31.318  1.00  0.00     0.261 C 
BRANCH  33  34
ATOM     34  O   UNL A   1      36.458  31.183  31.069  1.00  0.00    -0.460 OA
BRANCH  34  35
ATOM     35  C   UNL A   1      37.602  31.856  31.356  1.00  0.00     0.338 C 
ATOM     36  O   UNL A   1      37.748  32.743  32.161  1.00  0.00    -0.246 OA
BRANCH  35  37
ATOM     37  C   UNL A   1      38.709  31.130  30.687  1.00  0.00     0.060 A 
ATOM     38  C   UNL A   1      39.691  30.530  31.491  1.00  0.00     0.016 A 
ATOM     39  C   UNL A   1      38.744  30.981  29.296  1.00  0.00     0.016 A 
ATOM     40  C   UNL A   1      40.733  29.817  30.907  1.00  0.00     0.010 A 
ATOM     41  C   UNL A   1      39.797  30.295  28.708  1.00  0.00     0.010 A 
ATOM     42  C   UNL A   1      40.817  29.763  29.513  1.00  0.00    -0.014 A 
BRANCH  42  43
ATOM     43  C   UNL A   1      42.115  29.501  28.868  1.00  0.00     0.031 A 
ATOM     44  C   UNL A   1      42.340  28.100  28.374  1.00  0.00     0.074 A 
ATOM     45  C   UNL A   1      43.069  30.441  28.809  1.00  0.00     0.049 A 
ATOM     46  N   UNL A   1      43.433  27.537  27.941  1.00  0.00    -0.248 NA
ATOM     47  C   UNL A   1      41.168  27.205  28.400  1.00  0.00     0.031 C 
ATOM     48  C   UNL A   1      42.914  31.834  29.225  1.00  0.00     0.029 A 
ATOM     49  N   UNL A   1      44.370  30.349  28.397  1.00  0.00    -0.354 N 
ATOM     50  C   UNL A   1      43.085  26.218  27.670  1.00  0.00     0.074 A 
ATOM     51  C   UNL A   1      41.691  26.058  28.006  1.00  0.00     0.031 C 
ATOM     52  C   UNL A   1      44.091  32.465  29.063  1.00  0.00     0.029 A 
ATOM     53  C   UNL A   1      45.084  31.507  28.579  1.00  0.00     0.049 A 
ATOM     54  H   UNL A   1      44.757  29.532  28.008  1.00  0.00     0.167 HD
ATOM     55  C   UNL A   1      43.869  25.228  27.189  1.00  0.00     0.037 A 
ATOM     56  C   UNL A   1      46.399  31.740  28.400  1.00  0.00     0.037 A 
ATOM     57  C   UNL A   1      45.261  25.414  26.889  1.00  0.00     0.049 A 
ATOM     58  C   UNL A   1      47.274  30.607  27.926  1.00  0.00     0.074 A 
ATOM     59  C   UNL A   1      46.165  24.499  26.388  1.00  0.00     0.029 A 
ATOM     60  N   UNL A   1      45.951  26.603  27.084  1.00  0.00    -0.354 N 
ATOM     61  N   UNL A   1      46.941  29.367  27.652  1.00  0.00    -0.248 NA
ATOM     62  C   UNL A   1      48.701  30.900  27.743  1.00  0.00     0.031 C 
ATOM     63  C   UNL A   1      47.417  25.119  26.334  1.00  0.00     0.029 A 
ATOM     64  C   UNL A   1      47.278  26.441  26.736  1.00  0.00     0.049 A 
ATOM     65  H   UNL A   1      45.554  27.438  27.423  1.00  0.00     0.167 HD
ATOM     66  C   UNL A   1      48.105  28.743  27.217  1.00  0.00     0.074 A 
ATOM     67  C   UNL A   1      49.154  29.742  27.282  1.00  0.00     0.031 C 
ATOM     68  C   UNL A   1      48.290  27.469  26.790  1.00  0.00     0.037 A 
BRANCH  55  69
ATOM     69  C   UNL A   1      43.243  23.870  27.026  1.00  0.00     0.058 A 
ATOM     70  C   UNL A   1      42.827  23.385  25.774  1.00  0.00     0.135 A 
ATOM     71  C   UNL A   1      43.013  23.060  28.149  1.00  0.00     0.135 A 
ATOM     72  F   UNL A   1      42.998  24.129  24.670  1.00  0.00    -0.206 F 
ATOM     73  C   UNL A   1      42.164  22.169  25.648  1.00  0.00     0.059 A 
ATOM     74  C   UNL A   1      42.381  21.823  28.042  1.00  0.00     0.059 A 
ATOM     75  F   UNL A   1      43.378  23.475  29.371  1.00  0.00    -0.206 F 
ATOM     76  C   UNL A   1      41.940  21.398  26.790  1.00  0.00     0.060 A 
BRANCH  76  77
ATOM     77  S   UNL A   1      41.049  19.838  26.617  1.00  0.00     0.124 S 
ATOM     78  O   UNL A   1      40.895  19.435  28.012  1.00  0.00    -0.237 OA
ATOM     79  O   UNL A   1      39.824  20.251  25.939  1.00  0.00    -0.237 OA
ATOM     80  O   UNL A   1      41.955  19.015  25.822  1.00  0.00    -0.744 OA
ENDBRANCH  76  77
ENDBRANCH  55  69
BRANCH  56  81
ATOM     81  C   UNL A   1      46.946  33.100  28.646  1.00  0.00     0.058 A 
ATOM     82  C   UNL A   1      46.995  34.046  27.612  1.00  0.00     0.135 A 
ATOM     83  C   UNL A   1      47.378  33.502  29.920  1.00  0.00     0.135 A 
ATOM     84  F   UNL A   1      46.602  33.707  26.375  1.00  0.00    -0.206 F 
ATOM     85  C   UNL A   1      47.447  35.342  27.830  1.00  0.00     0.059 A 
ATOM     86  C   UNL A   1      47.813  34.801  30.168  1.00  0.00     0.059 A 
ATOM     87  F   UNL A   1      47.341  32.638  30.946  1.00  0.00    -0.206 F 
ATOM     88  C   UNL A   1      47.845  35.714  29.116  1.00  0.00     0.060 A 
BRANCH  88  89
ATOM     89  S   UNL A   1      48.347  37.426  29.401  1.00  0.00     0.124 S 
ATOM     90  O   UNL A   1      47.604  37.755  30.612  1.00  0.00    -0.237 OA
ATOM     91  O   UNL A   1      49.792  37.297  29.554  1.00  0.00    -0.237 OA
ATOM     92  O   UNL A   1      47.912  38.111  28.187  1.00  0.00    -0.744 OA
ENDBRANCH  88  89
ENDBRANCH  56  81
BRANCH  68  93
ATOM     93  C   UNL A   1      49.654  27.091  26.287  1.00  0.00     0.058 A 
ATOM     94  C   UNL A   1      50.025  27.259  24.946  1.00  0.00     0.135 A 
ATOM     95  C   UNL A   1      50.639  26.671  27.197  1.00  0.00     0.135 A 
ATOM     96  F   UNL A   1      49.119  27.653  24.037  1.00  0.00    -0.206 F 
ATOM     97  C   UNL A   1      51.329  27.022  24.523  1.00  0.00     0.059 A 
ATOM     98  C   UNL A   1      51.953  26.457  26.802  1.00  0.00     0.059 A 
ATOM     99  F   UNL A   1      50.334  26.507  28.495  1.00  0.00    -0.206 F 
ATOM    100  C   UNL A   1      52.288  26.634  25.461  1.00  0.00     0.060 A 
BRANCH 100 101
ATOM    101  S   UNL A   1      53.993  26.414  24.913  1.00  0.00     0.124 S 
ATOM    102  O   UNL A   1      54.735  26.708  26.135  1.00  0.00    -0.237 OA
ATOM    103  O   UNL A   1      54.004  25.020  24.482  1.00  0.00    -0.237 OA
ATOM    104  O   UNL A   1      54.137  27.396  23.841  1.00  0.00    -0.744 OA
ENDBRANCH 100 101
ENDBRANCH  68  93
ENDBRANCH  42  43
ENDBRANCH  35  37
ENDBRANCH  34  35
ENDBRANCH  33  34
ENDBRANCH  32  33
ENDBRANCH  31  32
ENDBRANCH  30  31
ENDBRANCH  29  30
ENDBRANCH  28  29
ENDBRANCH   1  28
TORSDOF 29
ENDMDL
