MODEL 1
REMARK VINA RESULT:      -6.5      0.000      0.000
REMARK SMILES C[C@H]1c2ccc(O)cc2OC(=O)[C@@H]1CC(=O)N[C@@H](CC1=c2ccccc2=NC1)C(=O)OCCOCCOCCOCCOC(=O)c1ccc(-c2c3nc(c(-c4c(F)cc(S(=O)(=O)[O-])cc4F)c4ccc([nH]4)c(-c4c(F)cc(S(=O)(=O)[O-])cc4F)c4nc(c(-c5c(F)cc(S(=O)(=O)[O-])cc5F)c5ccc2[nH]5)C=C4)C=C3)cc1
REMARK SMILES IDX 36 1 35 2 34 3 33 4 32 5 31 6 29 7 30 8 18 9 17 10 15 11
REMARK SMILES IDX 16 12 14 14 13 15 1 16 2 17 3 18 4 19 9 20 11 21 5 22 8 23
REMARK SMILES IDX 10 24 12 25 6 26 7 27 19 29 20 30 21 31 28 32 22 33 26 34
REMARK SMILES IDX 27 35 23 36 25 37 24 38 37 39 38 40 39 41 40 42 41 43 42 44
REMARK SMILES IDX 43 45 44 46 45 47 46 48 47 49 111 50 48 51 110 52 49 53
REMARK SMILES IDX 50 54 51 55 104 56 52 57 109 58 103 59 105 60 53 61 108 62
REMARK SMILES IDX 102 63 101 64 54 66 88 67 67 68 87 69 68 70 71 71 86 72
REMARK SMILES IDX 106 73 69 74 70 75 85 77 107 78 72 79 55 80 56 81 65 82
REMARK SMILES IDX 57 83 58 84 64 85 66 86 59 87 60 88 61 89 62 90 63 91 89 92
REMARK SMILES IDX 90 93 99 94 91 95 92 96 98 97 100 98 93 99 94 100 95 101
REMARK SMILES IDX 96 102 97 103 73 104 74 105 83 106 75 107 76 108 82 109
REMARK SMILES IDX 84 110 77 111 78 112 79 113 80 114 81 115
REMARK H PARENT 17 13 7 28 105 65 71 76
REMARK Flexibility Score: inf
ROOT
ATOM      1  C   UNL A   1      42.674  33.721  33.707  1.00  0.00     0.188 C 
ENDROOT
BRANCH   1   2
ATOM      2  C   UNL A   1      42.817  32.275  33.212  1.00  0.00     0.188 C 
BRANCH   2   3
ATOM      3  O   UNL A   1      43.386  31.266  34.034  1.00  0.00    -0.376 OA
BRANCH   3   4
ATOM      4  C   UNL A   1      44.484  30.470  33.600  1.00  0.00     0.202 C 
BRANCH   4   5
ATOM      5  C   UNL A   1      45.617  31.036  32.736  1.00  0.00     0.261 C 
BRANCH   5   6
ATOM      6  O   UNL A   1      46.201  30.096  31.824  1.00  0.00    -0.462 OA
BRANCH   6   7
ATOM      7  C   UNL A   1      47.314  29.494  32.281  1.00  0.00     0.329 C 
ATOM      8  O   UNL A   1      47.782  29.663  33.406  1.00  0.00    -0.250 OA
BRANCH   7   9
ATOM      9  C   UNL A   1      48.034  28.610  31.266  1.00  0.00     0.196 C 
BRANCH   9  10
ATOM     10  N   UNL A   1      47.461  27.537  30.436  1.00  0.00    -0.342 N 
ATOM     11  C   UNL A   1      47.165  26.240  30.775  1.00  0.00     0.221 C 
ATOM     12  O   UNL A   1      47.034  25.401  29.881  1.00  0.00    -0.275 OA
ATOM     13  H   UNL A   1      47.262  27.785  29.504  1.00  0.00     0.164 HD
BRANCH  11  14
ATOM     14  C   UNL A   1      46.835  25.865  32.219  1.00  0.00     0.116 C 
BRANCH  14  15
ATOM     15  C   UNL A   1      45.656  26.595  32.898  1.00  0.00     0.116 C 
ATOM     16  C   UNL A   1      44.416  27.119  35.071  1.00  0.00     0.014 C 
ATOM     17  C   UNL A   1      45.503  26.262  34.405  1.00  0.00     0.034 C 
ATOM     18  C   UNL A   1      45.166  24.797  34.558  1.00  0.00    -0.001 A 
ATOM     19  C   UNL A   1      45.507  24.058  35.693  1.00  0.00     0.011 A 
ATOM     20  C   UNL A   1      44.506  24.147  33.513  1.00  0.00     0.138 A 
ATOM     21  C   UNL A   1      44.335  26.217  32.282  1.00  0.00     0.315 C 
ATOM     22  C   UNL A   1      45.250  22.681  35.735  1.00  0.00     0.047 A 
ATOM     23  C   UNL A   1      44.298  22.772  33.512  1.00  0.00     0.093 A 
ATOM     24  O   UNL A   1      43.973  24.884  32.442  1.00  0.00    -0.426 OA
ATOM     25  O   UNL A   1      43.647  27.001  31.641  1.00  0.00    -0.251 OA
ATOM     26  C   UNL A   1      44.679  22.047  34.632  1.00  0.00     0.119 A 
BRANCH  26  27
ATOM     27  O   UNL A   1      44.454  20.703  34.623  1.00  0.00    -0.508 OA
ATOM     28  H   UNL A   1      44.588  20.210  33.837  1.00  0.00     0.293 HD
ENDBRANCH  26  27
ENDBRANCH  14  15
ENDBRANCH  11  14
ENDBRANCH   9  10
BRANCH   9  29
ATOM     29  C   UNL A   1      48.929  29.545  30.434  1.00  0.00     0.070 C 
BRANCH  29  30
ATOM     30  C   UNL A   1      50.264  30.058  31.002  1.00  0.00    -0.037 C 
ATOM     31  C   UNL A   1      50.859  31.142  30.489  1.00  0.00     0.001 A 
ATOM     32  C   UNL A   1      51.279  28.931  30.912  1.00  0.00     0.174 C 
ATOM     33  C   UNL A   1      51.237  32.414  31.043  1.00  0.00     0.010 A 
ATOM     34  C   UNL A   1      51.852  30.523  29.581  1.00  0.00     0.065 A 
ATOM     35  N   UNL A   1      52.089  29.255  29.713  1.00  0.00    -0.280 NA
ATOM     36  C   UNL A   1      52.073  33.180  30.315  1.00  0.00     0.001 A 
ATOM     37  C   UNL A   1      52.446  31.460  28.610  1.00  0.00     0.028 A 
ATOM     38  C   UNL A   1      52.515  32.748  28.991  1.00  0.00     0.002 A 
ENDBRANCH  29  30
ENDBRANCH   9  29
ENDBRANCH   7   9
ENDBRANCH   6   7
ENDBRANCH   5   6
ENDBRANCH   4   5
ENDBRANCH   3   4
ENDBRANCH   2   3
ENDBRANCH   1   2
BRANCH   1  39
ATOM     39  O   UNL A   1      41.454  34.001  34.357  1.00  0.00    -0.377 OA
BRANCH  39  40
ATOM     40  C   UNL A   1      40.339  34.325  33.539  1.00  0.00     0.188 C 
BRANCH  40  41
ATOM     41  C   UNL A   1      39.095  34.938  34.212  1.00  0.00     0.188 C 
BRANCH  41  42
ATOM     42  O   UNL A   1      37.877  34.694  33.519  1.00  0.00    -0.376 OA
BRANCH  42  43
ATOM     43  C   UNL A   1      37.897  33.794  32.421  1.00  0.00     0.202 C 
BRANCH  43  44
ATOM     44  C   UNL A   1      36.900  32.624  32.439  1.00  0.00     0.261 C 
BRANCH  44  45
ATOM     45  O   UNL A   1      36.658  31.952  31.192  1.00  0.00    -0.460 OA
BRANCH  45  46
ATOM     46  C   UNL A   1      36.847  30.618  31.111  1.00  0.00     0.338 C 
ATOM     47  O   UNL A   1      36.000  29.750  31.221  1.00  0.00    -0.246 OA
BRANCH  46  48
ATOM     48  C   UNL A   1      38.230  30.403  30.626  1.00  0.00     0.060 A 
ATOM     49  C   UNL A   1      39.274  30.185  31.530  1.00  0.00     0.016 A 
ATOM     50  C   UNL A   1      38.490  30.468  29.251  1.00  0.00     0.016 A 
ATOM     51  C   UNL A   1      40.571  29.988  31.051  1.00  0.00     0.010 A 
ATOM     52  C   UNL A   1      39.791  30.288  28.774  1.00  0.00     0.010 A 
ATOM     53  C   UNL A   1      40.835  30.013  29.668  1.00  0.00    -0.014 A 
BRANCH  53  54
ATOM     54  C   UNL A   1      42.142  29.528  29.161  1.00  0.00     0.031 A 
ATOM     55  C   UNL A   1      42.366  28.113  28.724  1.00  0.00     0.074 A 
ATOM     56  C   UNL A   1      43.153  30.420  29.116  1.00  0.00     0.049 A 
ATOM     57  N   UNL A   1      43.434  27.586  28.184  1.00  0.00    -0.248 NA
ATOM     58  C   UNL A   1      41.259  27.167  28.923  1.00  0.00     0.031 C 
ATOM     59  C   UNL A   1      43.054  31.815  29.555  1.00  0.00     0.029 A 
ATOM     60  N   UNL A   1      44.445  30.298  28.679  1.00  0.00    -0.354 N 
ATOM     61  C   UNL A   1      43.129  26.251  27.951  1.00  0.00     0.074 A 
ATOM     62  C   UNL A   1      41.786  26.040  28.456  1.00  0.00     0.031 C 
ATOM     63  C   UNL A   1      44.226  32.426  29.337  1.00  0.00     0.029 A 
ATOM     64  C   UNL A   1      45.166  31.465  28.768  1.00  0.00     0.049 A 
ATOM     65  H   UNL A   1      44.822  29.455  28.335  1.00  0.00     0.167 HD
ATOM     66  C   UNL A   1      43.896  25.304  27.356  1.00  0.00     0.037 A 
ATOM     67  C   UNL A   1      46.437  31.738  28.422  1.00  0.00     0.037 A 
ATOM     68  C   UNL A   1      45.242  25.526  26.883  1.00  0.00     0.049 A 
ATOM     69  C   UNL A   1      47.277  30.658  27.802  1.00  0.00     0.074 A 
ATOM     70  C   UNL A   1      46.081  24.635  26.230  1.00  0.00     0.029 A 
ATOM     71  N   UNL A   1      45.954  26.709  27.022  1.00  0.00    -0.354 N 
ATOM     72  N   UNL A   1      46.943  29.424  27.513  1.00  0.00    -0.248 NA
ATOM     73  C   UNL A   1      48.660  31.008  27.454  1.00  0.00     0.031 C 
ATOM     74  C   UNL A   1      47.315  25.262  26.025  1.00  0.00     0.029 A 
ATOM     75  C   UNL A   1      47.230  26.562  26.496  1.00  0.00     0.049 A 
ATOM     76  H   UNL A   1      45.605  27.532  27.432  1.00  0.00     0.167 HD
ATOM     77  C   UNL A   1      48.070  28.853  26.931  1.00  0.00     0.074 A 
ATOM     78  C   UNL A   1      49.088  29.885  26.894  1.00  0.00     0.031 C 
ATOM     79  C   UNL A   1      48.242  27.590  26.470  1.00  0.00     0.037 A 
BRANCH  66  80
ATOM     80  C   UNL A   1      43.302  23.934  27.164  1.00  0.00     0.058 A 
ATOM     81  C   UNL A   1      42.758  23.541  25.929  1.00  0.00     0.135 A 
ATOM     82  C   UNL A   1      43.356  22.973  28.187  1.00  0.00     0.135 A 
ATOM     83  F   UNL A   1      42.673  24.422  24.918  1.00  0.00    -0.206 F 
ATOM     84  C   UNL A   1      42.275  22.254  25.721  1.00  0.00     0.059 A 
ATOM     85  C   UNL A   1      42.901  21.671  27.995  1.00  0.00     0.059 A 
ATOM     86  F   UNL A   1      43.868  23.291  29.386  1.00  0.00    -0.206 F 
ATOM     87  C   UNL A   1      42.354  21.324  26.760  1.00  0.00     0.060 A 
BRANCH  87  88
ATOM     88  S   UNL A   1      41.728  19.656  26.467  1.00  0.00     0.124 S 
ATOM     89  O   UNL A   1      42.063  18.995  27.726  1.00  0.00    -0.237 OA
ATOM     90  O   UNL A   1      40.308  19.895  26.234  1.00  0.00    -0.237 OA
ATOM     91  O   UNL A   1      42.485  19.205  25.305  1.00  0.00    -0.744 OA
ENDBRANCH  87  88
ENDBRANCH  66  80
BRANCH  67  92
ATOM     92  C   UNL A   1      46.971  33.111  28.622  1.00  0.00     0.058 A 
ATOM     93  C   UNL A   1      46.756  34.111  27.662  1.00  0.00     0.135 A 
ATOM     94  C   UNL A   1      47.660  33.462  29.793  1.00  0.00     0.135 A 
ATOM     95  F   UNL A   1      46.103  33.821  26.526  1.00  0.00    -0.206 F 
ATOM     96  C   UNL A   1      47.215  35.409  27.851  1.00  0.00     0.059 A 
ATOM     97  C   UNL A   1      48.105  34.761  30.016  1.00  0.00     0.059 A 
ATOM     98  F   UNL A   1      47.871  32.545  30.749  1.00  0.00    -0.206 F 
ATOM     99  C   UNL A   1      47.882  35.725  29.035  1.00  0.00     0.060 A 
BRANCH  99 100
ATOM    100  S   UNL A   1      48.420  37.430  29.291  1.00  0.00     0.124 S 
ATOM    101  O   UNL A   1      49.156  37.320  30.545  1.00  0.00    -0.237 OA
ATOM    102  O   UNL A   1      49.222  37.678  28.098  1.00  0.00    -0.237 OA
ATOM    103  O   UNL A   1      47.165  38.172  29.360  1.00  0.00    -0.744 OA
ENDBRANCH  99 100
ENDBRANCH  67  92
BRANCH  79 104
ATOM    104  C   UNL A   1      49.583  27.244  25.878  1.00  0.00     0.058 A 
ATOM    105  C   UNL A   1      50.640  26.779  26.675  1.00  0.00     0.135 A 
ATOM    106  C   UNL A   1      49.793  27.320  24.491  1.00  0.00     0.135 A 
ATOM    107  F   UNL A   1      50.498  26.697  28.007  1.00  0.00    -0.206 F 
ATOM    108  C   UNL A   1      51.865  26.417  26.121  1.00  0.00     0.059 A 
ATOM    109  C   UNL A   1      50.999  26.935  23.912  1.00  0.00     0.059 A 
ATOM    110  F   UNL A   1      48.813  27.752  23.682  1.00  0.00    -0.206 F 
ATOM    111  C   UNL A   1      52.032  26.492  24.737  1.00  0.00     0.060 A 
BRANCH 111 112
ATOM    112  S   UNL A   1      53.611  25.974  24.031  1.00  0.00     0.124 S 
ATOM    113  O   UNL A   1      53.342  26.070  22.601  1.00  0.00    -0.237 OA
ATOM    114  O   UNL A   1      54.533  26.969  24.571  1.00  0.00    -0.237 OA
ATOM    115  O   UNL A   1      53.787  24.620  24.546  1.00  0.00    -0.744 OA
ENDBRANCH 111 112
ENDBRANCH  79 104
ENDBRANCH  53  54
ENDBRANCH  46  48
ENDBRANCH  45  46
ENDBRANCH  44  45
ENDBRANCH  43  44
ENDBRANCH  42  43
ENDBRANCH  41  42
ENDBRANCH  40  41
ENDBRANCH  39  40
ENDBRANCH   1  39
TORSDOF 29
ENDMDL
MODEL 2
REMARK VINA RESULT:      -6.1      4.117     10.752
REMARK SMILES C[C@H]1c2ccc(O)cc2OC(=O)[C@@H]1CC(=O)N[C@@H](CC1=c2ccccc2=NC1)C(=O)OCCOCCOCCOCCOC(=O)c1ccc(-c2c3nc(c(-c4c(F)cc(S(=O)(=O)[O-])cc4F)c4ccc([nH]4)c(-c4c(F)cc(S(=O)(=O)[O-])cc4F)c4nc(c(-c5c(F)cc(S(=O)(=O)[O-])cc5F)c5ccc2[nH]5)C=C4)C=C3)cc1
REMARK SMILES IDX 36 1 35 2 34 3 33 4 32 5 31 6 29 7 30 8 18 9 17 10 15 11
REMARK SMILES IDX 16 12 14 14 13 15 1 16 2 17 3 18 4 19 9 20 11 21 5 22 8 23
REMARK SMILES IDX 10 24 12 25 6 26 7 27 19 29 20 30 21 31 28 32 22 33 26 34
REMARK SMILES IDX 27 35 23 36 25 37 24 38 37 39 38 40 39 41 40 42 41 43 42 44
REMARK SMILES IDX 43 45 44 46 45 47 46 48 47 49 111 50 48 51 110 52 49 53
REMARK SMILES IDX 50 54 51 55 104 56 52 57 109 58 103 59 105 60 53 61 108 62
REMARK SMILES IDX 102 63 101 64 54 66 88 67 67 68 87 69 68 70 71 71 86 72
REMARK SMILES IDX 106 73 69 74 70 75 85 77 107 78 72 79 55 80 56 81 65 82
REMARK SMILES IDX 57 83 58 84 64 85 66 86 59 87 60 88 61 89 62 90 63 91 89 92
REMARK SMILES IDX 90 93 99 94 91 95 92 96 98 97 100 98 93 99 94 100 95 101
REMARK SMILES IDX 96 102 97 103 73 104 74 105 83 106 75 107 76 108 82 109
REMARK SMILES IDX 84 110 77 111 78 112 79 113 80 114 81 115
REMARK H PARENT 17 13 7 28 105 65 71 76
REMARK Flexibility Score: inf
ROOT
ATOM      1  C   UNL A   1      45.881  27.693  24.824  1.00  0.00     0.188 C 
ENDROOT
BRANCH   1   2
ATOM      2  C   UNL A   1      45.968  26.182  25.082  1.00  0.00     0.188 C 
BRANCH   2   3
ATOM      3  O   UNL A   1      46.877  25.646  26.034  1.00  0.00    -0.376 OA
BRANCH   3   4
ATOM      4  C   UNL A   1      46.769  24.308  26.508  1.00  0.00     0.202 C 
BRANCH   4   5
ATOM      5  C   UNL A   1      45.464  23.742  27.082  1.00  0.00     0.261 C 
BRANCH   5   6
ATOM      6  O   UNL A   1      45.414  23.689  28.513  1.00  0.00    -0.462 OA
BRANCH   6   7
ATOM      7  C   UNL A   1      45.973  24.746  29.129  1.00  0.00     0.329 C 
ATOM      8  O   UNL A   1      47.175  25.004  29.111  1.00  0.00    -0.250 OA
BRANCH   7   9
ATOM      9  C   UNL A   1      45.008  25.605  29.943  1.00  0.00     0.196 C 
BRANCH   9  10
ATOM     10  N   UNL A   1      44.115  26.670  29.455  1.00  0.00    -0.342 N 
ATOM     11  C   UNL A   1      43.121  26.605  28.511  1.00  0.00     0.221 C 
ATOM     12  O   UNL A   1      42.730  27.646  27.978  1.00  0.00    -0.275 OA
ATOM     13  H   UNL A   1      44.252  27.555  29.863  1.00  0.00     0.164 HD
BRANCH  11  14
ATOM     14  C   UNL A   1      42.386  25.293  28.238  1.00  0.00     0.116 C 
BRANCH  14  15
ATOM     15  C   UNL A   1      41.155  25.341  27.308  1.00  0.00     0.116 C 
ATOM     16  C   UNL A   1      38.919  24.295  26.644  1.00  0.00     0.014 C 
ATOM     17  C   UNL A   1      40.198  24.132  27.479  1.00  0.00     0.034 C 
ATOM     18  C   UNL A   1      40.919  22.868  27.072  1.00  0.00    -0.001 A 
ATOM     19  C   UNL A   1      40.605  21.615  27.605  1.00  0.00     0.011 A 
ATOM     20  C   UNL A   1      41.955  22.955  26.140  1.00  0.00     0.138 A 
ATOM     21  C   UNL A   1      41.551  25.319  25.854  1.00  0.00     0.315 C 
ATOM     22  C   UNL A   1      41.372  20.495  27.258  1.00  0.00     0.047 A 
ATOM     23  C   UNL A   1      42.764  21.867  25.831  1.00  0.00     0.093 A 
ATOM     24  O   UNL A   1      42.178  24.150  25.435  1.00  0.00    -0.426 OA
ATOM     25  O   UNL A   1      41.386  26.270  25.101  1.00  0.00    -0.251 OA
ATOM     26  C   UNL A   1      42.463  20.638  26.400  1.00  0.00     0.119 A 
BRANCH  26  27
ATOM     27  O   UNL A   1      43.254  19.578  26.074  1.00  0.00    -0.508 OA
ATOM     28  H   UNL A   1      43.426  18.909  26.708  1.00  0.00     0.293 HD
ENDBRANCH  26  27
ENDBRANCH  14  15
ENDBRANCH  11  14
ENDBRANCH   9  10
BRANCH   9  29
ATOM     29  C   UNL A   1      44.271  24.647  30.895  1.00  0.00     0.070 C 
BRANCH  29  30
ATOM     30  C   UNL A   1      44.809  24.385  32.312  1.00  0.00    -0.037 C 
ATOM     31  C   UNL A   1      43.975  24.237  33.349  1.00  0.00     0.001 A 
ATOM     32  C   UNL A   1      45.746  25.525  32.677  1.00  0.00     0.174 C 
ATOM     33  C   UNL A   1      43.741  23.166  34.279  1.00  0.00     0.010 A 
ATOM     34  C   UNL A   1      44.001  25.597  33.936  1.00  0.00     0.065 A 
ATOM     35  N   UNL A   1      44.934  26.409  33.548  1.00  0.00    -0.280 NA
ATOM     36  C   UNL A   1      43.017  23.453  35.379  1.00  0.00     0.001 A 
ATOM     37  C   UNL A   1      42.919  25.855  34.904  1.00  0.00     0.028 A 
ATOM     38  C   UNL A   1      42.450  24.785  35.570  1.00  0.00     0.002 A 
ENDBRANCH  29  30
ENDBRANCH   9  29
ENDBRANCH   7   9
ENDBRANCH   6   7
ENDBRANCH   5   6
ENDBRANCH   4   5
ENDBRANCH   3   4
ENDBRANCH   2   3
ENDBRANCH   1   2
BRANCH   1  39
ATOM     39  O   UNL A   1      47.065  28.272  24.324  1.00  0.00    -0.377 OA
BRANCH  39  40
ATOM     40  C   UNL A   1      47.994  27.409  23.685  1.00  0.00     0.188 C 
BRANCH  40  41
ATOM     41  C   UNL A   1      49.392  27.965  23.347  1.00  0.00     0.188 C 
BRANCH  41  42
ATOM     42  O   UNL A   1      50.297  26.995  22.833  1.00  0.00    -0.376 OA
BRANCH  42  43
ATOM     43  C   UNL A   1      51.635  27.394  22.574  1.00  0.00     0.202 C 
BRANCH  43  44
ATOM     44  C   UNL A   1      52.728  26.317  22.651  1.00  0.00     0.261 C 
BRANCH  44  45
ATOM     45  O   UNL A   1      53.470  26.224  23.878  1.00  0.00    -0.460 OA
BRANCH  45  46
ATOM     46  C   UNL A   1      53.180  25.240  24.754  1.00  0.00     0.338 C 
ATOM     47  O   UNL A   1      53.675  24.127  24.798  1.00  0.00    -0.246 OA
BRANCH  46  48
ATOM     48  C   UNL A   1      52.322  25.833  25.807  1.00  0.00     0.060 A 
ATOM     49  C   UNL A   1      50.960  25.528  25.868  1.00  0.00     0.016 A 
ATOM     50  C   UNL A   1      52.883  26.742  26.713  1.00  0.00     0.016 A 
ATOM     51  C   UNL A   1      50.169  26.102  26.867  1.00  0.00     0.010 A 
ATOM     52  C   UNL A   1      52.088  27.328  27.701  1.00  0.00     0.010 A 
ATOM     53  C   UNL A   1      50.733  26.986  27.806  1.00  0.00    -0.014 A 
BRANCH  53  54
ATOM     54  C   UNL A   1      49.960  27.363  29.016  1.00  0.00     0.031 A 
ATOM     55  C   UNL A   1      49.984  26.552  30.275  1.00  0.00     0.074 A 
ATOM     56  C   UNL A   1      49.207  28.479  28.941  1.00  0.00     0.049 A 
ATOM     57  N   UNL A   1      49.422  26.817  31.426  1.00  0.00    -0.248 NA
ATOM     58  C   UNL A   1      50.721  25.281  30.241  1.00  0.00     0.031 C 
ATOM     59  C   UNL A   1      49.081  29.322  27.749  1.00  0.00     0.029 A 
ATOM     60  N   UNL A   1      48.420  29.100  29.874  1.00  0.00    -0.354 N 
ATOM     61  C   UNL A   1      49.754  25.765  32.268  1.00  0.00     0.074 A 
ATOM     62  C   UNL A   1      50.530  24.830  31.476  1.00  0.00     0.031 C 
ATOM     63  C   UNL A   1      48.289  30.365  28.032  1.00  0.00     0.029 A 
ATOM     64  C   UNL A   1      47.832  30.254  29.414  1.00  0.00     0.049 A 
ATOM     65  H   UNL A   1      48.287  28.753  30.787  1.00  0.00     0.167 HD
ATOM     66  C   UNL A   1      49.451  25.609  33.581  1.00  0.00     0.037 A 
ATOM     67  C   UNL A   1      47.022  31.132  30.033  1.00  0.00     0.037 A 
ATOM     68  C   UNL A   1      48.655  26.538  34.348  1.00  0.00     0.049 A 
ATOM     69  C   UNL A   1      46.671  30.914  31.477  1.00  0.00     0.074 A 
ATOM     70  C   UNL A   1      48.330  26.483  35.695  1.00  0.00     0.029 A 
ATOM     71  N   UNL A   1      48.045  27.677  33.842  1.00  0.00    -0.354 N 
ATOM     72  N   UNL A   1      47.062  29.955  32.281  1.00  0.00    -0.248 NA
ATOM     73  C   UNL A   1      45.775  31.897  32.100  1.00  0.00     0.031 C 
ATOM     74  C   UNL A   1      47.481  27.556  35.988  1.00  0.00     0.029 A 
ATOM     75  C   UNL A   1      47.322  28.315  34.839  1.00  0.00     0.049 A 
ATOM     76  H   UNL A   1      48.115  27.987  32.911  1.00  0.00     0.167 HD
ATOM     77  C   UNL A   1      46.476  30.230  33.511  1.00  0.00     0.074 A 
ATOM     78  C   UNL A   1      45.719  31.455  33.348  1.00  0.00     0.031 C 
ATOM     79  C   UNL A   1      46.561  29.530  34.669  1.00  0.00     0.037 A 
BRANCH  66  80
ATOM     80  C   UNL A   1      49.990  24.396  34.291  1.00  0.00     0.058 A 
ATOM     81  C   UNL A   1      49.213  23.236  34.447  1.00  0.00     0.135 A 
ATOM     82  C   UNL A   1      51.321  24.353  34.740  1.00  0.00     0.135 A 
ATOM     83  F   UNL A   1      47.931  23.223  34.044  1.00  0.00    -0.206 F 
ATOM     84  C   UNL A   1      49.728  22.086  35.035  1.00  0.00     0.059 A 
ATOM     85  C   UNL A   1      51.866  23.206  35.310  1.00  0.00     0.059 A 
ATOM     86  F   UNL A   1      52.111  25.431  34.613  1.00  0.00    -0.206 F 
ATOM     87  C   UNL A   1      51.058  22.079  35.461  1.00  0.00     0.060 A 
BRANCH  87  88
ATOM     88  S   UNL A   1      51.709  20.574  36.216  1.00  0.00     0.124 S 
ATOM     89  O   UNL A   1      51.344  20.770  37.616  1.00  0.00    -0.237 OA
ATOM     90  O   UNL A   1      50.975  19.530  35.509  1.00  0.00    -0.237 OA
ATOM     91  O   UNL A   1      53.138  20.638  35.928  1.00  0.00    -0.744 OA
ENDBRANCH  87  88
ENDBRANCH  66  80
BRANCH  67  92
ATOM     92  C   UNL A   1      46.528  32.321  29.290  1.00  0.00     0.058 A 
ATOM     93  C   UNL A   1      45.324  32.269  28.572  1.00  0.00     0.135 A 
ATOM     94  C   UNL A   1      47.221  33.541  29.324  1.00  0.00     0.135 A 
ATOM     95  F   UNL A   1      44.629  31.124  28.511  1.00  0.00    -0.206 F 
ATOM     96  C   UNL A   1      44.829  33.383  27.904  1.00  0.00     0.059 A 
ATOM     97  C   UNL A   1      46.731  34.676  28.686  1.00  0.00     0.059 A 
ATOM     98  F   UNL A   1      48.366  33.645  30.016  1.00  0.00    -0.206 F 
ATOM     99  C   UNL A   1      45.537  34.584  27.973  1.00  0.00     0.060 A 
BRANCH  99 100
ATOM    100  S   UNL A   1      44.851  36.036  27.150  1.00  0.00     0.124 S 
ATOM    101  O   UNL A   1      46.018  36.555  26.447  1.00  0.00    -0.237 OA
ATOM    102  O   UNL A   1      43.810  35.448  26.313  1.00  0.00    -0.237 OA
ATOM    103  O   UNL A   1      44.367  36.855  28.258  1.00  0.00    -0.744 OA
ENDBRANCH  99 100
ENDBRANCH  67  92
BRANCH  79 104
ATOM    104  C   UNL A   1      45.818  30.069  35.863  1.00  0.00     0.058 A 
ATOM    105  C   UNL A   1      46.462  30.844  36.840  1.00  0.00     0.135 A 
ATOM    106  C   UNL A   1      44.436  29.860  35.999  1.00  0.00     0.135 A 
ATOM    107  F   UNL A   1      47.784  31.066  36.765  1.00  0.00    -0.206 F 
ATOM    108  C   UNL A   1      45.765  31.379  37.919  1.00  0.00     0.059 A 
ATOM    109  C   UNL A   1      43.714  30.409  37.054  1.00  0.00     0.059 A 
ATOM    110  F   UNL A   1      43.770  29.131  35.089  1.00  0.00    -0.206 F 
ATOM    111  C   UNL A   1      44.389  31.162  38.015  1.00  0.00     0.060 A 
BRANCH 111 112
ATOM    112  S   UNL A   1      43.494  31.903  39.396  1.00  0.00     0.124 S 
ATOM    113  O   UNL A   1      44.029  33.260  39.401  1.00  0.00    -0.237 OA
ATOM    114  O   UNL A   1      42.104  31.771  38.970  1.00  0.00    -0.237 OA
ATOM    115  O   UNL A   1      43.876  31.074  40.534  1.00  0.00    -0.744 OA
ENDBRANCH 111 112
ENDBRANCH  79 104
ENDBRANCH  53  54
ENDBRANCH  46  48
ENDBRANCH  45  46
ENDBRANCH  44  45
ENDBRANCH  43  44
ENDBRANCH  42  43
ENDBRANCH  41  42
ENDBRANCH  40  41
ENDBRANCH  39  40
ENDBRANCH   1  39
TORSDOF 29
ENDMDL
MODEL 3
REMARK VINA RESULT:      -6.0      5.486     10.845
REMARK SMILES C[C@H]1c2ccc(O)cc2OC(=O)[C@@H]1CC(=O)N[C@@H](CC1=c2ccccc2=NC1)C(=O)OCCOCCOCCOCCOC(=O)c1ccc(-c2c3nc(c(-c4c(F)cc(S(=O)(=O)[O-])cc4F)c4ccc([nH]4)c(-c4c(F)cc(S(=O)(=O)[O-])cc4F)c4nc(c(-c5c(F)cc(S(=O)(=O)[O-])cc5F)c5ccc2[nH]5)C=C4)C=C3)cc1
REMARK SMILES IDX 36 1 35 2 34 3 33 4 32 5 31 6 29 7 30 8 18 9 17 10 15 11
REMARK SMILES IDX 16 12 14 14 13 15 1 16 2 17 3 18 4 19 9 20 11 21 5 22 8 23
REMARK SMILES IDX 10 24 12 25 6 26 7 27 19 29 20 30 21 31 28 32 22 33 26 34
REMARK SMILES IDX 27 35 23 36 25 37 24 38 37 39 38 40 39 41 40 42 41 43 42 44
REMARK SMILES IDX 43 45 44 46 45 47 46 48 47 49 111 50 48 51 110 52 49 53
REMARK SMILES IDX 50 54 51 55 104 56 52 57 109 58 103 59 105 60 53 61 108 62
REMARK SMILES IDX 102 63 101 64 54 66 88 67 67 68 87 69 68 70 71 71 86 72
REMARK SMILES IDX 106 73 69 74 70 75 85 77 107 78 72 79 55 80 56 81 65 82
REMARK SMILES IDX 57 83 58 84 64 85 66 86 59 87 60 88 61 89 62 90 63 91 89 92
REMARK SMILES IDX 90 93 99 94 91 95 92 96 98 97 100 98 93 99 94 100 95 101
REMARK SMILES IDX 96 102 97 103 73 104 74 105 83 106 75 107 76 108 82 109
REMARK SMILES IDX 84 110 77 111 78 112 79 113 80 114 81 115
REMARK H PARENT 17 13 7 28 105 65 71 76
REMARK Flexibility Score: inf
ROOT
ATOM      1  C   UNL A   1      37.477  30.048  27.702  1.00  0.00     0.188 C 
ENDROOT
BRANCH   1   2
ATOM      2  C   UNL A   1      38.684  29.507  28.481  1.00  0.00     0.188 C 
BRANCH   2   3
ATOM      3  O   UNL A   1      38.982  28.118  28.511  1.00  0.00    -0.376 OA
BRANCH   3   4
ATOM      4  C   UNL A   1      40.014  27.587  29.335  1.00  0.00     0.202 C 
BRANCH   4   5
ATOM      5  C   UNL A   1      41.498  27.703  28.971  1.00  0.00     0.261 C 
BRANCH   5   6
ATOM      6  O   UNL A   1      42.366  26.834  29.712  1.00  0.00    -0.462 OA
BRANCH   6   7
ATOM      7  C   UNL A   1      43.556  27.376  30.030  1.00  0.00     0.329 C 
ATOM      8  O   UNL A   1      44.203  28.113  29.289  1.00  0.00    -0.250 OA
BRANCH   7   9
ATOM      9  C   UNL A   1      44.116  26.954  31.386  1.00  0.00     0.196 C 
BRANCH   9  10
ATOM     10  N   UNL A   1      45.511  26.623  31.724  1.00  0.00    -0.342 N 
ATOM     11  C   UNL A   1      45.993  25.736  32.654  1.00  0.00     0.221 C 
ATOM     12  O   UNL A   1      47.156  25.850  33.046  1.00  0.00    -0.275 OA
ATOM     13  H   UNL A   1      46.195  27.109  31.209  1.00  0.00     0.164 HD
BRANCH  11  14
ATOM     14  C   UNL A   1      45.168  24.522  33.078  1.00  0.00     0.116 C 
BRANCH  14  15
ATOM     15  C   UNL A   1      44.722  24.438  34.553  1.00  0.00     0.116 C 
ATOM     16  C   UNL A   1      45.425  24.340  37.010  1.00  0.00     0.014 C 
ATOM     17  C   UNL A   1      45.899  24.271  35.551  1.00  0.00     0.034 C 
ATOM     18  C   UNL A   1      46.580  22.947  35.295  1.00  0.00    -0.001 A 
ATOM     19  C   UNL A   1      47.932  22.726  35.575  1.00  0.00     0.011 A 
ATOM     20  C   UNL A   1      45.837  21.905  34.737  1.00  0.00     0.138 A 
ATOM     21  C   UNL A   1      43.832  23.249  34.803  1.00  0.00     0.315 C 
ATOM     22  C   UNL A   1      48.528  21.506  35.229  1.00  0.00     0.047 A 
ATOM     23  C   UNL A   1      46.426  20.711  34.332  1.00  0.00     0.093 A 
ATOM     24  O   UNL A   1      44.441  22.012  34.619  1.00  0.00    -0.426 OA
ATOM     25  O   UNL A   1      42.647  23.349  35.093  1.00  0.00    -0.251 OA
ATOM     26  C   UNL A   1      47.777  20.525  34.582  1.00  0.00     0.119 A 
BRANCH  26  27
ATOM     27  O   UNL A   1      48.336  19.344  34.194  1.00  0.00    -0.508 OA
ATOM     28  H   UNL A   1      48.882  18.867  34.787  1.00  0.00     0.293 HD
ENDBRANCH  26  27
ENDBRANCH  14  15
ENDBRANCH  11  14
ENDBRANCH   9  10
BRANCH   9  29
ATOM     29  C   UNL A   1      43.497  27.903  32.427  1.00  0.00     0.070 C 
BRANCH  29  30
ATOM     30  C   UNL A   1      42.117  27.600  33.038  1.00  0.00    -0.037 C 
ATOM     31  C   UNL A   1      41.294  28.591  33.403  1.00  0.00     0.001 A 
ATOM     32  C   UNL A   1      42.329  26.743  34.275  1.00  0.00     0.174 C 
ATOM     33  C   UNL A   1      39.966  28.966  33.001  1.00  0.00     0.010 A 
ATOM     34  C   UNL A   1      41.566  28.670  34.857  1.00  0.00     0.065 A 
ATOM     35  N   UNL A   1      42.213  27.692  35.408  1.00  0.00    -0.280 NA
ATOM     36  C   UNL A   1      39.318  29.861  33.772  1.00  0.00     0.001 A 
ATOM     37  C   UNL A   1      41.057  29.898  35.498  1.00  0.00     0.028 A 
ATOM     38  C   UNL A   1      39.977  30.462  34.929  1.00  0.00     0.002 A 
ENDBRANCH  29  30
ENDBRANCH   9  29
ENDBRANCH   7   9
ENDBRANCH   6   7
ENDBRANCH   5   6
ENDBRANCH   4   5
ENDBRANCH   3   4
ENDBRANCH   2   3
ENDBRANCH   1   2
BRANCH   1  39
ATOM     39  O   UNL A   1      36.229  29.561  28.141  1.00  0.00    -0.377 OA
BRANCH  39  40
ATOM     40  C   UNL A   1      35.068  30.072  27.501  1.00  0.00     0.188 C 
BRANCH  40  41
ATOM     41  C   UNL A   1      34.338  31.260  28.158  1.00  0.00     0.188 C 
BRANCH  41  42
ATOM     42  O   UNL A   1      34.988  32.513  27.984  1.00  0.00    -0.376 OA
BRANCH  42  43
ATOM     43  C   UNL A   1      34.197  33.639  27.632  1.00  0.00     0.202 C 
BRANCH  43  44
ATOM     44  C   UNL A   1      33.100  34.075  28.616  1.00  0.00     0.261 C 
BRANCH  44  45
ATOM     45  O   UNL A   1      33.284  35.334  29.284  1.00  0.00    -0.460 OA
BRANCH  45  46
ATOM     46  C   UNL A   1      32.939  35.450  30.583  1.00  0.00     0.338 C 
ATOM     47  O   UNL A   1      31.834  35.704  31.030  1.00  0.00    -0.246 OA
BRANCH  46  48
ATOM     48  C   UNL A   1      34.094  34.979  31.383  1.00  0.00     0.060 A 
ATOM     49  C   UNL A   1      34.659  33.723  31.144  1.00  0.00     0.016 A 
ATOM     50  C   UNL A   1      34.584  35.787  32.418  1.00  0.00     0.016 A 
ATOM     51  C   UNL A   1      35.745  33.298  31.913  1.00  0.00     0.010 A 
ATOM     52  C   UNL A   1      35.660  35.353  33.197  1.00  0.00     0.010 A 
ATOM     53  C   UNL A   1      36.269  34.120  32.928  1.00  0.00    -0.014 A 
BRANCH  53  54
ATOM     54  C   UNL A   1      37.579  33.787  33.540  1.00  0.00     0.031 A 
ATOM     55  C   UNL A   1      38.806  33.516  32.725  1.00  0.00     0.074 A 
ATOM     56  C   UNL A   1      37.629  33.721  34.886  1.00  0.00     0.049 A 
ATOM     57  N   UNL A   1      40.027  33.297  33.140  1.00  0.00    -0.248 NA
ATOM     58  C   UNL A   1      38.647  33.476  31.265  1.00  0.00     0.031 C 
ATOM     59  C   UNL A   1      36.483  33.928  35.775  1.00  0.00     0.029 A 
ATOM     60  N   UNL A   1      38.672  33.473  35.739  1.00  0.00    -0.354 N 
ATOM     61  C   UNL A   1      40.795  33.118  31.997  1.00  0.00     0.074 A 
ATOM     62  C   UNL A   1      39.886  33.208  30.870  1.00  0.00     0.031 C 
ATOM     63  C   UNL A   1      36.892  33.829  37.047  1.00  0.00     0.029 A 
ATOM     64  C   UNL A   1      38.319  33.527  37.066  1.00  0.00     0.049 A 
ATOM     65  H   UNL A   1      39.587  33.275  35.431  1.00  0.00     0.167 HD
ATOM     66  C   UNL A   1      42.133  32.917  31.904  1.00  0.00     0.037 A 
ATOM     67  C   UNL A   1      39.060  33.362  38.177  1.00  0.00     0.037 A 
ATOM     68  C   UNL A   1      43.020  32.805  33.038  1.00  0.00     0.049 A 
ATOM     69  C   UNL A   1      40.533  33.101  38.045  1.00  0.00     0.074 A 
ATOM     70  C   UNL A   1      44.396  32.642  33.040  1.00  0.00     0.029 A 
ATOM     71  N   UNL A   1      42.624  32.828  34.369  1.00  0.00    -0.354 N 
ATOM     72  N   UNL A   1      41.257  33.017  36.954  1.00  0.00    -0.248 NA
ATOM     73  C   UNL A   1      41.291  32.917  39.289  1.00  0.00     0.031 C 
ATOM     74  C   UNL A   1      44.823  32.510  34.366  1.00  0.00     0.029 A 
ATOM     75  C   UNL A   1      43.723  32.650  35.196  1.00  0.00     0.049 A 
ATOM     76  H   UNL A   1      41.698  32.952  34.679  1.00  0.00     0.167 HD
ATOM     77  C   UNL A   1      42.561  32.791  37.382  1.00  0.00     0.074 A 
ATOM     78  C   UNL A   1      42.527  32.769  38.831  1.00  0.00     0.031 C 
ATOM     79  C   UNL A   1      43.681  32.619  36.639  1.00  0.00     0.037 A 
BRANCH  66  80
ATOM     80  C   UNL A   1      42.739  32.817  30.529  1.00  0.00     0.058 A 
ATOM     81  C   UNL A   1      43.247  33.950  29.872  1.00  0.00     0.135 A 
ATOM     82  C   UNL A   1      42.897  31.572  29.899  1.00  0.00     0.135 A 
ATOM     83  F   UNL A   1      43.115  35.167  30.424  1.00  0.00    -0.206 F 
ATOM     84  C   UNL A   1      43.874  33.854  28.634  1.00  0.00     0.059 A 
ATOM     85  C   UNL A   1      43.542  31.448  28.671  1.00  0.00     0.059 A 
ATOM     86  F   UNL A   1      42.434  30.455  30.482  1.00  0.00    -0.206 F 
ATOM     87  C   UNL A   1      44.020  32.598  28.042  1.00  0.00     0.060 A 
BRANCH  87  88
ATOM     88  S   UNL A   1      44.844  32.495  26.439  1.00  0.00     0.124 S 
ATOM     89  O   UNL A   1      43.899  33.205  25.582  1.00  0.00    -0.237 OA
ATOM     90  O   UNL A   1      46.107  33.179  26.695  1.00  0.00    -0.237 OA
ATOM     91  O   UNL A   1      44.947  31.059  26.199  1.00  0.00    -0.744 OA
ENDBRANCH  87  88
ENDBRANCH  66  80
BRANCH  67  92
ATOM     92  C   UNL A   1      38.416  33.484  39.511  1.00  0.00     0.058 A 
ATOM     93  C   UNL A   1      37.666  32.426  40.046  1.00  0.00     0.135 A 
ATOM     94  C   UNL A   1      38.576  34.637  40.294  1.00  0.00     0.135 A 
ATOM     95  F   UNL A   1      37.486  31.304  39.332  1.00  0.00    -0.206 F 
ATOM     96  C   UNL A   1      37.090  32.509  41.307  1.00  0.00     0.059 A 
ATOM     97  C   UNL A   1      38.031  34.733  41.571  1.00  0.00     0.059 A 
ATOM     98  F   UNL A   1      39.301  35.668  39.835  1.00  0.00    -0.206 F 
ATOM     99  C   UNL A   1      37.284  33.665  42.065  1.00  0.00     0.060 A 
BRANCH  99 100
ATOM    100  S   UNL A   1      36.578  33.735  43.725  1.00  0.00     0.124 S 
ATOM    101  O   UNL A   1      36.418  35.172  43.916  1.00  0.00    -0.237 OA
ATOM    102  O   UNL A   1      35.346  32.970  43.564  1.00  0.00    -0.237 OA
ATOM    103  O   UNL A   1      37.600  33.100  44.552  1.00  0.00    -0.744 OA
ENDBRANCH  99 100
ENDBRANCH  67  92
BRANCH  79 104
ATOM    104  C   UNL A   1      44.975  32.394  37.376  1.00  0.00     0.058 A 
ATOM    105  C   UNL A   1      45.422  31.103  37.696  1.00  0.00     0.135 A 
ATOM    106  C   UNL A   1      45.805  33.476  37.711  1.00  0.00     0.135 A 
ATOM    107  F   UNL A   1      44.664  30.033  37.409  1.00  0.00    -0.206 F 
ATOM    108  C   UNL A   1      46.640  30.892  38.338  1.00  0.00     0.059 A 
ATOM    109  C   UNL A   1      47.040  33.287  38.326  1.00  0.00     0.059 A 
ATOM    110  F   UNL A   1      45.429  34.731  37.421  1.00  0.00    -0.206 F 
ATOM    111  C   UNL A   1      47.445  31.991  38.643  1.00  0.00     0.060 A 
BRANCH 111 112
ATOM    112  S   UNL A   1      49.041  31.696  39.432  1.00  0.00     0.124 S 
ATOM    113  O   UNL A   1      49.514  30.518  38.714  1.00  0.00    -0.237 OA
ATOM    114  O   UNL A   1      49.758  32.937  39.154  1.00  0.00    -0.237 OA
ATOM    115  O   UNL A   1      48.694  31.480  40.833  1.00  0.00    -0.744 OA
ENDBRANCH 111 112
ENDBRANCH  79 104
ENDBRANCH  53  54
ENDBRANCH  46  48
ENDBRANCH  45  46
ENDBRANCH  44  45
ENDBRANCH  43  44
ENDBRANCH  42  43
ENDBRANCH  41  42
ENDBRANCH  40  41
ENDBRANCH  39  40
ENDBRANCH   1  39
TORSDOF 29
ENDMDL
