MODEL 1
REMARK VINA RESULT:     -10.5      0.000      0.000
REMARK SMILES Cc1c(Cl)cccc1NC(=O)C[C@](C)(C(=O)OCCOCCOCCOCCOC(=O)c1ccc(-c2c3nc(c(-c4c(F)cc(S(=O)(=O)[O-])cc4F)c4ccc([nH]4)c(-c4c(F)cc(S(=O)(=O)[O-])cc4F)c4nc(c(-c5c(F)cc(S(=O)(=O)[O-])cc5F)c5ccc2[nH]5)C=C4)C=C3)cc1)c1ccccc1
REMARK SMILES IDX 23 1 22 2 21 3 20 4 19 5 18 6 17 7 15 8 16 9 13 10 14 11
REMARK SMILES IDX 12 12 10 13 9 14 11 16 8 17 1 18 2 19 3 20 4 21 5 22 7 23
REMARK SMILES IDX 6 24 98 25 99 26 103 27 100 28 102 29 101 30 24 31 25 32
REMARK SMILES IDX 26 33 27 34 28 35 29 36 30 37 31 38 32 39 33 40 97 41 34 42
REMARK SMILES IDX 96 43 35 44 36 45 37 46 90 47 38 48 95 49 89 50 91 51 39 52
REMARK SMILES IDX 94 53 88 54 87 55 40 57 74 58 53 59 73 60 54 61 57 62 72 63
REMARK SMILES IDX 92 64 55 65 56 66 71 68 93 69 58 70 41 71 42 72 51 73 43 74
REMARK SMILES IDX 44 75 50 76 52 77 45 78 46 79 47 80 48 81 49 82 75 83 76 84
REMARK SMILES IDX 85 85 77 86 78 87 84 88 86 89 79 90 80 91 81 92 82 93 83 94
REMARK SMILES IDX 59 95 60 96 69 97 61 98 62 99 68 100 70 101 63 102 64 103
REMARK SMILES IDX 65 104 66 105 67 106
REMARK H PARENT 9 15 91 56 57 67
REMARK Flexibility Score: inf
ROOT
ATOM      1  O   UNL A   1      40.112  19.904  26.103  1.00  0.00    -0.377 OA
ENDROOT
BRANCH   1   2
ATOM      2  C   UNL A   1      38.940  20.581  25.688  1.00  0.00     0.188 C 
BRANCH   2   3
ATOM      3  C   UNL A   1      37.855  19.752  24.992  1.00  0.00     0.188 C 
BRANCH   3   4
ATOM      4  O   UNL A   1      36.687  20.472  24.664  1.00  0.00    -0.376 OA
BRANCH   4   5
ATOM      5  C   UNL A   1      36.720  21.888  24.628  1.00  0.00     0.202 C 
BRANCH   5   6
ATOM      6  C   UNL A   1      36.041  22.745  23.548  1.00  0.00     0.261 C 
BRANCH   6   7
ATOM      7  O   UNL A   1      34.611  22.736  23.482  1.00  0.00    -0.463 OA
BRANCH   7   8
ATOM      8  C   UNL A   1      33.933  23.538  24.326  1.00  0.00     0.316 C 
ATOM      9  O   UNL A   1      34.127  24.748  24.397  1.00  0.00    -0.251 OA
BRANCH   8  10
ATOM     10  C   UNL A   1      32.884  22.785  25.196  1.00  0.00     0.099 C 
ATOM     11  C   UNL A   1      33.219  22.649  26.714  1.00  0.00     0.029 C 
BRANCH  10  12
ATOM     12  C   UNL A   1      31.565  23.619  25.106  1.00  0.00     0.123 C 
BRANCH  12  13
ATOM     13  C   UNL A   1      31.067  24.367  26.347  1.00  0.00     0.225 C 
ATOM     14  N   UNL A   1      31.162  25.711  26.567  1.00  0.00    -0.326 N 
ATOM     15  H   UNL A   1      30.650  25.992  27.359  1.00  0.00     0.169 HD
ATOM     16  O   UNL A   1      30.502  23.711  27.234  1.00  0.00    -0.275 OA
BRANCH  14  17
ATOM     17  C   UNL A   1      31.808  26.798  25.942  1.00  0.00     0.045 A 
ATOM     18  C   UNL A   1      29.934  26.935  24.170  1.00  0.00     0.048 C 
ATOM     19  C   UNL A   1      31.253  27.372  24.766  1.00  0.00    -0.009 A 
ATOM     20  C   UNL A   1      31.987  28.377  24.089  1.00  0.00     0.046 A 
ATOM     21  Cl  UNL A   1      31.446  29.044  22.584  1.00  0.00    -0.084 Cl
ATOM     22  C   UNL A   1      33.206  28.837  24.579  1.00  0.00     0.021 A 
ATOM     23  C   UNL A   1      32.984  27.342  26.462  1.00  0.00     0.026 A 
ATOM     24  C   UNL A   1      33.691  28.339  25.779  1.00  0.00     0.004 A 
ENDBRANCH  14  17
ENDBRANCH  12  13
ENDBRANCH  10  12
BRANCH  10  25
ATOM     25  C   UNL A   1      32.740  21.300  24.699  1.00  0.00    -0.030 A 
ATOM     26  C   UNL A   1      33.339  20.237  25.406  1.00  0.00     0.005 A 
ATOM     27  C   UNL A   1      32.162  20.978  23.452  1.00  0.00     0.005 A 
ATOM     28  C   UNL A   1      33.408  18.946  24.862  1.00  0.00     0.000 A 
ATOM     29  C   UNL A   1      32.227  19.690  22.911  1.00  0.00     0.000 A 
ATOM     30  C   UNL A   1      32.862  18.675  23.611  1.00  0.00     0.000 A 
ENDBRANCH  10  25
ENDBRANCH   8  10
ENDBRANCH   7   8
ENDBRANCH   6   7
ENDBRANCH   5   6
ENDBRANCH   4   5
ENDBRANCH   3   4
ENDBRANCH   2   3
ENDBRANCH   1   2
BRANCH   1  31
ATOM     31  C   UNL A   1      41.311  20.640  26.325  1.00  0.00     0.188 C 
BRANCH  31  32
ATOM     32  C   UNL A   1      41.612  21.324  27.676  1.00  0.00     0.188 C 
BRANCH  32  33
ATOM     33  O   UNL A   1      42.777  22.133  27.713  1.00  0.00    -0.376 OA
BRANCH  33  34
ATOM     34  C   UNL A   1      43.441  22.429  26.496  1.00  0.00     0.202 C 
BRANCH  34  35
ATOM     35  C   UNL A   1      43.059  23.726  25.761  1.00  0.00     0.261 C 
BRANCH  35  36
ATOM     36  O   UNL A   1      41.802  24.314  26.126  1.00  0.00    -0.460 OA
BRANCH  36  37
ATOM     37  C   UNL A   1      41.703  25.652  26.001  1.00  0.00     0.338 C 
ATOM     38  O   UNL A   1      41.505  26.282  24.971  1.00  0.00    -0.246 OA
BRANCH  37  39
ATOM     39  C   UNL A   1      41.702  26.248  27.346  1.00  0.00     0.060 A 
ATOM     40  C   UNL A   1      40.590  26.043  28.173  1.00  0.00     0.016 A 
ATOM     41  C   UNL A   1      42.763  27.055  27.763  1.00  0.00     0.016 A 
ATOM     42  C   UNL A   1      40.503  26.707  29.393  1.00  0.00     0.010 A 
ATOM     43  C   UNL A   1      42.665  27.736  28.979  1.00  0.00     0.010 A 
ATOM     44  C   UNL A   1      41.508  27.608  29.769  1.00  0.00    -0.014 A 
BRANCH  44  45
ATOM     45  C   UNL A   1      41.226  28.579  30.853  1.00  0.00     0.031 A 
ATOM     46  C   UNL A   1      42.102  28.554  32.077  1.00  0.00     0.074 A 
ATOM     47  C   UNL A   1      40.264  29.509  30.724  1.00  0.00     0.049 A 
ATOM     48  N   UNL A   1      42.060  29.307  33.144  1.00  0.00    -0.248 NA
ATOM     49  C   UNL A   1      43.169  27.538  32.099  1.00  0.00     0.031 C 
ATOM     50  C   UNL A   1      39.393  29.661  29.563  1.00  0.00     0.029 A 
ATOM     51  N   UNL A   1      39.866  30.505  31.579  1.00  0.00    -0.354 N 
ATOM     52  C   UNL A   1      43.088  28.856  33.964  1.00  0.00     0.074 A 
ATOM     53  C   UNL A   1      43.710  27.738  33.290  1.00  0.00     0.031 C 
ATOM     54  C   UNL A   1      38.560  30.695  29.775  1.00  0.00     0.029 A 
ATOM     55  C   UNL A   1      38.818  31.256  31.100  1.00  0.00     0.049 A 
ATOM     56  H   UNL A   1      40.291  30.668  32.452  1.00  0.00     0.167 HD
ATOM     57  C   UNL A   1      43.486  29.340  35.164  1.00  0.00     0.037 A 
ATOM     58  C   UNL A   1      38.140  32.268  31.675  1.00  0.00     0.037 A 
ATOM     59  C   UNL A   1      42.858  30.452  35.828  1.00  0.00     0.049 A 
ATOM     60  C   UNL A   1      38.552  32.742  33.047  1.00  0.00     0.074 A 
ATOM     61  C   UNL A   1      43.183  31.023  37.045  1.00  0.00     0.029 A 
ATOM     62  N   UNL A   1      41.771  31.159  35.333  1.00  0.00    -0.354 N 
ATOM     63  N   UNL A   1      39.531  32.315  33.808  1.00  0.00    -0.248 NA
ATOM     64  C   UNL A   1      37.772  33.840  33.634  1.00  0.00     0.031 C 
ATOM     65  C   UNL A   1      42.258  32.036  37.313  1.00  0.00     0.029 A 
ATOM     66  C   UNL A   1      41.397  32.144  36.231  1.00  0.00     0.049 A 
ATOM     67  H   UNL A   1      41.330  30.985  34.470  1.00  0.00     0.167 HD
ATOM     68  C   UNL A   1      39.509  33.116  34.946  1.00  0.00     0.074 A 
ATOM     69  C   UNL A   1      38.421  34.056  34.769  1.00  0.00     0.031 C 
ATOM     70  C   UNL A   1      40.318  33.081  36.035  1.00  0.00     0.037 A 
BRANCH  57  71
ATOM     71  C   UNL A   1      44.632  28.645  35.848  1.00  0.00     0.058 A 
ATOM     72  C   UNL A   1      45.966  29.042  35.656  1.00  0.00     0.135 A 
ATOM     73  C   UNL A   1      44.391  27.574  36.724  1.00  0.00     0.135 A 
ATOM     74  F   UNL A   1      46.258  30.047  34.813  1.00  0.00    -0.206 F 
ATOM     75  C   UNL A   1      47.020  28.384  36.280  1.00  0.00     0.059 A 
ATOM     76  C   UNL A   1      45.427  26.922  37.386  1.00  0.00     0.059 A 
ATOM     77  F   UNL A   1      43.137  27.148  36.942  1.00  0.00    -0.206 F 
ATOM     78  C   UNL A   1      46.739  27.323  37.145  1.00  0.00     0.060 A 
BRANCH  78  79
ATOM     79  S   UNL A   1      48.117  26.478  37.946  1.00  0.00     0.124 S 
ATOM     80  O   UNL A   1      47.533  26.125  39.237  1.00  0.00    -0.237 OA
ATOM     81  O   UNL A   1      48.369  25.362  37.039  1.00  0.00    -0.237 OA
ATOM     82  O   UNL A   1      49.163  27.494  37.991  1.00  0.00    -0.744 OA
ENDBRANCH  78  79
ENDBRANCH  57  71
BRANCH  58  83
ATOM     83  C   UNL A   1      37.001  32.902  30.958  1.00  0.00     0.058 A 
ATOM     84  C   UNL A   1      37.215  33.806  29.907  1.00  0.00     0.135 A 
ATOM     85  C   UNL A   1      35.672  32.614  31.310  1.00  0.00     0.135 A 
ATOM     86  F   UNL A   1      38.465  34.125  29.541  1.00  0.00    -0.206 F 
ATOM     87  C   UNL A   1      36.155  34.412  29.239  1.00  0.00     0.059 A 
ATOM     88  C   UNL A   1      34.595  33.185  30.637  1.00  0.00     0.059 A 
ATOM     89  F   UNL A   1      35.410  31.750  32.303  1.00  0.00    -0.206 F 
ATOM     90  C   UNL A   1      34.848  34.090  29.608  1.00  0.00     0.060 A 
BRANCH  90  91
ATOM     91  S   UNL A   1      33.481  34.844  28.700  1.00  0.00     0.124 S 
ATOM     92  O   UNL A   1      32.460  34.947  29.736  1.00  0.00    -0.237 OA
ATOM     93  O   UNL A   1      34.070  36.102  28.252  1.00  0.00    -0.237 OA
ATOM     94  O   UNL A   1      33.208  33.876  27.640  1.00  0.00    -0.744 OA
ENDBRANCH  90  91
ENDBRANCH  58  83
BRANCH  70  95
ATOM     95  C   UNL A   1      40.099  34.123  37.101  1.00  0.00     0.058 A 
ATOM     96  C   UNL A   1      40.689  35.396  37.033  1.00  0.00     0.135 A 
ATOM     97  C   UNL A   1      39.239  33.858  38.180  1.00  0.00     0.135 A 
ATOM     98  F   UNL A   1      41.521  35.702  36.026  1.00  0.00    -0.206 F 
ATOM     99  C   UNL A   1      40.457  36.357  38.013  1.00  0.00     0.059 A 
ATOM    100  C   UNL A   1      38.967  34.815  39.153  1.00  0.00     0.059 A 
ATOM    101  F   UNL A   1      38.638  32.662  38.288  1.00  0.00    -0.206 F 
ATOM    102  C   UNL A   1      39.592  36.058  39.068  1.00  0.00     0.060 A 
BRANCH 102 103
ATOM    103  S   UNL A   1      39.278  37.324  40.316  1.00  0.00     0.124 S 
ATOM    104  O   UNL A   1      38.421  38.251  39.584  1.00  0.00    -0.237 OA
ATOM    105  O   UNL A   1      38.628  36.561  41.376  1.00  0.00    -0.237 OA
ATOM    106  O   UNL A   1      40.612  37.823  40.638  1.00  0.00    -0.744 OA
ENDBRANCH 102 103
ENDBRANCH  70  95
ENDBRANCH  44  45
ENDBRANCH  37  39
ENDBRANCH  36  37
ENDBRANCH  35  36
ENDBRANCH  34  35
ENDBRANCH  33  34
ENDBRANCH  32  33
ENDBRANCH  31  32
ENDBRANCH   1  31
TORSDOF 27
ENDMDL
MODEL 2
REMARK VINA RESULT:     -10.4      1.147      7.925
REMARK SMILES Cc1c(Cl)cccc1NC(=O)C[C@](C)(C(=O)OCCOCCOCCOCCOC(=O)c1ccc(-c2c3nc(c(-c4c(F)cc(S(=O)(=O)[O-])cc4F)c4ccc([nH]4)c(-c4c(F)cc(S(=O)(=O)[O-])cc4F)c4nc(c(-c5c(F)cc(S(=O)(=O)[O-])cc5F)c5ccc2[nH]5)C=C4)C=C3)cc1)c1ccccc1
REMARK SMILES IDX 23 1 22 2 21 3 20 4 19 5 18 6 17 7 15 8 16 9 13 10 14 11
REMARK SMILES IDX 12 12 10 13 9 14 11 16 8 17 1 18 2 19 3 20 4 21 5 22 7 23
REMARK SMILES IDX 6 24 98 25 99 26 103 27 100 28 102 29 101 30 24 31 25 32
REMARK SMILES IDX 26 33 27 34 28 35 29 36 30 37 31 38 32 39 33 40 97 41 34 42
REMARK SMILES IDX 96 43 35 44 36 45 37 46 90 47 38 48 95 49 89 50 91 51 39 52
REMARK SMILES IDX 94 53 88 54 87 55 40 57 74 58 53 59 73 60 54 61 57 62 72 63
REMARK SMILES IDX 92 64 55 65 56 66 71 68 93 69 58 70 41 71 42 72 51 73 43 74
REMARK SMILES IDX 44 75 50 76 52 77 45 78 46 79 47 80 48 81 49 82 75 83 76 84
REMARK SMILES IDX 85 85 77 86 78 87 84 88 86 89 79 90 80 91 81 92 82 93 83 94
REMARK SMILES IDX 59 95 60 96 69 97 61 98 62 99 68 100 70 101 63 102 64 103
REMARK SMILES IDX 65 104 66 105 67 106
REMARK H PARENT 9 15 91 56 57 67
REMARK Flexibility Score: inf
ROOT
ATOM      1  O   UNL A   1      40.911  22.378  26.437  1.00  0.00    -0.377 OA
ENDROOT
BRANCH   1   2
ATOM      2  C   UNL A   1      40.552  21.052  26.094  1.00  0.00     0.188 C 
BRANCH   2   3
ATOM      3  C   UNL A   1      39.060  20.746  25.920  1.00  0.00     0.188 C 
BRANCH   3   4
ATOM      4  O   UNL A   1      38.255  21.877  25.676  1.00  0.00    -0.376 OA
BRANCH   4   5
ATOM      5  C   UNL A   1      37.226  21.813  24.704  1.00  0.00     0.202 C 
BRANCH   5   6
ATOM      6  C   UNL A   1      36.751  23.010  23.863  1.00  0.00     0.261 C 
BRANCH   6   7
ATOM      7  O   UNL A   1      35.481  23.590  24.176  1.00  0.00    -0.463 OA
BRANCH   7   8
ATOM      8  C   UNL A   1      34.402  23.155  23.498  1.00  0.00     0.316 C 
ATOM      9  O   UNL A   1      34.272  23.299  22.285  1.00  0.00    -0.251 OA
BRANCH   8  10
ATOM     10  C   UNL A   1      33.341  22.452  24.396  1.00  0.00     0.099 C 
ATOM     11  C   UNL A   1      33.585  22.528  25.935  1.00  0.00     0.029 C 
BRANCH  10  12
ATOM     12  C   UNL A   1      31.987  23.184  24.125  1.00  0.00     0.123 C 
BRANCH  12  13
ATOM     13  C   UNL A   1      30.977  23.334  25.267  1.00  0.00     0.225 C 
ATOM     14  N   UNL A   1      30.558  24.510  25.820  1.00  0.00    -0.326 N 
ATOM     15  H   UNL A   1      29.802  24.380  26.436  1.00  0.00     0.169 HD
ATOM     16  O   UNL A   1      30.463  22.305  25.729  1.00  0.00    -0.275 OA
BRANCH  14  17
ATOM     17  C   UNL A   1      30.937  25.866  25.726  1.00  0.00     0.045 A 
ATOM     18  C   UNL A   1      29.139  26.277  23.919  1.00  0.00     0.048 C 
ATOM     19  C   UNL A   1      30.293  26.719  24.790  1.00  0.00    -0.009 A 
ATOM     20  C   UNL A   1      30.777  28.041  24.630  1.00  0.00     0.046 A 
ATOM     21  Cl  UNL A   1      30.135  29.109  23.427  1.00  0.00    -0.084 Cl
ATOM     22  C   UNL A   1      31.832  28.523  25.400  1.00  0.00     0.021 A 
ATOM     23  C   UNL A   1      31.928  26.403  26.551  1.00  0.00     0.026 A 
ATOM     24  C   UNL A   1      32.389  27.713  26.378  1.00  0.00     0.004 A 
ENDBRANCH  14  17
ENDBRANCH  12  13
ENDBRANCH  10  12
BRANCH  10  25
ATOM     25  C   UNL A   1      33.312  20.910  24.086  1.00  0.00    -0.030 A 
ATOM     26  C   UNL A   1      32.369  20.369  23.189  1.00  0.00     0.005 A 
ATOM     27  C   UNL A   1      34.099  19.985  24.805  1.00  0.00     0.005 A 
ATOM     28  C   UNL A   1      32.185  18.983  23.071  1.00  0.00     0.000 A 
ATOM     29  C   UNL A   1      33.919  18.603  24.684  1.00  0.00     0.000 A 
ATOM     30  C   UNL A   1      32.952  18.102  23.826  1.00  0.00     0.000 A 
ENDBRANCH  10  25
ENDBRANCH   8  10
ENDBRANCH   7   8
ENDBRANCH   6   7
ENDBRANCH   5   6
ENDBRANCH   4   5
ENDBRANCH   3   4
ENDBRANCH   2   3
ENDBRANCH   1   2
BRANCH   1  31
ATOM     31  C   UNL A   1      42.071  22.613  27.229  1.00  0.00     0.188 C 
BRANCH  31  32
ATOM     32  C   UNL A   1      43.495  22.537  26.636  1.00  0.00     0.188 C 
BRANCH  32  33
ATOM     33  O   UNL A   1      43.588  22.706  25.231  1.00  0.00    -0.376 OA
BRANCH  33  34
ATOM     34  C   UNL A   1      44.286  23.831  24.724  1.00  0.00     0.202 C 
BRANCH  34  35
ATOM     35  C   UNL A   1      44.067  25.190  25.413  1.00  0.00     0.261 C 
BRANCH  35  36
ATOM     36  O   UNL A   1      42.740  25.728  25.344  1.00  0.00    -0.460 OA
BRANCH  36  37
ATOM     37  C   UNL A   1      42.629  27.069  25.403  1.00  0.00     0.338 C 
ATOM     38  O   UNL A   1      42.382  27.829  24.476  1.00  0.00    -0.246 OA
BRANCH  37  39
ATOM     39  C   UNL A   1      42.684  27.481  26.815  1.00  0.00     0.060 A 
ATOM     40  C   UNL A   1      41.794  26.894  27.723  1.00  0.00     0.016 A 
ATOM     41  C   UNL A   1      43.565  28.484  27.225  1.00  0.00     0.016 A 
ATOM     42  C   UNL A   1      41.731  27.362  29.032  1.00  0.00     0.010 A 
ATOM     43  C   UNL A   1      43.487  28.966  28.533  1.00  0.00     0.010 A 
ATOM     44  C   UNL A   1      42.529  28.445  29.423  1.00  0.00    -0.014 A 
BRANCH  44  45
ATOM     45  C   UNL A   1      42.184  29.173  30.668  1.00  0.00     0.031 A 
ATOM     46  C   UNL A   1      40.935  30.012  30.678  1.00  0.00     0.074 A 
ATOM     47  C   UNL A   1      42.920  29.036  31.783  1.00  0.00     0.049 A 
ATOM     48  N   UNL A   1      40.423  30.727  31.645  1.00  0.00    -0.248 NA
ATOM     49  C   UNL A   1      40.160  30.052  29.425  1.00  0.00     0.031 C 
ATOM     50  C   UNL A   1      44.117  28.208  31.903  1.00  0.00     0.029 A 
ATOM     51  N   UNL A   1      42.763  29.585  33.030  1.00  0.00    -0.354 N 
ATOM     52  C   UNL A   1      39.271  31.302  31.119  1.00  0.00     0.074 A 
ATOM     53  C   UNL A   1      39.182  30.887  29.737  1.00  0.00     0.031 C 
ATOM     54  C   UNL A   1      44.588  28.302  33.159  1.00  0.00     0.029 A 
ATOM     55  C   UNL A   1      43.744  29.220  33.921  1.00  0.00     0.049 A 
ATOM     56  H   UNL A   1      42.017  30.183  33.265  1.00  0.00     0.167 HD
ATOM     57  C   UNL A   1      38.363  32.092  31.738  1.00  0.00     0.037 A 
ATOM     58  C   UNL A   1      43.942  29.599  35.199  1.00  0.00     0.037 A 
ATOM     59  C   UNL A   1      38.462  32.502  33.115  1.00  0.00     0.049 A 
ATOM     60  C   UNL A   1      42.958  30.542  35.846  1.00  0.00     0.074 A 
ATOM     61  C   UNL A   1      37.597  33.301  33.839  1.00  0.00     0.029 A 
ATOM     62  N   UNL A   1      39.494  32.149  33.973  1.00  0.00    -0.354 N 
ATOM     63  N   UNL A   1      41.869  31.072  35.343  1.00  0.00    -0.248 NA
ATOM     64  C   UNL A   1      43.227  30.933  37.236  1.00  0.00     0.031 C 
ATOM     65  C   UNL A   1      38.134  33.480  35.117  1.00  0.00     0.029 A 
ATOM     66  C   UNL A   1      39.300  32.735  35.213  1.00  0.00     0.049 A 
ATOM     67  H   UNL A   1      40.253  31.569  33.736  1.00  0.00     0.167 HD
ATOM     68  C   UNL A   1      41.302  31.827  36.365  1.00  0.00     0.074 A 
ATOM     69  C   UNL A   1      42.169  31.681  37.517  1.00  0.00     0.031 C 
ATOM     70  C   UNL A   1      40.166  32.570  36.354  1.00  0.00     0.037 A 
BRANCH  57  71
ATOM     71  C   UNL A   1      37.204  32.593  30.919  1.00  0.00     0.058 A 
ATOM     72  C   UNL A   1      35.939  31.983  30.967  1.00  0.00     0.135 A 
ATOM     73  C   UNL A   1      37.357  33.711  30.083  1.00  0.00     0.135 A 
ATOM     74  F   UNL A   1      35.741  30.897  31.733  1.00  0.00    -0.206 F 
ATOM     75  C   UNL A   1      34.878  32.443  30.194  1.00  0.00     0.059 A 
ATOM     76  C   UNL A   1      36.300  34.209  29.326  1.00  0.00     0.059 A 
ATOM     77  F   UNL A   1      38.544  34.331  29.992  1.00  0.00    -0.206 F 
ATOM     78  C   UNL A   1      35.070  33.558  29.376  1.00  0.00     0.060 A 
BRANCH  78  79
ATOM     79  S   UNL A   1      33.684  34.142  28.377  1.00  0.00     0.124 S 
ATOM     80  O   UNL A   1      32.751  34.590  29.407  1.00  0.00    -0.237 OA
ATOM     81  O   UNL A   1      34.299  35.197  27.577  1.00  0.00    -0.237 OA
ATOM     82  O   UNL A   1      33.274  32.955  27.635  1.00  0.00    -0.744 OA
ENDBRANCH  78  79
ENDBRANCH  57  71
BRANCH  58  83
ATOM     83  C   UNL A   1      45.119  29.088  35.952  1.00  0.00     0.058 A 
ATOM     84  C   UNL A   1      45.033  27.928  36.737  1.00  0.00     0.135 A 
ATOM     85  C   UNL A   1      46.356  29.750  35.901  1.00  0.00     0.135 A 
ATOM     86  F   UNL A   1      43.871  27.266  36.831  1.00  0.00    -0.206 F 
ATOM     87  C   UNL A   1      46.127  27.450  37.454  1.00  0.00     0.059 A 
ATOM     88  C   UNL A   1      47.471  29.275  36.585  1.00  0.00     0.059 A 
ATOM     89  F   UNL A   1      46.496  30.859  35.159  1.00  0.00    -0.206 F 
ATOM     90  C   UNL A   1      47.343  28.128  37.366  1.00  0.00     0.060 A 
BRANCH  90  91
ATOM     91  S   UNL A   1      48.768  27.469  38.259  1.00  0.00     0.124 S 
ATOM     92  O   UNL A   1      48.325  26.113  38.562  1.00  0.00    -0.237 OA
ATOM     93  O   UNL A   1      49.831  27.588  37.268  1.00  0.00    -0.237 OA
ATOM     94  O   UNL A   1      48.888  28.364  39.407  1.00  0.00    -0.744 OA
ENDBRANCH  90  91
ENDBRANCH  58  83
BRANCH  70  95
ATOM     95  C   UNL A   1      39.758  33.239  37.641  1.00  0.00     0.058 A 
ATOM     96  C   UNL A   1      40.341  34.439  38.076  1.00  0.00     0.135 A 
ATOM     97  C   UNL A   1      38.724  32.694  38.422  1.00  0.00     0.135 A 
ATOM     98  F   UNL A   1      41.334  35.002  37.371  1.00  0.00    -0.206 F 
ATOM     99  C   UNL A   1      39.935  35.059  39.255  1.00  0.00     0.059 A 
ATOM    100  C   UNL A   1      38.280  33.313  39.585  1.00  0.00     0.059 A 
ATOM    101  F   UNL A   1      38.122  31.554  38.046  1.00  0.00    -0.206 F 
ATOM    102  C   UNL A   1      38.901  34.489  40.001  1.00  0.00     0.060 A 
BRANCH 102 103
ATOM    103  S   UNL A   1      38.366  35.319  41.512  1.00  0.00     0.124 S 
ATOM    104  O   UNL A   1      38.481  36.724  41.133  1.00  0.00    -0.237 OA
ATOM    105  O   UNL A   1      37.006  34.816  41.678  1.00  0.00    -0.237 OA
ATOM    106  O   UNL A   1      39.325  34.859  42.512  1.00  0.00    -0.744 OA
ENDBRANCH 102 103
ENDBRANCH  70  95
ENDBRANCH  44  45
ENDBRANCH  37  39
ENDBRANCH  36  37
ENDBRANCH  35  36
ENDBRANCH  34  35
ENDBRANCH  33  34
ENDBRANCH  32  33
ENDBRANCH  31  32
ENDBRANCH   1  31
TORSDOF 27
ENDMDL
MODEL 3
REMARK VINA RESULT:     -10.3      2.740      3.998
REMARK SMILES Cc1c(Cl)cccc1NC(=O)C[C@](C)(C(=O)OCCOCCOCCOCCOC(=O)c1ccc(-c2c3nc(c(-c4c(F)cc(S(=O)(=O)[O-])cc4F)c4ccc([nH]4)c(-c4c(F)cc(S(=O)(=O)[O-])cc4F)c4nc(c(-c5c(F)cc(S(=O)(=O)[O-])cc5F)c5ccc2[nH]5)C=C4)C=C3)cc1)c1ccccc1
REMARK SMILES IDX 23 1 22 2 21 3 20 4 19 5 18 6 17 7 15 8 16 9 13 10 14 11
REMARK SMILES IDX 12 12 10 13 9 14 11 16 8 17 1 18 2 19 3 20 4 21 5 22 7 23
REMARK SMILES IDX 6 24 98 25 99 26 103 27 100 28 102 29 101 30 24 31 25 32
REMARK SMILES IDX 26 33 27 34 28 35 29 36 30 37 31 38 32 39 33 40 97 41 34 42
REMARK SMILES IDX 96 43 35 44 36 45 37 46 90 47 38 48 95 49 89 50 91 51 39 52
REMARK SMILES IDX 94 53 88 54 87 55 40 57 74 58 53 59 73 60 54 61 57 62 72 63
REMARK SMILES IDX 92 64 55 65 56 66 71 68 93 69 58 70 41 71 42 72 51 73 43 74
REMARK SMILES IDX 44 75 50 76 52 77 45 78 46 79 47 80 48 81 49 82 75 83 76 84
REMARK SMILES IDX 85 85 77 86 78 87 84 88 86 89 79 90 80 91 81 92 82 93 83 94
REMARK SMILES IDX 59 95 60 96 69 97 61 98 62 99 68 100 70 101 63 102 64 103
REMARK SMILES IDX 65 104 66 105 67 106
REMARK H PARENT 9 15 91 56 57 67
REMARK Flexibility Score: inf
ROOT
ATOM      1  O   UNL A   1      40.731  19.972  26.361  1.00  0.00    -0.377 OA
ENDROOT
BRANCH   1   2
ATOM      2  C   UNL A   1      39.891  19.005  25.759  1.00  0.00     0.188 C 
BRANCH   2   3
ATOM      3  C   UNL A   1      38.547  19.485  25.200  1.00  0.00     0.188 C 
BRANCH   3   4
ATOM      4  O   UNL A   1      38.332  20.874  25.304  1.00  0.00    -0.376 OA
BRANCH   4   5
ATOM      5  C   UNL A   1      37.400  21.510  24.446  1.00  0.00     0.202 C 
BRANCH   5   6
ATOM      6  C   UNL A   1      36.686  22.832  24.767  1.00  0.00     0.261 C 
BRANCH   6   7
ATOM      7  O   UNL A   1      35.869  22.888  25.941  1.00  0.00    -0.463 OA
BRANCH   7   8
ATOM      8  C   UNL A   1      34.810  23.721  25.937  1.00  0.00     0.316 C 
ATOM      9  O   UNL A   1      34.897  24.908  25.632  1.00  0.00    -0.251 OA
BRANCH   8  10
ATOM     10  C   UNL A   1      33.474  23.037  26.350  1.00  0.00     0.099 C 
ATOM     11  C   UNL A   1      33.567  21.985  27.499  1.00  0.00     0.029 C 
BRANCH  10  12
ATOM     12  C   UNL A   1      32.542  24.179  26.869  1.00  0.00     0.123 C 
BRANCH  12  13
ATOM     13  C   UNL A   1      31.040  24.110  26.578  1.00  0.00     0.225 C 
ATOM     14  N   UNL A   1      30.369  24.842  25.642  1.00  0.00    -0.326 N 
ATOM     15  H   UNL A   1      29.442  24.533  25.526  1.00  0.00     0.169 HD
ATOM     16  O   UNL A   1      30.358  23.302  27.225  1.00  0.00    -0.275 OA
BRANCH  14  17
ATOM     17  C   UNL A   1      30.672  25.931  24.797  1.00  0.00     0.045 A 
ATOM     18  C   UNL A   1      31.132  27.434  26.845  1.00  0.00     0.048 C 
ATOM     19  C   UNL A   1      31.002  27.193  25.358  1.00  0.00    -0.009 A 
ATOM     20  C   UNL A   1      31.179  28.299  24.489  1.00  0.00     0.046 A 
ATOM     21  Cl  UNL A   1      31.459  29.898  25.092  1.00  0.00    -0.084 Cl
ATOM     22  C   UNL A   1      31.081  28.156  23.108  1.00  0.00     0.021 A 
ATOM     23  C   UNL A   1      30.674  25.795  23.407  1.00  0.00     0.026 A 
ATOM     24  C   UNL A   1      30.855  26.899  22.566  1.00  0.00     0.004 A 
ENDBRANCH  14  17
ENDBRANCH  12  13
ENDBRANCH  10  12
BRANCH  10  25
ATOM     25  C   UNL A   1      32.886  22.230  25.135  1.00  0.00    -0.030 A 
ATOM     26  C   UNL A   1      32.557  20.865  25.263  1.00  0.00     0.005 A 
ATOM     27  C   UNL A   1      32.819  22.774  23.834  1.00  0.00     0.005 A 
ATOM     28  C   UNL A   1      32.244  20.082  24.142  1.00  0.00     0.000 A 
ATOM     29  C   UNL A   1      32.503  21.994  22.717  1.00  0.00     0.000 A 
ATOM     30  C   UNL A   1      32.227  20.644  22.869  1.00  0.00     0.000 A 
ENDBRANCH  10  25
ENDBRANCH   8  10
ENDBRANCH   7   8
ENDBRANCH   6   7
ENDBRANCH   5   6
ENDBRANCH   4   5
ENDBRANCH   3   4
ENDBRANCH   2   3
ENDBRANCH   1   2
BRANCH   1  31
ATOM     31  C   UNL A   1      42.061  19.622  26.729  1.00  0.00     0.188 C 
BRANCH  31  32
ATOM     32  C   UNL A   1      42.667  18.243  26.386  1.00  0.00     0.188 C 
BRANCH  32  33
ATOM     33  O   UNL A   1      43.606  18.229  25.324  1.00  0.00    -0.376 OA
BRANCH  33  34
ATOM     34  C   UNL A   1      44.694  19.137  25.362  1.00  0.00     0.202 C 
BRANCH  34  35
ATOM     35  C   UNL A   1      44.715  20.286  24.337  1.00  0.00     0.261 C 
BRANCH  35  36
ATOM     36  O   UNL A   1      43.805  21.367  24.582  1.00  0.00    -0.460 OA
BRANCH  36  37
ATOM     37  C   UNL A   1      44.240  22.603  24.269  1.00  0.00     0.338 C 
ATOM     38  O   UNL A   1      44.863  22.933  23.269  1.00  0.00    -0.246 OA
BRANCH  37  39
ATOM     39  C   UNL A   1      43.695  23.553  25.251  1.00  0.00     0.060 A 
ATOM     40  C   UNL A   1      44.019  24.910  25.128  1.00  0.00     0.016 A 
ATOM     41  C   UNL A   1      42.921  23.098  26.321  1.00  0.00     0.016 A 
ATOM     42  C   UNL A   1      43.631  25.807  26.119  1.00  0.00     0.010 A 
ATOM     43  C   UNL A   1      42.549  23.996  27.324  1.00  0.00     0.010 A 
ATOM     44  C   UNL A   1      42.954  25.342  27.253  1.00  0.00    -0.014 A 
BRANCH  44  45
ATOM     45  C   UNL A   1      42.892  26.210  28.454  1.00  0.00     0.031 A 
ATOM     46  C   UNL A   1      44.014  26.122  29.453  1.00  0.00     0.074 A 
ATOM     47  C   UNL A   1      41.904  27.105  28.617  1.00  0.00     0.049 A 
ATOM     48  N   UNL A   1      44.187  26.784  30.567  1.00  0.00    -0.248 NA
ATOM     49  C   UNL A   1      45.084  25.155  29.156  1.00  0.00     0.031 C 
ATOM     50  C   UNL A   1      40.797  27.314  27.688  1.00  0.00     0.029 A 
ATOM     51  N   UNL A   1      41.678  28.011  29.621  1.00  0.00    -0.354 N 
ATOM     52  C   UNL A   1      45.380  26.313  31.104  1.00  0.00     0.074 A 
ATOM     53  C   UNL A   1      45.866  25.281  30.216  1.00  0.00     0.031 C 
ATOM     54  C   UNL A   1      40.006  28.291  28.165  1.00  0.00     0.029 A 
ATOM     55  C   UNL A   1      40.533  28.753  29.447  1.00  0.00     0.049 A 
ATOM     56  H   UNL A   1      42.278  28.121  30.394  1.00  0.00     0.167 HD
ATOM     57  C   UNL A   1      46.018  26.715  32.228  1.00  0.00     0.037 A 
ATOM     58  C   UNL A   1      39.972  29.686  30.242  1.00  0.00     0.037 A 
ATOM     59  C   UNL A   1      45.523  27.742  33.107  1.00  0.00     0.049 A 
ATOM     60  C   UNL A   1      40.662  30.065  31.528  1.00  0.00     0.074 A 
ATOM     61  C   UNL A   1      46.092  28.226  34.271  1.00  0.00     0.029 A 
ATOM     62  N   UNL A   1      44.338  28.440  32.921  1.00  0.00    -0.354 N 
ATOM     63  N   UNL A   1      41.793  29.619  32.021  1.00  0.00    -0.248 NA
ATOM     64  C   UNL A   1      40.002  31.078  32.364  1.00  0.00     0.031 C 
ATOM     65  C   UNL A   1      45.223  29.173  34.820  1.00  0.00     0.029 A 
ATOM     66  C   UNL A   1      44.145  29.332  33.962  1.00  0.00     0.049 A 
ATOM     67  H   UNL A   1      43.724  28.318  32.162  1.00  0.00     0.167 HD
ATOM     68  C   UNL A   1      42.000  30.324  33.204  1.00  0.00     0.074 A 
ATOM     69  C   UNL A   1      40.877  31.229  33.348  1.00  0.00     0.031 C 
ATOM     70  C   UNL A   1      43.027  30.236  34.086  1.00  0.00     0.037 A 
BRANCH  57  71
ATOM     71  C   UNL A   1      47.301  26.016  32.586  1.00  0.00     0.058 A 
ATOM     72  C   UNL A   1      47.338  24.943  33.493  1.00  0.00     0.135 A 
ATOM     73  C   UNL A   1      48.515  26.416  32.001  1.00  0.00     0.135 A 
ATOM     74  F   UNL A   1      46.211  24.532  34.099  1.00  0.00    -0.206 F 
ATOM     75  C   UNL A   1      48.531  24.314  33.830  1.00  0.00     0.059 A 
ATOM     76  C   UNL A   1      49.716  25.779  32.299  1.00  0.00     0.059 A 
ATOM     77  F   UNL A   1      48.542  27.438  31.132  1.00  0.00    -0.206 F 
ATOM     78  C   UNL A   1      49.716  24.740  33.226  1.00  0.00     0.060 A 
BRANCH  78  79
ATOM     79  S   UNL A   1      51.257  23.914  33.676  1.00  0.00     0.124 S 
ATOM     80  O   UNL A   1      50.873  23.232  34.909  1.00  0.00    -0.237 OA
ATOM     81  O   UNL A   1      51.496  23.052  32.523  1.00  0.00    -0.237 OA
ATOM     82  O   UNL A   1      52.200  25.016  33.838  1.00  0.00    -0.744 OA
ENDBRANCH  78  79
ENDBRANCH  57  71
BRANCH  58  83
ATOM     83  C   UNL A   1      38.689  30.327  29.844  1.00  0.00     0.058 A 
ATOM     84  C   UNL A   1      37.478  29.622  29.894  1.00  0.00     0.135 A 
ATOM     85  C   UNL A   1      38.650  31.661  29.407  1.00  0.00     0.135 A 
ATOM     86  F   UNL A   1      37.463  28.341  30.292  1.00  0.00    -0.206 F 
ATOM     87  C   UNL A   1      36.275  30.210  29.513  1.00  0.00     0.059 A 
ATOM     88  C   UNL A   1      37.456  32.280  29.049  1.00  0.00     0.059 A 
ATOM     89  F   UNL A   1      39.778  32.384  29.348  1.00  0.00    -0.206 F 
ATOM     90  C   UNL A   1      36.274  31.542  29.097  1.00  0.00     0.060 A 
BRANCH  90  91
ATOM     91  S   UNL A   1      34.701  32.310  28.655  1.00  0.00     0.124 S 
ATOM     92  O   UNL A   1      33.978  31.186  28.070  1.00  0.00    -0.237 OA
ATOM     93  O   UNL A   1      34.216  32.780  29.948  1.00  0.00    -0.237 OA
ATOM     94  O   UNL A   1      35.091  33.362  27.721  1.00  0.00    -0.744 OA
ENDBRANCH  90  91
ENDBRANCH  58  83
BRANCH  70  95
ATOM     95  C   UNL A   1      43.021  31.178  35.261  1.00  0.00     0.058 A 
ATOM     96  C   UNL A   1      43.558  32.473  35.183  1.00  0.00     0.135 A 
ATOM     97  C   UNL A   1      42.416  30.794  36.470  1.00  0.00     0.135 A 
ATOM     98  F   UNL A   1      44.150  32.891  34.054  1.00  0.00    -0.206 F 
ATOM     99  C   UNL A   1      43.522  33.341  36.271  1.00  0.00     0.059 A 
ATOM    100  C   UNL A   1      42.340  31.657  37.558  1.00  0.00     0.059 A 
ATOM    101  F   UNL A   1      41.875  29.571  36.597  1.00  0.00    -0.206 F 
ATOM    102  C   UNL A   1      42.908  32.925  37.454  1.00  0.00     0.060 A 
BRANCH 102 103
ATOM    103  S   UNL A   1      42.844  34.072  38.846  1.00  0.00     0.124 S 
ATOM    104  O   UNL A   1      41.600  34.787  38.580  1.00  0.00    -0.237 OA
ATOM    105  O   UNL A   1      42.824  33.169  39.992  1.00  0.00    -0.237 OA
ATOM    106  O   UNL A   1      44.064  34.859  38.696  1.00  0.00    -0.744 OA
ENDBRANCH 102 103
ENDBRANCH  70  95
ENDBRANCH  44  45
ENDBRANCH  37  39
ENDBRANCH  36  37
ENDBRANCH  35  36
ENDBRANCH  34  35
ENDBRANCH  33  34
ENDBRANCH  32  33
ENDBRANCH  31  32
ENDBRANCH   1  31
TORSDOF 27
ENDMDL
