MODEL 1
REMARK VINA RESULT:      -9.9      0.000      0.000
REMARK SMILES O=C(OCCOCCOCCOCCOC(=O)[C@@H]1C=C[C@H](NC(=O)N2CCO[C@@H]3CCC[C@@H]32)C1)c1ccc(-c2c3nc(c(-c4c(F)cc(S(=O)(=O)[O-])cc4F)c4ccc([nH]4)c(-c4c(F)cc(S(=O)(=O)[O-])cc4F)c4nc(c(-c5c(F)cc(S(=O)(=O)[O-])cc5F)c5ccc2[nH]5)C=C4)C=C3)cc1
REMARK SMILES IDX 8 1 7 2 6 3 5 4 4 5 3 6 2 7 1 8 35 9 36 10 100 11 37 12
REMARK SMILES IDX 99 13 38 14 39 15 40 16 93 17 41 18 98 19 92 20 94 21 42 22
REMARK SMILES IDX 97 23 91 24 90 25 43 27 77 28 56 29 76 30 57 31 60 32 75 33
REMARK SMILES IDX 95 34 58 35 59 36 74 38 96 39 61 40 44 41 45 42 54 43 46 44
REMARK SMILES IDX 47 45 53 46 55 47 48 48 49 49 50 50 51 51 52 52 78 53 79 54
REMARK SMILES IDX 88 55 80 56 81 57 87 58 89 59 82 60 83 61 84 62 85 63 86 64
REMARK SMILES IDX 62 65 63 66 72 67 64 68 65 69 71 70 73 71 66 72 67 73 68 74
REMARK SMILES IDX 69 75 70 76 9 77 10 78 11 79 12 80 13 81 14 82 15 83 16 84
REMARK SMILES IDX 17 85 18 86 19 87 34 88 20 89 21 90 22 91 23 92 24 94 25 95
REMARK SMILES IDX 26 96 33 97 27 98 29 99 32 100 28 101 30 102 31 103
REMARK H PARENT 94 26 60 37 22 93
REMARK Flexibility Score: inf
ROOT
ATOM      1  C   UNL A   1      32.482  30.950  26.896  1.00  0.00     0.188 C 
ENDROOT
BRANCH   1   2
ATOM      2  C   UNL A   1      33.743  30.168  27.249  1.00  0.00     0.188 C 
BRANCH   2   3
ATOM      3  O   UNL A   1      34.832  31.040  27.485  1.00  0.00    -0.376 OA
BRANCH   3   4
ATOM      4  C   UNL A   1      34.633  32.158  28.340  1.00  0.00     0.202 C 
BRANCH   4   5
ATOM      5  C   UNL A   1      35.235  31.997  29.726  1.00  0.00     0.261 C 
BRANCH   5   6
ATOM      6  O   UNL A   1      36.584  31.500  29.784  1.00  0.00    -0.460 OA
BRANCH   6   7
ATOM      7  C   UNL A   1      36.927  30.504  30.639  1.00  0.00     0.338 C 
ATOM      8  O   UNL A   1      36.241  30.059  31.544  1.00  0.00    -0.246 OA
BRANCH   7   9
ATOM      9  C   UNL A   1      38.105  29.829  30.060  1.00  0.00     0.060 A 
ATOM     10  C   UNL A   1      39.106  29.309  30.884  1.00  0.00     0.016 A 
ATOM     11  C   UNL A   1      38.261  29.803  28.677  1.00  0.00     0.016 A 
ATOM     12  C   UNL A   1      40.299  28.873  30.373  1.00  0.00     0.010 A 
ATOM     13  C   UNL A   1      39.458  29.329  28.143  1.00  0.00     0.010 A 
ATOM     14  C   UNL A   1      40.489  28.908  29.000  1.00  0.00    -0.014 A 
BRANCH  14  15
ATOM     15  C   UNL A   1      41.865  28.703  28.539  1.00  0.00     0.031 A 
ATOM     16  C   UNL A   1      42.212  27.347  28.011  1.00  0.00     0.074 A 
ATOM     17  C   UNL A   1      42.688  29.759  28.430  1.00  0.00     0.049 A 
ATOM     18  N   UNL A   1      43.372  26.877  27.656  1.00  0.00    -0.248 NA
ATOM     19  C   UNL A   1      41.097  26.391  27.848  1.00  0.00     0.031 C 
ATOM     20  C   UNL A   1      42.332  31.149  28.742  1.00  0.00     0.029 A 
ATOM     21  N   UNL A   1      43.983  29.836  28.004  1.00  0.00    -0.354 N 
ATOM     22  C   UNL A   1      43.138  25.558  27.291  1.00  0.00     0.074 A 
ATOM     23  C   UNL A   1      41.728  25.301  27.442  1.00  0.00     0.031 C 
ATOM     24  C   UNL A   1      43.389  31.938  28.499  1.00  0.00     0.029 A 
ATOM     25  C   UNL A   1      44.514  31.099  28.110  1.00  0.00     0.049 A 
ATOM     26  H   UNL A   1      44.485  29.065  27.655  1.00  0.00     0.167 HD
ATOM     27  C   UNL A   1      44.050  24.648  26.886  1.00  0.00     0.037 A 
ATOM     28  C   UNL A   1      45.791  31.499  27.975  1.00  0.00     0.037 A 
ATOM     29  C   UNL A   1      45.441  24.970  26.734  1.00  0.00     0.049 A 
ATOM     30  C   UNL A   1      46.807  30.439  27.635  1.00  0.00     0.074 A 
ATOM     31  C   UNL A   1      46.489  24.142  26.387  1.00  0.00     0.029 A 
ATOM     32  N   UNL A   1      45.971  26.242  26.920  1.00  0.00    -0.354 N 
ATOM     33  N   UNL A   1      46.611  29.164  27.379  1.00  0.00    -0.248 NA
ATOM     34  C   UNL A   1      48.211  30.855  27.589  1.00  0.00     0.031 C 
ATOM     35  C   UNL A   1      47.662  24.902  26.422  1.00  0.00     0.029 A 
ATOM     36  C   UNL A   1      47.337  26.218  26.724  1.00  0.00     0.049 A 
ATOM     37  H   UNL A   1      45.449  27.042  27.158  1.00  0.00     0.167 HD
ATOM     38  C   UNL A   1      47.866  28.630  27.121  1.00  0.00     0.074 A 
ATOM     39  C   UNL A   1      48.808  29.728  27.229  1.00  0.00     0.031 C 
ATOM     40  C   UNL A   1      48.220  27.353  26.828  1.00  0.00     0.037 A 
BRANCH  27  41
ATOM     41  C   UNL A   1      43.588  23.236  26.682  1.00  0.00     0.058 A 
ATOM     42  C   UNL A   1      43.491  22.649  25.414  1.00  0.00     0.135 A 
ATOM     43  C   UNL A   1      43.241  22.453  27.796  1.00  0.00     0.135 A 
ATOM     44  F   UNL A   1      43.765  23.366  24.313  1.00  0.00    -0.206 F 
ATOM     45  C   UNL A   1      43.070  21.331  25.254  1.00  0.00     0.059 A 
ATOM     46  C   UNL A   1      42.841  21.127  27.663  1.00  0.00     0.059 A 
ATOM     47  F   UNL A   1      43.286  22.978  29.031  1.00  0.00    -0.206 F 
ATOM     48  C   UNL A   1      42.756  20.576  26.387  1.00  0.00     0.060 A 
BRANCH  48  49
ATOM     49  S   UNL A   1      42.262  18.854  26.168  1.00  0.00     0.124 S 
ATOM     50  O   UNL A   1      42.458  18.319  27.513  1.00  0.00    -0.237 OA
ATOM     51  O   UNL A   1      40.875  18.983  25.734  1.00  0.00    -0.237 OA
ATOM     52  O   UNL A   1      43.190  18.359  25.156  1.00  0.00    -0.744 OA
ENDBRANCH  48  49
ENDBRANCH  27  41
BRANCH  28  53
ATOM     53  C   UNL A   1      46.188  32.906  28.260  1.00  0.00     0.058 A 
ATOM     54  C   UNL A   1      46.206  33.880  27.252  1.00  0.00     0.135 A 
ATOM     55  C   UNL A   1      46.599  33.297  29.546  1.00  0.00     0.135 A 
ATOM     56  F   UNL A   1      45.825  33.563  26.005  1.00  0.00    -0.206 F 
ATOM     57  C   UNL A   1      46.653  35.176  27.496  1.00  0.00     0.059 A 
ATOM     58  C   UNL A   1      47.015  34.596  29.823  1.00  0.00     0.059 A 
ATOM     59  F   UNL A   1      46.592  32.414  30.556  1.00  0.00    -0.206 F 
ATOM     60  C   UNL A   1      47.062  35.523  28.785  1.00  0.00     0.060 A 
BRANCH  60  61
ATOM     61  S   UNL A   1      47.655  37.200  29.089  1.00  0.00     0.124 S 
ATOM     62  O   UNL A   1      47.038  37.932  27.989  1.00  0.00    -0.237 OA
ATOM     63  O   UNL A   1      47.124  37.476  30.419  1.00  0.00    -0.237 OA
ATOM     64  O   UNL A   1      49.107  37.061  29.018  1.00  0.00    -0.744 OA
ENDBRANCH  60  61
ENDBRANCH  28  53
BRANCH  40  65
ATOM     65  C   UNL A   1      49.674  27.100  26.566  1.00  0.00     0.058 A 
ATOM     66  C   UNL A   1      50.550  26.716  27.591  1.00  0.00     0.135 A 
ATOM     67  C   UNL A   1      50.172  27.173  25.256  1.00  0.00     0.135 A 
ATOM     68  F   UNL A   1      50.116  26.640  28.860  1.00  0.00    -0.206 F 
ATOM     69  C   UNL A   1      51.884  26.435  27.329  1.00  0.00     0.059 A 
ATOM     70  C   UNL A   1      51.494  26.862  24.966  1.00  0.00     0.059 A 
ATOM     71  F   UNL A   1      49.365  27.523  24.242  1.00  0.00    -0.206 F 
ATOM     72  C   UNL A   1      52.343  26.504  26.012  1.00  0.00     0.060 A 
BRANCH  72  73
ATOM     73  S   UNL A   1      54.066  26.091  25.680  1.00  0.00     0.124 S 
ATOM     74  O   UNL A   1      54.545  27.314  25.047  1.00  0.00    -0.237 OA
ATOM     75  O   UNL A   1      54.584  25.822  27.018  1.00  0.00    -0.237 OA
ATOM     76  O   UNL A   1      53.973  24.925  24.806  1.00  0.00    -0.744 OA
ENDBRANCH  72  73
ENDBRANCH  40  65
ENDBRANCH  14  15
ENDBRANCH   7   9
ENDBRANCH   6   7
ENDBRANCH   5   6
ENDBRANCH   4   5
ENDBRANCH   3   4
ENDBRANCH   2   3
ENDBRANCH   1   2
BRANCH   1  77
ATOM     77  O   UNL A   1      31.744  30.436  25.789  1.00  0.00    -0.377 OA
BRANCH  77  78
ATOM     78  C   UNL A   1      32.205  29.204  25.232  1.00  0.00     0.188 C 
BRANCH  78  79
ATOM     79  C   UNL A   1      32.701  29.177  23.774  1.00  0.00     0.188 C 
BRANCH  79  80
ATOM     80  O   UNL A   1      31.697  28.846  22.832  1.00  0.00    -0.376 OA
BRANCH  80  81
ATOM     81  C   UNL A   1      31.058  27.587  22.954  1.00  0.00     0.202 C 
BRANCH  81  82
ATOM     82  C   UNL A   1      31.869  26.279  22.782  1.00  0.00     0.261 C 
BRANCH  82  83
ATOM     83  O   UNL A   1      32.699  25.658  23.810  1.00  0.00    -0.463 OA
BRANCH  83  84
ATOM     84  C   UNL A   1      32.222  25.351  25.035  1.00  0.00     0.312 C 
ATOM     85  O   UNL A   1      32.836  25.571  26.055  1.00  0.00    -0.252 OA
BRANCH  84  86
ATOM     86  C   UNL A   1      30.796  24.778  25.028  1.00  0.00     0.124 C 
ATOM     87  C   UNL A   1      30.300  24.571  26.438  1.00  0.00    -0.014 C 
ATOM     88  C   UNL A   1      30.721  23.337  24.485  1.00  0.00     0.048 C 
ATOM     89  C   UNL A   1      30.339  23.284  26.815  1.00  0.00    -0.006 C 
ATOM     90  C   UNL A   1      30.754  22.375  25.701  1.00  0.00     0.107 C 
BRANCH  90  91
ATOM     91  N   UNL A   1      32.045  21.787  25.988  1.00  0.00    -0.332 N 
ATOM     92  C   UNL A   1      32.658  20.994  25.037  1.00  0.00     0.318 C 
ATOM     93  H   UNL A   1      32.484  21.951  26.853  1.00  0.00     0.165 HD
ATOM     94  O   UNL A   1      32.163  19.927  24.687  1.00  0.00    -0.249 OA
BRANCH  92  95
ATOM     95  N   UNL A   1      33.810  21.540  24.479  1.00  0.00    -0.317 N 
ATOM     96  C   UNL A   1      33.689  22.463  23.363  1.00  0.00     0.150 C 
ATOM     97  C   UNL A   1      35.077  21.471  25.174  1.00  0.00     0.116 C 
ATOM     98  C   UNL A   1      34.989  23.159  22.948  1.00  0.00     0.182 C 
ATOM     99  C   UNL A   1      36.178  22.496  24.874  1.00  0.00     0.141 C 
ATOM    100  C   UNL A   1      35.722  20.086  25.106  1.00  0.00     0.028 C 
ATOM    101  O   UNL A   1      35.763  23.589  24.067  1.00  0.00    -0.374 OA
ATOM    102  C   UNL A   1      37.358  21.688  24.339  1.00  0.00     0.034 C 
ATOM    103  C   UNL A   1      37.220  20.318  24.992  1.00  0.00     0.005 C 
ENDBRANCH  92  95
ENDBRANCH  90  91
ENDBRANCH  84  86
ENDBRANCH  83  84
ENDBRANCH  82  83
ENDBRANCH  81  82
ENDBRANCH  80  81
ENDBRANCH  79  80
ENDBRANCH  78  79
ENDBRANCH  77  78
ENDBRANCH   1  77
TORSDOF 25
ENDMDL
MODEL 2
REMARK VINA RESULT:      -9.6      1.266      2.559
REMARK SMILES O=C(OCCOCCOCCOCCOC(=O)[C@@H]1C=C[C@H](NC(=O)N2CCO[C@@H]3CCC[C@@H]32)C1)c1ccc(-c2c3nc(c(-c4c(F)cc(S(=O)(=O)[O-])cc4F)c4ccc([nH]4)c(-c4c(F)cc(S(=O)(=O)[O-])cc4F)c4nc(c(-c5c(F)cc(S(=O)(=O)[O-])cc5F)c5ccc2[nH]5)C=C4)C=C3)cc1
REMARK SMILES IDX 8 1 7 2 6 3 5 4 4 5 3 6 2 7 1 8 35 9 36 10 100 11 37 12
REMARK SMILES IDX 99 13 38 14 39 15 40 16 93 17 41 18 98 19 92 20 94 21 42 22
REMARK SMILES IDX 97 23 91 24 90 25 43 27 77 28 56 29 76 30 57 31 60 32 75 33
REMARK SMILES IDX 95 34 58 35 59 36 74 38 96 39 61 40 44 41 45 42 54 43 46 44
REMARK SMILES IDX 47 45 53 46 55 47 48 48 49 49 50 50 51 51 52 52 78 53 79 54
REMARK SMILES IDX 88 55 80 56 81 57 87 58 89 59 82 60 83 61 84 62 85 63 86 64
REMARK SMILES IDX 62 65 63 66 72 67 64 68 65 69 71 70 73 71 66 72 67 73 68 74
REMARK SMILES IDX 69 75 70 76 9 77 10 78 11 79 12 80 13 81 14 82 15 83 16 84
REMARK SMILES IDX 17 85 18 86 19 87 34 88 20 89 21 90 22 91 23 92 24 94 25 95
REMARK SMILES IDX 26 96 33 97 27 98 29 99 32 100 28 101 30 102 31 103
REMARK H PARENT 94 26 60 37 22 93
REMARK Flexibility Score: inf
ROOT
ATOM      1  C   UNL A   1      36.318  33.281  29.594  1.00  0.00     0.188 C 
ENDROOT
BRANCH   1   2
ATOM      2  C   UNL A   1      36.273  33.566  31.092  1.00  0.00     0.188 C 
BRANCH   2   3
ATOM      3  O   UNL A   1      37.455  33.119  31.730  1.00  0.00    -0.376 OA
BRANCH   3   4
ATOM      4  C   UNL A   1      37.340  32.196  32.804  1.00  0.00     0.202 C 
BRANCH   4   5
ATOM      5  C   UNL A   1      36.390  31.042  32.535  1.00  0.00     0.261 C 
BRANCH   5   6
ATOM      6  O   UNL A   1      36.988  29.812  32.088  1.00  0.00    -0.460 OA
BRANCH   6   7
ATOM      7  C   UNL A   1      37.051  29.504  30.769  1.00  0.00     0.338 C 
ATOM      8  O   UNL A   1      36.106  29.394  30.005  1.00  0.00    -0.246 OA
BRANCH   7   9
ATOM      9  C   UNL A   1      38.457  29.677  30.355  1.00  0.00     0.060 A 
ATOM     10  C   UNL A   1      38.778  29.989  29.031  1.00  0.00     0.016 A 
ATOM     11  C   UNL A   1      39.471  29.429  31.275  1.00  0.00     0.016 A 
ATOM     12  C   UNL A   1      40.070  29.945  28.578  1.00  0.00     0.010 A 
ATOM     13  C   UNL A   1      40.794  29.416  30.833  1.00  0.00     0.010 A 
ATOM     14  C   UNL A   1      41.080  29.631  29.474  1.00  0.00    -0.014 A 
BRANCH  14  15
ATOM     15  C   UNL A   1      42.385  29.322  28.885  1.00  0.00     0.031 A 
ATOM     16  C   UNL A   1      42.583  27.938  28.354  1.00  0.00     0.074 A 
ATOM     17  C   UNL A   1      43.265  30.315  28.675  1.00  0.00     0.049 A 
ATOM     18  N   UNL A   1      43.666  27.381  27.896  1.00  0.00    -0.248 NA
ATOM     19  C   UNL A   1      41.394  27.062  28.320  1.00  0.00     0.031 C 
ATOM     20  C   UNL A   1      43.040  31.731  28.991  1.00  0.00     0.029 A 
ATOM     21  N   UNL A   1      44.514  30.294  28.122  1.00  0.00    -0.354 N 
ATOM     22  C   UNL A   1      43.306  26.077  27.582  1.00  0.00     0.074 A 
ATOM     23  C   UNL A   1      41.903  25.924  27.876  1.00  0.00     0.031 C 
ATOM     24  C   UNL A   1      44.120  32.439  28.630  1.00  0.00     0.029 A 
ATOM     25  C   UNL A   1      45.140  31.517  28.149  1.00  0.00     0.049 A 
ATOM     26  H   UNL A   1      44.924  29.484  27.741  1.00  0.00     0.167 HD
ATOM     27  C   UNL A   1      44.108  25.099  27.109  1.00  0.00     0.037 A 
ATOM     28  C   UNL A   1      46.422  31.822  27.882  1.00  0.00     0.037 A 
ATOM     29  C   UNL A   1      45.496  25.319  26.815  1.00  0.00     0.049 A 
ATOM     30  C   UNL A   1      47.323  30.688  27.467  1.00  0.00     0.074 A 
ATOM     31  C   UNL A   1      46.444  24.413  26.384  1.00  0.00     0.029 A 
ATOM     32  N   UNL A   1      46.129  26.553  26.923  1.00  0.00    -0.354 N 
ATOM     33  N   UNL A   1      47.013  29.428  27.257  1.00  0.00    -0.248 NA
ATOM     34  C   UNL A   1      48.740  31.002  27.274  1.00  0.00     0.031 C 
ATOM     35  C   UNL A   1      47.665  25.088  26.288  1.00  0.00     0.029 A 
ATOM     36  C   UNL A   1      47.464  26.428  26.594  1.00  0.00     0.049 A 
ATOM     37  H   UNL A   1      45.691  27.391  27.194  1.00  0.00     0.167 HD
ATOM     38  C   UNL A   1      48.196  28.802  26.888  1.00  0.00     0.074 A 
ATOM     39  C   UNL A   1      49.219  29.831  26.881  1.00  0.00     0.031 C 
ATOM     40  C   UNL A   1      48.430  27.498  26.588  1.00  0.00     0.037 A 
BRANCH  27  41
ATOM     41  C   UNL A   1      43.530  23.722  26.980  1.00  0.00     0.058 A 
ATOM     42  C   UNL A   1      43.230  22.921  28.091  1.00  0.00     0.135 A 
ATOM     43  C   UNL A   1      43.264  23.199  25.704  1.00  0.00     0.135 A 
ATOM     44  F   UNL A   1      43.508  23.352  29.332  1.00  0.00    -0.206 F 
ATOM     45  C   UNL A   1      42.683  21.649  27.943  1.00  0.00     0.059 A 
ATOM     46  C   UNL A   1      42.695  21.941  25.532  1.00  0.00     0.059 A 
ATOM     47  F   UNL A   1      43.561  23.913  24.606  1.00  0.00    -0.206 F 
ATOM     48  C   UNL A   1      42.410  21.172  26.658  1.00  0.00     0.060 A 
BRANCH  48  49
ATOM     49  S   UNL A   1      41.652  19.544  26.483  1.00  0.00     0.124 S 
ATOM     50  O   UNL A   1      42.070  19.169  25.135  1.00  0.00    -0.237 OA
ATOM     51  O   UNL A   1      42.275  18.795  27.570  1.00  0.00    -0.237 OA
ATOM     52  O   UNL A   1      40.227  19.812  26.645  1.00  0.00    -0.744 OA
ENDBRANCH  48  49
ENDBRANCH  27  41
BRANCH  28  53
ATOM     53  C   UNL A   1      46.942  33.201  28.098  1.00  0.00     0.058 A 
ATOM     54  C   UNL A   1      46.974  34.143  27.060  1.00  0.00     0.135 A 
ATOM     55  C   UNL A   1      47.459  33.594  29.346  1.00  0.00     0.135 A 
ATOM     56  F   UNL A   1      46.495  33.822  25.848  1.00  0.00    -0.206 F 
ATOM     57  C   UNL A   1      47.534  35.405  27.236  1.00  0.00     0.059 A 
ATOM     58  C   UNL A   1      47.989  34.863  29.556  1.00  0.00     0.059 A 
ATOM     59  F   UNL A   1      47.444  32.743  30.382  1.00  0.00    -0.206 F 
ATOM     60  C   UNL A   1      48.045  35.754  28.488  1.00  0.00     0.060 A 
BRANCH  60  61
ATOM     61  S   UNL A   1      48.783  37.388  28.702  1.00  0.00     0.124 S 
ATOM     62  O   UNL A   1      48.012  38.183  27.754  1.00  0.00    -0.237 OA
ATOM     63  O   UNL A   1      48.531  37.654  30.114  1.00  0.00    -0.237 OA
ATOM     64  O   UNL A   1      50.184  37.172  28.352  1.00  0.00    -0.744 OA
ENDBRANCH  60  61
ENDBRANCH  28  53
BRANCH  40  65
ATOM     65  C   UNL A   1      49.829  27.139  26.190  1.00  0.00     0.058 A 
ATOM     66  C   UNL A   1      50.787  26.752  27.138  1.00  0.00     0.135 A 
ATOM     67  C   UNL A   1      50.187  27.112  24.833  1.00  0.00     0.135 A 
ATOM     68  F   UNL A   1      50.490  26.770  28.447  1.00  0.00    -0.206 F 
ATOM     69  C   UNL A   1      52.066  26.372  26.755  1.00  0.00     0.059 A 
ATOM     70  C   UNL A   1      51.448  26.702  24.425  1.00  0.00     0.059 A 
ATOM     71  F   UNL A   1      49.296  27.461  23.891  1.00  0.00    -0.206 F 
ATOM     72  C   UNL A   1      52.383  26.344  25.395  1.00  0.00     0.060 A 
BRANCH  72  73
ATOM     73  S   UNL A   1      54.033  25.803  24.908  1.00  0.00     0.124 S 
ATOM     74  O   UNL A   1      54.852  26.360  25.979  1.00  0.00    -0.237 OA
ATOM     75  O   UNL A   1      53.895  24.350  24.904  1.00  0.00    -0.237 OA
ATOM     76  O   UNL A   1      54.217  26.413  23.595  1.00  0.00    -0.744 OA
ENDBRANCH  72  73
ENDBRANCH  40  65
ENDBRANCH  14  15
ENDBRANCH   7   9
ENDBRANCH   6   7
ENDBRANCH   5   6
ENDBRANCH   4   5
ENDBRANCH   3   4
ENDBRANCH   2   3
ENDBRANCH   1   2
BRANCH   1  77
ATOM     77  O   UNL A   1      35.441  34.079  28.802  1.00  0.00    -0.377 OA
BRANCH  77  78
ATOM     78  C   UNL A   1      34.441  33.381  28.058  1.00  0.00     0.188 C 
BRANCH  78  79
ATOM     79  C   UNL A   1      34.292  31.859  28.242  1.00  0.00     0.188 C 
BRANCH  79  80
ATOM     80  O   UNL A   1      34.105  31.149  27.032  1.00  0.00    -0.376 OA
BRANCH  80  81
ATOM     81  C   UNL A   1      33.294  29.987  27.061  1.00  0.00     0.202 C 
BRANCH  81  82
ATOM     82  C   UNL A   1      33.345  28.968  25.896  1.00  0.00     0.261 C 
BRANCH  82  83
ATOM     83  O   UNL A   1      32.232  28.133  25.455  1.00  0.00    -0.463 OA
BRANCH  83  84
ATOM     84  C   UNL A   1      31.285  28.582  24.604  1.00  0.00     0.312 C 
ATOM     85  O   UNL A   1      31.054  29.760  24.439  1.00  0.00    -0.252 OA
BRANCH  84  86
ATOM     86  C   UNL A   1      30.586  27.476  23.800  1.00  0.00     0.124 C 
ATOM     87  C   UNL A   1      29.718  26.631  24.700  1.00  0.00    -0.014 C 
ATOM     88  C   UNL A   1      31.558  26.409  23.257  1.00  0.00     0.048 C 
ATOM     89  C   UNL A   1      30.279  25.449  24.994  1.00  0.00    -0.006 C 
ATOM     90  C   UNL A   1      31.565  25.227  24.260  1.00  0.00     0.107 C 
BRANCH  90  91
ATOM     91  N   UNL A   1      32.675  25.211  25.188  1.00  0.00    -0.332 N 
ATOM     92  C   UNL A   1      32.931  24.069  25.922  1.00  0.00     0.318 C 
ATOM     93  H   UNL A   1      33.244  26.006  25.295  1.00  0.00     0.165 HD
ATOM     94  O   UNL A   1      32.129  23.657  26.755  1.00  0.00    -0.249 OA
BRANCH  92  95
ATOM     95  N   UNL A   1      34.111  23.412  25.585  1.00  0.00    -0.317 N 
ATOM     96  C   UNL A   1      35.272  24.196  25.195  1.00  0.00     0.150 C 
ATOM     97  C   UNL A   1      34.309  22.019  25.919  1.00  0.00     0.116 C 
ATOM     98  C   UNL A   1      36.571  23.400  25.035  1.00  0.00     0.182 C 
ATOM     99  C   UNL A   1      35.727  21.455  26.065  1.00  0.00     0.141 C 
ATOM    100  C   UNL A   1      33.538  21.068  25.002  1.00  0.00     0.028 C 
ATOM    101  O   UNL A   1      36.756  22.434  26.069  1.00  0.00    -0.374 OA
ATOM    102  C   UNL A   1      35.850  20.369  24.999  1.00  0.00     0.034 C 
ATOM    103  C   UNL A   1      34.429  19.853  24.802  1.00  0.00     0.005 C 
ENDBRANCH  92  95
ENDBRANCH  90  91
ENDBRANCH  84  86
ENDBRANCH  83  84
ENDBRANCH  82  83
ENDBRANCH  81  82
ENDBRANCH  80  81
ENDBRANCH  79  80
ENDBRANCH  78  79
ENDBRANCH  77  78
ENDBRANCH   1  77
TORSDOF 25
ENDMDL
MODEL 3
REMARK VINA RESULT:      -9.2      2.053      4.335
REMARK SMILES O=C(OCCOCCOCCOCCOC(=O)[C@@H]1C=C[C@H](NC(=O)N2CCO[C@@H]3CCC[C@@H]32)C1)c1ccc(-c2c3nc(c(-c4c(F)cc(S(=O)(=O)[O-])cc4F)c4ccc([nH]4)c(-c4c(F)cc(S(=O)(=O)[O-])cc4F)c4nc(c(-c5c(F)cc(S(=O)(=O)[O-])cc5F)c5ccc2[nH]5)C=C4)C=C3)cc1
REMARK SMILES IDX 8 1 7 2 6 3 5 4 4 5 3 6 2 7 1 8 35 9 36 10 100 11 37 12
REMARK SMILES IDX 99 13 38 14 39 15 40 16 93 17 41 18 98 19 92 20 94 21 42 22
REMARK SMILES IDX 97 23 91 24 90 25 43 27 77 28 56 29 76 30 57 31 60 32 75 33
REMARK SMILES IDX 95 34 58 35 59 36 74 38 96 39 61 40 44 41 45 42 54 43 46 44
REMARK SMILES IDX 47 45 53 46 55 47 48 48 49 49 50 50 51 51 52 52 78 53 79 54
REMARK SMILES IDX 88 55 80 56 81 57 87 58 89 59 82 60 83 61 84 62 85 63 86 64
REMARK SMILES IDX 62 65 63 66 72 67 64 68 65 69 71 70 73 71 66 72 67 73 68 74
REMARK SMILES IDX 69 75 70 76 9 77 10 78 11 79 12 80 13 81 14 82 15 83 16 84
REMARK SMILES IDX 17 85 18 86 19 87 34 88 20 89 21 90 22 91 23 92 24 94 25 95
REMARK SMILES IDX 26 96 33 97 27 98 29 99 32 100 28 101 30 102 31 103
REMARK H PARENT 94 26 60 37 22 93
REMARK Flexibility Score: inf
ROOT
ATOM      1  C   UNL A   1      35.781  33.283  29.623  1.00  0.00     0.188 C 
ENDROOT
BRANCH   1   2
ATOM      2  C   UNL A   1      35.713  33.800  31.057  1.00  0.00     0.188 C 
BRANCH   2   3
ATOM      3  O   UNL A   1      36.980  33.724  31.683  1.00  0.00    -0.376 OA
BRANCH   3   4
ATOM      4  C   UNL A   1      37.124  32.890  32.825  1.00  0.00     0.202 C 
BRANCH   4   5
ATOM      5  C   UNL A   1      36.389  31.564  32.725  1.00  0.00     0.261 C 
BRANCH   5   6
ATOM      6  O   UNL A   1      37.208  30.389  32.588  1.00  0.00    -0.460 OA
BRANCH   6   7
ATOM      7  C   UNL A   1      37.276  29.717  31.412  1.00  0.00     0.338 C 
ATOM      8  O   UNL A   1      36.333  29.312  30.753  1.00  0.00    -0.246 OA
BRANCH   7   9
ATOM      9  C   UNL A   1      38.654  29.878  30.906  1.00  0.00     0.060 A 
ATOM     10  C   UNL A   1      38.891  30.149  29.556  1.00  0.00     0.016 A 
ATOM     11  C   UNL A   1      39.724  29.658  31.768  1.00  0.00     0.016 A 
ATOM     12  C   UNL A   1      40.152  30.092  29.025  1.00  0.00     0.010 A 
ATOM     13  C   UNL A   1      41.016  29.632  31.245  1.00  0.00     0.010 A 
ATOM     14  C   UNL A   1      41.216  29.806  29.865  1.00  0.00    -0.014 A 
BRANCH  14  15
ATOM     15  C   UNL A   1      42.483  29.479  29.205  1.00  0.00     0.031 A 
ATOM     16  C   UNL A   1      42.610  28.113  28.610  1.00  0.00     0.074 A 
ATOM     17  C   UNL A   1      43.387  30.451  28.995  1.00  0.00     0.049 A 
ATOM     18  N   UNL A   1      43.652  27.541  28.082  1.00  0.00    -0.248 NA
ATOM     19  C   UNL A   1      41.391  27.278  28.595  1.00  0.00     0.031 C 
ATOM     20  C   UNL A   1      43.225  31.859  29.379  1.00  0.00     0.029 A 
ATOM     21  N   UNL A   1      44.608  30.412  28.386  1.00  0.00    -0.354 N 
ATOM     22  C   UNL A   1      43.234  26.264  27.732  1.00  0.00     0.074 A 
ATOM     23  C   UNL A   1      41.841  26.144  28.083  1.00  0.00     0.031 C 
ATOM     24  C   UNL A   1      44.312  32.546  28.997  1.00  0.00     0.029 A 
ATOM     25  C   UNL A   1      45.277  31.612  28.434  1.00  0.00     0.049 A 
ATOM     26  H   UNL A   1      44.973  29.606  27.955  1.00  0.00     0.167 HD
ATOM     27  C   UNL A   1      43.980  25.281  27.184  1.00  0.00     0.037 A 
ATOM     28  C   UNL A   1      46.555  31.887  28.121  1.00  0.00     0.037 A 
ATOM     29  C   UNL A   1      45.360  25.468  26.836  1.00  0.00     0.049 A 
ATOM     30  C   UNL A   1      47.397  30.742  27.620  1.00  0.00     0.074 A 
ATOM     31  C   UNL A   1      46.256  24.550  26.327  1.00  0.00     0.029 A 
ATOM     32  N   UNL A   1      46.040  26.674  26.965  1.00  0.00    -0.354 N 
ATOM     33  N   UNL A   1      47.036  29.502  27.374  1.00  0.00    -0.248 NA
ATOM     34  C   UNL A   1      48.815  31.018  27.376  1.00  0.00     0.031 C 
ATOM     35  C   UNL A   1      47.494  25.188  26.202  1.00  0.00     0.029 A 
ATOM     36  C   UNL A   1      47.354  26.520  26.571  1.00  0.00     0.049 A 
ATOM     37  H   UNL A   1      45.643  27.514  27.289  1.00  0.00     0.167 HD
ATOM     38  C   UNL A   1      48.180  28.854  26.927  1.00  0.00     0.074 A 
ATOM     39  C   UNL A   1      49.236  29.849  26.915  1.00  0.00     0.031 C 
ATOM     40  C   UNL A   1      48.354  27.558  26.565  1.00  0.00     0.037 A 
BRANCH  27  41
ATOM     41  C   UNL A   1      43.350  23.929  27.026  1.00  0.00     0.058 A 
ATOM     42  C   UNL A   1      43.152  23.057  28.106  1.00  0.00     0.135 A 
ATOM     43  C   UNL A   1      42.927  23.506  25.755  1.00  0.00     0.135 A 
ATOM     44  F   UNL A   1      43.578  23.391  29.334  1.00  0.00    -0.206 F 
ATOM     45  C   UNL A   1      42.553  21.812  27.932  1.00  0.00     0.059 A 
ATOM     46  C   UNL A   1      42.305  22.277  25.562  1.00  0.00     0.059 A 
ATOM     47  F   UNL A   1      43.122  24.291  24.683  1.00  0.00    -0.206 F 
ATOM     48  C   UNL A   1      42.125  21.436  26.657  1.00  0.00     0.060 A 
BRANCH  48  49
ATOM     49  S   UNL A   1      41.303  19.841  26.457  1.00  0.00     0.124 S 
ATOM     50  O   UNL A   1      39.935  20.252  26.151  1.00  0.00    -0.237 OA
ATOM     51  O   UNL A   1      42.047  19.247  25.351  1.00  0.00    -0.237 OA
ATOM     52  O   UNL A   1      41.488  19.197  27.753  1.00  0.00    -0.744 OA
ENDBRANCH  48  49
ENDBRANCH  27  41
BRANCH  28  53
ATOM     53  C   UNL A   1      47.132  33.237  28.369  1.00  0.00     0.058 A 
ATOM     54  C   UNL A   1      47.140  34.224  27.373  1.00  0.00     0.135 A 
ATOM     55  C   UNL A   1      47.726  33.558  29.603  1.00  0.00     0.135 A 
ATOM     56  F   UNL A   1      46.587  33.974  26.176  1.00  0.00    -0.206 F 
ATOM     57  C   UNL A   1      47.750  35.460  27.574  1.00  0.00     0.059 A 
ATOM     58  C   UNL A   1      48.309  34.799  29.839  1.00  0.00     0.059 A 
ATOM     59  F   UNL A   1      47.739  32.661  30.600  1.00  0.00    -0.206 F 
ATOM     60  C   UNL A   1      48.338  35.735  28.810  1.00  0.00     0.060 A 
BRANCH  60  61
ATOM     61  S   UNL A   1      49.140  37.334  29.055  1.00  0.00     0.124 S 
ATOM     62  O   UNL A   1      50.066  37.372  27.929  1.00  0.00    -0.237 OA
ATOM     63  O   UNL A   1      48.011  38.256  28.987  1.00  0.00    -0.237 OA
ATOM     64  O   UNL A   1      49.753  37.203  30.373  1.00  0.00    -0.744 OA
ENDBRANCH  60  61
ENDBRANCH  28  53
BRANCH  40  65
ATOM     65  C   UNL A   1      49.722  27.170  26.089  1.00  0.00     0.058 A 
ATOM     66  C   UNL A   1      50.675  26.623  26.960  1.00  0.00     0.135 A 
ATOM     67  C   UNL A   1      50.048  27.281  24.729  1.00  0.00     0.135 A 
ATOM     68  F   UNL A   1      50.408  26.506  28.270  1.00  0.00    -0.206 F 
ATOM     69  C   UNL A   1      51.921  26.220  26.500  1.00  0.00     0.059 A 
ATOM     70  C   UNL A   1      51.275  26.851  24.241  1.00  0.00     0.059 A 
ATOM     71  F   UNL A   1      49.159  27.785  23.857  1.00  0.00    -0.206 F 
ATOM     72  C   UNL A   1      52.208  26.332  25.137  1.00  0.00     0.060 A 
BRANCH  72  73
ATOM     73  S   UNL A   1      53.812  25.761  24.546  1.00  0.00     0.124 S 
ATOM     74  O   UNL A   1      53.760  24.342  24.881  1.00  0.00    -0.237 OA
ATOM     75  O   UNL A   1      53.752  26.082  23.124  1.00  0.00    -0.237 OA
ATOM     76  O   UNL A   1      54.762  26.554  25.321  1.00  0.00    -0.744 OA
ENDBRANCH  72  73
ENDBRANCH  40  65
ENDBRANCH  14  15
ENDBRANCH   7   9
ENDBRANCH   6   7
ENDBRANCH   5   6
ENDBRANCH   4   5
ENDBRANCH   3   4
ENDBRANCH   2   3
ENDBRANCH   1   2
BRANCH   1  77
ATOM     77  O   UNL A   1      34.771  33.788  28.752  1.00  0.00    -0.377 OA
BRANCH  77  78
ATOM     78  C   UNL A   1      34.007  32.818  28.033  1.00  0.00     0.188 C 
BRANCH  78  79
ATOM     79  C   UNL A   1      34.205  31.322  28.343  1.00  0.00     0.188 C 
BRANCH  79  80
ATOM     80  O   UNL A   1      34.466  30.528  27.201  1.00  0.00    -0.376 OA
BRANCH  80  81
ATOM     81  C   UNL A   1      33.674  29.369  27.002  1.00  0.00     0.202 C 
BRANCH  81  82
ATOM     82  C   UNL A   1      34.203  28.200  26.135  1.00  0.00     0.261 C 
BRANCH  82  83
ATOM     83  O   UNL A   1      33.381  27.150  25.541  1.00  0.00    -0.463 OA
BRANCH  83  84
ATOM     84  C   UNL A   1      33.714  25.844  25.615  1.00  0.00     0.312 C 
ATOM     85  O   UNL A   1      34.861  25.460  25.684  1.00  0.00    -0.252 OA
BRANCH  84  86
ATOM     86  C   UNL A   1      32.511  24.891  25.690  1.00  0.00     0.124 C 
ATOM     87  C   UNL A   1      32.158  24.372  24.317  1.00  0.00    -0.014 C 
ATOM     88  C   UNL A   1      31.196  25.597  26.075  1.00  0.00     0.048 C 
ATOM     89  C   UNL A   1      31.080  24.978  23.799  1.00  0.00    -0.006 C 
ATOM     90  C   UNL A   1      30.440  25.928  24.762  1.00  0.00     0.107 C 
BRANCH  90  91
ATOM     91  N   UNL A   1      30.583  27.290  24.293  1.00  0.00    -0.332 N 
ATOM     92  C   UNL A   1      30.216  27.605  22.999  1.00  0.00     0.318 C 
ATOM     93  H   UNL A   1      30.939  27.986  24.890  1.00  0.00     0.165 HD
ATOM     94  O   UNL A   1      30.811  27.129  22.037  1.00  0.00    -0.249 OA
BRANCH  92  95
ATOM     95  N   UNL A   1      29.098  28.427  22.895  1.00  0.00    -0.317 N 
ATOM     96  C   UNL A   1      27.787  27.883  23.210  1.00  0.00     0.150 C 
ATOM     97  C   UNL A   1      29.236  29.864  22.802  1.00  0.00     0.116 C 
ATOM     98  C   UNL A   1      26.650  28.909  23.259  1.00  0.00     0.182 C 
ATOM     99  C   UNL A   1      28.085  30.779  23.235  1.00  0.00     0.141 C 
ATOM    100  C   UNL A   1      29.687  30.332  21.417  1.00  0.00     0.028 C 
ATOM    101  O   UNL A   1      27.028  30.118  23.916  1.00  0.00    -0.374 OA
ATOM    102  C   UNL A   1      27.685  31.558  21.985  1.00  0.00     0.034 C 
ATOM    103  C   UNL A   1      28.959  31.640  21.152  1.00  0.00     0.005 C 
ENDBRANCH  92  95
ENDBRANCH  90  91
ENDBRANCH  84  86
ENDBRANCH  83  84
ENDBRANCH  82  83
ENDBRANCH  81  82
ENDBRANCH  80  81
ENDBRANCH  79  80
ENDBRANCH  78  79
ENDBRANCH  77  78
ENDBRANCH   1  77
TORSDOF 25
ENDMDL
