MODEL 1
REMARK VINA RESULT:     -10.1      0.000      0.000
REMARK SMILES Cc1cccc(N2C(=O)/C(=C/c3ccc(C(=O)OCCOCCOCCOCCOC(=O)c4ccc(-c5c6nc(c(-c7c(F)cc(S(=O)(=O)[O-])cc7F)c7ccc([nH]7)c(-c7c(F)cc(S(=O)(=O)[O-])cc7F)c7nc(c(-c8c(F)cc(S(=O)(=O)[O-])cc8F)c8ccc5[nH]8)C=C7)C=C6)cc4)cc3)c3ccccc3C2=O)c1
REMARK SMILES IDX 25 1 24 2 23 3 22 4 21 5 20 6 19 7 18 8 16 9 17 10 15 11
REMARK SMILES IDX 12 12 13 13 100 14 14 15 99 16 11 17 7 18 8 19 107 20 9 21
REMARK SMILES IDX 10 22 106 23 108 24 101 25 105 26 102 27 104 28 103 29 6 30
REMARK SMILES IDX 1 31 2 32 3 33 109 34 4 35 5 36 26 37 27 38 28 39 29 40
REMARK SMILES IDX 30 41 31 42 32 43 33 44 34 45 98 46 35 47 97 48 36 49 37 50
REMARK SMILES IDX 38 51 91 52 39 53 96 54 90 55 92 56 40 57 95 58 89 59 88 60
REMARK SMILES IDX 41 62 75 63 54 64 74 65 55 66 58 67 73 68 93 69 56 70 57 71
REMARK SMILES IDX 72 73 94 74 59 75 42 76 43 77 52 78 44 79 45 80 51 81 53 82
REMARK SMILES IDX 46 83 47 84 48 85 49 86 50 87 76 88 77 89 86 90 78 91 79 92
REMARK SMILES IDX 85 93 87 94 80 95 81 96 82 97 83 98 84 99 60 100 61 101
REMARK SMILES IDX 70 102 62 103 63 104 69 105 71 106 64 107 65 108 66 109
REMARK SMILES IDX 67 110 68 111
REMARK H PARENT 92 61 58 72
REMARK Flexibility Score: inf
ROOT
ATOM      1  C   UNL A   1      39.535  26.690  28.427  1.00  0.00     0.188 C 
ENDROOT
BRANCH   1   2
ATOM      2  O   UNL A   1      38.552  27.726  28.328  1.00  0.00    -0.377 OA
BRANCH   2   3
ATOM      3  C   UNL A   1      38.987  29.079  28.376  1.00  0.00     0.188 C 
BRANCH   3   4
ATOM      4  C   UNL A   1      39.474  29.587  29.733  1.00  0.00     0.188 C 
BRANCH   4   5
ATOM      5  O   UNL A   1      38.940  30.819  30.206  1.00  0.00    -0.376 OA
BRANCH   5   6
ATOM      6  C   UNL A   1      37.515  30.880  30.191  1.00  0.00     0.202 C 
BRANCH   6   7
ATOM      7  C   UNL A   1      36.899  32.220  29.791  1.00  0.00     0.261 C 
BRANCH   7   8
ATOM      8  O   UNL A   1      35.529  32.070  29.429  1.00  0.00    -0.460 OA
BRANCH   8   9
ATOM      9  C   UNL A   1      35.245  32.378  28.149  1.00  0.00     0.338 C 
ATOM     10  O   UNL A   1      35.719  33.254  27.455  1.00  0.00    -0.246 OA
BRANCH   9  11
ATOM     11  C   UNL A   1      34.546  31.202  27.619  1.00  0.00     0.060 A 
ATOM     12  C   UNL A   1      33.341  28.750  27.091  1.00  0.00    -0.025 A 
ATOM     13  C   UNL A   1      34.733  28.843  27.242  1.00  0.00     0.009 A 
ATOM     14  C   UNL A   1      32.557  29.908  27.182  1.00  0.00     0.009 A 
ATOM     15  C   UNL A   1      35.337  30.063  27.487  1.00  0.00     0.016 A 
ATOM     16  C   UNL A   1      33.156  31.137  27.474  1.00  0.00     0.016 A 
BRANCH  12  17
ATOM     17  C   UNL A   1      32.844  27.418  26.744  1.00  0.00     0.022 C 
ATOM     18  N   UNL A   1      32.327  24.882  24.540  1.00  0.00    -0.242 N 
ATOM     19  C   UNL A   1      31.941  25.482  25.746  1.00  0.00     0.265 C 
ATOM     20  C   UNL A   1      32.238  25.627  23.335  1.00  0.00     0.265 C 
ATOM     21  O   UNL A   1      31.506  24.954  26.767  1.00  0.00    -0.268 OA
ATOM     22  C   UNL A   1      32.079  26.965  25.737  1.00  0.00     0.049 C 
ATOM     23  C   UNL A   1      31.566  26.964  23.391  1.00  0.00     0.048 A 
ATOM     24  O   UNL A   1      32.616  25.280  22.218  1.00  0.00    -0.268 OA
ATOM     25  C   UNL A   1      31.478  27.644  24.606  1.00  0.00    -0.000 A 
ATOM     26  C   UNL A   1      31.016  27.528  22.234  1.00  0.00     0.014 A 
ATOM     27  C   UNL A   1      30.772  28.850  24.683  1.00  0.00     0.010 A 
ATOM     28  C   UNL A   1      30.338  28.746  22.306  1.00  0.00     0.001 A 
ATOM     29  C   UNL A   1      30.206  29.399  23.531  1.00  0.00     0.001 A 
BRANCH  18  30
ATOM     30  C   UNL A   1      32.757  23.478  24.541  1.00  0.00     0.053 A 
ATOM     31  C   UNL A   1      35.805  21.394  25.615  1.00  0.00     0.044 C 
ATOM     32  C   UNL A   1      34.458  21.741  25.049  1.00  0.00    -0.049 A 
ATOM     33  C   UNL A   1      33.602  20.743  24.599  1.00  0.00     0.003 A 
ATOM     34  C   UNL A   1      34.030  23.082  25.005  1.00  0.00     0.030 A 
ATOM     35  C   UNL A   1      32.356  21.092  24.096  1.00  0.00     0.002 A 
ATOM     36  C   UNL A   1      31.946  22.434  24.065  1.00  0.00     0.027 A 
ENDBRANCH  18  30
ENDBRANCH  12  17
ENDBRANCH   9  11
ENDBRANCH   8   9
ENDBRANCH   7   8
ENDBRANCH   6   7
ENDBRANCH   5   6
ENDBRANCH   4   5
ENDBRANCH   3   4
ENDBRANCH   2   3
ENDBRANCH   1   2
BRANCH   1  37
ATOM     37  C   UNL A   1      39.892  25.933  27.153  1.00  0.00     0.188 C 
BRANCH  37  38
ATOM     38  O   UNL A   1      40.563  24.730  27.546  1.00  0.00    -0.376 OA
BRANCH  38  39
ATOM     39  C   UNL A   1      39.869  23.521  27.275  1.00  0.00     0.202 C 
BRANCH  39  40
ATOM     40  C   UNL A   1      40.780  22.321  26.997  1.00  0.00     0.261 C 
BRANCH  40  41
ATOM     41  O   UNL A   1      41.460  22.451  25.729  1.00  0.00    -0.460 OA
BRANCH  41  42
ATOM     42  C   UNL A   1      42.714  21.914  25.674  1.00  0.00     0.338 C 
ATOM     43  O   UNL A   1      42.947  20.784  25.282  1.00  0.00    -0.246 OA
BRANCH  42  44
ATOM     44  C   UNL A   1      43.742  22.925  26.039  1.00  0.00     0.060 A 
ATOM     45  C   UNL A   1      44.426  22.884  27.262  1.00  0.00     0.016 A 
ATOM     46  C   UNL A   1      43.943  24.000  25.189  1.00  0.00     0.016 A 
ATOM     47  C   UNL A   1      45.175  23.996  27.705  1.00  0.00     0.010 A 
ATOM     48  C   UNL A   1      44.630  25.101  25.652  1.00  0.00     0.010 A 
ATOM     49  C   UNL A   1      45.227  25.148  26.924  1.00  0.00    -0.014 A 
BRANCH  49  50
ATOM     50  C   UNL A   1      45.715  26.493  27.321  1.00  0.00     0.031 A 
ATOM     51  C   UNL A   1      44.711  27.537  27.754  1.00  0.00     0.074 A 
ATOM     52  C   UNL A   1      47.010  26.598  27.721  1.00  0.00     0.049 A 
ATOM     53  N   UNL A   1      44.992  28.665  28.316  1.00  0.00    -0.248 NA
ATOM     54  C   UNL A   1      43.259  27.377  27.599  1.00  0.00     0.031 C 
ATOM     55  C   UNL A   1      47.525  27.448  28.802  1.00  0.00     0.029 A 
ATOM     56  N   UNL A   1      48.159  25.917  27.329  1.00  0.00    -0.354 N 
ATOM     57  C   UNL A   1      43.845  29.156  28.920  1.00  0.00     0.074 A 
ATOM     58  C   UNL A   1      42.779  28.383  28.341  1.00  0.00     0.031 C 
ATOM     59  C   UNL A   1      48.855  27.314  28.912  1.00  0.00     0.029 A 
ATOM     60  C   UNL A   1      49.282  26.666  27.699  1.00  0.00     0.049 A 
ATOM     61  H   UNL A   1      48.178  25.050  26.865  1.00  0.00     0.167 HD
ATOM     62  C   UNL A   1      43.955  30.046  29.959  1.00  0.00     0.037 A 
ATOM     63  C   UNL A   1      50.091  27.300  26.794  1.00  0.00     0.037 A 
ATOM     64  C   UNL A   1      45.340  30.538  30.092  1.00  0.00     0.049 A 
ATOM     65  C   UNL A   1      49.970  28.824  26.900  1.00  0.00     0.074 A 
ATOM     66  C   UNL A   1      46.240  30.639  31.138  1.00  0.00     0.029 A 
ATOM     67  N   UNL A   1      46.056  30.903  28.950  1.00  0.00    -0.354 N 
ATOM     68  N   UNL A   1      48.938  29.420  27.454  1.00  0.00    -0.248 NA
ATOM     69  C   UNL A   1      50.993  29.795  26.517  1.00  0.00     0.031 C 
ATOM     70  C   UNL A   1      47.535  30.864  30.587  1.00  0.00     0.029 A 
ATOM     71  C   UNL A   1      47.398  31.056  29.219  1.00  0.00     0.049 A 
ATOM     72  H   UNL A   1      45.652  31.034  28.061  1.00  0.00     0.167 HD
ATOM     73  C   UNL A   1      49.156  30.762  27.577  1.00  0.00     0.074 A 
ATOM     74  C   UNL A   1      50.446  30.956  26.938  1.00  0.00     0.031 C 
ATOM     75  C   UNL A   1      48.291  31.614  28.211  1.00  0.00     0.037 A 
BRANCH  62  76
ATOM     76  C   UNL A   1      42.878  30.334  31.023  1.00  0.00     0.058 A 
ATOM     77  C   UNL A   1      42.384  31.648  31.214  1.00  0.00     0.135 A 
ATOM     78  C   UNL A   1      42.383  29.403  31.969  1.00  0.00     0.135 A 
ATOM     79  F   UNL A   1      42.745  32.645  30.393  1.00  0.00    -0.206 F 
ATOM     80  C   UNL A   1      41.504  32.010  32.250  1.00  0.00     0.059 A 
ATOM     81  C   UNL A   1      41.456  29.728  32.975  1.00  0.00     0.059 A 
ATOM     82  F   UNL A   1      42.812  28.135  32.001  1.00  0.00    -0.206 F 
ATOM     83  C   UNL A   1      41.036  31.041  33.125  1.00  0.00     0.060 A 
BRANCH  83  84
ATOM     84  S   UNL A   1      39.858  31.498  34.422  1.00  0.00     0.124 S 
ATOM     85  O   UNL A   1      39.430  30.199  34.927  1.00  0.00    -0.237 OA
ATOM     86  O   UNL A   1      40.679  32.292  35.331  1.00  0.00    -0.237 OA
ATOM     87  O   UNL A   1      38.836  32.254  33.701  1.00  0.00    -0.744 OA
ENDBRANCH  83  84
ENDBRANCH  62  76
BRANCH  63  88
ATOM     88  C   UNL A   1      50.497  26.397  25.670  1.00  0.00     0.058 A 
ATOM     89  C   UNL A   1      50.118  26.885  24.397  1.00  0.00     0.135 A 
ATOM     90  C   UNL A   1      51.722  25.709  25.742  1.00  0.00     0.135 A 
ATOM     91  F   UNL A   1      48.924  27.483  24.243  1.00  0.00    -0.206 F 
ATOM     92  C   UNL A   1      51.035  26.992  23.354  1.00  0.00     0.059 A 
ATOM     93  C   UNL A   1      52.654  25.790  24.698  1.00  0.00     0.059 A 
ATOM     94  F   UNL A   1      52.128  25.183  26.906  1.00  0.00    -0.206 F 
ATOM     95  C   UNL A   1      52.330  26.522  23.550  1.00  0.00     0.060 A 
BRANCH  95  96
ATOM     96  S   UNL A   1      53.632  27.141  22.445  1.00  0.00     0.124 S 
ATOM     97  O   UNL A   1      53.535  28.582  22.635  1.00  0.00    -0.237 OA
ATOM     98  O   UNL A   1      54.824  26.499  22.993  1.00  0.00    -0.237 OA
ATOM     99  O   UNL A   1      53.212  26.641  21.141  1.00  0.00    -0.744 OA
ENDBRANCH  95  96
ENDBRANCH  63  88
BRANCH  75 100
ATOM    100  C   UNL A   1      48.193  33.111  27.980  1.00  0.00     0.058 A 
ATOM    101  C   UNL A   1      49.017  34.038  28.635  1.00  0.00     0.135 A 
ATOM    102  C   UNL A   1      47.434  33.635  26.896  1.00  0.00     0.135 A 
ATOM    103  F   UNL A   1      49.855  33.662  29.612  1.00  0.00    -0.206 F 
ATOM    104  C   UNL A   1      49.059  35.384  28.272  1.00  0.00     0.059 A 
ATOM    105  C   UNL A   1      47.509  34.960  26.480  1.00  0.00     0.059 A 
ATOM    106  F   UNL A   1      46.604  32.871  26.173  1.00  0.00    -0.206 F 
ATOM    107  C   UNL A   1      48.311  35.834  27.189  1.00  0.00     0.060 A 
BRANCH 107 108
ATOM    108  S   UNL A   1      48.435  37.555  26.683  1.00  0.00     0.124 S 
ATOM    109  O   UNL A   1      48.491  37.423  25.230  1.00  0.00    -0.237 OA
ATOM    110  O   UNL A   1      47.204  38.132  27.217  1.00  0.00    -0.237 OA
ATOM    111  O   UNL A   1      49.663  38.013  27.324  1.00  0.00    -0.744 OA
ENDBRANCH 107 108
ENDBRANCH  75 100
ENDBRANCH  49  50
ENDBRANCH  42  44
ENDBRANCH  41  42
ENDBRANCH  40  41
ENDBRANCH  39  40
ENDBRANCH  38  39
ENDBRANCH  37  38
ENDBRANCH   1  37
TORSDOF 25
ENDMDL
MODEL 2
REMARK VINA RESULT:      -9.1      4.086      9.688
REMARK SMILES Cc1cccc(N2C(=O)/C(=C/c3ccc(C(=O)OCCOCCOCCOCCOC(=O)c4ccc(-c5c6nc(c(-c7c(F)cc(S(=O)(=O)[O-])cc7F)c7ccc([nH]7)c(-c7c(F)cc(S(=O)(=O)[O-])cc7F)c7nc(c(-c8c(F)cc(S(=O)(=O)[O-])cc8F)c8ccc5[nH]8)C=C7)C=C6)cc4)cc3)c3ccccc3C2=O)c1
REMARK SMILES IDX 25 1 24 2 23 3 22 4 21 5 20 6 19 7 18 8 16 9 17 10 15 11
REMARK SMILES IDX 12 12 13 13 100 14 14 15 99 16 11 17 7 18 8 19 107 20 9 21
REMARK SMILES IDX 10 22 106 23 108 24 101 25 105 26 102 27 104 28 103 29 6 30
REMARK SMILES IDX 1 31 2 32 3 33 109 34 4 35 5 36 26 37 27 38 28 39 29 40
REMARK SMILES IDX 30 41 31 42 32 43 33 44 34 45 98 46 35 47 97 48 36 49 37 50
REMARK SMILES IDX 38 51 91 52 39 53 96 54 90 55 92 56 40 57 95 58 89 59 88 60
REMARK SMILES IDX 41 62 75 63 54 64 74 65 55 66 58 67 73 68 93 69 56 70 57 71
REMARK SMILES IDX 72 73 94 74 59 75 42 76 43 77 52 78 44 79 45 80 51 81 53 82
REMARK SMILES IDX 46 83 47 84 48 85 49 86 50 87 76 88 77 89 86 90 78 91 79 92
REMARK SMILES IDX 85 93 87 94 80 95 81 96 82 97 83 98 84 99 60 100 61 101
REMARK SMILES IDX 70 102 62 103 63 104 69 105 71 106 64 107 65 108 66 109
REMARK SMILES IDX 67 110 68 111
REMARK H PARENT 92 61 58 72
REMARK Flexibility Score: inf
ROOT
ATOM      1  C   UNL A   1      38.112  30.855  35.467  1.00  0.00     0.188 C 
ENDROOT
BRANCH   1   2
ATOM      2  O   UNL A   1      38.281  30.126  34.247  1.00  0.00    -0.377 OA
BRANCH   2   3
ATOM      3  C   UNL A   1      38.863  30.795  33.133  1.00  0.00     0.188 C 
BRANCH   3   4
ATOM      4  C   UNL A   1      37.949  31.746  32.361  1.00  0.00     0.188 C 
BRANCH   4   5
ATOM      5  O   UNL A   1      37.716  31.464  30.985  1.00  0.00    -0.376 OA
BRANCH   5   6
ATOM      6  C   UNL A   1      38.406  32.332  30.088  1.00  0.00     0.202 C 
BRANCH   6   7
ATOM      7  C   UNL A   1      37.598  32.866  28.907  1.00  0.00     0.261 C 
BRANCH   7   8
ATOM      8  O   UNL A   1      36.711  31.874  28.397  1.00  0.00    -0.460 OA
BRANCH   8   9
ATOM      9  C   UNL A   1      35.476  32.321  28.096  1.00  0.00     0.338 C 
ATOM     10  O   UNL A   1      35.095  33.464  27.949  1.00  0.00    -0.246 OA
BRANCH   9  11
ATOM     11  C   UNL A   1      34.762  31.147  27.579  1.00  0.00     0.060 A 
ATOM     12  C   UNL A   1      33.515  28.709  27.083  1.00  0.00    -0.025 A 
ATOM     13  C   UNL A   1      34.906  28.778  27.256  1.00  0.00     0.009 A 
ATOM     14  C   UNL A   1      32.754  29.885  27.136  1.00  0.00     0.009 A 
ATOM     15  C   UNL A   1      35.531  29.991  27.486  1.00  0.00     0.016 A 
ATOM     16  C   UNL A   1      33.373  31.108  27.412  1.00  0.00     0.016 A 
BRANCH  12  17
ATOM     17  C   UNL A   1      32.997  27.381  26.756  1.00  0.00     0.022 C 
ATOM     18  N   UNL A   1      32.379  24.848  24.575  1.00  0.00    -0.242 N 
ATOM     19  C   UNL A   1      32.043  25.450  25.795  1.00  0.00     0.265 C 
ATOM     20  C   UNL A   1      32.248  25.592  23.374  1.00  0.00     0.265 C 
ATOM     21  O   UNL A   1      31.645  24.926  26.833  1.00  0.00    -0.268 OA
ATOM     22  C   UNL A   1      32.190  26.933  25.780  1.00  0.00     0.049 C 
ATOM     23  C   UNL A   1      31.588  26.934  23.456  1.00  0.00     0.048 A 
ATOM     24  O   UNL A   1      32.581  25.243  22.244  1.00  0.00    -0.268 OA
ATOM     25  C   UNL A   1      31.551  27.615  24.672  1.00  0.00    -0.000 A 
ATOM     26  C   UNL A   1      30.997  27.501  22.320  1.00  0.00     0.014 A 
ATOM     27  C   UNL A   1      30.856  28.825  24.776  1.00  0.00     0.010 A 
ATOM     28  C   UNL A   1      30.330  28.723  22.417  1.00  0.00     0.001 A 
ATOM     29  C   UNL A   1      30.250  29.378  23.646  1.00  0.00     0.001 A 
BRANCH  18  30
ATOM     30  C   UNL A   1      32.800  23.441  24.561  1.00  0.00     0.053 A 
ATOM     31  C   UNL A   1      35.951  21.364  25.293  1.00  0.00     0.044 C 
ATOM     32  C   UNL A   1      34.544  21.706  24.895  1.00  0.00    -0.049 A 
ATOM     33  C   UNL A   1      33.634  20.702  24.586  1.00  0.00     0.003 A 
ATOM     34  C   UNL A   1      34.120  23.048  24.868  1.00  0.00     0.030 A 
ATOM     35  C   UNL A   1      32.335  21.047  24.237  1.00  0.00     0.002 A 
ATOM     36  C   UNL A   1      31.930  22.390  24.222  1.00  0.00     0.027 A 
ENDBRANCH  18  30
ENDBRANCH  12  17
ENDBRANCH   9  11
ENDBRANCH   8   9
ENDBRANCH   7   8
ENDBRANCH   6   7
ENDBRANCH   5   6
ENDBRANCH   4   5
ENDBRANCH   3   4
ENDBRANCH   2   3
ENDBRANCH   1   2
BRANCH   1  37
ATOM     37  C   UNL A   1      38.890  32.155  35.625  1.00  0.00     0.188 C 
BRANCH  37  38
ATOM     38  O   UNL A   1      39.776  31.989  36.740  1.00  0.00    -0.376 OA
BRANCH  38  39
ATOM     39  C   UNL A   1      40.822  32.944  36.842  1.00  0.00     0.202 C 
BRANCH  39  40
ATOM     40  C   UNL A   1      41.409  33.085  38.251  1.00  0.00     0.261 C 
BRANCH  40  41
ATOM     41  O   UNL A   1      42.700  33.731  38.228  1.00  0.00    -0.460 OA
BRANCH  41  42
ATOM     42  C   UNL A   1      43.730  33.012  38.762  1.00  0.00     0.338 C 
ATOM     43  O   UNL A   1      44.058  33.074  39.933  1.00  0.00    -0.246 OA
BRANCH  42  44
ATOM     44  C   UNL A   1      44.302  32.077  37.758  1.00  0.00     0.060 A 
ATOM     45  C   UNL A   1      45.146  32.515  36.727  1.00  0.00     0.016 A 
ATOM     46  C   UNL A   1      43.894  30.753  37.779  1.00  0.00     0.016 A 
ATOM     47  C   UNL A   1      45.442  31.674  35.633  1.00  0.00     0.010 A 
ATOM     48  C   UNL A   1      44.142  29.958  36.680  1.00  0.00     0.010 A 
ATOM     49  C   UNL A   1      44.881  30.400  35.570  1.00  0.00    -0.014 A 
BRANCH  49  50
ATOM     50  C   UNL A   1      44.839  29.482  34.404  1.00  0.00     0.031 A 
ATOM     51  C   UNL A   1      44.358  30.014  33.072  1.00  0.00     0.074 A 
ATOM     52  C   UNL A   1      45.638  28.383  34.441  1.00  0.00     0.049 A 
ATOM     53  N   UNL A   1      44.459  29.405  31.938  1.00  0.00    -0.248 NA
ATOM     54  C   UNL A   1      43.720  31.326  32.908  1.00  0.00     0.031 C 
ATOM     55  C   UNL A   1      46.372  27.797  33.311  1.00  0.00     0.029 A 
ATOM     56  N   UNL A   1      46.059  27.579  35.496  1.00  0.00    -0.354 N 
ATOM     57  C   UNL A   1      44.291  30.333  30.921  1.00  0.00     0.074 A 
ATOM     58  C   UNL A   1      43.715  31.477  31.577  1.00  0.00     0.031 C 
ATOM     59  C   UNL A   1      47.047  26.707  33.706  1.00  0.00     0.029 A 
ATOM     60  C   UNL A   1      46.496  26.350  34.988  1.00  0.00     0.049 A 
ATOM     61  H   UNL A   1      46.049  27.833  36.446  1.00  0.00     0.167 HD
ATOM     62  C   UNL A   1      44.812  30.078  29.679  1.00  0.00     0.037 A 
ATOM     63  C   UNL A   1      45.815  25.177  35.173  1.00  0.00     0.037 A 
ATOM     64  C   UNL A   1      45.267  28.677  29.572  1.00  0.00     0.049 A 
ATOM     65  C   UNL A   1      45.218  24.658  33.861  1.00  0.00     0.074 A 
ATOM     66  C   UNL A   1      46.438  28.064  29.162  1.00  0.00     0.029 A 
ATOM     67  N   UNL A   1      44.467  27.651  30.077  1.00  0.00    -0.354 N 
ATOM     68  N   UNL A   1      45.011  25.430  32.817  1.00  0.00    -0.248 NA
ATOM     69  C   UNL A   1      44.907  23.263  33.552  1.00  0.00     0.031 C 
ATOM     70  C   UNL A   1      46.410  26.713  29.613  1.00  0.00     0.029 A 
ATOM     71  C   UNL A   1      45.158  26.462  30.157  1.00  0.00     0.049 A 
ATOM     72  H   UNL A   1      43.525  27.762  30.343  1.00  0.00     0.167 HD
ATOM     73  C   UNL A   1      44.638  24.692  31.730  1.00  0.00     0.074 A 
ATOM     74  C   UNL A   1      44.549  23.340  32.252  1.00  0.00     0.031 C 
ATOM     75  C   UNL A   1      44.457  25.226  30.482  1.00  0.00     0.037 A 
BRANCH  62  76
ATOM     76  C   UNL A   1      45.133  31.128  28.597  1.00  0.00     0.058 A 
ATOM     77  C   UNL A   1      46.203  32.041  28.771  1.00  0.00     0.135 A 
ATOM     78  C   UNL A   1      44.360  31.379  27.437  1.00  0.00     0.135 A 
ATOM     79  F   UNL A   1      47.039  31.931  29.813  1.00  0.00    -0.206 F 
ATOM     80  C   UNL A   1      46.470  33.107  27.894  1.00  0.00     0.059 A 
ATOM     81  C   UNL A   1      44.644  32.402  26.514  1.00  0.00     0.059 A 
ATOM     82  F   UNL A   1      43.254  30.677  27.161  1.00  0.00    -0.206 F 
ATOM     83  C   UNL A   1      45.690  33.279  26.760  1.00  0.00     0.060 A 
BRANCH  83  84
ATOM     84  S   UNL A   1      46.071  34.618  25.603  1.00  0.00     0.124 S 
ATOM     85  O   UNL A   1      45.745  35.806  26.383  1.00  0.00    -0.237 OA
ATOM     86  O   UNL A   1      47.491  34.408  25.331  1.00  0.00    -0.237 OA
ATOM     87  O   UNL A   1      45.185  34.352  24.472  1.00  0.00    -0.744 OA
ENDBRANCH  83  84
ENDBRANCH  62  76
BRANCH  63  88
ATOM     88  C   UNL A   1      45.434  24.967  36.607  1.00  0.00     0.058 A 
ATOM     89  C   UNL A   1      46.549  24.827  37.466  1.00  0.00     0.135 A 
ATOM     90  C   UNL A   1      44.315  25.638  37.131  1.00  0.00     0.135 A 
ATOM     91  F   UNL A   1      47.621  24.128  37.055  1.00  0.00    -0.206 F 
ATOM     92  C   UNL A   1      46.679  25.592  38.624  1.00  0.00     0.059 A 
ATOM     93  C   UNL A   1      44.418  26.401  38.303  1.00  0.00     0.059 A 
ATOM     94  F   UNL A   1      43.206  25.774  36.389  1.00  0.00    -0.206 F 
ATOM     95  C   UNL A   1      45.641  26.446  38.981  1.00  0.00     0.060 A 
BRANCH  95  96
ATOM     96  S   UNL A   1      46.019  27.804  40.127  1.00  0.00     0.124 S 
ATOM     97  O   UNL A   1      44.701  28.138  40.651  1.00  0.00    -0.237 OA
ATOM     98  O   UNL A   1      46.938  27.161  41.064  1.00  0.00    -0.237 OA
ATOM     99  O   UNL A   1      46.630  28.800  39.256  1.00  0.00    -0.744 OA
ENDBRANCH  95  96
ENDBRANCH  63  88
BRANCH  75 100
ATOM    100  C   UNL A   1      43.605  24.626  29.378  1.00  0.00     0.058 A 
ATOM    101  C   UNL A   1      43.929  23.422  28.735  1.00  0.00     0.135 A 
ATOM    102  C   UNL A   1      42.297  25.121  29.113  1.00  0.00     0.135 A 
ATOM    103  F   UNL A   1      45.091  22.794  28.967  1.00  0.00    -0.206 F 
ATOM    104  C   UNL A   1      43.045  22.778  27.869  1.00  0.00     0.059 A 
ATOM    105  C   UNL A   1      41.380  24.461  28.302  1.00  0.00     0.059 A 
ATOM    106  F   UNL A   1      41.842  26.258  29.658  1.00  0.00    -0.206 F 
ATOM    107  C   UNL A   1      41.771  23.298  27.667  1.00  0.00     0.060 A 
BRANCH 107 108
ATOM    108  S   UNL A   1      40.613  22.416  26.610  1.00  0.00     0.124 S 
ATOM    109  O   UNL A   1      41.481  22.020  25.504  1.00  0.00    -0.237 OA
ATOM    110  O   UNL A   1      40.158  21.331  27.475  1.00  0.00    -0.237 OA
ATOM    111  O   UNL A   1      39.604  23.421  26.293  1.00  0.00    -0.744 OA
ENDBRANCH 107 108
ENDBRANCH  75 100
ENDBRANCH  49  50
ENDBRANCH  42  44
ENDBRANCH  41  42
ENDBRANCH  40  41
ENDBRANCH  39  40
ENDBRANCH  38  39
ENDBRANCH  37  38
ENDBRANCH   1  37
TORSDOF 25
ENDMDL
MODEL 3
REMARK VINA RESULT:      -9.0      4.234      9.664
REMARK SMILES Cc1cccc(N2C(=O)/C(=C/c3ccc(C(=O)OCCOCCOCCOCCOC(=O)c4ccc(-c5c6nc(c(-c7c(F)cc(S(=O)(=O)[O-])cc7F)c7ccc([nH]7)c(-c7c(F)cc(S(=O)(=O)[O-])cc7F)c7nc(c(-c8c(F)cc(S(=O)(=O)[O-])cc8F)c8ccc5[nH]8)C=C7)C=C6)cc4)cc3)c3ccccc3C2=O)c1
REMARK SMILES IDX 25 1 24 2 23 3 22 4 21 5 20 6 19 7 18 8 16 9 17 10 15 11
REMARK SMILES IDX 12 12 13 13 100 14 14 15 99 16 11 17 7 18 8 19 107 20 9 21
REMARK SMILES IDX 10 22 106 23 108 24 101 25 105 26 102 27 104 28 103 29 6 30
REMARK SMILES IDX 1 31 2 32 3 33 109 34 4 35 5 36 26 37 27 38 28 39 29 40
REMARK SMILES IDX 30 41 31 42 32 43 33 44 34 45 98 46 35 47 97 48 36 49 37 50
REMARK SMILES IDX 38 51 91 52 39 53 96 54 90 55 92 56 40 57 95 58 89 59 88 60
REMARK SMILES IDX 41 62 75 63 54 64 74 65 55 66 58 67 73 68 93 69 56 70 57 71
REMARK SMILES IDX 72 73 94 74 59 75 42 76 43 77 52 78 44 79 45 80 51 81 53 82
REMARK SMILES IDX 46 83 47 84 48 85 49 86 50 87 76 88 77 89 86 90 78 91 79 92
REMARK SMILES IDX 85 93 87 94 80 95 81 96 82 97 83 98 84 99 60 100 61 101
REMARK SMILES IDX 70 102 62 103 63 104 69 105 71 106 64 107 65 108 66 109
REMARK SMILES IDX 67 110 68 111
REMARK H PARENT 92 61 58 72
REMARK Flexibility Score: inf
ROOT
ATOM      1  C   UNL A   1      38.594  30.984  34.988  1.00  0.00     0.188 C 
ENDROOT
BRANCH   1   2
ATOM      2  O   UNL A   1      39.178  30.914  33.683  1.00  0.00    -0.377 OA
BRANCH   2   3
ATOM      3  C   UNL A   1      38.943  31.986  32.777  1.00  0.00     0.188 C 
BRANCH   3   4
ATOM      4  C   UNL A   1      37.894  31.739  31.694  1.00  0.00     0.188 C 
BRANCH   4   5
ATOM      5  O   UNL A   1      38.315  31.072  30.509  1.00  0.00    -0.376 OA
BRANCH   5   6
ATOM      6  C   UNL A   1      38.394  31.915  29.362  1.00  0.00     0.202 C 
BRANCH   6   7
ATOM      7  C   UNL A   1      37.176  32.794  29.082  1.00  0.00     0.261 C 
BRANCH   7   8
ATOM      8  O   UNL A   1      35.991  32.012  28.963  1.00  0.00    -0.460 OA
BRANCH   8   9
ATOM      9  C   UNL A   1      35.112  32.453  28.042  1.00  0.00     0.338 C 
ATOM     10  O   UNL A   1      35.069  33.532  27.488  1.00  0.00    -0.246 OA
BRANCH   9  11
ATOM     11  C   UNL A   1      34.453  31.245  27.533  1.00  0.00     0.060 A 
ATOM     12  C   UNL A   1      33.297  28.757  27.062  1.00  0.00    -0.025 A 
ATOM     13  C   UNL A   1      34.678  28.872  27.288  1.00  0.00     0.009 A 
ATOM     14  C   UNL A   1      32.502  29.912  27.048  1.00  0.00     0.009 A 
ATOM     15  C   UNL A   1      35.258  30.109  27.506  1.00  0.00     0.016 A 
ATOM     16  C   UNL A   1      33.074  31.160  27.311  1.00  0.00     0.016 A 
BRANCH  12  17
ATOM     17  C   UNL A   1      32.831  27.405  26.755  1.00  0.00     0.022 C 
ATOM     18  N   UNL A   1      32.363  24.798  24.625  1.00  0.00    -0.242 N 
ATOM     19  C   UNL A   1      31.969  25.421  25.817  1.00  0.00     0.265 C 
ATOM     20  C   UNL A   1      32.249  25.506  23.401  1.00  0.00     0.265 C 
ATOM     21  O   UNL A   1      31.553  24.912  26.855  1.00  0.00    -0.268 OA
ATOM     22  C   UNL A   1      32.071  26.906  25.765  1.00  0.00     0.049 C 
ATOM     23  C   UNL A   1      31.545  26.828  23.424  1.00  0.00     0.048 A 
ATOM     24  O   UNL A   1      32.629  25.137  22.292  1.00  0.00    -0.268 OA
ATOM     25  C   UNL A   1      31.448  27.539  24.620  1.00  0.00    -0.000 A 
ATOM     26  C   UNL A   1      30.975  27.346  22.255  1.00  0.00     0.014 A 
ATOM     27  C   UNL A   1      30.714  28.729  24.668  1.00  0.00     0.010 A 
ATOM     28  C   UNL A   1      30.269  28.549  22.298  1.00  0.00     0.001 A 
ATOM     29  C   UNL A   1      30.128  29.233  23.505  1.00  0.00     0.001 A 
BRANCH  18  30
ATOM     30  C   UNL A   1      32.826  23.405  24.663  1.00  0.00     0.053 A 
ATOM     31  C   UNL A   1      36.015  21.447  25.547  1.00  0.00     0.044 C 
ATOM     32  C   UNL A   1      34.612  21.734  25.097  1.00  0.00    -0.049 A 
ATOM     33  C   UNL A   1      33.743  20.694  24.789  1.00  0.00     0.003 A 
ATOM     34  C   UNL A   1      34.147  23.061  25.021  1.00  0.00     0.030 A 
ATOM     35  C   UNL A   1      32.445  20.989  24.392  1.00  0.00     0.002 A 
ATOM     36  C   UNL A   1      31.999  22.319  24.327  1.00  0.00     0.027 A 
ENDBRANCH  18  30
ENDBRANCH  12  17
ENDBRANCH   9  11
ENDBRANCH   8   9
ENDBRANCH   7   8
ENDBRANCH   6   7
ENDBRANCH   5   6
ENDBRANCH   4   5
ENDBRANCH   3   4
ENDBRANCH   2   3
ENDBRANCH   1   2
BRANCH   1  37
ATOM     37  C   UNL A   1      38.025  32.325  35.435  1.00  0.00     0.188 C 
BRANCH  37  38
ATOM     38  O   UNL A   1      38.943  32.882  36.384  1.00  0.00    -0.376 OA
BRANCH  38  39
ATOM     39  C   UNL A   1      39.619  34.059  35.969  1.00  0.00     0.202 C 
BRANCH  39  40
ATOM     40  C   UNL A   1      40.343  34.800  37.098  1.00  0.00     0.261 C 
BRANCH  40  41
ATOM     41  O   UNL A   1      41.216  35.830  36.585  1.00  0.00    -0.460 OA
BRANCH  41  42
ATOM     42  C   UNL A   1      42.509  35.452  36.364  1.00  0.00     0.338 C 
ATOM     43  O   UNL A   1      43.164  34.798  37.156  1.00  0.00    -0.246 OA
BRANCH  42  44
ATOM     44  C   UNL A   1      42.951  35.842  34.999  1.00  0.00     0.060 A 
ATOM     45  C   UNL A   1      42.188  35.554  33.859  1.00  0.00     0.016 A 
ATOM     46  C   UNL A   1      44.208  36.404  34.846  1.00  0.00     0.016 A 
ATOM     47  C   UNL A   1      42.750  35.672  32.569  1.00  0.00     0.010 A 
ATOM     48  C   UNL A   1      44.767  36.463  33.588  1.00  0.00     0.010 A 
ATOM     49  C   UNL A   1      44.078  36.068  32.429  1.00  0.00    -0.014 A 
BRANCH  49  50
ATOM     50  C   UNL A   1      44.925  35.990  31.211  1.00  0.00     0.031 A 
ATOM     51  C   UNL A   1      45.535  34.661  30.829  1.00  0.00     0.074 A 
ATOM     52  C   UNL A   1      44.750  36.949  30.263  1.00  0.00     0.049 A 
ATOM     53  N   UNL A   1      46.114  34.394  29.705  1.00  0.00    -0.248 NA
ATOM     54  C   UNL A   1      45.525  33.484  31.706  1.00  0.00     0.031 C 
ATOM     55  C   UNL A   1      44.795  36.757  28.807  1.00  0.00     0.029 A 
ATOM     56  N   UNL A   1      44.406  38.294  30.357  1.00  0.00    -0.354 N 
ATOM     57  C   UNL A   1      46.180  33.016  29.559  1.00  0.00     0.074 A 
ATOM     58  C   UNL A   1      45.914  32.506  30.878  1.00  0.00     0.031 C 
ATOM     59  C   UNL A   1      44.596  37.922  28.174  1.00  0.00     0.029 A 
ATOM     60  C   UNL A   1      44.774  38.944  29.173  1.00  0.00     0.049 A 
ATOM     61  H   UNL A   1      43.976  38.720  31.133  1.00  0.00     0.167 HD
ATOM     62  C   UNL A   1      46.289  32.474  28.304  1.00  0.00     0.037 A 
ATOM     63  C   UNL A   1      45.802  39.845  29.101  1.00  0.00     0.037 A 
ATOM     64  C   UNL A   1      46.583  33.515  27.299  1.00  0.00     0.049 A 
ATOM     65  C   UNL A   1      46.976  39.297  28.283  1.00  0.00     0.074 A 
ATOM     66  C   UNL A   1      46.034  33.872  26.081  1.00  0.00     0.029 A 
ATOM     67  N   UNL A   1      47.534  34.497  27.581  1.00  0.00    -0.354 N 
ATOM     68  N   UNL A   1      47.154  38.013  28.063  1.00  0.00    -0.248 NA
ATOM     69  C   UNL A   1      47.967  40.095  27.563  1.00  0.00     0.031 C 
ATOM     70  C   UNL A   1      46.513  35.171  25.744  1.00  0.00     0.029 A 
ATOM     71  C   UNL A   1      47.474  35.535  26.677  1.00  0.00     0.049 A 
ATOM     72  H   UNL A   1      48.169  34.455  28.332  1.00  0.00     0.167 HD
ATOM     73  C   UNL A   1      48.165  37.806  27.169  1.00  0.00     0.074 A 
ATOM     74  C   UNL A   1      48.671  39.143  26.913  1.00  0.00     0.031 C 
ATOM     75  C   UNL A   1      48.499  36.571  26.680  1.00  0.00     0.037 A 
BRANCH  62  76
ATOM     76  C   UNL A   1      45.919  31.031  27.905  1.00  0.00     0.058 A 
ATOM     77  C   UNL A   1      46.849  29.975  28.072  1.00  0.00     0.135 A 
ATOM     78  C   UNL A   1      44.732  30.638  27.241  1.00  0.00     0.135 A 
ATOM     79  F   UNL A   1      48.018  30.179  28.695  1.00  0.00    -0.206 F 
ATOM     80  C   UNL A   1      46.633  28.664  27.610  1.00  0.00     0.059 A 
ATOM     81  C   UNL A   1      44.468  29.321  26.825  1.00  0.00     0.059 A 
ATOM     82  F   UNL A   1      43.781  31.523  26.914  1.00  0.00    -0.206 F 
ATOM     83  C   UNL A   1      45.434  28.340  26.992  1.00  0.00     0.060 A 
BRANCH  83  84
ATOM     84  S   UNL A   1      45.136  26.639  26.450  1.00  0.00     0.124 S 
ATOM     85  O   UNL A   1      44.377  26.832  25.220  1.00  0.00    -0.237 OA
ATOM     86  O   UNL A   1      46.489  26.117  26.285  1.00  0.00    -0.237 OA
ATOM     87  O   UNL A   1      44.385  26.056  27.560  1.00  0.00    -0.744 OA
ENDBRANCH  83  84
ENDBRANCH  62  76
BRANCH  63  88
ATOM     88  C   UNL A   1      45.722  40.880  30.182  1.00  0.00     0.058 A 
ATOM     89  C   UNL A   1      44.514  41.616  30.161  1.00  0.00     0.135 A 
ATOM     90  C   UNL A   1      46.270  40.602  31.447  1.00  0.00     0.135 A 
ATOM     91  F   UNL A   1      43.979  41.983  28.985  1.00  0.00    -0.206 F 
ATOM     92  C   UNL A   1      43.730  41.763  31.304  1.00  0.00     0.059 A 
ATOM     93  C   UNL A   1      45.505  40.757  32.612  1.00  0.00     0.059 A 
ATOM     94  F   UNL A   1      47.434  39.943  31.544  1.00  0.00    -0.206 F 
ATOM     95  C   UNL A   1      44.198  41.246  32.508  1.00  0.00     0.060 A 
BRANCH  95  96
ATOM     96  S   UNL A   1      42.986  40.946  33.828  1.00  0.00     0.124 S 
ATOM     97  O   UNL A   1      41.832  41.701  33.360  1.00  0.00    -0.237 OA
ATOM     98  O   UNL A   1      42.858  39.491  33.795  1.00  0.00    -0.237 OA
ATOM     99  O   UNL A   1      43.658  41.476  35.008  1.00  0.00    -0.744 OA
ENDBRANCH  95  96
ENDBRANCH  63  88
BRANCH  75 100
ATOM    100  C   UNL A   1      49.849  36.183  26.104  1.00  0.00     0.058 A 
ATOM    101  C   UNL A   1      50.248  36.522  24.803  1.00  0.00     0.135 A 
ATOM    102  C   UNL A   1      50.882  35.675  26.941  1.00  0.00     0.135 A 
ATOM    103  F   UNL A   1      49.400  37.098  23.938  1.00  0.00    -0.206 F 
ATOM    104  C   UNL A   1      51.555  36.339  24.352  1.00  0.00     0.059 A 
ATOM    105  C   UNL A   1      52.203  35.543  26.529  1.00  0.00     0.059 A 
ATOM    106  F   UNL A   1      50.655  35.311  28.210  1.00  0.00    -0.206 F 
ATOM    107  C   UNL A   1      52.528  35.860  25.224  1.00  0.00     0.060 A 
BRANCH 107 108
ATOM    108  S   UNL A   1      54.226  35.702  24.653  1.00  0.00     0.124 S 
ATOM    109  O   UNL A   1      54.625  34.447  25.284  1.00  0.00    -0.237 OA
ATOM    110  O   UNL A   1      54.070  35.658  23.202  1.00  0.00    -0.237 OA
ATOM    111  O   UNL A   1      54.874  36.903  25.170  1.00  0.00    -0.744 OA
ENDBRANCH 107 108
ENDBRANCH  75 100
ENDBRANCH  49  50
ENDBRANCH  42  44
ENDBRANCH  41  42
ENDBRANCH  40  41
ENDBRANCH  39  40
ENDBRANCH  38  39
ENDBRANCH  37  38
ENDBRANCH   1  37
TORSDOF 25
ENDMDL
