MODEL 1
REMARK VINA RESULT:     -11.2      0.000      0.000
REMARK SMILES O=C(CCC(=O)N1N=C(c2ccc(F)cc2)C[C@@H]1c1ccc2nccnc2c1)OCCOCCOCCOCCOC(=O)c1ccc(-c2c3nc(c(-c4c(F)cc(S(=O)(=O)[O-])cc4F)c4ccc([nH]4)c(-c4c(F)cc(S(=O)(=O)[O-])cc4F)c4nc(c(-c5c(F)cc(S(=O)(=O)[O-])cc5F)c5ccc2[nH]5)C=C4)C=C3)cc1
REMARK SMILES IDX 34 1 33 2 32 3 31 4 30 5 29 6 2 7 1 8 3 9 4 10 5 11 6 12
REMARK SMILES IDX 7 13 8 14 18 15 9 16 17 17 19 18 20 19 28 20 21 21 27 22
REMARK SMILES IDX 22 23 26 24 23 25 25 26 24 27 10 28 11 29 16 30 12 31 15 32
REMARK SMILES IDX 13 33 14 34 35 35 36 36 37 37 38 38 39 39 40 40 41 41 42 42
REMARK SMILES IDX 43 43 44 44 45 45 109 46 46 47 108 48 47 49 48 50 49 51
REMARK SMILES IDX 102 52 50 53 107 54 101 55 103 56 51 57 106 58 100 59 99 60
REMARK SMILES IDX 52 62 86 63 65 64 85 65 66 66 69 67 84 68 104 69 67 70 68 71
REMARK SMILES IDX 83 73 105 74 70 75 53 76 54 77 63 78 55 79 56 80 62 81 64 82
REMARK SMILES IDX 57 83 58 84 59 85 60 86 61 87 87 88 88 89 97 90 89 91 90 92
REMARK SMILES IDX 96 93 98 94 91 95 92 96 93 97 94 98 95 99 71 100 72 101
REMARK SMILES IDX 81 102 73 103 74 104 80 105 82 106 75 107 76 108 77 109
REMARK SMILES IDX 78 110 79 111
REMARK H PARENT 103 61 69 72
REMARK Flexibility Score: inf
ROOT
ATOM      1  C   UNL A   1      32.632  31.300  26.656  1.00  0.00     0.188 C 
ENDROOT
BRANCH   1   2
ATOM      2  C   UNL A   1      32.381  29.843  26.060  1.00  0.00     0.188 C 
BRANCH   2   3
ATOM      3  O   UNL A   1      33.483  29.195  25.395  1.00  0.00    -0.376 OA
BRANCH   3   4
ATOM      4  C   UNL A   1      33.261  27.845  24.974  1.00  0.00     0.202 C 
BRANCH   4   5
ATOM      5  C   UNL A   1      31.773  27.521  25.105  1.00  0.00     0.261 C 
BRANCH   5   6
ATOM      6  O   UNL A   1      31.594  26.161  24.678  1.00  0.00    -0.463 OA
BRANCH   6   7
ATOM      7  C   UNL A   1      31.128  25.241  25.542  1.00  0.00     0.306 C 
ATOM      8  O   UNL A   1      30.456  25.491  26.535  1.00  0.00    -0.252 OA
BRANCH   7   9
ATOM      9  C   UNL A   1      31.165  23.892  24.946  1.00  0.00     0.132 C 
BRANCH   9  10
ATOM     10  C   UNL A   1      31.311  22.870  26.058  1.00  0.00     0.114 C 
BRANCH  10  11
ATOM     11  C   UNL A   1      32.679  22.670  26.739  1.00  0.00     0.243 C 
ATOM     12  O   UNL A   1      32.712  22.996  27.935  1.00  0.00    -0.273 OA
BRANCH  11  13
ATOM     13  N   UNL A   1      33.760  22.002  26.141  1.00  0.00    -0.225 N 
ATOM     14  N   UNL A   1      33.637  20.630  26.307  1.00  0.00    -0.174 NA
ATOM     15  C   UNL A   1      34.707  22.268  24.996  1.00  0.00     0.147 C 
ATOM     16  C   UNL A   1      33.980  20.083  25.187  1.00  0.00     0.071 C 
ATOM     17  C   UNL A   1      34.510  21.002  24.137  1.00  0.00     0.091 C 
BRANCH  15  18
ATOM     18  C   UNL A   1      36.234  22.443  25.337  1.00  0.00    -0.021 A 
ATOM     19  C   UNL A   1      36.750  24.031  25.870  1.00  0.00     0.008 A 
ATOM     20  C   UNL A   1      37.324  21.053  25.513  1.00  0.00     0.036 A 
ATOM     21  C   UNL A   1      38.318  24.353  26.568  1.00  0.00     0.031 A 
ATOM     22  C   UNL A   1      38.989  21.219  26.224  1.00  0.00     0.089 A 
ATOM     23  C   UNL A   1      39.528  23.073  26.686  1.00  0.00     0.089 A 
ATOM     24  N   UNL A   1      40.205  20.052  25.968  1.00  0.00    -0.253 NA
ATOM     25  N   UNL A   1      41.262  23.358  26.575  1.00  0.00    -0.253 NA
ATOM     26  C   UNL A   1      41.837  20.512  25.963  1.00  0.00     0.132 A 
ATOM     27  C   UNL A   1      42.363  22.073  26.232  1.00  0.00     0.132 A 
ENDBRANCH  15  18
BRANCH  16  28
ATOM     28  C   UNL A   1      33.659  18.685  24.906  1.00  0.00    -0.002 A 
ATOM     29  C   UNL A   1      34.555  17.859  24.235  1.00  0.00     0.013 A 
ATOM     30  C   UNL A   1      32.497  18.176  25.506  1.00  0.00     0.013 A 
ATOM     31  C   UNL A   1      34.309  16.487  24.224  1.00  0.00     0.040 A 
ATOM     32  C   UNL A   1      32.253  16.808  25.473  1.00  0.00     0.040 A 
ATOM     33  C   UNL A   1      33.179  15.975  24.860  1.00  0.00     0.123 A 
ATOM     34  F   UNL A   1      33.025  14.651  24.951  1.00  0.00    -0.207 F 
ENDBRANCH  16  28
ENDBRANCH  11  13
ENDBRANCH  10  11
ENDBRANCH   9  10
ENDBRANCH   7   9
ENDBRANCH   6   7
ENDBRANCH   5   6
ENDBRANCH   4   5
ENDBRANCH   3   4
ENDBRANCH   2   3
ENDBRANCH   1   2
BRANCH   1  35
ATOM     35  O   UNL A   1      33.105  31.778  28.052  1.00  0.00    -0.377 OA
BRANCH  35  36
ATOM     36  C   UNL A   1      34.579  32.072  29.353  1.00  0.00     0.188 C 
BRANCH  36  37
ATOM     37  C   UNL A   1      35.965  32.970  28.449  1.00  0.00     0.188 C 
BRANCH  37  38
ATOM     38  O   UNL A   1      35.567  34.947  28.491  1.00  0.00    -0.376 OA
BRANCH  38  39
ATOM     39  C   UNL A   1      34.295  35.941  28.206  1.00  0.00     0.202 C 
BRANCH  39  40
ATOM     40  C   UNL A   1      32.864  36.000  28.982  1.00  0.00     0.261 C 
BRANCH  40  41
ATOM     41  O   UNL A   1      32.615  35.034  30.067  1.00  0.00    -0.460 OA
BRANCH  41  42
ATOM     42  C   UNL A   1      32.764  35.542  31.338  1.00  0.00     0.338 C 
ATOM     43  O   UNL A   1      31.979  36.299  31.895  1.00  0.00    -0.246 OA
BRANCH  42  44
ATOM     44  C   UNL A   1      33.867  34.870  32.108  1.00  0.00     0.060 A 
ATOM     45  C   UNL A   1      35.143  35.459  32.069  1.00  0.00     0.016 A 
ATOM     46  C   UNL A   1      33.718  33.666  32.793  1.00  0.00     0.016 A 
ATOM     47  C   UNL A   1      36.229  34.933  32.774  1.00  0.00     0.010 A 
ATOM     48  C   UNL A   1      34.841  33.069  33.413  1.00  0.00     0.010 A 
ATOM     49  C   UNL A   1      36.106  33.691  33.396  1.00  0.00    -0.014 A 
BRANCH  49  50
ATOM     50  C   UNL A   1      37.350  32.940  33.741  1.00  0.00     0.031 A 
ATOM     51  C   UNL A   1      37.902  33.115  35.139  1.00  0.00     0.074 A 
ATOM     52  C   UNL A   1      37.971  32.106  32.884  1.00  0.00     0.049 A 
ATOM     53  N   UNL A   1      39.020  32.674  35.654  1.00  0.00    -0.248 NA
ATOM     54  C   UNL A   1      37.073  33.884  36.085  1.00  0.00     0.031 C 
ATOM     55  C   UNL A   1      37.502  31.753  31.545  1.00  0.00     0.029 A 
ATOM     56  N   UNL A   1      39.153  31.406  33.014  1.00  0.00    -0.354 N 
ATOM     57  C   UNL A   1      39.027  33.115  36.974  1.00  0.00     0.074 A 
ATOM     58  C   UNL A   1      37.798  33.842  37.190  1.00  0.00     0.031 C 
ATOM     59  C   UNL A   1      38.405  30.939  30.965  1.00  0.00     0.029 A 
ATOM     60  C   UNL A   1      39.533  30.733  31.873  1.00  0.00     0.049 A 
ATOM     61  H   UNL A   1      39.677  31.390  33.847  1.00  0.00     0.167 HD
ATOM     62  C   UNL A   1      39.981  32.959  37.920  1.00  0.00     0.037 A 
ATOM     63  C   UNL A   1      40.674  30.070  31.584  1.00  0.00     0.037 A 
ATOM     64  C   UNL A   1      41.233  32.296  37.699  1.00  0.00     0.049 A 
ATOM     65  C   UNL A   1      41.781  30.017  32.616  1.00  0.00     0.074 A 
ATOM     66  C   UNL A   1      42.299  32.156  38.569  1.00  0.00     0.029 A 
ATOM     67  N   UNL A   1      41.595  31.678  36.513  1.00  0.00    -0.354 N 
ATOM     68  N   UNL A   1      41.791  30.481  33.844  1.00  0.00    -0.248 NA
ATOM     69  C   UNL A   1      43.044  29.374  32.213  1.00  0.00     0.031 C 
ATOM     70  C   UNL A   1      43.323  31.484  37.894  1.00  0.00     0.029 A 
ATOM     71  C   UNL A   1      42.875  31.168  36.622  1.00  0.00     0.049 A 
ATOM     72  H   UNL A   1      41.025  31.611  35.713  1.00  0.00     0.167 HD
ATOM     73  C   UNL A   1      43.051  30.177  34.357  1.00  0.00     0.074 A 
ATOM     74  C   UNL A   1      43.771  29.476  33.319  1.00  0.00     0.031 C 
ATOM     75  C   UNL A   1      43.569  30.460  35.577  1.00  0.00     0.037 A 
BRANCH  62  76
ATOM     76  C   UNL A   1      39.727  33.581  39.263  1.00  0.00     0.058 A 
ATOM     77  C   UNL A   1      40.374  34.772  39.627  1.00  0.00     0.135 A 
ATOM     78  C   UNL A   1      38.850  32.996  40.190  1.00  0.00     0.135 A 
ATOM     79  F   UNL A   1      41.205  35.380  38.767  1.00  0.00    -0.206 F 
ATOM     80  C   UNL A   1      40.170  35.357  40.871  1.00  0.00     0.059 A 
ATOM     81  C   UNL A   1      38.616  33.575  41.433  1.00  0.00     0.059 A 
ATOM     82  F   UNL A   1      38.180  31.877  39.872  1.00  0.00    -0.206 F 
ATOM     83  C   UNL A   1      39.290  34.750  41.769  1.00  0.00     0.060 A 
BRANCH  83  84
ATOM     84  S   UNL A   1      38.999  35.548  43.362  1.00  0.00     0.124 S 
ATOM     85  O   UNL A   1      37.567  35.343  43.543  1.00  0.00    -0.237 OA
ATOM     86  O   UNL A   1      39.869  34.784  44.252  1.00  0.00    -0.237 OA
ATOM     87  O   UNL A   1      39.415  36.928  43.128  1.00  0.00    -0.744 OA
ENDBRANCH  83  84
ENDBRANCH  62  76
BRANCH  63  88
ATOM     88  C   UNL A   1      40.905  29.471  30.235  1.00  0.00     0.058 A 
ATOM     89  C   UNL A   1      41.719  30.112  29.290  1.00  0.00     0.135 A 
ATOM     90  C   UNL A   1      40.403  28.202  29.900  1.00  0.00     0.135 A 
ATOM     91  F   UNL A   1      42.221  31.329  29.551  1.00  0.00    -0.206 F 
ATOM     92  C   UNL A   1      42.042  29.517  28.075  1.00  0.00     0.059 A 
ATOM     93  C   UNL A   1      40.730  27.573  28.698  1.00  0.00     0.059 A 
ATOM     94  F   UNL A   1      39.626  27.541  30.772  1.00  0.00    -0.206 F 
ATOM     95  C   UNL A   1      41.565  28.235  27.797  1.00  0.00     0.060 A 
BRANCH  95  96
ATOM     96  S   UNL A   1      42.068  27.454  26.244  1.00  0.00     0.124 S 
ATOM     97  O   UNL A   1      43.269  26.723  26.640  1.00  0.00    -0.237 OA
ATOM     98  O   UNL A   1      40.902  26.628  25.947  1.00  0.00    -0.237 OA
ATOM     99  O   UNL A   1      42.281  28.582  25.345  1.00  0.00    -0.744 OA
ENDBRANCH  95  96
ENDBRANCH  63  88
BRANCH  75 100
ATOM    100  C   UNL A   1      44.968  30.000  35.879  1.00  0.00     0.058 A 
ATOM    101  C   UNL A   1      46.070  30.738  35.422  1.00  0.00     0.135 A 
ATOM    102  C   UNL A   1      45.214  28.775  36.516  1.00  0.00     0.135 A 
ATOM    103  F   UNL A   1      45.887  31.914  34.798  1.00  0.00    -0.206 F 
ATOM    104  C   UNL A   1      47.370  30.266  35.563  1.00  0.00     0.059 A 
ATOM    105  C   UNL A   1      46.509  28.292  36.688  1.00  0.00     0.059 A 
ATOM    106  F   UNL A   1      44.193  28.036  36.978  1.00  0.00    -0.206 F 
ATOM    107  C   UNL A   1      47.579  29.036  36.188  1.00  0.00     0.060 A 
BRANCH 107 108
ATOM    108  S   UNL A   1      49.272  28.428  36.348  1.00  0.00     0.124 S 
ATOM    109  O   UNL A   1      49.959  29.598  36.885  1.00  0.00    -0.237 OA
ATOM    110  O   UNL A   1      49.113  27.308  37.269  1.00  0.00    -0.237 OA
ATOM    111  O   UNL A   1      49.631  28.062  34.980  1.00  0.00    -0.744 OA
ENDBRANCH 107 108
ENDBRANCH  75 100
ENDBRANCH  49  50
ENDBRANCH  42  44
ENDBRANCH  41  42
ENDBRANCH  40  41
ENDBRANCH  39  40
ENDBRANCH  38  39
ENDBRANCH  37  38
ENDBRANCH  36  37
ENDBRANCH  35  36
ENDBRANCH   1  35
TORSDOF 28
ENDMDL
MODEL 2
REMARK VINA RESULT:      -9.5      1.382      2.201
REMARK SMILES O=C(CCC(=O)N1N=C(c2ccc(F)cc2)C[C@@H]1c1ccc2nccnc2c1)OCCOCCOCCOCCOC(=O)c1ccc(-c2c3nc(c(-c4c(F)cc(S(=O)(=O)[O-])cc4F)c4ccc([nH]4)c(-c4c(F)cc(S(=O)(=O)[O-])cc4F)c4nc(c(-c5c(F)cc(S(=O)(=O)[O-])cc5F)c5ccc2[nH]5)C=C4)C=C3)cc1
REMARK SMILES IDX 34 1 33 2 32 3 31 4 30 5 29 6 2 7 1 8 3 9 4 10 5 11 6 12
REMARK SMILES IDX 7 13 8 14 18 15 9 16 17 17 19 18 20 19 28 20 21 21 27 22
REMARK SMILES IDX 22 23 26 24 23 25 25 26 24 27 10 28 11 29 16 30 12 31 15 32
REMARK SMILES IDX 13 33 14 34 35 35 36 36 37 37 38 38 39 39 40 40 41 41 42 42
REMARK SMILES IDX 43 43 44 44 45 45 109 46 46 47 108 48 47 49 48 50 49 51
REMARK SMILES IDX 102 52 50 53 107 54 101 55 103 56 51 57 106 58 100 59 99 60
REMARK SMILES IDX 52 62 86 63 65 64 85 65 66 66 69 67 84 68 104 69 67 70 68 71
REMARK SMILES IDX 83 73 105 74 70 75 53 76 54 77 63 78 55 79 56 80 62 81 64 82
REMARK SMILES IDX 57 83 58 84 59 85 60 86 61 87 87 88 88 89 97 90 89 91 90 92
REMARK SMILES IDX 96 93 98 94 91 95 92 96 93 97 94 98 95 99 71 100 72 101
REMARK SMILES IDX 81 102 73 103 74 104 80 105 82 106 75 107 76 108 77 109
REMARK SMILES IDX 78 110 79 111
REMARK H PARENT 103 61 69 72
REMARK Flexibility Score: inf
ROOT
ATOM      1  C   UNL A   1      32.288  31.215  26.488  1.00  0.00     0.188 C 
ENDROOT
BRANCH   1   2
ATOM      2  C   UNL A   1      31.914  29.953  25.589  1.00  0.00     0.188 C 
BRANCH   2   3
ATOM      3  O   UNL A   1      32.921  29.453  24.689  1.00  0.00    -0.376 OA
BRANCH   3   4
ATOM      4  C   UNL A   1      32.837  28.064  24.356  1.00  0.00     0.202 C 
BRANCH   4   5
ATOM      5  C   UNL A   1      31.524  27.500  24.899  1.00  0.00     0.261 C 
BRANCH   5   6
ATOM      6  O   UNL A   1      31.516  26.091  24.617  1.00  0.00    -0.463 OA
BRANCH   6   7
ATOM      7  C   UNL A   1      31.329  25.207  25.614  1.00  0.00     0.306 C 
ATOM      8  O   UNL A   1      30.888  25.486  26.722  1.00  0.00    -0.252 OA
BRANCH   7   9
ATOM      9  C   UNL A   1      31.326  23.825  25.099  1.00  0.00     0.132 C 
BRANCH   9  10
ATOM     10  C   UNL A   1      31.602  22.874  26.249  1.00  0.00     0.114 C 
BRANCH  10  11
ATOM     11  C   UNL A   1      33.017  22.793  26.852  1.00  0.00     0.243 C 
ATOM     12  O   UNL A   1      33.098  23.168  28.032  1.00  0.00    -0.273 OA
BRANCH  11  13
ATOM     13  N   UNL A   1      34.105  22.176  26.214  1.00  0.00    -0.225 N 
ATOM     14  N   UNL A   1      33.979  20.795  26.261  1.00  0.00    -0.174 NA
ATOM     15  C   UNL A   1      35.068  22.536  25.108  1.00  0.00     0.147 C 
ATOM     16  C   UNL A   1      34.336  20.345  25.103  1.00  0.00     0.071 C 
ATOM     17  C   UNL A   1      34.881  21.348  24.142  1.00  0.00     0.091 C 
BRANCH  15  18
ATOM     18  C   UNL A   1      36.590  22.678  25.482  1.00  0.00    -0.021 A 
ATOM     19  C   UNL A   1      37.103  24.216  26.148  1.00  0.00     0.008 A 
ATOM     20  C   UNL A   1      37.675  21.275  25.559  1.00  0.00     0.036 A 
ATOM     21  C   UNL A   1      38.662  24.476  26.891  1.00  0.00     0.031 A 
ATOM     22  C   UNL A   1      39.330  21.377  26.304  1.00  0.00     0.089 A 
ATOM     23  C   UNL A   1      39.867  23.186  26.922  1.00  0.00     0.089 A 
ATOM     24  N   UNL A   1      40.547  20.231  25.971  1.00  0.00    -0.253 NA
ATOM     25  N   UNL A   1      41.603  23.474  26.857  1.00  0.00    -0.253 NA
ATOM     26  C   UNL A   1      42.181  20.684  26.024  1.00  0.00     0.132 A 
ATOM     27  C   UNL A   1      42.706  22.217  26.426  1.00  0.00     0.132 A 
ENDBRANCH  15  18
BRANCH  16  28
ATOM     28  C   UNL A   1      34.017  18.976  24.700  1.00  0.00    -0.002 A 
ATOM     29  C   UNL A   1      35.006  18.003  24.604  1.00  0.00     0.013 A 
ATOM     30  C   UNL A   1      32.656  18.653  24.601  1.00  0.00     0.013 A 
ATOM     31  C   UNL A   1      34.614  16.672  24.470  1.00  0.00     0.040 A 
ATOM     32  C   UNL A   1      32.277  17.324  24.449  1.00  0.00     0.040 A 
ATOM     33  C   UNL A   1      33.260  16.344  24.419  1.00  0.00     0.123 A 
ATOM     34  F   UNL A   1      32.899  15.059  24.420  1.00  0.00    -0.207 F 
ENDBRANCH  16  28
ENDBRANCH  11  13
ENDBRANCH  10  11
ENDBRANCH   9  10
ENDBRANCH   7   9
ENDBRANCH   6   7
ENDBRANCH   5   6
ENDBRANCH   4   5
ENDBRANCH   3   4
ENDBRANCH   2   3
ENDBRANCH   1   2
BRANCH   1  35
ATOM     35  O   UNL A   1      33.073  31.340  27.818  1.00  0.00    -0.377 OA
BRANCH  35  36
ATOM     36  C   UNL A   1      34.809  31.498  28.774  1.00  0.00     0.188 C 
BRANCH  36  37
ATOM     37  C   UNL A   1      35.945  32.564  27.717  1.00  0.00     0.188 C 
BRANCH  37  38
ATOM     38  O   UNL A   1      35.146  34.413  27.601  1.00  0.00    -0.376 OA
BRANCH  38  39
ATOM     39  C   UNL A   1      33.767  35.176  28.053  1.00  0.00     0.202 C 
BRANCH  39  40
ATOM     40  C   UNL A   1      32.912  34.987  29.427  1.00  0.00     0.261 C 
BRANCH  40  41
ATOM     41  O   UNL A   1      33.537  34.264  30.548  1.00  0.00    -0.460 OA
BRANCH  41  42
ATOM     42  C   UNL A   1      33.611  34.974  31.725  1.00  0.00     0.338 C 
ATOM     43  O   UNL A   1      32.759  35.750  32.139  1.00  0.00    -0.246 OA
BRANCH  42  44
ATOM     44  C   UNL A   1      34.733  34.513  32.613  1.00  0.00     0.060 A 
ATOM     45  C   UNL A   1      36.017  35.032  32.367  1.00  0.00     0.016 A 
ATOM     46  C   UNL A   1      34.591  33.553  33.613  1.00  0.00     0.016 A 
ATOM     47  C   UNL A   1      37.121  34.693  33.153  1.00  0.00     0.010 A 
ATOM     48  C   UNL A   1      35.729  33.120  34.336  1.00  0.00     0.010 A 
ATOM     49  C   UNL A   1      37.003  33.678  34.102  1.00  0.00    -0.014 A 
BRANCH  49  50
ATOM     50  C   UNL A   1      38.247  33.018  34.601  1.00  0.00     0.031 A 
ATOM     51  C   UNL A   1      38.567  33.162  36.072  1.00  0.00     0.074 A 
ATOM     52  C   UNL A   1      39.063  32.290  33.813  1.00  0.00     0.049 A 
ATOM     53  N   UNL A   1      39.633  32.790  36.732  1.00  0.00    -0.248 NA
ATOM     54  C   UNL A   1      37.539  33.803  36.912  1.00  0.00     0.031 C 
ATOM     55  C   UNL A   1      38.831  31.974  32.405  1.00  0.00     0.029 A 
ATOM     56  N   UNL A   1      40.272  31.689  34.092  1.00  0.00    -0.354 N 
ATOM     57  C   UNL A   1      39.403  33.156  38.056  1.00  0.00     0.074 A 
ATOM     58  C   UNL A   1      38.094  33.761  38.113  1.00  0.00     0.031 C 
ATOM     59  C   UNL A   1      39.883  31.275  31.934  1.00  0.00     0.029 A 
ATOM     60  C   UNL A   1      40.878  31.116  32.995  1.00  0.00     0.049 A 
ATOM     61  H   UNL A   1      40.667  31.672  34.993  1.00  0.00     0.167 HD
ATOM     62  C   UNL A   1      40.217  33.031  39.128  1.00  0.00     0.037 A 
ATOM     63  C   UNL A   1      42.106  30.571  32.854  1.00  0.00     0.037 A 
ATOM     64  C   UNL A   1      41.545  32.491  39.072  1.00  0.00     0.049 A 
ATOM     65  C   UNL A   1      43.049  30.556  34.040  1.00  0.00     0.074 A 
ATOM     66  C   UNL A   1      42.479  32.394  40.088  1.00  0.00     0.029 A 
ATOM     67  N   UNL A   1      42.134  31.974  37.930  1.00  0.00    -0.354 N 
ATOM     68  N   UNL A   1      42.834  30.949  35.273  1.00  0.00    -0.248 NA
ATOM     69  C   UNL A   1      44.412  30.048  33.807  1.00  0.00     0.031 C 
ATOM     70  C   UNL A   1      43.650  31.852  39.549  1.00  0.00     0.029 A 
ATOM     71  C   UNL A   1      43.426  31.570  38.211  1.00  0.00     0.049 A 
ATOM     72  H   UNL A   1      41.698  31.903  37.050  1.00  0.00     0.167 HD
ATOM     73  C   UNL A   1      44.027  30.726  35.959  1.00  0.00     0.074 A 
ATOM     74  C   UNL A   1      44.955  30.149  35.014  1.00  0.00     0.031 C 
ATOM     75  C   UNL A   1      44.331  30.985  37.255  1.00  0.00     0.037 A 
BRANCH  62  76
ATOM     76  C   UNL A   1      39.710  33.552  40.442  1.00  0.00     0.058 A 
ATOM     77  C   UNL A   1      39.127  32.678  41.373  1.00  0.00     0.135 A 
ATOM     78  C   UNL A   1      39.795  34.912  40.775  1.00  0.00     0.135 A 
ATOM     79  F   UNL A   1      39.041  31.366  41.108  1.00  0.00    -0.206 F 
ATOM     80  C   UNL A   1      38.632  33.139  42.587  1.00  0.00     0.059 A 
ATOM     81  C   UNL A   1      39.325  35.391  41.995  1.00  0.00     0.059 A 
ATOM     82  F   UNL A   1      40.379  35.779  39.933  1.00  0.00    -0.206 F 
ATOM     83  C   UNL A   1      38.735  34.498  42.889  1.00  0.00     0.060 A 
BRANCH  83  84
ATOM     84  S   UNL A   1      38.131  35.072  44.491  1.00  0.00     0.124 S 
ATOM     85  O   UNL A   1      38.063  33.827  45.248  1.00  0.00    -0.237 OA
ATOM     86  O   UNL A   1      39.177  36.007  44.896  1.00  0.00    -0.237 OA
ATOM     87  O   UNL A   1      36.847  35.685  44.167  1.00  0.00    -0.744 OA
ENDBRANCH  83  84
ENDBRANCH  62  76
BRANCH  63  88
ATOM     88  C   UNL A   1      42.589  30.071  31.532  1.00  0.00     0.058 A 
ATOM     89  C   UNL A   1      42.405  28.732  31.156  1.00  0.00     0.135 A 
ATOM     90  C   UNL A   1      43.150  30.938  30.579  1.00  0.00     0.135 A 
ATOM     91  F   UNL A   1      41.880  27.855  32.027  1.00  0.00    -0.206 F 
ATOM     92  C   UNL A   1      42.740  28.274  29.886  1.00  0.00     0.059 A 
ATOM     93  C   UNL A   1      43.474  30.509  29.291  1.00  0.00     0.059 A 
ATOM     94  F   UNL A   1      43.339  32.231  30.885  1.00  0.00    -0.206 F 
ATOM     95  C   UNL A   1      43.249  29.175  28.950  1.00  0.00     0.060 A 
BRANCH  95  96
ATOM     96  S   UNL A   1      43.600  28.567  27.282  1.00  0.00     0.124 S 
ATOM     97  O   UNL A   1      42.744  29.416  26.457  1.00  0.00    -0.237 OA
ATOM     98  O   UNL A   1      45.031  28.829  27.176  1.00  0.00    -0.237 OA
ATOM     99  O   UNL A   1      43.224  27.159  27.343  1.00  0.00    -0.744 OA
ENDBRANCH  95  96
ENDBRANCH  63  88
BRANCH  75 100
ATOM    100  C   UNL A   1      45.706  30.630  37.746  1.00  0.00     0.058 A 
ATOM    101  C   UNL A   1      45.947  29.376  38.329  1.00  0.00     0.135 A 
ATOM    102  C   UNL A   1      46.749  31.568  37.745  1.00  0.00     0.135 A 
ATOM    103  F   UNL A   1      44.978  28.447  38.363  1.00  0.00    -0.206 F 
ATOM    104  C   UNL A   1      47.169  29.073  38.919  1.00  0.00     0.059 A 
ATOM    105  C   UNL A   1      47.988  31.278  38.310  1.00  0.00     0.059 A 
ATOM    106  F   UNL A   1      46.569  32.777  37.191  1.00  0.00    -0.206 F 
ATOM    107  C   UNL A   1      48.180  30.034  38.914  1.00  0.00     0.060 A 
BRANCH 107 108
ATOM    108  S   UNL A   1      49.756  29.630  39.699  1.00  0.00     0.124 S 
ATOM    109  O   UNL A   1      49.529  28.255  40.132  1.00  0.00    -0.237 OA
ATOM    110  O   UNL A   1      50.702  29.801  38.602  1.00  0.00    -0.237 OA
ATOM    111  O   UNL A   1      49.863  30.617  40.771  1.00  0.00    -0.744 OA
ENDBRANCH 107 108
ENDBRANCH  75 100
ENDBRANCH  49  50
ENDBRANCH  42  44
ENDBRANCH  41  42
ENDBRANCH  40  41
ENDBRANCH  39  40
ENDBRANCH  38  39
ENDBRANCH  37  38
ENDBRANCH  36  37
ENDBRANCH  35  36
ENDBRANCH   1  35
TORSDOF 28
ENDMDL
MODEL 3
REMARK VINA RESULT:      -9.5      4.996      7.334
REMARK SMILES O=C(CCC(=O)N1N=C(c2ccc(F)cc2)C[C@@H]1c1ccc2nccnc2c1)OCCOCCOCCOCCOC(=O)c1ccc(-c2c3nc(c(-c4c(F)cc(S(=O)(=O)[O-])cc4F)c4ccc([nH]4)c(-c4c(F)cc(S(=O)(=O)[O-])cc4F)c4nc(c(-c5c(F)cc(S(=O)(=O)[O-])cc5F)c5ccc2[nH]5)C=C4)C=C3)cc1
REMARK SMILES IDX 34 1 33 2 32 3 31 4 30 5 29 6 2 7 1 8 3 9 4 10 5 11 6 12
REMARK SMILES IDX 7 13 8 14 18 15 9 16 17 17 19 18 20 19 28 20 21 21 27 22
REMARK SMILES IDX 22 23 26 24 23 25 25 26 24 27 10 28 11 29 16 30 12 31 15 32
REMARK SMILES IDX 13 33 14 34 35 35 36 36 37 37 38 38 39 39 40 40 41 41 42 42
REMARK SMILES IDX 43 43 44 44 45 45 109 46 46 47 108 48 47 49 48 50 49 51
REMARK SMILES IDX 102 52 50 53 107 54 101 55 103 56 51 57 106 58 100 59 99 60
REMARK SMILES IDX 52 62 86 63 65 64 85 65 66 66 69 67 84 68 104 69 67 70 68 71
REMARK SMILES IDX 83 73 105 74 70 75 53 76 54 77 63 78 55 79 56 80 62 81 64 82
REMARK SMILES IDX 57 83 58 84 59 85 60 86 61 87 87 88 88 89 97 90 89 91 90 92
REMARK SMILES IDX 96 93 98 94 91 95 92 96 93 97 94 98 95 99 71 100 72 101
REMARK SMILES IDX 81 102 73 103 74 104 80 105 82 106 75 107 76 108 77 109
REMARK SMILES IDX 78 110 79 111
REMARK H PARENT 103 61 69 72
REMARK Flexibility Score: inf
ROOT
ATOM      1  C   UNL A   1      32.578  30.822  26.432  1.00  0.00     0.188 C 
ENDROOT
BRANCH   1   2
ATOM      2  C   UNL A   1      32.334  29.510  25.560  1.00  0.00     0.188 C 
BRANCH   2   3
ATOM      3  O   UNL A   1      33.447  28.995  24.804  1.00  0.00    -0.376 OA
BRANCH   3   4
ATOM      4  C   UNL A   1      33.293  27.674  24.274  1.00  0.00     0.202 C 
BRANCH   4   5
ATOM      5  C   UNL A   1      31.805  27.328  24.222  1.00  0.00     0.261 C 
BRANCH   5   6
ATOM      6  O   UNL A   1      31.704  25.909  24.023  1.00  0.00    -0.463 OA
BRANCH   6   7
ATOM      7  C   UNL A   1      30.993  25.158  24.883  1.00  0.00     0.306 C 
ATOM      8  O   UNL A   1      30.158  25.594  25.666  1.00  0.00    -0.252 OA
BRANCH   7   9
ATOM      9  C   UNL A   1      31.033  23.735  24.497  1.00  0.00     0.132 C 
BRANCH   9  10
ATOM     10  C   UNL A   1      31.023  22.887  25.756  1.00  0.00     0.114 C 
BRANCH  10  11
ATOM     11  C   UNL A   1      32.313  22.730  26.583  1.00  0.00     0.243 C 
ATOM     12  O   UNL A   1      32.229  23.132  27.753  1.00  0.00    -0.273 OA
BRANCH  11  13
ATOM     13  N   UNL A   1      33.444  22.024  26.141  1.00  0.00    -0.225 N 
ATOM     14  N   UNL A   1      33.263  20.659  26.309  1.00  0.00    -0.174 NA
ATOM     15  C   UNL A   1      34.539  22.246  25.125  1.00  0.00     0.147 C 
ATOM     16  C   UNL A   1      33.734  20.083  25.251  1.00  0.00     0.071 C 
ATOM     17  C   UNL A   1      34.421  20.969  24.267  1.00  0.00     0.091 C 
BRANCH  15  18
ATOM     18  C   UNL A   1      36.013  22.388  25.659  1.00  0.00    -0.021 A 
ATOM     19  C   UNL A   1      37.070  21.007  25.443  1.00  0.00     0.008 A 
ATOM     20  C   UNL A   1      36.693  23.955  26.139  1.00  0.00     0.036 A 
ATOM     21  C   UNL A   1      38.798  21.063  25.694  1.00  0.00     0.031 A 
ATOM     22  C   UNL A   1      38.472  24.184  26.435  1.00  0.00     0.089 A 
ATOM     23  C   UNL A   1      39.570  22.537  26.284  1.00  0.00     0.089 A 
ATOM     24  N   UNL A   1      39.080  25.494  27.341  1.00  0.00    -0.253 NA
ATOM     25  N   UNL A   1      41.004  22.542  27.306  1.00  0.00    -0.253 NA
ATOM     26  C   UNL A   1      40.524  25.327  28.214  1.00  0.00     0.132 A 
ATOM     27  C   UNL A   1      41.446  23.935  28.226  1.00  0.00     0.132 A 
ENDBRANCH  15  18
BRANCH  16  28
ATOM     28  C   UNL A   1      33.414  18.689  24.952  1.00  0.00    -0.002 A 
ATOM     29  C   UNL A   1      34.062  18.003  23.930  1.00  0.00     0.013 A 
ATOM     30  C   UNL A   1      32.569  18.031  25.858  1.00  0.00     0.013 A 
ATOM     31  C   UNL A   1      33.905  16.620  23.858  1.00  0.00     0.040 A 
ATOM     32  C   UNL A   1      32.406  16.654  25.766  1.00  0.00     0.040 A 
ATOM     33  C   UNL A   1      33.103  15.958  24.787  1.00  0.00     0.123 A 
ATOM     34  F   UNL A   1      33.065  14.624  24.785  1.00  0.00    -0.207 F 
ENDBRANCH  16  28
ENDBRANCH  11  13
ENDBRANCH  10  11
ENDBRANCH   9  10
ENDBRANCH   7   9
ENDBRANCH   6   7
ENDBRANCH   5   6
ENDBRANCH   4   5
ENDBRANCH   3   4
ENDBRANCH   2   3
ENDBRANCH   1   2
BRANCH   1  35
ATOM     35  O   UNL A   1      33.302  31.043  27.785  1.00  0.00    -0.377 OA
BRANCH  35  36
ATOM     36  C   UNL A   1      34.843  31.778  28.802  1.00  0.00     0.188 C 
BRANCH  36  37
ATOM     37  C   UNL A   1      35.463  33.296  27.877  1.00  0.00     0.188 C 
BRANCH  37  38
ATOM     38  O   UNL A   1      34.459  34.906  28.565  1.00  0.00    -0.376 OA
BRANCH  38  39
ATOM     39  C   UNL A   1      33.596  35.328  29.893  1.00  0.00     0.202 C 
BRANCH  39  40
ATOM     40  C   UNL A   1      33.913  34.988  31.454  1.00  0.00     0.261 C 
BRANCH  40  41
ATOM     41  O   UNL A   1      35.026  34.072  31.760  1.00  0.00    -0.460 OA
BRANCH  41  42
ATOM     42  C   UNL A   1      36.062  34.637  32.468  1.00  0.00     0.338 C 
ATOM     43  O   UNL A   1      35.939  35.399  33.418  1.00  0.00    -0.246 OA
BRANCH  42  44
ATOM     44  C   UNL A   1      37.395  34.026  32.136  1.00  0.00     0.060 A 
ATOM     45  C   UNL A   1      38.442  34.200  33.059  1.00  0.00     0.016 A 
ATOM     46  C   UNL A   1      37.673  33.363  30.942  1.00  0.00     0.016 A 
ATOM     47  C   UNL A   1      39.710  33.646  32.861  1.00  0.00     0.010 A 
ATOM     48  C   UNL A   1      38.986  32.901  30.686  1.00  0.00     0.010 A 
ATOM     49  C   UNL A   1      40.015  33.051  31.637  1.00  0.00    -0.014 A 
BRANCH  49  50
ATOM     50  C   UNL A   1      41.452  32.879  31.266  1.00  0.00     0.031 A 
ATOM     51  C   UNL A   1      42.132  31.597  31.694  1.00  0.00     0.074 A 
ATOM     52  C   UNL A   1      42.145  33.791  30.554  1.00  0.00     0.049 A 
ATOM     53  N   UNL A   1      43.390  31.251  31.602  1.00  0.00    -0.248 NA
ATOM     54  C   UNL A   1      41.272  30.563  32.297  1.00  0.00     0.031 C 
ATOM     55  C   UNL A   1      41.599  35.020  29.982  1.00  0.00     0.029 A 
ATOM     56  N   UNL A   1      43.476  33.823  30.198  1.00  0.00    -0.354 N 
ATOM     57  C   UNL A   1      43.467  29.969  32.138  1.00  0.00     0.074 A 
ATOM     58  C   UNL A   1      42.133  29.588  32.536  1.00  0.00     0.031 C 
ATOM     59  C   UNL A   1      42.595  35.704  29.385  1.00  0.00     0.029 A 
ATOM     60  C   UNL A   1      43.855  34.981  29.555  1.00  0.00     0.049 A 
ATOM     61  H   UNL A   1      44.100  33.086  30.388  1.00  0.00     0.167 HD
ATOM     62  C   UNL A   1      44.554  29.183  32.314  1.00  0.00     0.037 A 
ATOM     63  C   UNL A   1      45.078  35.423  29.189  1.00  0.00     0.037 A 
ATOM     64  C   UNL A   1      45.893  29.576  31.983  1.00  0.00     0.049 A 
ATOM     65  C   UNL A   1      46.296  34.581  29.511  1.00  0.00     0.074 A 
ATOM     66  C   UNL A   1      47.072  28.883  32.197  1.00  0.00     0.029 A 
ATOM     67  N   UNL A   1      46.233  30.777  31.384  1.00  0.00    -0.354 N 
ATOM     68  N   UNL A   1      46.358  33.392  30.062  1.00  0.00    -0.248 NA
ATOM     69  C   UNL A   1      47.614  35.156  29.187  1.00  0.00     0.031 C 
ATOM     70  C   UNL A   1      48.131  29.686  31.761  1.00  0.00     0.029 A 
ATOM     71  C   UNL A   1      47.606  30.855  31.234  1.00  0.00     0.049 A 
ATOM     72  H   UNL A   1      45.593  31.472  31.105  1.00  0.00     0.167 HD
ATOM     73  C   UNL A   1      47.713  33.076  30.139  1.00  0.00     0.074 A 
ATOM     74  C   UNL A   1      48.438  34.187  29.565  1.00  0.00     0.031 C 
ATOM     75  C   UNL A   1      48.306  31.968  30.647  1.00  0.00     0.037 A 
BRANCH  62  76
ATOM     76  C   UNL A   1      44.338  27.844  32.957  1.00  0.00     0.058 A 
ATOM     77  C   UNL A   1      44.318  27.724  34.356  1.00  0.00     0.135 A 
ATOM     78  C   UNL A   1      44.159  26.682  32.193  1.00  0.00     0.135 A 
ATOM     79  F   UNL A   1      44.465  28.810  35.130  1.00  0.00    -0.206 F 
ATOM     80  C   UNL A   1      44.139  26.493  34.975  1.00  0.00     0.059 A 
ATOM     81  C   UNL A   1      43.957  25.441  32.792  1.00  0.00     0.059 A 
ATOM     82  F   UNL A   1      44.132  26.752  30.852  1.00  0.00    -0.206 F 
ATOM     83  C   UNL A   1      43.961  25.356  34.184  1.00  0.00     0.060 A 
BRANCH  83  84
ATOM     84  S   UNL A   1      43.682  23.772  35.005  1.00  0.00     0.124 S 
ATOM     85  O   UNL A   1      42.226  23.695  35.019  1.00  0.00    -0.237 OA
ATOM     86  O   UNL A   1      44.360  22.839  34.110  1.00  0.00    -0.237 OA
ATOM     87  O   UNL A   1      44.317  23.950  36.307  1.00  0.00    -0.744 OA
ENDBRANCH  83  84
ENDBRANCH  62  76
BRANCH  63  88
ATOM     88  C   UNL A   1      45.265  36.765  28.561  1.00  0.00     0.058 A 
ATOM     89  C   UNL A   1      45.019  36.963  27.194  1.00  0.00     0.135 A 
ATOM     90  C   UNL A   1      45.592  37.896  29.329  1.00  0.00     0.135 A 
ATOM     91  F   UNL A   1      44.710  35.920  26.409  1.00  0.00    -0.206 F 
ATOM     92  C   UNL A   1      45.073  38.227  26.614  1.00  0.00     0.059 A 
ATOM     93  C   UNL A   1      45.630  39.177  28.776  1.00  0.00     0.059 A 
ATOM     94  F   UNL A   1      45.828  37.764  30.644  1.00  0.00    -0.206 F 
ATOM     95  C   UNL A   1      45.353  39.333  27.418  1.00  0.00     0.060 A 
BRANCH  95  96
ATOM     96  S   UNL A   1      45.336  40.972  26.651  1.00  0.00     0.124 S 
ATOM     97  O   UNL A   1      44.352  41.684  27.463  1.00  0.00    -0.237 OA
ATOM     98  O   UNL A   1      46.722  41.391  26.837  1.00  0.00    -0.237 OA
ATOM     99  O   UNL A   1      44.944  40.703  25.272  1.00  0.00    -0.744 OA
ENDBRANCH  95  96
ENDBRANCH  63  88
BRANCH  75 100
ATOM    100  C   UNL A   1      49.805  31.877  30.592  1.00  0.00     0.058 A 
ATOM    101  C   UNL A   1      50.587  32.455  31.605  1.00  0.00     0.135 A 
ATOM    102  C   UNL A   1      50.465  31.322  29.486  1.00  0.00     0.135 A 
ATOM    103  F   UNL A   1      50.003  33.006  32.680  1.00  0.00    -0.206 F 
ATOM    104  C   UNL A   1      51.973  32.509  31.510  1.00  0.00     0.059 A 
ATOM    105  C   UNL A   1      51.854  31.345  29.380  1.00  0.00     0.059 A 
ATOM    106  F   UNL A   1      49.761  30.750  28.496  1.00  0.00    -0.206 F 
ATOM    107  C   UNL A   1      52.597  31.961  30.389  1.00  0.00     0.060 A 
BRANCH 107 108
ATOM    108  S   UNL A   1      54.397  32.056  30.273  1.00  0.00     0.124 S 
ATOM    109  O   UNL A   1      54.718  32.969  31.364  1.00  0.00    -0.237 OA
ATOM    110  O   UNL A   1      54.793  30.666  30.471  1.00  0.00    -0.237 OA
ATOM    111  O   UNL A   1      54.622  32.580  28.928  1.00  0.00    -0.744 OA
ENDBRANCH 107 108
ENDBRANCH  75 100
ENDBRANCH  49  50
ENDBRANCH  42  44
ENDBRANCH  41  42
ENDBRANCH  40  41
ENDBRANCH  39  40
ENDBRANCH  38  39
ENDBRANCH  37  38
ENDBRANCH  36  37
ENDBRANCH  35  36
ENDBRANCH   1  35
TORSDOF 28
ENDMDL
