MODEL 1
REMARK VINA RESULT:      -6.3      0.000      0.000
REMARK SMILES O=C(CNC(=O)N1CC(OCCOCCOCCOCCOC(=O)c2ccc(-c3c4nc(c(-c5c(F)cc(S(=O)(=O)[O-])cc5F)c5ccc([nH]5)c(-c5c(F)cc(S(=O)(=O)[O-])cc5F)c5nc(c(-c6c(F)cc(S(=O)(=O)[O-])cc6F)c6ccc3[nH]6)C=C5)C=C4)cc2)=Nc2ccccc21)N[C@H](C(=O)[O-])c1ccccc1
REMARK SMILES IDX 15 1 14 2 13 3 12 4 11 5 10 6 9 7 7 8 8 9 97 10 92 11 96 12
REMARK SMILES IDX 91 13 93 14 95 15 94 16 5 17 4 18 6 20 3 21 2 22 1 23 98 24
REMARK SMILES IDX 99 26 103 27 104 28 108 29 105 30 107 31 106 32 100 33
REMARK SMILES IDX 101 34 102 35 16 36 17 37 18 38 19 39 20 40 21 41 22 42
REMARK SMILES IDX 23 43 24 44 25 45 26 46 90 47 27 48 89 49 28 50 29 51 30 52
REMARK SMILES IDX 83 53 31 54 88 55 82 56 84 57 32 58 87 59 81 60 80 61 33 63
REMARK SMILES IDX 67 64 46 65 66 66 47 67 50 68 65 69 85 70 48 71 49 72 64 74
REMARK SMILES IDX 86 75 51 76 34 77 35 78 44 79 36 80 37 81 43 82 45 83 38 84
REMARK SMILES IDX 39 85 40 86 41 87 42 88 68 89 69 90 78 91 70 92 71 93 77 94
REMARK SMILES IDX 79 95 72 96 73 97 74 98 75 99 76 100 52 101 53 102 62 103
REMARK SMILES IDX 54 104 55 105 61 106 63 107 56 108 57 109 58 110 59 111
REMARK SMILES IDX 60 112
REMARK H PARENT 4 19 98 25 84 62 50 73
REMARK Flexibility Score: inf
ROOT
ATOM      1  C   UNL A   1      36.872  33.439  34.648  1.00  0.00     0.188 C 
ENDROOT
BRANCH   1   2
ATOM      2  C   UNL A   1      37.526  33.505  36.027  1.00  0.00     0.188 C 
BRANCH   2   3
ATOM      3  O   UNL A   1      38.368  34.612  36.332  1.00  0.00    -0.376 OA
BRANCH   3   4
ATOM      4  C   UNL A   1      39.772  34.430  36.469  1.00  0.00     0.201 C 
BRANCH   4   5
ATOM      5  C   UNL A   1      40.676  34.684  35.251  1.00  0.00     0.259 C 
BRANCH   5   6
ATOM      6  O   UNL A   1      41.337  35.970  35.256  1.00  0.00    -0.477 OA
BRANCH   6   7
ATOM      7  C   UNL A   1      42.278  36.182  34.305  1.00  0.00     0.209 C 
ATOM      8  N   UNL A   1      43.356  38.123  33.253  1.00  0.00    -0.283 N 
ATOM      9  C   UNL A   1      43.096  37.433  34.522  1.00  0.00     0.224 C 
ATOM     10  C   UNL A   1      43.570  37.263  32.121  1.00  0.00     0.072 A 
ATOM     11  C   UNL A   1      43.119  35.919  32.190  1.00  0.00     0.091 A 
ATOM     12  C   UNL A   1      44.177  37.695  30.937  1.00  0.00     0.029 A 
ATOM     13  N   UNL A   1      42.398  35.408  33.281  1.00  0.00    -0.214 NA
ATOM     14  C   UNL A   1      43.166  35.100  31.057  1.00  0.00     0.030 A 
ATOM     15  C   UNL A   1      44.205  36.869  29.807  1.00  0.00     0.002 A 
ATOM     16  C   UNL A   1      43.683  35.580  29.860  1.00  0.00     0.002 A 
BRANCH   8  17
ATOM     17  C   UNL A   1      43.573  39.478  33.343  1.00  0.00     0.322 C 
ATOM     18  N   UNL A   1      44.820  39.999  33.450  1.00  0.00    -0.329 N 
ATOM     19  H   UNL A   1      44.850  40.937  33.746  1.00  0.00     0.165 HD
ATOM     20  O   UNL A   1      42.653  40.293  33.223  1.00  0.00    -0.248 OA
BRANCH  18  21
ATOM     21  C   UNL A   1      46.122  39.398  33.201  1.00  0.00     0.218 C 
BRANCH  21  22
ATOM     22  C   UNL A   1      46.835  39.768  31.894  1.00  0.00     0.240 C 
ATOM     23  O   UNL A   1      47.722  39.033  31.456  1.00  0.00    -0.273 OA
ATOM     24  N   UNL A   1      46.401  40.884  31.213  1.00  0.00    -0.342 N 
ATOM     25  H   UNL A   1      45.863  41.573  31.665  1.00  0.00     0.164 HD
BRANCH  24  26
ATOM     26  C   UNL A   1      46.758  41.023  29.793  1.00  0.00     0.158 C 
BRANCH  26  27
ATOM     27  C   UNL A   1      45.703  40.399  28.883  1.00  0.00    -0.020 A 
ATOM     28  C   UNL A   1      44.343  40.749  28.945  1.00  0.00     0.006 A 
ATOM     29  C   UNL A   1      46.105  39.488  27.891  1.00  0.00     0.006 A 
ATOM     30  C   UNL A   1      43.431  40.252  28.009  1.00  0.00     0.000 A 
ATOM     31  C   UNL A   1      45.189  38.982  26.965  1.00  0.00     0.000 A 
ATOM     32  C   UNL A   1      43.855  39.376  27.016  1.00  0.00     0.000 A 
ENDBRANCH  26  27
BRANCH  26  33
ATOM     33  C   UNL A   1      47.177  42.438  29.324  1.00  0.00     0.068 C 
ATOM     34  O   UNL A   1      47.953  43.184  29.907  1.00  0.00    -0.548 OA
ATOM     35  O   UNL A   1      46.692  42.821  28.123  1.00  0.00    -0.548 OA
ENDBRANCH  26  33
ENDBRANCH  24  26
ENDBRANCH  21  22
ENDBRANCH  18  21
ENDBRANCH   8  17
ENDBRANCH   6   7
ENDBRANCH   5   6
ENDBRANCH   4   5
ENDBRANCH   3   4
ENDBRANCH   2   3
ENDBRANCH   1   2
BRANCH   1  36
ATOM     36  O   UNL A   1      37.143  34.562  33.824  1.00  0.00    -0.377 OA
BRANCH  36  37
ATOM     37  C   UNL A   1      37.213  34.281  32.437  1.00  0.00     0.188 C 
BRANCH  37  38
ATOM     38  C   UNL A   1      36.185  33.273  31.883  1.00  0.00     0.188 C 
BRANCH  38  39
ATOM     39  O   UNL A   1      34.991  33.721  31.252  1.00  0.00    -0.376 OA
BRANCH  39  40
ATOM     40  C   UNL A   1      34.879  33.638  29.832  1.00  0.00     0.202 C 
BRANCH  40  41
ATOM     41  C   UNL A   1      34.404  32.300  29.283  1.00  0.00     0.261 C 
BRANCH  41  42
ATOM     42  O   UNL A   1      35.320  31.848  28.273  1.00  0.00    -0.460 OA
BRANCH  42  43
ATOM     43  C   UNL A   1      35.639  30.543  28.359  1.00  0.00     0.338 C 
ATOM     44  O   UNL A   1      35.217  29.628  27.663  1.00  0.00    -0.246 OA
BRANCH  43  45
ATOM     45  C   UNL A   1      36.791  30.400  29.257  1.00  0.00     0.060 A 
ATOM     46  C   UNL A   1      37.810  31.350  29.129  1.00  0.00     0.016 A 
ATOM     47  C   UNL A   1      36.915  29.331  30.148  1.00  0.00     0.016 A 
ATOM     48  C   UNL A   1      39.008  31.170  29.804  1.00  0.00     0.010 A 
ATOM     49  C   UNL A   1      38.125  29.152  30.831  1.00  0.00     0.010 A 
ATOM     50  C   UNL A   1      39.202  30.024  30.589  1.00  0.00    -0.014 A 
BRANCH  50  51
ATOM     51  C   UNL A   1      40.610  29.621  30.842  1.00  0.00     0.031 A 
ATOM     52  C   UNL A   1      41.315  30.237  32.028  1.00  0.00     0.074 A 
ATOM     53  C   UNL A   1      41.182  28.611  30.161  1.00  0.00     0.049 A 
ATOM     54  N   UNL A   1      42.452  29.907  32.582  1.00  0.00    -0.248 NA
ATOM     55  C   UNL A   1      40.639  31.370  32.683  1.00  0.00     0.031 C 
ATOM     56  C   UNL A   1      40.592  27.919  29.017  1.00  0.00     0.029 A 
ATOM     57  N   UNL A   1      42.378  27.969  30.364  1.00  0.00    -0.354 N 
ATOM     58  C   UNL A   1      42.621  30.783  33.650  1.00  0.00     0.074 A 
ATOM     59  C   UNL A   1      41.499  31.693  33.636  1.00  0.00     0.031 C 
ATOM     60  C   UNL A   1      41.419  26.930  28.632  1.00  0.00     0.029 A 
ATOM     61  C   UNL A   1      42.594  26.920  29.502  1.00  0.00     0.049 A 
ATOM     62  H   UNL A   1      43.021  28.234  31.061  1.00  0.00     0.167 HD
ATOM     63  C   UNL A   1      43.602  30.814  34.582  1.00  0.00     0.037 A 
ATOM     64  C   UNL A   1      43.616  26.042  29.438  1.00  0.00     0.037 A 
ATOM     65  C   UNL A   1      44.710  29.900  34.610  1.00  0.00     0.049 A 
ATOM     66  C   UNL A   1      44.710  26.107  30.473  1.00  0.00     0.074 A 
ATOM     67  C   UNL A   1      45.757  29.840  35.511  1.00  0.00     0.029 A 
ATOM     68  N   UNL A   1      44.912  28.880  33.691  1.00  0.00    -0.354 N 
ATOM     69  N   UNL A   1      44.838  26.924  31.493  1.00  0.00    -0.248 NA
ATOM     70  C   UNL A   1      45.791  25.117  30.358  1.00  0.00     0.031 C 
ATOM     71  C   UNL A   1      46.612  28.805  35.117  1.00  0.00     0.029 A 
ATOM     72  C   UNL A   1      46.074  28.194  33.996  1.00  0.00     0.049 A 
ATOM     73  H   UNL A   1      44.316  28.676  32.935  1.00  0.00     0.167 HD
ATOM     74  C   UNL A   1      45.998  26.532  32.153  1.00  0.00     0.074 A 
ATOM     75  C   UNL A   1      46.524  25.393  31.428  1.00  0.00     0.031 C 
ATOM     76  C   UNL A   1      46.579  27.063  33.259  1.00  0.00     0.037 A 
BRANCH  63  77
ATOM     77  C   UNL A   1      43.519  31.886  35.634  1.00  0.00     0.058 A 
ATOM     78  C   UNL A   1      44.168  33.123  35.480  1.00  0.00     0.135 A 
ATOM     79  C   UNL A   1      42.785  31.672  36.810  1.00  0.00     0.135 A 
ATOM     80  F   UNL A   1      44.903  33.368  34.384  1.00  0.00    -0.206 F 
ATOM     81  C   UNL A   1      44.117  34.098  36.472  1.00  0.00     0.059 A 
ATOM     82  C   UNL A   1      42.699  32.643  37.804  1.00  0.00     0.059 A 
ATOM     83  F   UNL A   1      42.152  30.505  37.011  1.00  0.00    -0.206 F 
ATOM     84  C   UNL A   1      43.382  33.847  37.631  1.00  0.00     0.060 A 
BRANCH  84  85
ATOM     85  S   UNL A   1      43.325  35.119  38.911  1.00  0.00     0.124 S 
ATOM     86  O   UNL A   1      44.558  34.850  39.646  1.00  0.00    -0.237 OA
ATOM     87  O   UNL A   1      43.308  36.351  38.130  1.00  0.00    -0.237 OA
ATOM     88  O   UNL A   1      42.089  34.820  39.631  1.00  0.00    -0.744 OA
ENDBRANCH  84  85
ENDBRANCH  63  77
BRANCH  64  89
ATOM     89  C   UNL A   1      43.642  25.007  28.369  1.00  0.00     0.058 A 
ATOM     90  C   UNL A   1      44.214  25.263  27.115  1.00  0.00     0.135 A 
ATOM     91  C   UNL A   1      43.080  23.738  28.584  1.00  0.00     0.135 A 
ATOM     92  F   UNL A   1      44.754  26.464  26.857  1.00  0.00    -0.206 F 
ATOM     93  C   UNL A   1      44.215  24.306  26.104  1.00  0.00     0.059 A 
ATOM     94  C   UNL A   1      43.091  22.757  27.598  1.00  0.00     0.059 A 
ATOM     95  F   UNL A   1      42.530  23.438  29.770  1.00  0.00    -0.206 F 
ATOM     96  C   UNL A   1      43.653  23.053  26.356  1.00  0.00     0.060 A 
BRANCH  96  97
ATOM     97  S   UNL A   1      43.705  21.797  25.059  1.00  0.00     0.124 S 
ATOM     98  O   UNL A   1      42.635  20.898  25.477  1.00  0.00    -0.237 OA
ATOM     99  O   UNL A   1      43.446  22.585  23.858  1.00  0.00    -0.237 OA
ATOM    100  O   UNL A   1      45.059  21.262  25.167  1.00  0.00    -0.744 OA
ENDBRANCH  96  97
ENDBRANCH  64  89
BRANCH  76 101
ATOM    101  C   UNL A   1      47.834  26.404  33.761  1.00  0.00     0.058 A 
ATOM    102  C   UNL A   1      47.790  25.338  34.673  1.00  0.00     0.135 A 
ATOM    103  C   UNL A   1      49.092  26.827  33.304  1.00  0.00     0.135 A 
ATOM    104  F   UNL A   1      46.612  24.895  35.140  1.00  0.00    -0.206 F 
ATOM    105  C   UNL A   1      48.954  24.739  35.145  1.00  0.00     0.059 A 
ATOM    106  C   UNL A   1      50.267  26.224  33.743  1.00  0.00     0.059 A 
ATOM    107  F   UNL A   1      49.189  27.831  32.418  1.00  0.00    -0.206 F 
ATOM    108  C   UNL A   1      50.188  25.195  34.679  1.00  0.00     0.060 A 
BRANCH 108 109
ATOM    109  S   UNL A   1      51.693  24.415  35.301  1.00  0.00     0.124 S 
ATOM    110  O   UNL A   1      52.441  25.570  35.787  1.00  0.00    -0.237 OA
ATOM    111  O   UNL A   1      51.180  23.514  36.328  1.00  0.00    -0.237 OA
ATOM    112  O   UNL A   1      52.247  23.759  34.120  1.00  0.00    -0.744 OA
ENDBRANCH 108 109
ENDBRANCH  76 101
ENDBRANCH  50  51
ENDBRANCH  43  45
ENDBRANCH  42  43
ENDBRANCH  41  42
ENDBRANCH  40  41
ENDBRANCH  39  40
ENDBRANCH  38  39
ENDBRANCH  37  38
ENDBRANCH  36  37
ENDBRANCH   1  36
TORSDOF 28
ENDMDL
MODEL 2
REMARK VINA RESULT:      -6.2      4.733     13.426
REMARK SMILES O=C(CNC(=O)N1CC(OCCOCCOCCOCCOC(=O)c2ccc(-c3c4nc(c(-c5c(F)cc(S(=O)(=O)[O-])cc5F)c5ccc([nH]5)c(-c5c(F)cc(S(=O)(=O)[O-])cc5F)c5nc(c(-c6c(F)cc(S(=O)(=O)[O-])cc6F)c6ccc3[nH]6)C=C5)C=C4)cc2)=Nc2ccccc21)N[C@H](C(=O)[O-])c1ccccc1
REMARK SMILES IDX 15 1 14 2 13 3 12 4 11 5 10 6 9 7 7 8 8 9 97 10 92 11 96 12
REMARK SMILES IDX 91 13 93 14 95 15 94 16 5 17 4 18 6 20 3 21 2 22 1 23 98 24
REMARK SMILES IDX 99 26 103 27 104 28 108 29 105 30 107 31 106 32 100 33
REMARK SMILES IDX 101 34 102 35 16 36 17 37 18 38 19 39 20 40 21 41 22 42
REMARK SMILES IDX 23 43 24 44 25 45 26 46 90 47 27 48 89 49 28 50 29 51 30 52
REMARK SMILES IDX 83 53 31 54 88 55 82 56 84 57 32 58 87 59 81 60 80 61 33 63
REMARK SMILES IDX 67 64 46 65 66 66 47 67 50 68 65 69 85 70 48 71 49 72 64 74
REMARK SMILES IDX 86 75 51 76 34 77 35 78 44 79 36 80 37 81 43 82 45 83 38 84
REMARK SMILES IDX 39 85 40 86 41 87 42 88 68 89 69 90 78 91 70 92 71 93 77 94
REMARK SMILES IDX 79 95 72 96 73 97 74 98 75 99 76 100 52 101 53 102 62 103
REMARK SMILES IDX 54 104 55 105 61 106 63 107 56 108 57 109 58 110 59 111
REMARK SMILES IDX 60 112
REMARK H PARENT 4 19 98 25 84 62 50 73
REMARK Flexibility Score: inf
ROOT
ATOM      1  C   UNL A   1      46.423  30.533  36.773  1.00  0.00     0.188 C 
ENDROOT
BRANCH   1   2
ATOM      2  C   UNL A   1      47.906  30.407  37.119  1.00  0.00     0.188 C 
BRANCH   2   3
ATOM      3  O   UNL A   1      48.869  30.806  36.150  1.00  0.00    -0.376 OA
BRANCH   3   4
ATOM      4  C   UNL A   1      49.618  29.829  35.437  1.00  0.00     0.201 C 
BRANCH   4   5
ATOM      5  C   UNL A   1      49.143  29.405  34.037  1.00  0.00     0.259 C 
BRANCH   5   6
ATOM      6  O   UNL A   1      49.158  27.977  33.807  1.00  0.00    -0.477 OA
BRANCH   6   7
ATOM      7  C   UNL A   1      47.960  27.347  33.768  1.00  0.00     0.209 C 
ATOM      8  N   UNL A   1      46.863  25.508  34.972  1.00  0.00    -0.283 N 
ATOM      9  C   UNL A   1      47.500  26.823  35.108  1.00  0.00     0.224 C 
ATOM     10  C   UNL A   1      46.084  25.325  33.777  1.00  0.00     0.072 A 
ATOM     11  C   UNL A   1      46.313  26.189  32.674  1.00  0.00     0.091 A 
ATOM     12  C   UNL A   1      45.129  24.313  33.635  1.00  0.00     0.029 A 
ATOM     13  N   UNL A   1      47.322  27.165  32.662  1.00  0.00    -0.214 NA
ATOM     14  C   UNL A   1      45.691  25.944  31.446  1.00  0.00     0.030 A 
ATOM     15  C   UNL A   1      44.524  24.072  32.396  1.00  0.00     0.002 A 
ATOM     16  C   UNL A   1      44.819  24.873  31.297  1.00  0.00     0.002 A 
BRANCH   8  17
ATOM     17  C   UNL A   1      46.911  24.702  36.085  1.00  0.00     0.322 C 
ATOM     18  N   UNL A   1      47.962  23.881  36.330  1.00  0.00    -0.329 N 
ATOM     19  H   UNL A   1      47.792  23.186  37.006  1.00  0.00     0.165 HD
ATOM     20  O   UNL A   1      46.053  24.764  36.970  1.00  0.00    -0.248 OA
BRANCH  18  21
ATOM     21  C   UNL A   1      49.299  23.857  35.756  1.00  0.00     0.218 C 
BRANCH  21  22
ATOM     22  C   UNL A   1      50.120  22.572  35.926  1.00  0.00     0.240 C 
ATOM     23  O   UNL A   1      51.342  22.606  35.767  1.00  0.00    -0.273 OA
ATOM     24  N   UNL A   1      49.461  21.430  36.326  1.00  0.00    -0.342 N 
ATOM     25  H   UNL A   1      48.484  21.354  36.234  1.00  0.00     0.164 HD
BRANCH  24  26
ATOM     26  C   UNL A   1      50.249  20.326  36.893  1.00  0.00     0.158 C 
BRANCH  26  27
ATOM     27  C   UNL A   1      49.498  19.616  38.016  1.00  0.00    -0.020 A 
ATOM     28  C   UNL A   1      50.148  19.070  39.137  1.00  0.00     0.006 A 
ATOM     29  C   UNL A   1      48.094  19.560  37.974  1.00  0.00     0.006 A 
ATOM     30  C   UNL A   1      49.415  18.543  40.205  1.00  0.00     0.000 A 
ATOM     31  C   UNL A   1      47.364  19.021  39.038  1.00  0.00     0.000 A 
ATOM     32  C   UNL A   1      48.024  18.526  40.158  1.00  0.00     0.000 A 
ENDBRANCH  26  27
BRANCH  26  33
ATOM     33  C   UNL A   1      50.872  19.333  35.881  1.00  0.00     0.068 C 
ATOM     34  O   UNL A   1      51.670  18.445  36.150  1.00  0.00    -0.548 OA
ATOM     35  O   UNL A   1      50.413  19.427  34.615  1.00  0.00    -0.548 OA
ENDBRANCH  26  33
ENDBRANCH  24  26
ENDBRANCH  21  22
ENDBRANCH  18  21
ENDBRANCH   8  17
ENDBRANCH   6   7
ENDBRANCH   5   6
ENDBRANCH   4   5
ENDBRANCH   3   4
ENDBRANCH   2   3
ENDBRANCH   1   2
BRANCH   1  36
ATOM     36  O   UNL A   1      46.005  31.859  36.488  1.00  0.00    -0.377 OA
BRANCH  36  37
ATOM     37  C   UNL A   1      47.041  32.736  36.081  1.00  0.00     0.188 C 
BRANCH  37  38
ATOM     38  C   UNL A   1      46.631  34.188  35.758  1.00  0.00     0.188 C 
BRANCH  38  39
ATOM     39  O   UNL A   1      45.995  34.510  34.527  1.00  0.00    -0.376 OA
BRANCH  39  40
ATOM     40  C   UNL A   1      45.962  35.870  34.095  1.00  0.00     0.202 C 
BRANCH  40  41
ATOM     41  C   UNL A   1      47.318  36.539  33.913  1.00  0.00     0.261 C 
BRANCH  41  42
ATOM     42  O   UNL A   1      48.084  35.807  32.943  1.00  0.00    -0.460 OA
BRANCH  42  43
ATOM     43  C   UNL A   1      47.739  36.053  31.665  1.00  0.00     0.338 C 
ATOM     44  O   UNL A   1      47.640  37.146  31.121  1.00  0.00    -0.246 OA
BRANCH  43  45
ATOM     45  C   UNL A   1      47.753  34.787  30.923  1.00  0.00     0.060 A 
ATOM     46  C   UNL A   1      47.308  34.831  29.597  1.00  0.00     0.016 A 
ATOM     47  C   UNL A   1      48.119  33.577  31.517  1.00  0.00     0.016 A 
ATOM     48  C   UNL A   1      47.112  33.649  28.898  1.00  0.00     0.010 A 
ATOM     49  C   UNL A   1      47.922  32.385  30.808  1.00  0.00     0.010 A 
ATOM     50  C   UNL A   1      47.335  32.418  29.530  1.00  0.00    -0.014 A 
BRANCH  50  51
ATOM     51  C   UNL A   1      46.633  31.239  28.959  1.00  0.00     0.031 A 
ATOM     52  C   UNL A   1      47.444  30.275  28.124  1.00  0.00     0.074 A 
ATOM     53  C   UNL A   1      45.373  30.933  29.317  1.00  0.00     0.049 A 
ATOM     54  N   UNL A   1      47.129  29.083  27.690  1.00  0.00    -0.248 NA
ATOM     55  C   UNL A   1      48.795  30.713  27.735  1.00  0.00     0.031 C 
ATOM     56  C   UNL A   1      44.499  31.767  30.140  1.00  0.00     0.029 A 
ATOM     57  N   UNL A   1      44.625  29.811  29.061  1.00  0.00    -0.354 N 
ATOM     58  C   UNL A   1      48.243  28.629  26.990  1.00  0.00     0.074 A 
ATOM     59  C   UNL A   1      49.220  29.693  27.008  1.00  0.00     0.031 C 
ATOM     60  C   UNL A   1      43.339  31.117  30.342  1.00  0.00     0.029 A 
ATOM     61  C   UNL A   1      43.389  29.822  29.663  1.00  0.00     0.049 A 
ATOM     62  H   UNL A   1      44.943  29.068  28.498  1.00  0.00     0.167 HD
ATOM     63  C   UNL A   1      48.453  27.425  26.408  1.00  0.00     0.037 A 
ATOM     64  C   UNL A   1      42.419  28.885  29.679  1.00  0.00     0.037 A 
ATOM     65  C   UNL A   1      47.490  26.358  26.403  1.00  0.00     0.049 A 
ATOM     66  C   UNL A   1      42.665  27.558  29.006  1.00  0.00     0.074 A 
ATOM     67  C   UNL A   1      47.602  25.097  25.847  1.00  0.00     0.029 A 
ATOM     68  N   UNL A   1      46.234  26.429  26.988  1.00  0.00    -0.354 N 
ATOM     69  N   UNL A   1      43.735  27.136  28.373  1.00  0.00    -0.248 NA
ATOM     70  C   UNL A   1      41.576  26.572  29.066  1.00  0.00     0.031 C 
ATOM     71  C   UNL A   1      46.399  24.417  26.065  1.00  0.00     0.029 A 
ATOM     72  C   UNL A   1      45.555  25.240  26.794  1.00  0.00     0.049 A 
ATOM     73  H   UNL A   1      45.879  27.211  27.470  1.00  0.00     0.167 HD
ATOM     74  C   UNL A   1      43.457  25.831  27.981  1.00  0.00     0.074 A 
ATOM     75  C   UNL A   1      42.125  25.526  28.465  1.00  0.00     0.031 C 
ATOM     76  C   UNL A   1      44.230  24.959  27.284  1.00  0.00     0.037 A 
BRANCH  63  77
ATOM     77  C   UNL A   1      49.772  27.215  25.717  1.00  0.00     0.058 A 
ATOM     78  C   UNL A   1      50.923  26.831  26.424  1.00  0.00     0.135 A 
ATOM     79  C   UNL A   1      49.886  27.404  24.331  1.00  0.00     0.135 A 
ATOM     80  F   UNL A   1      50.874  26.661  27.755  1.00  0.00    -0.206 F 
ATOM     81  C   UNL A   1      52.149  26.672  25.785  1.00  0.00     0.059 A 
ATOM     82  C   UNL A   1      51.096  27.225  23.667  1.00  0.00     0.059 A 
ATOM     83  F   UNL A   1      48.818  27.778  23.609  1.00  0.00    -0.206 F 
ATOM     84  C   UNL A   1      52.226  26.874  24.406  1.00  0.00     0.060 A 
BRANCH  84  85
ATOM     85  S   UNL A   1      53.822  26.666  23.588  1.00  0.00     0.124 S 
ATOM     86  O   UNL A   1      54.463  25.674  24.447  1.00  0.00    -0.237 OA
ATOM     87  O   UNL A   1      53.436  26.201  22.260  1.00  0.00    -0.237 OA
ATOM     88  O   UNL A   1      54.403  28.004  23.635  1.00  0.00    -0.744 OA
ENDBRANCH  84  85
ENDBRANCH  63  77
BRANCH  64  89
ATOM     89  C   UNL A   1      41.133  29.155  30.377  1.00  0.00     0.058 A 
ATOM     90  C   UNL A   1      40.013  29.643  29.688  1.00  0.00     0.135 A 
ATOM     91  C   UNL A   1      41.006  28.940  31.759  1.00  0.00     0.135 A 
ATOM     92  F   UNL A   1      40.087  29.876  28.369  1.00  0.00    -0.206 F 
ATOM     93  C   UNL A   1      38.818  29.923  30.343  1.00  0.00     0.059 A 
ATOM     94  C   UNL A   1      39.815  29.190  32.432  1.00  0.00     0.059 A 
ATOM     95  F   UNL A   1      42.044  28.465  32.464  1.00  0.00    -0.206 F 
ATOM     96  C   UNL A   1      38.727  29.691  31.717  1.00  0.00     0.060 A 
BRANCH  96  97
ATOM     97  S   UNL A   1      37.157  30.005  32.553  1.00  0.00     0.124 S 
ATOM     98  O   UNL A   1      36.225  30.022  31.431  1.00  0.00    -0.237 OA
ATOM     99  O   UNL A   1      37.054  28.860  33.453  1.00  0.00    -0.237 OA
ATOM    100  O   UNL A   1      37.380  31.288  33.210  1.00  0.00    -0.744 OA
ENDBRANCH  96  97
ENDBRANCH  64  89
BRANCH  76 101
ATOM    101  C   UNL A   1      43.662  23.591  27.024  1.00  0.00     0.058 A 
ATOM    102  C   UNL A   1      43.493  22.657  28.058  1.00  0.00     0.135 A 
ATOM    103  C   UNL A   1      43.258  23.221  25.732  1.00  0.00     0.135 A 
ATOM    104  F   UNL A   1      43.862  22.962  29.312  1.00  0.00    -0.206 F 
ATOM    105  C   UNL A   1      42.979  21.387  27.812  1.00  0.00     0.059 A 
ATOM    106  C   UNL A   1      42.717  21.966  25.468  1.00  0.00     0.059 A 
ATOM    107  F   UNL A   1      43.382  24.084  24.711  1.00  0.00    -0.206 F 
ATOM    108  C   UNL A   1      42.601  21.050  26.512  1.00  0.00     0.060 A 
BRANCH 108 109
ATOM    109  S   UNL A   1      41.940  19.398  26.201  1.00  0.00     0.124 S 
ATOM    110  O   UNL A   1      42.498  19.104  24.885  1.00  0.00    -0.237 OA
ATOM    111  O   UNL A   1      42.489  18.625  27.310  1.00  0.00    -0.237 OA
ATOM    112  O   UNL A   1      40.495  19.600  26.240  1.00  0.00    -0.744 OA
ENDBRANCH 108 109
ENDBRANCH  76 101
ENDBRANCH  50  51
ENDBRANCH  43  45
ENDBRANCH  42  43
ENDBRANCH  41  42
ENDBRANCH  40  41
ENDBRANCH  39  40
ENDBRANCH  38  39
ENDBRANCH  37  38
ENDBRANCH  36  37
ENDBRANCH   1  36
TORSDOF 28
ENDMDL
MODEL 3
REMARK VINA RESULT:      -6.2      6.806     10.427
REMARK SMILES O=C(CNC(=O)N1CC(OCCOCCOCCOCCOC(=O)c2ccc(-c3c4nc(c(-c5c(F)cc(S(=O)(=O)[O-])cc5F)c5ccc([nH]5)c(-c5c(F)cc(S(=O)(=O)[O-])cc5F)c5nc(c(-c6c(F)cc(S(=O)(=O)[O-])cc6F)c6ccc3[nH]6)C=C5)C=C4)cc2)=Nc2ccccc21)N[C@H](C(=O)[O-])c1ccccc1
REMARK SMILES IDX 15 1 14 2 13 3 12 4 11 5 10 6 9 7 7 8 8 9 97 10 92 11 96 12
REMARK SMILES IDX 91 13 93 14 95 15 94 16 5 17 4 18 6 20 3 21 2 22 1 23 98 24
REMARK SMILES IDX 99 26 103 27 104 28 108 29 105 30 107 31 106 32 100 33
REMARK SMILES IDX 101 34 102 35 16 36 17 37 18 38 19 39 20 40 21 41 22 42
REMARK SMILES IDX 23 43 24 44 25 45 26 46 90 47 27 48 89 49 28 50 29 51 30 52
REMARK SMILES IDX 83 53 31 54 88 55 82 56 84 57 32 58 87 59 81 60 80 61 33 63
REMARK SMILES IDX 67 64 46 65 66 66 47 67 50 68 65 69 85 70 48 71 49 72 64 74
REMARK SMILES IDX 86 75 51 76 34 77 35 78 44 79 36 80 37 81 43 82 45 83 38 84
REMARK SMILES IDX 39 85 40 86 41 87 42 88 68 89 69 90 78 91 70 92 71 93 77 94
REMARK SMILES IDX 79 95 72 96 73 97 74 98 75 99 76 100 52 101 53 102 62 103
REMARK SMILES IDX 54 104 55 105 61 106 63 107 56 108 57 109 58 110 59 111
REMARK SMILES IDX 60 112
REMARK H PARENT 4 19 98 25 84 62 50 73
REMARK Flexibility Score: inf
ROOT
ATOM      1  C   UNL A   1      47.461  43.395  26.545  1.00  0.00     0.188 C 
ENDROOT
BRANCH   1   2
ATOM      2  C   UNL A   1      48.103  43.224  27.922  1.00  0.00     0.188 C 
BRANCH   2   3
ATOM      3  O   UNL A   1      47.398  42.492  28.918  1.00  0.00    -0.376 OA
BRANCH   3   4
ATOM      4  C   UNL A   1      46.585  43.171  29.867  1.00  0.00     0.201 C 
BRANCH   4   5
ATOM      5  C   UNL A   1      45.143  43.540  29.481  1.00  0.00     0.259 C 
BRANCH   5   6
ATOM      6  O   UNL A   1      44.190  42.463  29.630  1.00  0.00    -0.477 OA
BRANCH   6   7
ATOM      7  C   UNL A   1      43.765  42.186  30.886  1.00  0.00     0.209 C 
ATOM      8  N   UNL A   1      43.229  43.459  32.918  1.00  0.00    -0.283 N 
ATOM      9  C   UNL A   1      42.911  43.271  31.497  1.00  0.00     0.224 C 
ATOM     10  C   UNL A   1      43.558  42.257  33.636  1.00  0.00     0.072 A 
ATOM     11  C   UNL A   1      43.958  41.111  32.900  1.00  0.00     0.091 A 
ATOM     12  C   UNL A   1      43.533  42.171  35.031  1.00  0.00     0.029 A 
ATOM     13  N   UNL A   1      44.129  41.115  31.507  1.00  0.00    -0.214 NA
ATOM     14  C   UNL A   1      44.436  39.978  33.567  1.00  0.00     0.030 A 
ATOM     15  C   UNL A   1      44.027  41.034  35.685  1.00  0.00     0.002 A 
ATOM     16  C   UNL A   1      44.497  39.947  34.954  1.00  0.00     0.002 A 
BRANCH   8  17
ATOM     17  C   UNL A   1      42.969  44.709  33.429  1.00  0.00     0.322 C 
ATOM     18  N   UNL A   1      43.938  45.465  34.001  1.00  0.00    -0.329 N 
ATOM     19  H   UNL A   1      43.607  46.219  34.539  1.00  0.00     0.165 HD
ATOM     20  O   UNL A   1      41.866  45.248  33.297  1.00  0.00    -0.248 OA
BRANCH  18  21
ATOM     21  C   UNL A   1      45.387  45.344  33.951  1.00  0.00     0.218 C 
BRANCH  21  22
ATOM     22  C   UNL A   1      46.185  45.881  35.147  1.00  0.00     0.240 C 
ATOM     23  O   UNL A   1      47.171  45.260  35.548  1.00  0.00    -0.273 OA
ATOM     24  N   UNL A   1      45.806  47.090  35.688  1.00  0.00    -0.342 N 
ATOM     25  H   UNL A   1      44.910  47.459  35.518  1.00  0.00     0.164 HD
BRANCH  24  26
ATOM     26  C   UNL A   1      46.771  47.817  36.526  1.00  0.00     0.158 C 
BRANCH  26  27
ATOM     27  C   UNL A   1      47.097  49.191  35.946  1.00  0.00    -0.020 A 
ATOM     28  C   UNL A   1      48.343  49.496  35.370  1.00  0.00     0.006 A 
ATOM     29  C   UNL A   1      46.097  50.179  35.918  1.00  0.00     0.006 A 
ATOM     30  C   UNL A   1      48.558  50.723  34.735  1.00  0.00     0.000 A 
ATOM     31  C   UNL A   1      46.320  51.409  35.294  1.00  0.00     0.000 A 
ATOM     32  C   UNL A   1      47.545  51.675  34.690  1.00  0.00     0.000 A 
ENDBRANCH  26  27
BRANCH  26  33
ATOM     33  C   UNL A   1      46.460  47.876  38.041  1.00  0.00     0.068 C 
ATOM     34  O   UNL A   1      45.668  47.158  38.638  1.00  0.00    -0.548 OA
ATOM     35  O   UNL A   1      47.202  48.751  38.754  1.00  0.00    -0.548 OA
ENDBRANCH  26  33
ENDBRANCH  24  26
ENDBRANCH  21  22
ENDBRANCH  18  21
ENDBRANCH   8  17
ENDBRANCH   6   7
ENDBRANCH   5   6
ENDBRANCH   4   5
ENDBRANCH   3   4
ENDBRANCH   2   3
ENDBRANCH   1   2
BRANCH   1  36
ATOM     36  O   UNL A   1      46.743  42.258  26.096  1.00  0.00    -0.377 OA
BRANCH  36  37
ATOM     37  C   UNL A   1      45.333  42.382  26.153  1.00  0.00     0.188 C 
BRANCH  37  38
ATOM     38  C   UNL A   1      44.534  41.088  26.409  1.00  0.00     0.188 C 
BRANCH  38  39
ATOM     39  O   UNL A   1      43.128  41.042  26.189  1.00  0.00    -0.376 OA
BRANCH  39  40
ATOM     40  C   UNL A   1      42.346  40.068  26.878  1.00  0.00     0.202 C 
BRANCH  40  41
ATOM     41  C   UNL A   1      43.091  38.818  27.326  1.00  0.00     0.261 C 
BRANCH  41  42
ATOM     42  O   UNL A   1      42.332  38.151  28.347  1.00  0.00    -0.460 OA
BRANCH  42  43
ATOM     43  C   UNL A   1      42.198  36.825  28.159  1.00  0.00     0.338 C 
ATOM     44  O   UNL A   1      41.161  36.174  28.176  1.00  0.00    -0.246 OA
BRANCH  43  45
ATOM     45  C   UNL A   1      43.470  36.291  27.659  1.00  0.00     0.060 A 
ATOM     46  C   UNL A   1      43.480  35.818  26.343  1.00  0.00     0.016 A 
ATOM     47  C   UNL A   1      44.605  36.185  28.468  1.00  0.00     0.016 A 
ATOM     48  C   UNL A   1      44.586  35.128  25.868  1.00  0.00     0.010 A 
ATOM     49  C   UNL A   1      45.721  35.489  27.985  1.00  0.00     0.010 A 
ATOM     50  C   UNL A   1      45.675  34.885  26.716  1.00  0.00    -0.014 A 
BRANCH  50  51
ATOM     51  C   UNL A   1      46.554  33.740  26.360  1.00  0.00     0.031 A 
ATOM     52  C   UNL A   1      47.995  34.041  26.019  1.00  0.00     0.074 A 
ATOM     53  C   UNL A   1      46.143  32.468  26.514  1.00  0.00     0.049 A 
ATOM     54  N   UNL A   1      49.004  33.221  25.878  1.00  0.00    -0.248 NA
ATOM     55  C   UNL A   1      48.345  35.457  25.819  1.00  0.00     0.031 C 
ATOM     56  C   UNL A   1      44.787  32.052  26.867  1.00  0.00     0.029 A 
ATOM     57  N   UNL A   1      46.845  31.292  26.427  1.00  0.00    -0.354 N 
ATOM     58  C   UNL A   1      50.103  34.022  25.585  1.00  0.00     0.074 A 
ATOM     59  C   UNL A   1      49.630  35.385  25.513  1.00  0.00     0.031 C 
ATOM     60  C   UNL A   1      44.760  30.713  26.991  1.00  0.00     0.029 A 
ATOM     61  C   UNL A   1      46.096  30.179  26.726  1.00  0.00     0.049 A 
ATOM     62  H   UNL A   1      47.796  31.249  26.175  1.00  0.00     0.167 HD
ATOM     63  C   UNL A   1      51.398  33.666  25.420  1.00  0.00     0.037 A 
ATOM     64  C   UNL A   1      46.455  28.880  26.796  1.00  0.00     0.037 A 
ATOM     65  C   UNL A   1      51.876  32.313  25.508  1.00  0.00     0.049 A 
ATOM     66  C   UNL A   1      47.899  28.502  26.587  1.00  0.00     0.074 A 
ATOM     67  C   UNL A   1      53.168  31.843  25.362  1.00  0.00     0.029 A 
ATOM     68  N   UNL A   1      51.074  31.212  25.769  1.00  0.00    -0.354 N 
ATOM     69  N   UNL A   1      48.931  29.277  26.340  1.00  0.00    -0.248 NA
ATOM     70  C   UNL A   1      48.232  27.074  26.688  1.00  0.00     0.031 C 
ATOM     71  C   UNL A   1      53.142  30.450  25.500  1.00  0.00     0.029 A 
ATOM     72  C   UNL A   1      51.841  30.061  25.775  1.00  0.00     0.049 A 
ATOM     73  H   UNL A   1      50.103  31.245  25.927  1.00  0.00     0.167 HD
ATOM     74  C   UNL A   1      50.035  28.433  26.277  1.00  0.00     0.074 A 
ATOM     75  C   UNL A   1      49.549  27.092  26.532  1.00  0.00     0.031 C 
ATOM     76  C   UNL A   1      51.335  28.736  26.031  1.00  0.00     0.037 A 
BRANCH  63  77
ATOM     77  C   UNL A   1      52.380  34.762  25.111  1.00  0.00     0.058 A 
ATOM     78  C   UNL A   1      52.730  35.089  23.790  1.00  0.00     0.135 A 
ATOM     79  C   UNL A   1      52.980  35.493  26.148  1.00  0.00     0.135 A 
ATOM     80  F   UNL A   1      52.204  34.405  22.762  1.00  0.00    -0.206 F 
ATOM     81  C   UNL A   1      53.665  36.081  23.510  1.00  0.00     0.059 A 
ATOM     82  C   UNL A   1      53.898  36.507  25.890  1.00  0.00     0.059 A 
ATOM     83  F   UNL A   1      52.686  35.216  27.428  1.00  0.00    -0.206 F 
ATOM     84  C   UNL A   1      54.245  36.783  24.568  1.00  0.00     0.060 A 
BRANCH  84  85
ATOM     85  S   UNL A   1      55.458  38.067  24.193  1.00  0.00     0.124 S 
ATOM     86  O   UNL A   1      55.215  38.292  22.771  1.00  0.00    -0.237 OA
ATOM     87  O   UNL A   1      55.055  39.149  25.084  1.00  0.00    -0.237 OA
ATOM     88  O   UNL A   1      56.733  37.434  24.519  1.00  0.00    -0.744 OA
ENDBRANCH  84  85
ENDBRANCH  63  77
BRANCH  64  89
ATOM     89  C   UNL A   1      45.435  27.841  27.102  1.00  0.00     0.058 A 
ATOM     90  C   UNL A   1      45.084  27.524  28.423  1.00  0.00     0.135 A 
ATOM     91  C   UNL A   1      44.798  27.134  26.070  1.00  0.00     0.135 A 
ATOM     92  F   UNL A   1      45.672  28.164  29.444  1.00  0.00    -0.206 F 
ATOM     93  C   UNL A   1      44.151  26.533  28.712  1.00  0.00     0.059 A 
ATOM     94  C   UNL A   1      43.844  26.156  26.333  1.00  0.00     0.059 A 
ATOM     95  F   UNL A   1      45.090  27.405  24.789  1.00  0.00    -0.206 F 
ATOM     96  C   UNL A   1      43.533  25.855  27.659  1.00  0.00     0.060 A 
BRANCH  96  97
ATOM     97  S   UNL A   1      42.284  24.607  28.038  1.00  0.00     0.124 S 
ATOM     98  O   UNL A   1      41.178  25.433  28.511  1.00  0.00    -0.237 OA
ATOM     99  O   UNL A   1      42.091  23.962  26.743  1.00  0.00    -0.237 OA
ATOM    100  O   UNL A   1      42.934  23.781  29.049  1.00  0.00    -0.744 OA
ENDBRANCH  96  97
ENDBRANCH  64  89
BRANCH  76 101
ATOM    101  C   UNL A   1      52.322  27.601  26.048  1.00  0.00     0.058 A 
ATOM    102  C   UNL A   1      52.525  26.786  24.924  1.00  0.00     0.135 A 
ATOM    103  C   UNL A   1      53.091  27.344  27.194  1.00  0.00     0.135 A 
ATOM    104  F   UNL A   1      51.816  26.991  23.803  1.00  0.00    -0.206 F 
ATOM    105  C   UNL A   1      53.429  25.729  24.948  1.00  0.00     0.059 A 
ATOM    106  C   UNL A   1      54.020  26.309  27.231  1.00  0.00     0.059 A 
ATOM    107  F   UNL A   1      52.948  28.105  28.290  1.00  0.00    -0.206 F 
ATOM    108  C   UNL A   1      54.167  25.494  26.109  1.00  0.00     0.060 A 
BRANCH 108 109
ATOM    109  S   UNL A   1      55.335  24.117  26.133  1.00  0.00     0.124 S 
ATOM    110  O   UNL A   1      54.458  22.986  25.843  1.00  0.00    -0.237 OA
ATOM    111  O   UNL A   1      56.271  24.479  25.074  1.00  0.00    -0.237 OA
ATOM    112  O   UNL A   1      55.880  24.159  27.486  1.00  0.00    -0.744 OA
ENDBRANCH 108 109
ENDBRANCH  76 101
ENDBRANCH  50  51
ENDBRANCH  43  45
ENDBRANCH  42  43
ENDBRANCH  41  42
ENDBRANCH  40  41
ENDBRANCH  39  40
ENDBRANCH  38  39
ENDBRANCH  37  38
ENDBRANCH  36  37
ENDBRANCH   1  36
TORSDOF 28
ENDMDL
