MODEL 1
REMARK VINA RESULT:      -8.0      0.000      0.000
REMARK SMILES N#Cc1cccnc1N1CC[NH+]([C@@H](C(=O)OCCOCCOCCOCCOC(=O)c2ccc(-c3c4nc(c(-c5c(F)cc(S(=O)(=O)[O-])cc5F)c5ccc([nH]5)c(-c5c(F)cc(S(=O)(=O)[O-])cc5F)c5nc(c(-c6c(F)cc(S(=O)(=O)[O-])cc6F)c6ccc3[nH]6)C=C5)C=C4)cc2)c2c[nH]c3cc(CO)ccc23)CC1
REMARK SMILES IDX 22 1 21 2 20 3 19 4 18 5 17 6 16 7 14 8 15 9 13 10 12 11
REMARK SMILES IDX 9 12 10 13 109 14 11 15 108 16 8 18 3 19 4 20 5 21 7 22 6 23
REMARK SMILES IDX 2 24 1 25 97 26 98 27 107 28 99 29 100 30 106 31 101 33
REMARK SMILES IDX 105 34 102 35 103 36 104 37 23 39 24 40 25 41 26 42 27 43
REMARK SMILES IDX 28 44 29 45 30 46 31 47 32 48 96 49 33 50 95 51 34 52 35 53
REMARK SMILES IDX 36 54 89 55 37 56 94 57 88 58 90 59 38 60 93 61 87 62 86 63
REMARK SMILES IDX 39 65 73 66 52 67 72 68 53 69 56 70 71 71 91 72 54 73 55 74
REMARK SMILES IDX 70 76 92 77 57 78 40 79 41 80 50 81 42 82 43 83 49 84 51 85
REMARK SMILES IDX 44 86 45 87 46 88 47 89 48 90 74 91 75 92 84 93 76 94 77 95
REMARK SMILES IDX 83 96 85 97 78 98 79 99 80 100 81 101 82 102 58 103 59 104
REMARK SMILES IDX 68 105 60 106 61 107 67 108 69 109 62 110 63 111 64 112
REMARK SMILES IDX 65 113 66 114
REMARK H PARENT 12 17 99 32 104 38 90 64 56 75
REMARK Flexibility Score: inf
ROOT
ATOM      1  O   UNL A   1      38.465  34.185  36.239  1.00  0.00    -0.377 OA
ENDROOT
BRANCH   1   2
ATOM      2  C   UNL A   1      38.037  32.945  36.730  1.00  0.00     0.188 C 
BRANCH   2   3
ATOM      3  C   UNL A   1      37.073  32.974  37.909  1.00  0.00     0.188 C 
BRANCH   3   4
ATOM      4  O   UNL A   1      36.805  31.743  38.558  1.00  0.00    -0.376 OA
BRANCH   4   5
ATOM      5  C   UNL A   1      35.966  31.780  39.709  1.00  0.00     0.202 C 
BRANCH   5   6
ATOM      6  C   UNL A   1      36.596  31.915  41.113  1.00  0.00     0.261 C 
BRANCH   6   7
ATOM      7  O   UNL A   1      37.553  32.996  41.284  1.00  0.00    -0.459 OA
BRANCH   7   8
ATOM      8  C   UNL A   1      38.881  32.720  41.185  1.00  0.00     0.370 C 
ATOM      9  O   UNL A   1      39.304  31.575  41.031  1.00  0.00    -0.245 OA
BRANCH   8  10
ATOM     10  C   UNL A   1      39.819  33.955  41.319  1.00  0.00     0.328 C 
BRANCH  10  11
ATOM     11  N   UNL A   1      40.564  34.140  42.648  1.00  0.00    -0.316 N 
ATOM     12  N   UNL A   1      38.684  35.113  44.721  1.00  0.00    -0.344 N 
ATOM     13  C   UNL A   1      39.248  35.921  43.663  1.00  0.00     0.179 C 
ATOM     14  C   UNL A   1      38.944  33.664  44.696  1.00  0.00     0.179 C 
ATOM     15  C   UNL A   1      40.626  35.461  43.259  1.00  0.00     0.285 C 
ATOM     16  C   UNL A   1      40.155  33.241  43.769  1.00  0.00     0.285 C 
ATOM     17  H   UNL A   1      41.478  33.905  42.260  1.00  0.00     0.349 HD
BRANCH  12  18
ATOM     18  C   UNL A   1      37.666  35.657  45.526  1.00  0.00     0.146 A 
ATOM     19  C   UNL A   1      38.174  36.285  47.030  1.00  0.00     0.095 A 
ATOM     20  C   UNL A   1      36.947  37.009  48.058  1.00  0.00     0.025 A 
ATOM     21  C   UNL A   1      35.019  37.126  47.439  1.00  0.00     0.022 A 
ATOM     22  N   UNL A   1      35.996  35.724  44.991  1.00  0.00    -0.238 NA
ATOM     23  C   UNL A   1      34.648  36.396  45.881  1.00  0.00     0.113 A 
BRANCH  19  24
ATOM     24  C   UNL A   1      39.547  36.426  47.376  1.00  0.00     0.103 C 
ATOM     25  N   UNL A   1      40.658  36.506  47.700  1.00  0.00    -0.192 NA
ENDBRANCH  19  24
ENDBRANCH  12  18
ENDBRANCH  10  11
BRANCH  10  26
ATOM     26  C   UNL A   1      39.816  35.118  40.156  1.00  0.00     0.046 A 
ATOM     27  C   UNL A   1      40.676  34.964  39.054  1.00  0.00     0.094 A 
ATOM     28  C   UNL A   1      39.773  36.598  40.106  1.00  0.00     0.009 A 
ATOM     29  N   UNL A   1      41.703  35.814  39.507  1.00  0.00    -0.361 N 
ATOM     30  C   UNL A   1      41.107  36.977  39.940  1.00  0.00     0.046 A 
ATOM     31  C   UNL A   1      38.855  37.679  39.931  1.00  0.00     0.011 A 
ATOM     32  H   UNL A   1      42.666  35.614  39.514  1.00  0.00     0.166 HD
ATOM     33  C   UNL A   1      41.584  38.277  40.189  1.00  0.00     0.032 A 
ATOM     34  C   UNL A   1      39.290  39.016  40.112  1.00  0.00     0.007 A 
ATOM     35  C   UNL A   1      40.635  39.303  40.381  1.00  0.00    -0.021 A 
BRANCH  35  36
ATOM     36  C   UNL A   1      41.055  40.673  40.882  1.00  0.00     0.191 C 
BRANCH  36  37
ATOM     37  O   UNL A   1      41.451  40.679  42.252  1.00  0.00    -0.392 OA
ATOM     38  H   UNL A   1      41.984  39.891  42.439  1.00  0.00     0.211 HD
ENDBRANCH  36  37
ENDBRANCH  35  36
ENDBRANCH  10  26
ENDBRANCH   8  10
ENDBRANCH   7   8
ENDBRANCH   6   7
ENDBRANCH   5   6
ENDBRANCH   4   5
ENDBRANCH   3   4
ENDBRANCH   2   3
ENDBRANCH   1   2
BRANCH   1  39
ATOM     39  C   UNL A   1      38.636  34.257  34.842  1.00  0.00     0.188 C 
BRANCH  39  40
ATOM     40  C   UNL A   1      37.366  34.397  33.964  1.00  0.00     0.188 C 
BRANCH  40  41
ATOM     41  O   UNL A   1      37.008  33.592  32.823  1.00  0.00    -0.376 OA
BRANCH  41  42
ATOM     42  C   UNL A   1      37.670  33.852  31.597  1.00  0.00     0.202 C 
BRANCH  42  43
ATOM     43  C   UNL A   1      36.928  33.333  30.336  1.00  0.00     0.261 C 
BRANCH  43  44
ATOM     44  O   UNL A   1      35.691  32.682  30.682  1.00  0.00    -0.460 OA
BRANCH  44  45
ATOM     45  C   UNL A   1      35.378  31.678  29.857  1.00  0.00     0.338 C 
ATOM     46  O   UNL A   1      34.427  31.691  29.081  1.00  0.00    -0.246 OA
BRANCH  45  47
ATOM     47  C   UNL A   1      36.380  30.454  29.926  1.00  0.00     0.060 A 
ATOM     48  C   UNL A   1      37.516  29.628  31.407  1.00  0.00     0.016 A 
ATOM     49  C   UNL A   1      37.125  30.604  28.301  1.00  0.00     0.016 A 
ATOM     50  C   UNL A   1      39.202  29.215  31.073  1.00  0.00     0.010 A 
ATOM     51  C   UNL A   1      38.775  30.078  28.091  1.00  0.00     0.010 A 
ATOM     52  C   UNL A   1      39.780  29.423  29.423  1.00  0.00    -0.014 A 
BRANCH  52  53
ATOM     53  C   UNL A   1      41.148  29.024  29.124  1.00  0.00     0.031 A 
ATOM     54  C   UNL A   1      42.203  30.064  29.229  1.00  0.00     0.074 A 
ATOM     55  C   UNL A   1      41.361  27.774  28.678  1.00  0.00     0.049 A 
ATOM     56  N   UNL A   1      43.329  30.117  28.585  1.00  0.00    -0.248 NA
ATOM     57  C   UNL A   1      41.900  31.281  30.011  1.00  0.00     0.031 C 
ATOM     58  C   UNL A   1      40.350  26.724  28.480  1.00  0.00     0.029 A 
ATOM     59  N   UNL A   1      42.517  27.158  28.315  1.00  0.00    -0.354 N 
ATOM     60  C   UNL A   1      43.798  31.400  28.807  1.00  0.00     0.074 A 
ATOM     61  C   UNL A   1      42.769  32.135  29.494  1.00  0.00     0.031 C 
ATOM     62  C   UNL A   1      40.945  25.563  28.196  1.00  0.00     0.029 A 
ATOM     63  C   UNL A   1      42.345  25.838  27.971  1.00  0.00     0.049 A 
ATOM     64  H   UNL A   1      43.391  27.611  28.301  1.00  0.00     0.167 HD
ATOM     65  C   UNL A   1      45.027  31.877  28.539  1.00  0.00     0.037 A 
ATOM     66  C   UNL A   1      43.223  24.975  27.445  1.00  0.00     0.037 A 
ATOM     67  C   UNL A   1      46.054  31.030  28.009  1.00  0.00     0.049 A 
ATOM     68  C   UNL A   1      44.585  25.531  27.168  1.00  0.00     0.074 A 
ATOM     69  C   UNL A   1      47.369  31.333  27.734  1.00  0.00     0.029 A 
ATOM     70  N   UNL A   1      45.872  29.679  27.728  1.00  0.00    -0.354 N 
ATOM     71  N   UNL A   1      45.027  26.754  27.357  1.00  0.00    -0.248 NA
ATOM     72  C   UNL A   1      45.563  24.604  26.606  1.00  0.00     0.031 C 
ATOM     73  C   UNL A   1      47.970  30.175  27.234  1.00  0.00     0.029 A 
ATOM     74  C   UNL A   1      47.051  29.132  27.271  1.00  0.00     0.049 A 
ATOM     75  H   UNL A   1      45.027  29.187  27.839  1.00  0.00     0.167 HD
ATOM     76  C   UNL A   1      46.354  26.739  26.968  1.00  0.00     0.074 A 
ATOM     77  C   UNL A   1      46.643  25.370  26.572  1.00  0.00     0.031 C 
ATOM     78  C   UNL A   1      47.259  27.749  26.922  1.00  0.00     0.037 A 
BRANCH  65  79
ATOM     79  C   UNL A   1      45.309  33.309  28.873  1.00  0.00     0.058 A 
ATOM     80  C   UNL A   1      45.840  33.692  30.117  1.00  0.00     0.135 A 
ATOM     81  C   UNL A   1      45.041  34.316  27.936  1.00  0.00     0.135 A 
ATOM     82  F   UNL A   1      46.070  32.775  31.071  1.00  0.00    -0.206 F 
ATOM     83  C   UNL A   1      46.087  35.024  30.422  1.00  0.00     0.059 A 
ATOM     84  C   UNL A   1      45.321  35.651  28.204  1.00  0.00     0.059 A 
ATOM     85  F   UNL A   1      44.502  34.008  26.746  1.00  0.00    -0.206 F 
ATOM     86  C   UNL A   1      45.845  35.993  29.451  1.00  0.00     0.060 A 
BRANCH  86  87
ATOM     87  S   UNL A   1      46.277  37.701  29.828  1.00  0.00     0.124 S 
ATOM     88  O   UNL A   1      45.962  38.371  28.571  1.00  0.00    -0.237 OA
ATOM     89  O   UNL A   1      45.386  37.998  30.946  1.00  0.00    -0.237 OA
ATOM     90  O   UNL A   1      47.695  37.627  30.163  1.00  0.00    -0.744 OA
ENDBRANCH  86  87
ENDBRANCH  65  79
BRANCH  66  91
ATOM     91  C   UNL A   1      42.839  23.576  27.129  1.00  0.00     0.058 A 
ATOM     92  C   UNL A   1      42.692  22.631  28.153  1.00  0.00     0.135 A 
ATOM     93  C   UNL A   1      42.619  23.146  25.809  1.00  0.00     0.135 A 
ATOM     94  F   UNL A   1      42.856  22.999  29.433  1.00  0.00    -0.206 F 
ATOM     95  C   UNL A   1      42.420  21.297  27.879  1.00  0.00     0.059 A 
ATOM     96  C   UNL A   1      42.295  21.827  25.513  1.00  0.00     0.059 A 
ATOM     97  F   UNL A   1      42.695  24.015  24.789  1.00  0.00    -0.206 F 
ATOM     98  C   UNL A   1      42.233  20.903  26.554  1.00  0.00     0.060 A 
BRANCH  98  99
ATOM     99  S   UNL A   1      41.925  19.161  26.208  1.00  0.00     0.124 S 
ATOM    100  O   UNL A   1      40.505  19.178  25.877  1.00  0.00    -0.237 OA
ATOM    101  O   UNL A   1      42.838  18.906  25.098  1.00  0.00    -0.237 OA
ATOM    102  O   UNL A   1      42.273  18.501  27.462  1.00  0.00    -0.744 OA
ENDBRANCH  98  99
ENDBRANCH  66  91
BRANCH  78 103
ATOM    103  C   UNL A   1      48.640  27.365  26.500  1.00  0.00     0.058 A 
ATOM    104  C   UNL A   1      49.024  27.367  25.153  1.00  0.00     0.135 A 
ATOM    105  C   UNL A   1      49.586  27.007  27.471  1.00  0.00     0.135 A 
ATOM    106  F   UNL A   1      48.144  27.698  24.194  1.00  0.00    -0.206 F 
ATOM    107  C   UNL A   1      50.294  26.963  24.774  1.00  0.00     0.059 A 
ATOM    108  C   UNL A   1      50.879  26.658  27.118  1.00  0.00     0.059 A 
ATOM    109  F   UNL A   1      49.262  27.011  28.773  1.00  0.00    -0.206 F 
ATOM    110  C   UNL A   1      51.213  26.613  25.766  1.00  0.00     0.060 A 
BRANCH 110 111
ATOM    111  S   UNL A   1      52.860  26.101  25.257  1.00  0.00     0.124 S 
ATOM    112  O   UNL A   1      53.697  26.841  26.195  1.00  0.00    -0.237 OA
ATOM    113  O   UNL A   1      52.806  24.656  25.455  1.00  0.00    -0.237 OA
ATOM    114  O   UNL A   1      52.937  26.538  23.866  1.00  0.00    -0.744 OA
ENDBRANCH 110 111
ENDBRANCH  78 103
ENDBRANCH  52  53
ENDBRANCH  45  47
ENDBRANCH  44  45
ENDBRANCH  43  44
ENDBRANCH  42  43
ENDBRANCH  41  42
ENDBRANCH  40  41
ENDBRANCH  39  40
ENDBRANCH   1  39
TORSDOF 29
ENDMDL
MODEL 2
REMARK VINA RESULT:      -7.6      8.338     16.589
REMARK SMILES N#Cc1cccnc1N1CC[NH+]([C@@H](C(=O)OCCOCCOCCOCCOC(=O)c2ccc(-c3c4nc(c(-c5c(F)cc(S(=O)(=O)[O-])cc5F)c5ccc([nH]5)c(-c5c(F)cc(S(=O)(=O)[O-])cc5F)c5nc(c(-c6c(F)cc(S(=O)(=O)[O-])cc6F)c6ccc3[nH]6)C=C5)C=C4)cc2)c2c[nH]c3cc(CO)ccc23)CC1
REMARK SMILES IDX 22 1 21 2 20 3 19 4 18 5 17 6 16 7 14 8 15 9 13 10 12 11
REMARK SMILES IDX 9 12 10 13 109 14 11 15 108 16 8 18 3 19 4 20 5 21 7 22 6 23
REMARK SMILES IDX 2 24 1 25 97 26 98 27 107 28 99 29 100 30 106 31 101 33
REMARK SMILES IDX 105 34 102 35 103 36 104 37 23 39 24 40 25 41 26 42 27 43
REMARK SMILES IDX 28 44 29 45 30 46 31 47 32 48 96 49 33 50 95 51 34 52 35 53
REMARK SMILES IDX 36 54 89 55 37 56 94 57 88 58 90 59 38 60 93 61 87 62 86 63
REMARK SMILES IDX 39 65 73 66 52 67 72 68 53 69 56 70 71 71 91 72 54 73 55 74
REMARK SMILES IDX 70 76 92 77 57 78 40 79 41 80 50 81 42 82 43 83 49 84 51 85
REMARK SMILES IDX 44 86 45 87 46 88 47 89 48 90 74 91 75 92 84 93 76 94 77 95
REMARK SMILES IDX 83 96 85 97 78 98 79 99 80 100 81 101 82 102 58 103 59 104
REMARK SMILES IDX 68 105 60 106 61 107 67 108 69 109 62 110 63 111 64 112
REMARK SMILES IDX 65 113 66 114
REMARK H PARENT 12 17 99 32 104 38 90 64 56 75
REMARK Flexibility Score: inf
ROOT
ATOM      1  O   UNL A   1      48.376  37.004  26.171  1.00  0.00    -0.377 OA
ENDROOT
BRANCH   1   2
ATOM      2  C   UNL A   1      47.015  37.286  25.994  1.00  0.00     0.188 C 
BRANCH   2   3
ATOM      3  C   UNL A   1      46.625  38.758  25.949  1.00  0.00     0.188 C 
BRANCH   3   4
ATOM      4  O   UNL A   1      46.575  39.376  24.676  1.00  0.00    -0.376 OA
BRANCH   4   5
ATOM      5  C   UNL A   1      46.941  40.751  24.602  1.00  0.00     0.202 C 
BRANCH   5   6
ATOM      6  C   UNL A   1      46.009  41.827  25.201  1.00  0.00     0.261 C 
BRANCH   6   7
ATOM      7  O   UNL A   1      46.511  43.192  25.182  1.00  0.00    -0.459 OA
BRANCH   7   8
ATOM      8  C   UNL A   1      45.895  44.108  24.388  1.00  0.00     0.370 C 
ATOM      9  O   UNL A   1      45.107  44.940  24.836  1.00  0.00    -0.245 OA
BRANCH   8  10
ATOM     10  C   UNL A   1      46.236  43.999  22.873  1.00  0.00     0.328 C 
BRANCH  10  11
ATOM     11  N   UNL A   1      45.339  43.105  22.006  1.00  0.00    -0.316 N 
ATOM     12  N   UNL A   1      44.319  44.653  19.695  1.00  0.00    -0.344 N 
ATOM     13  C   UNL A   1      43.831  44.763  21.052  1.00  0.00     0.179 C 
ATOM     14  C   UNL A   1      45.506  43.816  19.453  1.00  0.00     0.179 C 
ATOM     15  C   UNL A   1      43.941  43.464  21.810  1.00  0.00     0.285 C 
ATOM     16  C   UNL A   1      45.833  42.806  20.628  1.00  0.00     0.285 C 
ATOM     17  H   UNL A   1      45.396  42.302  22.634  1.00  0.00     0.349 HD
BRANCH  12  18
ATOM     18  C   UNL A   1      43.870  45.577  18.732  1.00  0.00     0.146 A 
ATOM     19  C   UNL A   1      42.293  45.310  18.136  1.00  0.00     0.095 A 
ATOM     20  C   UNL A   1      41.671  46.456  16.958  1.00  0.00     0.025 A 
ATOM     21  C   UNL A   1      42.784  48.051  16.382  1.00  0.00     0.022 A 
ATOM     22  N   UNL A   1      44.856  46.935  18.219  1.00  0.00    -0.238 NA
ATOM     23  C   UNL A   1      44.406  48.162  17.057  1.00  0.00     0.113 A 
BRANCH  19  24
ATOM     24  C   UNL A   1      41.416  44.342  18.700  1.00  0.00     0.103 C 
ATOM     25  N   UNL A   1      40.661  43.591  19.161  1.00  0.00    -0.192 NA
ENDBRANCH  19  24
ENDBRANCH  12  18
ENDBRANCH  10  11
BRANCH  10  26
ATOM     26  C   UNL A   1      47.637  44.641  22.298  1.00  0.00     0.046 A 
ATOM     27  C   UNL A   1      48.837  43.947  22.532  1.00  0.00     0.094 A 
ATOM     28  C   UNL A   1      48.256  45.985  22.214  1.00  0.00     0.009 A 
ATOM     29  N   UNL A   1      49.270  44.703  23.637  1.00  0.00    -0.361 N 
ATOM     30  C   UNL A   1      49.130  46.031  23.302  1.00  0.00     0.046 A 
ATOM     31  C   UNL A   1      48.427  47.076  21.307  1.00  0.00     0.011 A 
ATOM     32  H   UNL A   1      49.609  44.349  24.491  1.00  0.00     0.166 HD
ATOM     33  C   UNL A   1      49.667  47.224  23.821  1.00  0.00     0.032 A 
ATOM     34  C   UNL A   1      49.015  48.286  21.756  1.00  0.00     0.007 A 
ATOM     35  C   UNL A   1      49.508  48.403  23.062  1.00  0.00    -0.021 A 
BRANCH  35  36
ATOM     36  C   UNL A   1      49.847  49.762  23.649  1.00  0.00     0.191 C 
BRANCH  36  37
ATOM     37  O   UNL A   1      51.032  50.336  23.101  1.00  0.00    -0.392 OA
ATOM     38  H   UNL A   1      51.391  50.991  23.720  1.00  0.00     0.211 HD
ENDBRANCH  36  37
ENDBRANCH  35  36
ENDBRANCH  10  26
ENDBRANCH   8  10
ENDBRANCH   7   8
ENDBRANCH   6   7
ENDBRANCH   5   6
ENDBRANCH   4   5
ENDBRANCH   3   4
ENDBRANCH   2   3
ENDBRANCH   1   2
BRANCH   1  39
ATOM     39  C   UNL A   1      49.034  36.465  25.047  1.00  0.00     0.188 C 
BRANCH  39  40
ATOM     40  C   UNL A   1      49.880  35.181  25.251  1.00  0.00     0.188 C 
BRANCH  40  41
ATOM     41  O   UNL A   1      50.855  34.632  24.342  1.00  0.00    -0.376 OA
BRANCH  41  42
ATOM     42  C   UNL A   1      51.982  33.977  24.898  1.00  0.00     0.202 C 
BRANCH  42  43
ATOM     43  C   UNL A   1      51.953  32.429  24.788  1.00  0.00     0.261 C 
BRANCH  43  44
ATOM     44  O   UNL A   1      50.999  31.853  25.700  1.00  0.00    -0.460 OA
BRANCH  44  45
ATOM     45  C   UNL A   1      51.552  30.995  26.564  1.00  0.00     0.338 C 
ATOM     46  O   UNL A   1      52.760  30.870  26.738  1.00  0.00    -0.246 OA
BRANCH  45  47
ATOM     47  C   UNL A   1      50.499  30.161  27.404  1.00  0.00     0.060 A 
ATOM     48  C   UNL A   1      48.784  29.157  26.937  1.00  0.00     0.016 A 
ATOM     49  C   UNL A   1      50.505  31.130  28.912  1.00  0.00     0.016 A 
ATOM     50  C   UNL A   1      47.353  29.378  27.952  1.00  0.00     0.010 A 
ATOM     51  C   UNL A   1      49.045  31.193  29.866  1.00  0.00     0.010 A 
ATOM     52  C   UNL A   1      47.525  30.363  29.400  1.00  0.00    -0.014 A 
BRANCH  52  53
ATOM     53  C   UNL A   1      46.371  30.497  30.276  1.00  0.00     0.031 A 
ATOM     54  C   UNL A   1      45.538  31.719  30.131  1.00  0.00     0.074 A 
ATOM     55  C   UNL A   1      46.182  29.563  31.225  1.00  0.00     0.049 A 
ATOM     56  N   UNL A   1      44.812  32.295  31.039  1.00  0.00    -0.248 NA
ATOM     57  C   UNL A   1      45.660  32.493  28.878  1.00  0.00     0.031 C 
ATOM     58  C   UNL A   1      47.012  28.374  31.469  1.00  0.00     0.029 A 
ATOM     59  N   UNL A   1      45.210  29.457  32.170  1.00  0.00    -0.354 N 
ATOM     60  C   UNL A   1      44.491  33.528  30.499  1.00  0.00     0.074 A 
ATOM     61  C   UNL A   1      45.229  33.680  29.273  1.00  0.00     0.031 C 
ATOM     62  C   UNL A   1      46.427  27.585  32.373  1.00  0.00     0.029 A 
ATOM     63  C   UNL A   1      45.313  28.316  32.929  1.00  0.00     0.049 A 
ATOM     64  H   UNL A   1      44.503  30.130  32.297  1.00  0.00     0.167 HD
ATOM     65  C   UNL A   1      43.577  34.405  30.954  1.00  0.00     0.037 A 
ATOM     66  C   UNL A   1      44.622  27.954  34.016  1.00  0.00     0.037 A 
ATOM     67  C   UNL A   1      42.758  34.102  32.089  1.00  0.00     0.049 A 
ATOM     68  C   UNL A   1      43.605  28.943  34.493  1.00  0.00     0.074 A 
ATOM     69  C   UNL A   1      41.744  34.849  32.648  1.00  0.00     0.029 A 
ATOM     70  N   UNL A   1      42.837  32.911  32.804  1.00  0.00    -0.354 N 
ATOM     71  N   UNL A   1      43.313  30.125  33.995  1.00  0.00    -0.248 NA
ATOM     72  C   UNL A   1      42.830  28.564  35.670  1.00  0.00     0.031 C 
ATOM     73  C   UNL A   1      41.245  34.129  33.737  1.00  0.00     0.029 A 
ATOM     74  C   UNL A   1      41.895  32.902  33.809  1.00  0.00     0.049 A 
ATOM     75  H   UNL A   1      43.472  32.181  32.618  1.00  0.00     0.167 HD
ATOM     76  C   UNL A   1      42.289  30.621  34.782  1.00  0.00     0.074 A 
ATOM     77  C   UNL A   1      41.995  29.587  35.761  1.00  0.00     0.031 C 
ATOM     78  C   UNL A   1      41.651  31.817  34.726  1.00  0.00     0.037 A 
BRANCH  65  79
ATOM     79  C   UNL A   1      43.398  35.683  30.196  1.00  0.00     0.058 A 
ATOM     80  C   UNL A   1      44.136  36.840  30.503  1.00  0.00     0.135 A 
ATOM     81  C   UNL A   1      42.471  35.756  29.148  1.00  0.00     0.135 A 
ATOM     82  F   UNL A   1      45.003  36.843  31.529  1.00  0.00    -0.206 F 
ATOM     83  C   UNL A   1      43.954  38.025  29.802  1.00  0.00     0.059 A 
ATOM     84  C   UNL A   1      42.303  36.919  28.405  1.00  0.00     0.059 A 
ATOM     85  F   UNL A   1      41.716  34.690  28.837  1.00  0.00    -0.206 F 
ATOM     86  C   UNL A   1      43.052  38.047  28.740  1.00  0.00     0.060 A 
BRANCH  86  87
ATOM     87  S   UNL A   1      42.913  39.561  27.774  1.00  0.00     0.124 S 
ATOM     88  O   UNL A   1      41.671  40.129  28.290  1.00  0.00    -0.237 OA
ATOM     89  O   UNL A   1      44.135  40.269  28.143  1.00  0.00    -0.237 OA
ATOM     90  O   UNL A   1      42.861  39.082  26.396  1.00  0.00    -0.744 OA
ENDBRANCH  86  87
ENDBRANCH  65  79
BRANCH  66  91
ATOM     91  C   UNL A   1      44.890  26.670  34.712  1.00  0.00     0.058 A 
ATOM     92  C   UNL A   1      45.662  26.642  35.881  1.00  0.00     0.135 A 
ATOM     93  C   UNL A   1      44.396  25.445  34.229  1.00  0.00     0.135 A 
ATOM     94  F   UNL A   1      46.128  27.787  36.404  1.00  0.00    -0.206 F 
ATOM     95  C   UNL A   1      46.001  25.447  36.502  1.00  0.00     0.059 A 
ATOM     96  C   UNL A   1      44.679  24.240  34.862  1.00  0.00     0.059 A 
ATOM     97  F   UNL A   1      43.609  25.411  33.142  1.00  0.00    -0.206 F 
ATOM     98  C   UNL A   1      45.512  24.250  35.978  1.00  0.00     0.060 A 
BRANCH  98  99
ATOM     99  S   UNL A   1      45.996  22.703  36.767  1.00  0.00     0.124 S 
ATOM    100  O   UNL A   1      47.436  22.699  36.537  1.00  0.00    -0.237 OA
ATOM    101  O   UNL A   1      45.569  22.919  38.146  1.00  0.00    -0.237 OA
ATOM    102  O   UNL A   1      45.236  21.697  36.031  1.00  0.00    -0.744 OA
ENDBRANCH  98  99
ENDBRANCH  66  91
BRANCH  78 103
ATOM    103  C   UNL A   1      40.538  32.006  35.705  1.00  0.00     0.058 A 
ATOM    104  C   UNL A   1      40.740  32.651  36.932  1.00  0.00     0.135 A 
ATOM    105  C   UNL A   1      39.253  31.541  35.390  1.00  0.00     0.135 A 
ATOM    106  F   UNL A   1      41.958  33.103  37.272  1.00  0.00    -0.206 F 
ATOM    107  C   UNL A   1      39.709  32.776  37.849  1.00  0.00     0.059 A 
ATOM    108  C   UNL A   1      38.194  31.710  36.267  1.00  0.00     0.059 A 
ATOM    109  F   UNL A   1      39.015  30.934  34.217  1.00  0.00    -0.206 F 
ATOM    110  C   UNL A   1      38.440  32.304  37.504  1.00  0.00     0.060 A 
BRANCH 110 111
ATOM    111  S   UNL A   1      37.111  32.483  38.702  1.00  0.00     0.124 S 
ATOM    112  O   UNL A   1      36.129  33.241  37.935  1.00  0.00    -0.237 OA
ATOM    113  O   UNL A   1      36.764  31.094  38.985  1.00  0.00    -0.237 OA
ATOM    114  O   UNL A   1      37.742  33.205  39.803  1.00  0.00    -0.744 OA
ENDBRANCH 110 111
ENDBRANCH  78 103
ENDBRANCH  52  53
ENDBRANCH  45  47
ENDBRANCH  44  45
ENDBRANCH  43  44
ENDBRANCH  42  43
ENDBRANCH  41  42
ENDBRANCH  40  41
ENDBRANCH  39  40
ENDBRANCH   1  39
TORSDOF 29
ENDMDL
MODEL 3
REMARK VINA RESULT:      -7.5      8.111     14.472
REMARK SMILES N#Cc1cccnc1N1CC[NH+]([C@@H](C(=O)OCCOCCOCCOCCOC(=O)c2ccc(-c3c4nc(c(-c5c(F)cc(S(=O)(=O)[O-])cc5F)c5ccc([nH]5)c(-c5c(F)cc(S(=O)(=O)[O-])cc5F)c5nc(c(-c6c(F)cc(S(=O)(=O)[O-])cc6F)c6ccc3[nH]6)C=C5)C=C4)cc2)c2c[nH]c3cc(CO)ccc23)CC1
REMARK SMILES IDX 22 1 21 2 20 3 19 4 18 5 17 6 16 7 14 8 15 9 13 10 12 11
REMARK SMILES IDX 9 12 10 13 109 14 11 15 108 16 8 18 3 19 4 20 5 21 7 22 6 23
REMARK SMILES IDX 2 24 1 25 97 26 98 27 107 28 99 29 100 30 106 31 101 33
REMARK SMILES IDX 105 34 102 35 103 36 104 37 23 39 24 40 25 41 26 42 27 43
REMARK SMILES IDX 28 44 29 45 30 46 31 47 32 48 96 49 33 50 95 51 34 52 35 53
REMARK SMILES IDX 36 54 89 55 37 56 94 57 88 58 90 59 38 60 93 61 87 62 86 63
REMARK SMILES IDX 39 65 73 66 52 67 72 68 53 69 56 70 71 71 91 72 54 73 55 74
REMARK SMILES IDX 70 76 92 77 57 78 40 79 41 80 50 81 42 82 43 83 49 84 51 85
REMARK SMILES IDX 44 86 45 87 46 88 47 89 48 90 74 91 75 92 84 93 76 94 77 95
REMARK SMILES IDX 83 96 85 97 78 98 79 99 80 100 81 101 82 102 58 103 59 104
REMARK SMILES IDX 68 105 60 106 61 107 67 108 69 109 62 110 63 111 64 112
REMARK SMILES IDX 65 113 66 114
REMARK H PARENT 12 17 99 32 104 38 90 64 56 75
REMARK Flexibility Score: inf
ROOT
ATOM      1  O   UNL A   1      47.383  19.497  37.440  1.00  0.00    -0.377 OA
ENDROOT
BRANCH   1   2
ATOM      2  C   UNL A   1      47.928  19.171  38.688  1.00  0.00     0.188 C 
BRANCH   2   3
ATOM      3  C   UNL A   1      48.928  20.158  39.275  1.00  0.00     0.188 C 
BRANCH   3   4
ATOM      4  O   UNL A   1      50.086  19.620  39.889  1.00  0.00    -0.376 OA
BRANCH   4   5
ATOM      5  C   UNL A   1      50.444  20.132  41.170  1.00  0.00     0.202 C 
BRANCH   5   6
ATOM      6  C   UNL A   1      51.751  20.939  41.336  1.00  0.00     0.261 C 
BRANCH   6   7
ATOM      7  O   UNL A   1      51.598  22.376  41.500  1.00  0.00    -0.459 OA
BRANCH   7   8
ATOM      8  C   UNL A   1      51.074  23.102  40.477  1.00  0.00     0.370 C 
ATOM      9  O   UNL A   1      49.870  23.339  40.389  1.00  0.00    -0.245 OA
BRANCH   8  10
ATOM     10  C   UNL A   1      52.108  23.576  39.413  1.00  0.00     0.328 C 
BRANCH  10  11
ATOM     11  N   UNL A   1      52.433  22.616  38.262  1.00  0.00    -0.316 N 
ATOM     12  N   UNL A   1      51.710  23.873  35.677  1.00  0.00    -0.344 N 
ATOM     13  C   UNL A   1      50.772  23.300  36.616  1.00  0.00     0.179 C 
ATOM     14  C   UNL A   1      53.122  23.973  36.086  1.00  0.00     0.179 C 
ATOM     15  C   UNL A   1      51.362  22.149  37.391  1.00  0.00     0.285 C 
ATOM     16  C   UNL A   1      53.504  23.052  37.316  1.00  0.00     0.285 C 
ATOM     17  H   UNL A   1      52.727  21.854  38.874  1.00  0.00     0.349 HD
BRANCH  12  18
ATOM     18  C   UNL A   1      51.218  24.599  34.577  1.00  0.00     0.146 A 
ATOM     19  C   UNL A   1      51.130  23.735  33.107  1.00  0.00     0.095 A 
ATOM     20  C   UNL A   1      50.487  24.584  31.709  1.00  0.00     0.025 A 
ATOM     21  C   UNL A   1      49.837  26.498  31.873  1.00  0.00     0.022 A 
ATOM     22  N   UNL A   1      50.687  26.265  34.725  1.00  0.00    -0.238 NA
ATOM     23  C   UNL A   1      50.033  27.263  33.446  1.00  0.00     0.113 A 
BRANCH  19  24
ATOM     24  C   UNL A   1      51.356  22.332  33.029  1.00  0.00     0.103 C 
ATOM     25  N   UNL A   1      51.588  21.199  32.940  1.00  0.00    -0.192 NA
ENDBRANCH  19  24
ENDBRANCH  12  18
ENDBRANCH  10  11
BRANCH  10  26
ATOM     26  C   UNL A   1      52.968  24.956  39.663  1.00  0.00     0.046 A 
ATOM     27  C   UNL A   1      52.429  25.936  40.514  1.00  0.00     0.094 A 
ATOM     28  C   UNL A   1      53.768  25.895  38.843  1.00  0.00     0.009 A 
ATOM     29  N   UNL A   1      51.905  26.776  39.513  1.00  0.00    -0.361 N 
ATOM     30  C   UNL A   1      52.891  26.947  38.569  1.00  0.00     0.046 A 
ATOM     31  C   UNL A   1      55.120  26.179  38.476  1.00  0.00     0.011 A 
ATOM     32  H   UNL A   1      51.002  27.166  39.492  1.00  0.00     0.166 HD
ATOM     33  C   UNL A   1      53.100  27.888  37.543  1.00  0.00     0.032 A 
ATOM     34  C   UNL A   1      55.397  27.158  37.489  1.00  0.00     0.007 A 
ATOM     35  C   UNL A   1      54.365  27.916  36.921  1.00  0.00    -0.021 A 
BRANCH  35  36
ATOM     36  C   UNL A   1      54.599  28.730  35.661  1.00  0.00     0.191 C 
BRANCH  36  37
ATOM     37  O   UNL A   1      55.075  30.050  35.919  1.00  0.00    -0.392 OA
ATOM     38  H   UNL A   1      55.921  30.003  36.391  1.00  0.00     0.211 HD
ENDBRANCH  36  37
ENDBRANCH  35  36
ENDBRANCH  10  26
ENDBRANCH   8  10
ENDBRANCH   7   8
ENDBRANCH   6   7
ENDBRANCH   5   6
ENDBRANCH   4   5
ENDBRANCH   3   4
ENDBRANCH   2   3
ENDBRANCH   1   2
BRANCH   1  39
ATOM     39  C   UNL A   1      46.282  20.377  37.470  1.00  0.00     0.188 C 
BRANCH  39  40
ATOM     40  C   UNL A   1      46.319  21.615  36.536  1.00  0.00     0.188 C 
BRANCH  40  41
ATOM     41  O   UNL A   1      46.427  22.996  36.933  1.00  0.00    -0.376 OA
BRANCH  41  42
ATOM     42  C   UNL A   1      46.445  23.978  35.910  1.00  0.00     0.202 C 
BRANCH  42  43
ATOM     43  C   UNL A   1      47.587  25.023  36.033  1.00  0.00     0.261 C 
BRANCH  43  44
ATOM     44  O   UNL A   1      48.003  25.192  37.402  1.00  0.00    -0.460 OA
BRANCH  44  45
ATOM     45  C   UNL A   1      48.158  26.473  37.748  1.00  0.00     0.338 C 
ATOM     46  O   UNL A   1      49.243  27.004  37.967  1.00  0.00    -0.246 OA
BRANCH  45  47
ATOM     47  C   UNL A   1      46.803  27.291  37.811  1.00  0.00     0.060 A 
ATOM     48  C   UNL A   1      44.837  26.772  37.990  1.00  0.00     0.016 A 
ATOM     49  C   UNL A   1      47.208  28.604  36.658  1.00  0.00     0.016 A 
ATOM     50  C   UNL A   1      43.643  27.535  36.932  1.00  0.00     0.010 A 
ATOM     51  C   UNL A   1      45.917  29.329  35.735  1.00  0.00     0.010 A 
ATOM     52  C   UNL A   1      44.206  28.808  35.855  1.00  0.00    -0.014 A 
BRANCH  52  53
ATOM     53  C   UNL A   1      43.219  29.486  35.026  1.00  0.00     0.031 A 
ATOM     54  C   UNL A   1      42.445  30.591  35.650  1.00  0.00     0.074 A 
ATOM     55  C   UNL A   1      42.998  29.015  33.787  1.00  0.00     0.049 A 
ATOM     56  N   UNL A   1      41.253  30.997  35.336  1.00  0.00    -0.248 NA
ATOM     57  C   UNL A   1      42.985  31.205  36.881  1.00  0.00     0.031 C 
ATOM     58  C   UNL A   1      43.675  27.880  33.142  1.00  0.00     0.029 A 
ATOM     59  N   UNL A   1      42.136  29.443  32.827  1.00  0.00    -0.354 N 
ATOM     60  C   UNL A   1      40.879  31.821  36.382  1.00  0.00     0.074 A 
ATOM     61  C   UNL A   1      41.887  31.726  37.404  1.00  0.00     0.031 C 
ATOM     62  C   UNL A   1      43.327  27.811  31.855  1.00  0.00     0.029 A 
ATOM     63  C   UNL A   1      42.242  28.742  31.650  1.00  0.00     0.049 A 
ATOM     64  H   UNL A   1      41.500  30.182  32.961  1.00  0.00     0.167 HD
ATOM     65  C   UNL A   1      39.825  32.658  36.425  1.00  0.00     0.037 A 
ATOM     66  C   UNL A   1      41.476  28.799  30.554  1.00  0.00     0.037 A 
ATOM     67  C   UNL A   1      38.961  32.823  35.295  1.00  0.00     0.049 A 
ATOM     68  C   UNL A   1      40.319  29.746  30.626  1.00  0.00     0.074 A 
ATOM     69  C   UNL A   1      37.885  33.670  35.145  1.00  0.00     0.029 A 
ATOM     70  N   UNL A   1      39.128  32.148  34.090  1.00  0.00    -0.354 N 
ATOM     71  N   UNL A   1      39.948  30.514  31.627  1.00  0.00    -0.248 NA
ATOM     72  C   UNL A   1      39.476  29.835  29.438  1.00  0.00     0.031 C 
ATOM     73  C   UNL A   1      37.367  33.466  33.863  1.00  0.00     0.029 A 
ATOM     74  C   UNL A   1      38.167  32.551  33.189  1.00  0.00     0.049 A 
ATOM     75  H   UNL A   1      39.829  31.481  33.907  1.00  0.00     0.167 HD
ATOM     76  C   UNL A   1      38.841  31.210  31.175  1.00  0.00     0.074 A 
ATOM     77  C   UNL A   1      38.635  30.792  29.798  1.00  0.00     0.031 C 
ATOM     78  C   UNL A   1      38.049  32.101  31.824  1.00  0.00     0.037 A 
BRANCH  65  79
ATOM     79  C   UNL A   1      39.621  33.461  37.672  1.00  0.00     0.058 A 
ATOM     80  C   UNL A   1      40.289  34.680  37.889  1.00  0.00     0.135 A 
ATOM     81  C   UNL A   1      38.747  33.005  38.668  1.00  0.00     0.135 A 
ATOM     82  F   UNL A   1      41.175  35.141  36.991  1.00  0.00    -0.206 F 
ATOM     83  C   UNL A   1      40.103  35.412  39.054  1.00  0.00     0.059 A 
ATOM     84  C   UNL A   1      38.513  33.743  39.823  1.00  0.00     0.059 A 
ATOM     85  F   UNL A   1      38.112  31.832  38.526  1.00  0.00    -0.206 F 
ATOM     86  C   UNL A   1      39.196  34.946  40.005  1.00  0.00     0.060 A 
BRANCH  86  87
ATOM     87  S   UNL A   1      38.887  35.967  41.456  1.00  0.00     0.124 S 
ATOM     88  O   UNL A   1      38.903  37.309  40.883  1.00  0.00    -0.237 OA
ATOM     89  O   UNL A   1      37.583  35.481  41.897  1.00  0.00    -0.237 OA
ATOM     90  O   UNL A   1      40.003  35.648  42.341  1.00  0.00    -0.744 OA
ENDBRANCH  86  87
ENDBRANCH  65  79
BRANCH  66  91
ATOM     91  C   UNL A   1      41.749  27.943  29.372  1.00  0.00     0.058 A 
ATOM     92  C   UNL A   1      40.916  26.857  29.073  1.00  0.00     0.135 A 
ATOM     93  C   UNL A   1      42.844  28.177  28.522  1.00  0.00     0.135 A 
ATOM     94  F   UNL A   1      39.837  26.611  29.833  1.00  0.00    -0.206 F 
ATOM     95  C   UNL A   1      41.198  25.989  28.027  1.00  0.00     0.059 A 
ATOM     96  C   UNL A   1      43.118  27.352  27.437  1.00  0.00     0.059 A 
ATOM     97  F   UNL A   1      43.650  29.231  28.725  1.00  0.00    -0.206 F 
ATOM     98  C   UNL A   1      42.308  26.240  27.220  1.00  0.00     0.060 A 
BRANCH  98  99
ATOM     99  S   UNL A   1      42.689  25.081  25.893  1.00  0.00     0.124 S 
ATOM    100  O   UNL A   1      41.778  23.983  26.197  1.00  0.00    -0.237 OA
ATOM    101  O   UNL A   1      42.370  25.866  24.704  1.00  0.00    -0.237 OA
ATOM    102  O   UNL A   1      44.107  24.798  26.089  1.00  0.00    -0.744 OA
ENDBRANCH  98  99
ENDBRANCH  66  91
BRANCH  78 103
ATOM    103  C   UNL A   1      36.958  32.715  31.009  1.00  0.00     0.058 A 
ATOM    104  C   UNL A   1      37.197  33.807  30.164  1.00  0.00     0.135 A 
ATOM    105  C   UNL A   1      35.663  32.181  31.072  1.00  0.00     0.135 A 
ATOM    106  F   UNL A   1      38.423  34.349  30.083  1.00  0.00    -0.206 F 
ATOM    107  C   UNL A   1      36.165  34.395  29.452  1.00  0.00     0.059 A 
ATOM    108  C   UNL A   1      34.629  32.716  30.321  1.00  0.00     0.059 A 
ATOM    109  F   UNL A   1      35.398  31.124  31.854  1.00  0.00    -0.206 F 
ATOM    110  C   UNL A   1      34.886  33.838  29.536  1.00  0.00     0.060 A 
BRANCH 110 111
ATOM    111  S   UNL A   1      33.560  34.607  28.594  1.00  0.00     0.124 S 
ATOM    112  O   UNL A   1      33.174  33.524  27.698  1.00  0.00    -0.237 OA
ATOM    113  O   UNL A   1      32.598  34.942  29.640  1.00  0.00    -0.237 OA
ATOM    114  O   UNL A   1      34.213  35.748  27.959  1.00  0.00    -0.744 OA
ENDBRANCH 110 111
ENDBRANCH  78 103
ENDBRANCH  52  53
ENDBRANCH  45  47
ENDBRANCH  44  45
ENDBRANCH  43  44
ENDBRANCH  42  43
ENDBRANCH  41  42
ENDBRANCH  40  41
ENDBRANCH  39  40
ENDBRANCH   1  39
TORSDOF 29
ENDMDL
