MODEL 1
REMARK VINA RESULT:      -7.6      0.000      0.000
REMARK SMILES CCCCOc1ccc(-c2nc(C)c(C(=O)OCCOCCOCCOCCOC(=O)c3ccc(-c4c5nc(c(-c6c(F)cc(S(=O)(=O)[O-])cc6F)c6ccc([nH]6)c(-c6c(F)cc(S(=O)(=O)[O-])cc6F)c6nc(c(-c7c(F)cc(S(=O)(=O)[O-])cc7F)c7ccc4[nH]7)C=C6)C=C5)cc3)s2)cc1OC
REMARK SMILES IDX 22 1 21 2 20 3 19 4 18 5 17 6 15 7 16 8 14 9 10 10 11 11
REMARK SMILES IDX 98 12 12 13 13 14 9 15 6 16 7 17 100 18 8 19 99 20 5 21 4 22
REMARK SMILES IDX 3 23 2 24 1 25 101 26 102 27 23 28 24 29 25 30 26 31 27 32
REMARK SMILES IDX 28 33 29 34 30 35 31 36 32 37 33 38 97 39 34 40 96 41 35 42
REMARK SMILES IDX 36 43 37 44 90 45 38 46 95 47 89 48 91 49 39 50 94 51 88 52
REMARK SMILES IDX 87 53 40 55 74 56 53 57 73 58 54 59 57 60 72 61 92 62 55 63
REMARK SMILES IDX 56 64 71 66 93 67 58 68 41 69 42 70 51 71 43 72 44 73 50 74
REMARK SMILES IDX 52 75 45 76 46 77 47 78 48 79 49 80 75 81 76 82 85 83 77 84
REMARK SMILES IDX 78 85 84 86 86 87 79 88 80 89 81 90 82 91 83 92 59 93 60 94
REMARK SMILES IDX 69 95 61 96 62 97 68 98 70 99 63 100 64 101 65 102 66 103
REMARK SMILES IDX 67 104
REMARK H PARENT 91 54 57 65
REMARK Flexibility Score: inf
ROOT
ATOM      1  C   UNL A   1      43.646  23.926  24.446  1.00  0.00     0.188 C 
ENDROOT
BRANCH   1   2
ATOM      2  C   UNL A   1      42.674  24.723  25.335  1.00  0.00     0.188 C 
BRANCH   2   3
ATOM      3  O   UNL A   1      43.133  25.606  26.348  1.00  0.00    -0.376 OA
BRANCH   3   4
ATOM      4  C   UNL A   1      43.450  25.164  27.660  1.00  0.00     0.202 C 
BRANCH   4   5
ATOM      5  C   UNL A   1      42.385  24.884  28.737  1.00  0.00     0.261 C 
BRANCH   5   6
ATOM      6  O   UNL A   1      41.307  24.029  28.362  1.00  0.00    -0.459 OA
BRANCH   6   7
ATOM      7  C   UNL A   1      41.632  22.750  28.031  1.00  0.00     0.350 C 
ATOM      8  O   UNL A   1      42.610  22.157  28.448  1.00  0.00    -0.245 OA
BRANCH   7   9
ATOM      9  C   UNL A   1      40.568  22.183  27.226  1.00  0.00     0.135 A 
ATOM     10  C   UNL A   1      38.552  21.956  25.893  1.00  0.00     0.124 A 
ATOM     11  N   UNL A   1      39.250  20.846  25.833  1.00  0.00    -0.240 NA
ATOM     12  S   UNL A   1      39.201  23.176  26.902  1.00  0.00    -0.106 S 
ATOM     13  C   UNL A   1      40.423  20.966  26.575  1.00  0.00     0.064 A 
ATOM     14  C   UNL A   1      41.337  19.788  26.574  1.00  0.00     0.068 C 
BRANCH  10  15
ATOM     15  C   UNL A   1      37.265  22.173  25.236  1.00  0.00     0.014 A 
ATOM     16  C   UNL A   1      34.813  22.617  23.947  1.00  0.00     0.161 A 
ATOM     17  C   UNL A   1      35.833  23.571  23.869  1.00  0.00     0.051 A 
ATOM     18  C   UNL A   1      35.033  21.411  24.625  1.00  0.00     0.161 A 
ATOM     19  C   UNL A   1      37.046  23.357  24.525  1.00  0.00     0.015 A 
ATOM     20  C   UNL A   1      36.245  21.213  25.295  1.00  0.00     0.061 A 
BRANCH  16  21
ATOM     21  O   UNL A   1      33.618  22.847  23.324  1.00  0.00    -0.490 OA
BRANCH  21  22
ATOM     22  C   UNL A   1      33.172  24.207  23.403  1.00  0.00     0.230 C 
BRANCH  22  23
ATOM     23  C   UNL A   1      31.786  24.271  24.048  1.00  0.00     0.041 C 
BRANCH  23  24
ATOM     24  C   UNL A   1      31.334  22.972  24.724  1.00  0.00     0.000 C 
ATOM     25  C   UNL A   1      30.908  23.158  26.172  1.00  0.00     0.004 C 
ENDBRANCH  23  24
ENDBRANCH  22  23
ENDBRANCH  21  22
ENDBRANCH  16  21
BRANCH  18  26
ATOM     26  O   UNL A   1      34.127  20.396  24.793  1.00  0.00    -0.493 OA
ATOM     27  C   UNL A   1      34.667  19.080  24.762  1.00  0.00     0.278 C 
ENDBRANCH  18  26
ENDBRANCH  10  15
ENDBRANCH   7   9
ENDBRANCH   6   7
ENDBRANCH   5   6
ENDBRANCH   4   5
ENDBRANCH   3   4
ENDBRANCH   2   3
ENDBRANCH   1   2
BRANCH   1  28
ATOM     28  O   UNL A   1      43.448  22.525  24.498  1.00  0.00    -0.377 OA
BRANCH  28  29
ATOM     29  C   UNL A   1      44.242  21.841  25.463  1.00  0.00     0.188 C 
BRANCH  29  30
ATOM     30  C   UNL A   1      45.733  21.695  25.115  1.00  0.00     0.188 C 
BRANCH  30  31
ATOM     31  O   UNL A   1      46.522  22.795  25.578  1.00  0.00    -0.376 OA
BRANCH  31  32
ATOM     32  C   UNL A   1      46.951  23.719  24.580  1.00  0.00     0.202 C 
BRANCH  32  33
ATOM     33  C   UNL A   1      47.354  25.092  25.137  1.00  0.00     0.261 C 
BRANCH  33  34
ATOM     34  O   UNL A   1      46.317  26.086  25.095  1.00  0.00    -0.460 OA
BRANCH  34  35
ATOM     35  C   UNL A   1      46.661  27.305  24.624  1.00  0.00     0.338 C 
ATOM     36  O   UNL A   1      47.140  27.562  23.535  1.00  0.00    -0.246 OA
BRANCH  35  37
ATOM     37  C   UNL A   1      46.182  28.318  25.583  1.00  0.00     0.060 A 
ATOM     38  C   UNL A   1      47.125  28.989  26.371  1.00  0.00     0.016 A 
ATOM     39  C   UNL A   1      44.817  28.586  25.722  1.00  0.00     0.016 A 
ATOM     40  C   UNL A   1      46.699  29.895  27.342  1.00  0.00     0.010 A 
ATOM     41  C   UNL A   1      44.392  29.485  26.702  1.00  0.00     0.010 A 
ATOM     42  C   UNL A   1      45.329  30.111  27.543  1.00  0.00    -0.014 A 
BRANCH  42  43
ATOM     43  C   UNL A   1      44.869  30.833  28.751  1.00  0.00     0.031 A 
ATOM     44  C   UNL A   1      44.875  32.337  28.728  1.00  0.00     0.074 A 
ATOM     45  C   UNL A   1      44.454  30.172  29.845  1.00  0.00     0.049 A 
ATOM     46  N   UNL A   1      44.538  33.183  29.665  1.00  0.00    -0.248 NA
ATOM     47  C   UNL A   1      45.328  32.972  27.478  1.00  0.00     0.031 C 
ATOM     48  C   UNL A   1      44.394  28.717  29.982  1.00  0.00     0.029 A 
ATOM     49  N   UNL A   1      44.016  30.645  31.056  1.00  0.00    -0.354 N 
ATOM     50  C   UNL A   1      44.741  34.446  29.123  1.00  0.00     0.074 A 
ATOM     51  C   UNL A   1      45.259  34.257  27.786  1.00  0.00     0.031 C 
ATOM     52  C   UNL A   1      43.961  28.416  31.220  1.00  0.00     0.029 A 
ATOM     53  C   UNL A   1      43.733  29.654  31.965  1.00  0.00     0.049 A 
ATOM     54  H   UNL A   1      43.914  31.604  31.255  1.00  0.00     0.167 HD
ATOM     55  C   UNL A   1      44.512  35.656  29.687  1.00  0.00     0.037 A 
ATOM     56  C   UNL A   1      43.351  29.740  33.255  1.00  0.00     0.037 A 
ATOM     57  C   UNL A   1      44.001  35.841  31.018  1.00  0.00     0.049 A 
ATOM     58  C   UNL A   1      43.135  31.096  33.875  1.00  0.00     0.074 A 
ATOM     59  C   UNL A   1      43.702  37.024  31.669  1.00  0.00     0.029 A 
ATOM     60  N   UNL A   1      43.729  34.814  31.910  1.00  0.00    -0.354 N 
ATOM     61  N   UNL A   1      43.281  32.284  33.335  1.00  0.00    -0.248 NA
ATOM     62  C   UNL A   1      42.695  31.126  35.277  1.00  0.00     0.031 C 
ATOM     63  C   UNL A   1      43.289  36.715  32.970  1.00  0.00     0.029 A 
ATOM     64  C   UNL A   1      43.288  35.336  33.113  1.00  0.00     0.049 A 
ATOM     65  H   UNL A   1      43.834  33.855  31.715  1.00  0.00     0.167 HD
ATOM     66  C   UNL A   1      42.930  33.199  34.322  1.00  0.00     0.074 A 
ATOM     67  C   UNL A   1      42.555  32.428  35.489  1.00  0.00     0.031 C 
ATOM     68  C   UNL A   1      42.916  34.554  34.266  1.00  0.00     0.037 A 
BRANCH  55  69
ATOM     69  C   UNL A   1      44.840  36.871  28.865  1.00  0.00     0.058 A 
ATOM     70  C   UNL A   1      46.107  37.473  28.910  1.00  0.00     0.135 A 
ATOM     71  C   UNL A   1      43.874  37.435  28.018  1.00  0.00     0.135 A 
ATOM     72  F   UNL A   1      47.060  36.984  29.721  1.00  0.00    -0.206 F 
ATOM     73  C   UNL A   1      46.397  38.612  28.167  1.00  0.00     0.059 A 
ATOM     74  C   UNL A   1      44.150  38.561  27.246  1.00  0.00     0.059 A 
ATOM     75  F   UNL A   1      42.645  36.901  27.941  1.00  0.00    -0.206 F 
ATOM     76  C   UNL A   1      45.408  39.152  27.341  1.00  0.00     0.060 A 
BRANCH  76  77
ATOM     77  S   UNL A   1      45.793  40.637  26.391  1.00  0.00     0.124 S 
ATOM     78  O   UNL A   1      47.105  40.990  26.923  1.00  0.00    -0.237 OA
ATOM     79  O   UNL A   1      45.777  40.144  25.017  1.00  0.00    -0.237 OA
ATOM     80  O   UNL A   1      44.709  41.551  26.737  1.00  0.00    -0.744 OA
ENDBRANCH  76  77
ENDBRANCH  55  69
BRANCH  56  81
ATOM     81  C   UNL A   1      43.153  28.499  34.049  1.00  0.00     0.058 A 
ATOM     82  C   UNL A   1      41.894  27.890  34.145  1.00  0.00     0.135 A 
ATOM     83  C   UNL A   1      44.228  27.890  34.717  1.00  0.00     0.135 A 
ATOM     84  F   UNL A   1      40.834  28.442  33.535  1.00  0.00    -0.206 F 
ATOM     85  C   UNL A   1      41.703  26.724  34.880  1.00  0.00     0.059 A 
ATOM     86  C   UNL A   1      44.067  26.713  35.439  1.00  0.00     0.059 A 
ATOM     87  F   UNL A   1      45.454  28.430  34.648  1.00  0.00    -0.206 F 
ATOM     88  C   UNL A   1      42.799  26.139  35.519  1.00  0.00     0.060 A 
BRANCH  88  89
ATOM     89  S   UNL A   1      42.556  24.589  36.413  1.00  0.00     0.124 S 
ATOM     90  O   UNL A   1      41.192  24.742  36.903  1.00  0.00    -0.237 OA
ATOM     91  O   UNL A   1      42.751  23.595  35.361  1.00  0.00    -0.237 OA
ATOM     92  O   UNL A   1      43.602  24.623  37.431  1.00  0.00    -0.744 OA
ENDBRANCH  88  89
ENDBRANCH  56  81
BRANCH  68  93
ATOM     93  C   UNL A   1      42.455  35.296  35.491  1.00  0.00     0.058 A 
ATOM     94  C   UNL A   1      41.115  35.674  35.663  1.00  0.00     0.135 A 
ATOM     95  C   UNL A   1      43.356  35.578  36.531  1.00  0.00     0.135 A 
ATOM     96  F   UNL A   1      40.215  35.432  34.697  1.00  0.00    -0.206 F 
ATOM     97  C   UNL A   1      40.687  36.325  36.816  1.00  0.00     0.059 A 
ATOM     98  C   UNL A   1      42.944  36.206  37.703  1.00  0.00     0.059 A 
ATOM     99  F   UNL A   1      44.646  35.226  36.422  1.00  0.00    -0.206 F 
ATOM    100  C   UNL A   1      41.610  36.587  37.830  1.00  0.00     0.060 A 
BRANCH 100 101
ATOM    101  S   UNL A   1      41.037  37.403  39.336  1.00  0.00     0.124 S 
ATOM    102  O   UNL A   1      41.245  36.359  40.333  1.00  0.00    -0.237 OA
ATOM    103  O   UNL A   1      41.928  38.555  39.428  1.00  0.00    -0.237 OA
ATOM    104  O   UNL A   1      39.643  37.720  39.040  1.00  0.00    -0.744 OA
ENDBRANCH 100 101
ENDBRANCH  68  93
ENDBRANCH  42  43
ENDBRANCH  35  37
ENDBRANCH  34  35
ENDBRANCH  33  34
ENDBRANCH  32  33
ENDBRANCH  31  32
ENDBRANCH  30  31
ENDBRANCH  29  30
ENDBRANCH  28  29
ENDBRANCH   1  28
TORSDOF 29
ENDMDL
MODEL 2
REMARK VINA RESULT:      -7.0      5.051     12.170
REMARK SMILES CCCCOc1ccc(-c2nc(C)c(C(=O)OCCOCCOCCOCCOC(=O)c3ccc(-c4c5nc(c(-c6c(F)cc(S(=O)(=O)[O-])cc6F)c6ccc([nH]6)c(-c6c(F)cc(S(=O)(=O)[O-])cc6F)c6nc(c(-c7c(F)cc(S(=O)(=O)[O-])cc7F)c7ccc4[nH]7)C=C6)C=C5)cc3)s2)cc1OC
REMARK SMILES IDX 22 1 21 2 20 3 19 4 18 5 17 6 15 7 16 8 14 9 10 10 11 11
REMARK SMILES IDX 98 12 12 13 13 14 9 15 6 16 7 17 100 18 8 19 99 20 5 21 4 22
REMARK SMILES IDX 3 23 2 24 1 25 101 26 102 27 23 28 24 29 25 30 26 31 27 32
REMARK SMILES IDX 28 33 29 34 30 35 31 36 32 37 33 38 97 39 34 40 96 41 35 42
REMARK SMILES IDX 36 43 37 44 90 45 38 46 95 47 89 48 91 49 39 50 94 51 88 52
REMARK SMILES IDX 87 53 40 55 74 56 53 57 73 58 54 59 57 60 72 61 92 62 55 63
REMARK SMILES IDX 56 64 71 66 93 67 58 68 41 69 42 70 51 71 43 72 44 73 50 74
REMARK SMILES IDX 52 75 45 76 46 77 47 78 48 79 49 80 75 81 76 82 85 83 77 84
REMARK SMILES IDX 78 85 84 86 86 87 79 88 80 89 81 90 82 91 83 92 59 93 60 94
REMARK SMILES IDX 69 95 61 96 62 97 68 98 70 99 63 100 64 101 65 102 66 103
REMARK SMILES IDX 67 104
REMARK H PARENT 91 54 57 65
REMARK Flexibility Score: inf
ROOT
ATOM      1  C   UNL A   1      36.210  29.679  28.883  1.00  0.00     0.188 C 
ENDROOT
BRANCH   1   2
ATOM      2  C   UNL A   1      35.734  30.598  27.743  1.00  0.00     0.188 C 
BRANCH   2   3
ATOM      3  O   UNL A   1      34.609  30.277  26.938  1.00  0.00    -0.376 OA
BRANCH   3   4
ATOM      4  C   UNL A   1      33.275  30.393  27.411  1.00  0.00     0.202 C 
BRANCH   4   5
ATOM      5  C   UNL A   1      32.211  29.297  27.216  1.00  0.00     0.261 C 
BRANCH   5   6
ATOM      6  O   UNL A   1      32.509  28.282  26.260  1.00  0.00    -0.459 OA
BRANCH   6   7
ATOM      7  C   UNL A   1      31.854  27.098  26.405  1.00  0.00     0.350 C 
ATOM      8  O   UNL A   1      30.775  26.970  26.953  1.00  0.00    -0.245 OA
BRANCH   7   9
ATOM      9  C   UNL A   1      32.577  26.065  25.690  1.00  0.00     0.135 A 
ATOM     10  C   UNL A   1      33.404  23.896  24.980  1.00  0.00     0.124 A 
ATOM     11  N   UNL A   1      33.786  24.818  24.126  1.00  0.00    -0.240 NA
ATOM     12  S   UNL A   1      32.522  24.470  26.330  1.00  0.00    -0.106 S 
ATOM     13  C   UNL A   1      33.301  26.066  24.506  1.00  0.00     0.064 A 
ATOM     14  C   UNL A   1      33.630  27.211  23.608  1.00  0.00     0.068 C 
BRANCH  10  15
ATOM     15  C   UNL A   1      33.742  22.478  24.890  1.00  0.00     0.014 A 
ATOM     16  C   UNL A   1      34.355  19.747  24.691  1.00  0.00     0.161 A 
ATOM     17  C   UNL A   1      33.031  20.183  24.570  1.00  0.00     0.051 A 
ATOM     18  C   UNL A   1      35.387  20.680  24.858  1.00  0.00     0.161 A 
ATOM     19  C   UNL A   1      32.726  21.540  24.686  1.00  0.00     0.015 A 
ATOM     20  C   UNL A   1      35.069  22.036  24.991  1.00  0.00     0.061 A 
BRANCH  16  21
ATOM     21  O   UNL A   1      34.643  18.414  24.604  1.00  0.00    -0.490 OA
BRANCH  21  22
ATOM     22  C   UNL A   1      33.723  17.572  25.312  1.00  0.00     0.230 C 
BRANCH  22  23
ATOM     23  C   UNL A   1      33.464  16.289  24.517  1.00  0.00     0.041 C 
BRANCH  23  24
ATOM     24  C   UNL A   1      33.230  15.041  25.375  1.00  0.00     0.000 C 
ATOM     25  C   UNL A   1      31.784  14.873  25.817  1.00  0.00     0.004 C 
ENDBRANCH  23  24
ENDBRANCH  22  23
ENDBRANCH  21  22
ENDBRANCH  16  21
BRANCH  18  26
ATOM     26  O   UNL A   1      36.721  20.400  25.003  1.00  0.00    -0.493 OA
ATOM     27  C   UNL A   1      37.538  21.494  25.404  1.00  0.00     0.278 C 
ENDBRANCH  18  26
ENDBRANCH  10  15
ENDBRANCH   7   9
ENDBRANCH   6   7
ENDBRANCH   5   6
ENDBRANCH   4   5
ENDBRANCH   3   4
ENDBRANCH   2   3
ENDBRANCH   1   2
BRANCH   1  28
ATOM     28  O   UNL A   1      35.659  30.006  30.146  1.00  0.00    -0.377 OA
BRANCH  28  29
ATOM     29  C   UNL A   1      36.537  30.710  31.020  1.00  0.00     0.188 C 
BRANCH  29  30
ATOM     30  C   UNL A   1      35.874  31.761  31.925  1.00  0.00     0.188 C 
BRANCH  30  31
ATOM     31  O   UNL A   1      36.204  31.591  33.307  1.00  0.00    -0.376 OA
BRANCH  31  32
ATOM     32  C   UNL A   1      37.470  30.994  33.577  1.00  0.00     0.202 C 
BRANCH  32  33
ATOM     33  C   UNL A   1      38.582  32.007  33.887  1.00  0.00     0.261 C 
BRANCH  33  34
ATOM     34  O   UNL A   1      39.332  32.445  32.742  1.00  0.00    -0.460 OA
BRANCH  34  35
ATOM     35  C   UNL A   1      39.027  33.664  32.245  1.00  0.00     0.338 C 
ATOM     36  O   UNL A   1      38.002  34.295  32.425  1.00  0.00    -0.246 OA
BRANCH  35  37
ATOM     37  C   UNL A   1      40.232  34.204  31.586  1.00  0.00     0.060 A 
ATOM     38  C   UNL A   1      40.268  34.240  30.187  1.00  0.00     0.016 A 
ATOM     39  C   UNL A   1      41.323  34.648  32.339  1.00  0.00     0.016 A 
ATOM     40  C   UNL A   1      41.422  34.671  29.533  1.00  0.00     0.010 A 
ATOM     41  C   UNL A   1      42.482  35.068  31.683  1.00  0.00     0.010 A 
ATOM     42  C   UNL A   1      42.549  35.042  30.279  1.00  0.00    -0.014 A 
BRANCH  42  43
ATOM     43  C   UNL A   1      43.855  35.212  29.600  1.00  0.00     0.031 A 
ATOM     44  C   UNL A   1      44.689  33.986  29.344  1.00  0.00     0.074 A 
ATOM     45  C   UNL A   1      44.292  36.424  29.218  1.00  0.00     0.049 A 
ATOM     46  N   UNL A   1      45.867  33.886  28.786  1.00  0.00    -0.248 NA
ATOM     47  C   UNL A   1      44.118  32.701  29.781  1.00  0.00     0.031 C 
ATOM     48  C   UNL A   1      43.568  37.681  29.402  1.00  0.00     0.029 A 
ATOM     49  N   UNL A   1      45.461  36.794  28.604  1.00  0.00    -0.354 N 
ATOM     50  C   UNL A   1      46.181  32.533  28.809  1.00  0.00     0.074 A 
ATOM     51  C   UNL A   1      45.083  31.853  29.462  1.00  0.00     0.031 C 
ATOM     52  C   UNL A   1      44.321  38.689  28.928  1.00  0.00     0.029 A 
ATOM     53  C   UNL A   1      45.584  38.151  28.424  1.00  0.00     0.049 A 
ATOM     54  H   UNL A   1      46.148  36.148  28.319  1.00  0.00     0.167 HD
ATOM     55  C   UNL A   1      47.281  31.911  28.325  1.00  0.00     0.037 A 
ATOM     56  C   UNL A   1      46.608  38.872  27.927  1.00  0.00     0.037 A 
ATOM     57  C   UNL A   1      48.373  32.590  27.681  1.00  0.00     0.049 A 
ATOM     58  C   UNL A   1      47.840  38.165  27.426  1.00  0.00     0.074 A 
ATOM     59  C   UNL A   1      49.517  32.046  27.125  1.00  0.00     0.029 A 
ATOM     60  N   UNL A   1      48.464  33.964  27.519  1.00  0.00    -0.354 N 
ATOM     61  N   UNL A   1      48.102  36.878  27.406  1.00  0.00    -0.248 NA
ATOM     62  C   UNL A   1      48.913  39.003  26.872  1.00  0.00     0.031 C 
ATOM     63  C   UNL A   1      50.320  33.096  26.666  1.00  0.00     0.029 A 
ATOM     64  C   UNL A   1      49.655  34.290  26.895  1.00  0.00     0.049 A 
ATOM     65  H   UNL A   1      47.781  34.613  27.807  1.00  0.00     0.167 HD
ATOM     66  C   UNL A   1      49.357  36.753  26.818  1.00  0.00     0.074 A 
ATOM     67  C   UNL A   1      49.798  38.092  26.488  1.00  0.00     0.031 C 
ATOM     68  C   UNL A   1      50.077  35.630  26.571  1.00  0.00     0.037 A 
BRANCH  55  69
ATOM     69  C   UNL A   1      47.363  30.421  28.502  1.00  0.00     0.058 A 
ATOM     70  C   UNL A   1      47.951  29.843  29.637  1.00  0.00     0.135 A 
ATOM     71  C   UNL A   1      46.840  29.561  27.524  1.00  0.00     0.135 A 
ATOM     72  F   UNL A   1      48.485  30.622  30.593  1.00  0.00    -0.206 F 
ATOM     73  C   UNL A   1      48.047  28.463  29.784  1.00  0.00     0.059 A 
ATOM     74  C   UNL A   1      46.903  28.177  27.661  1.00  0.00     0.059 A 
ATOM     75  F   UNL A   1      46.272  30.062  26.415  1.00  0.00    -0.206 F 
ATOM     76  C   UNL A   1      47.524  27.638  28.786  1.00  0.00     0.060 A 
BRANCH  76  77
ATOM     77  S   UNL A   1      47.665  25.850  28.982  1.00  0.00     0.124 S 
ATOM     78  O   UNL A   1      47.104  25.375  27.721  1.00  0.00    -0.237 OA
ATOM     79  O   UNL A   1      49.104  25.664  29.145  1.00  0.00    -0.237 OA
ATOM     80  O   UNL A   1      46.862  25.574  30.170  1.00  0.00    -0.744 OA
ENDBRANCH  76  77
ENDBRANCH  55  69
BRANCH  56  81
ATOM     81  C   UNL A   1      46.512  40.355  27.885  1.00  0.00     0.058 A 
ATOM     82  C   UNL A   1      46.055  41.022  26.739  1.00  0.00     0.135 A 
ATOM     83  C   UNL A   1      46.863  41.133  28.999  1.00  0.00     0.135 A 
ATOM     84  F   UNL A   1      45.721  40.322  25.645  1.00  0.00    -0.206 F 
ATOM     85  C   UNL A   1      45.954  42.409  26.695  1.00  0.00     0.059 A 
ATOM     86  C   UNL A   1      46.750  42.520  28.987  1.00  0.00     0.059 A 
ATOM     87  F   UNL A   1      47.297  40.542  30.123  1.00  0.00    -0.206 F 
ATOM     88  C   UNL A   1      46.299  43.150  27.829  1.00  0.00     0.060 A 
BRANCH  88  89
ATOM     89  S   UNL A   1      46.100  44.944  27.786  1.00  0.00     0.124 S 
ATOM     90  O   UNL A   1      45.158  45.162  28.877  1.00  0.00    -0.237 OA
ATOM     91  O   UNL A   1      47.464  45.410  28.015  1.00  0.00    -0.237 OA
ATOM     92  O   UNL A   1      45.580  45.189  26.443  1.00  0.00    -0.744 OA
ENDBRANCH  88  89
ENDBRANCH  56  81
BRANCH  68  93
ATOM     93  C   UNL A   1      51.408  35.794  25.887  1.00  0.00     0.058 A 
ATOM     94  C   UNL A   1      52.617  35.683  26.589  1.00  0.00     0.135 A 
ATOM     95  C   UNL A   1      51.471  36.004  24.500  1.00  0.00     0.135 A 
ATOM     96  F   UNL A   1      52.611  35.487  27.918  1.00  0.00    -0.206 F 
ATOM     97  C   UNL A   1      53.844  35.797  25.944  1.00  0.00     0.059 A 
ATOM     98  C   UNL A   1      52.687  36.095  23.830  1.00  0.00     0.059 A 
ATOM     99  F   UNL A   1      50.343  36.103  23.779  1.00  0.00    -0.206 F 
ATOM    100  C   UNL A   1      53.869  36.003  24.563  1.00  0.00     0.060 A 
BRANCH 100 101
ATOM    101  S   UNL A   1      55.467  36.116  23.731  1.00  0.00     0.124 S 
ATOM    102  O   UNL A   1      55.939  34.738  23.813  1.00  0.00    -0.237 OA
ATOM    103  O   UNL A   1      55.096  36.580  22.397  1.00  0.00    -0.237 OA
ATOM    104  O   UNL A   1      56.203  37.081  24.541  1.00  0.00    -0.744 OA
ENDBRANCH 100 101
ENDBRANCH  68  93
ENDBRANCH  42  43
ENDBRANCH  35  37
ENDBRANCH  34  35
ENDBRANCH  33  34
ENDBRANCH  32  33
ENDBRANCH  31  32
ENDBRANCH  30  31
ENDBRANCH  29  30
ENDBRANCH  28  29
ENDBRANCH   1  28
TORSDOF 29
ENDMDL
MODEL 3
REMARK VINA RESULT:      -6.9      6.094     11.769
REMARK SMILES CCCCOc1ccc(-c2nc(C)c(C(=O)OCCOCCOCCOCCOC(=O)c3ccc(-c4c5nc(c(-c6c(F)cc(S(=O)(=O)[O-])cc6F)c6ccc([nH]6)c(-c6c(F)cc(S(=O)(=O)[O-])cc6F)c6nc(c(-c7c(F)cc(S(=O)(=O)[O-])cc7F)c7ccc4[nH]7)C=C6)C=C5)cc3)s2)cc1OC
REMARK SMILES IDX 22 1 21 2 20 3 19 4 18 5 17 6 15 7 16 8 14 9 10 10 11 11
REMARK SMILES IDX 98 12 12 13 13 14 9 15 6 16 7 17 100 18 8 19 99 20 5 21 4 22
REMARK SMILES IDX 3 23 2 24 1 25 101 26 102 27 23 28 24 29 25 30 26 31 27 32
REMARK SMILES IDX 28 33 29 34 30 35 31 36 32 37 33 38 97 39 34 40 96 41 35 42
REMARK SMILES IDX 36 43 37 44 90 45 38 46 95 47 89 48 91 49 39 50 94 51 88 52
REMARK SMILES IDX 87 53 40 55 74 56 53 57 73 58 54 59 57 60 72 61 92 62 55 63
REMARK SMILES IDX 56 64 71 66 93 67 58 68 41 69 42 70 51 71 43 72 44 73 50 74
REMARK SMILES IDX 52 75 45 76 46 77 47 78 48 79 49 80 75 81 76 82 85 83 77 84
REMARK SMILES IDX 78 85 84 86 86 87 79 88 80 89 81 90 82 91 83 92 59 93 60 94
REMARK SMILES IDX 69 95 61 96 62 97 68 98 70 99 63 100 64 101 65 102 66 103
REMARK SMILES IDX 67 104
REMARK H PARENT 91 54 57 65
REMARK Flexibility Score: inf
ROOT
ATOM      1  C   UNL A   1      54.828  24.710  38.427  1.00  0.00     0.188 C 
ENDROOT
BRANCH   1   2
ATOM      2  C   UNL A   1      55.347  23.625  37.467  1.00  0.00     0.188 C 
BRANCH   2   3
ATOM      3  O   UNL A   1      55.427  23.837  36.065  1.00  0.00    -0.376 OA
BRANCH   3   4
ATOM      4  C   UNL A   1      54.920  22.904  35.122  1.00  0.00     0.202 C 
BRANCH   4   5
ATOM      5  C   UNL A   1      53.807  21.892  35.449  1.00  0.00     0.261 C 
BRANCH   5   6
ATOM      6  O   UNL A   1      53.182  21.249  34.339  1.00  0.00    -0.459 OA
BRANCH   6   7
ATOM      7  C   UNL A   1      52.346  20.216  34.626  1.00  0.00     0.350 C 
ATOM      8  O   UNL A   1      52.630  19.040  34.489  1.00  0.00    -0.245 OA
BRANCH   7   9
ATOM      9  C   UNL A   1      51.139  20.737  35.237  1.00  0.00     0.135 A 
ATOM     10  C   UNL A   1      48.967  21.780  35.536  1.00  0.00     0.124 A 
ATOM     11  N   UNL A   1      49.345  21.211  36.658  1.00  0.00    -0.240 NA
ATOM     12  S   UNL A   1      50.095  21.684  34.252  1.00  0.00    -0.106 S 
ATOM     13  C   UNL A   1      50.580  20.588  36.499  1.00  0.00     0.064 A 
ATOM     14  C   UNL A   1      51.123  19.869  37.687  1.00  0.00     0.068 C 
BRANCH  10  15
ATOM     15  C   UNL A   1      47.726  22.527  35.351  1.00  0.00     0.014 A 
ATOM     16  C   UNL A   1      45.330  23.953  35.039  1.00  0.00     0.161 A 
ATOM     17  C   UNL A   1      45.437  22.962  36.020  1.00  0.00     0.051 A 
ATOM     18  C   UNL A   1      46.438  24.274  34.244  1.00  0.00     0.161 A 
ATOM     19  C   UNL A   1      46.624  22.242  36.163  1.00  0.00     0.015 A 
ATOM     20  C   UNL A   1      47.618  23.534  34.382  1.00  0.00     0.061 A 
BRANCH  16  21
ATOM     21  O   UNL A   1      44.155  24.635  34.887  1.00  0.00    -0.490 OA
BRANCH  21  22
ATOM     22  C   UNL A   1      43.030  24.004  35.512  1.00  0.00     0.230 C 
BRANCH  22  23
ATOM     23  C   UNL A   1      41.819  24.940  35.485  1.00  0.00     0.041 C 
BRANCH  23  24
ATOM     24  C   UNL A   1      42.145  26.400  35.154  1.00  0.00     0.000 C 
ATOM     25  C   UNL A   1      41.010  27.131  34.453  1.00  0.00     0.004 C 
ENDBRANCH  23  24
ENDBRANCH  22  23
ENDBRANCH  21  22
ENDBRANCH  16  21
BRANCH  18  26
ATOM     26  O   UNL A   1      46.476  25.208  33.241  1.00  0.00    -0.493 OA
ATOM     27  C   UNL A   1      47.631  26.038  33.219  1.00  0.00     0.278 C 
ENDBRANCH  18  26
ENDBRANCH  10  15
ENDBRANCH   7   9
ENDBRANCH   6   7
ENDBRANCH   5   6
ENDBRANCH   4   5
ENDBRANCH   3   4
ENDBRANCH   2   3
ENDBRANCH   1   2
BRANCH   1  28
ATOM     28  O   UNL A   1      53.708  25.422  37.932  1.00  0.00    -0.377 OA
BRANCH  28  29
ATOM     29  C   UNL A   1      52.503  25.232  38.668  1.00  0.00     0.188 C 
BRANCH  29  30
ATOM     30  C   UNL A   1      52.262  26.224  39.818  1.00  0.00     0.188 C 
BRANCH  30  31
ATOM     31  O   UNL A   1      50.873  26.481  40.047  1.00  0.00    -0.376 OA
BRANCH  31  32
ATOM     32  C   UNL A   1      50.314  27.579  39.329  1.00  0.00     0.202 C 
BRANCH  32  33
ATOM     33  C   UNL A   1      48.800  27.467  39.102  1.00  0.00     0.261 C 
BRANCH  33  34
ATOM     34  O   UNL A   1      48.421  26.740  37.921  1.00  0.00    -0.460 OA
BRANCH  34  35
ATOM     35  C   UNL A   1      48.605  27.364  36.737  1.00  0.00     0.338 C 
ATOM     36  O   UNL A   1      49.550  27.237  35.980  1.00  0.00    -0.246 OA
BRANCH  35  37
ATOM     37  C   UNL A   1      47.368  28.097  36.408  1.00  0.00     0.060 A 
ATOM     38  C   UNL A   1      46.140  27.451  36.594  1.00  0.00     0.016 A 
ATOM     39  C   UNL A   1      47.419  29.398  35.900  1.00  0.00     0.016 A 
ATOM     40  C   UNL A   1      44.957  28.087  36.219  1.00  0.00     0.010 A 
ATOM     41  C   UNL A   1      46.235  30.029  35.513  1.00  0.00     0.010 A 
ATOM     42  C   UNL A   1      45.004  29.360  35.634  1.00  0.00    -0.014 A 
BRANCH  42  43
ATOM     43  C   UNL A   1      43.799  29.908  34.970  1.00  0.00     0.031 A 
ATOM     44  C   UNL A   1      43.507  29.479  33.558  1.00  0.00     0.074 A 
ATOM     45  C   UNL A   1      42.980  30.764  35.604  1.00  0.00     0.049 A 
ATOM     46  N   UNL A   1      42.528  29.836  32.768  1.00  0.00    -0.248 NA
ATOM     47  C   UNL A   1      44.450  28.523  32.954  1.00  0.00     0.031 C 
ATOM     48  C   UNL A   1      43.153  31.243  36.975  1.00  0.00     0.029 A 
ATOM     49  N   UNL A   1      41.841  31.393  35.167  1.00  0.00    -0.354 N 
ATOM     50  C   UNL A   1      42.739  29.155  31.576  1.00  0.00     0.074 A 
ATOM     51  C   UNL A   1      43.954  28.386  31.735  1.00  0.00     0.031 C 
ATOM     52  C   UNL A   1      42.164  32.108  37.261  1.00  0.00     0.029 A 
ATOM     53  C   UNL A   1      41.301  32.257  36.089  1.00  0.00     0.049 A 
ATOM     54  H   UNL A   1      41.449  31.240  34.277  1.00  0.00     0.167 HD
ATOM     55  C   UNL A   1      41.986  29.163  30.452  1.00  0.00     0.037 A 
ATOM     56  C   UNL A   1      40.242  33.085  35.988  1.00  0.00     0.037 A 
ATOM     57  C   UNL A   1      40.780  29.932  30.295  1.00  0.00     0.049 A 
ATOM     58  C   UNL A   1      39.437  33.107  34.715  1.00  0.00     0.074 A 
ATOM     59  C   UNL A   1      39.926  29.982  29.208  1.00  0.00     0.029 A 
ATOM     60  N   UNL A   1      40.266  30.797  31.248  1.00  0.00    -0.354 N 
ATOM     61  N   UNL A   1      39.617  32.418  33.612  1.00  0.00    -0.248 NA
ATOM     62  C   UNL A   1      38.279  34.011  34.674  1.00  0.00     0.031 C 
ATOM     63  C   UNL A   1      38.918  30.911  29.487  1.00  0.00     0.029 A 
ATOM     64  C   UNL A   1      39.120  31.405  30.767  1.00  0.00     0.049 A 
ATOM     65  H   UNL A   1      40.658  30.956  32.138  1.00  0.00     0.167 HD
ATOM     66  C   UNL A   1      38.584  32.789  32.756  1.00  0.00     0.074 A 
ATOM     67  C   UNL A   1      37.778  33.755  33.472  1.00  0.00     0.031 C 
ATOM     68  C   UNL A   1      38.326  32.365  31.494  1.00  0.00     0.037 A 
BRANCH  55  69
ATOM     69  C   UNL A   1      42.465  28.332  29.295  1.00  0.00     0.058 A 
ATOM     70  C   UNL A   1      43.382  28.830  28.357  1.00  0.00     0.135 A 
ATOM     71  C   UNL A   1      42.005  27.016  29.128  1.00  0.00     0.135 A 
ATOM     72  F   UNL A   1      43.838  30.090  28.460  1.00  0.00    -0.206 F 
ATOM     73  C   UNL A   1      43.803  28.065  27.275  1.00  0.00     0.059 A 
ATOM     74  C   UNL A   1      42.431  26.224  28.067  1.00  0.00     0.059 A 
ATOM     75  F   UNL A   1      41.122  26.493  29.995  1.00  0.00    -0.206 F 
ATOM     76  C   UNL A   1      43.317  26.763  27.136  1.00  0.00     0.060 A 
BRANCH  76  77
ATOM     77  S   UNL A   1      43.861  25.784  25.721  1.00  0.00     0.124 S 
ATOM     78  O   UNL A   1      45.050  26.520  25.300  1.00  0.00    -0.237 OA
ATOM     79  O   UNL A   1      44.106  24.475  26.319  1.00  0.00    -0.237 OA
ATOM     80  O   UNL A   1      42.726  25.849  24.806  1.00  0.00    -0.744 OA
ENDBRANCH  76  77
ENDBRANCH  55  69
BRANCH  56  81
ATOM     81  C   UNL A   1      39.887  33.969  37.130  1.00  0.00     0.058 A 
ATOM     82  C   UNL A   1      39.037  33.528  38.153  1.00  0.00     0.135 A 
ATOM     83  C   UNL A   1      40.405  35.270  37.224  1.00  0.00     0.135 A 
ATOM     84  F   UNL A   1      38.507  32.296  38.100  1.00  0.00    -0.206 F 
ATOM     85  C   UNL A   1      38.707  34.346  39.229  1.00  0.00     0.059 A 
ATOM     86  C   UNL A   1      40.107  36.099  38.300  1.00  0.00     0.059 A 
ATOM     87  F   UNL A   1      41.230  35.735  36.273  1.00  0.00    -0.206 F 
ATOM     88  C   UNL A   1      39.252  35.630  39.296  1.00  0.00     0.060 A 
BRANCH  88  89
ATOM     89  S   UNL A   1      38.873  36.660  40.730  1.00  0.00     0.124 S 
ATOM     90  O   UNL A   1      38.041  35.765  41.524  1.00  0.00    -0.237 OA
ATOM     91  O   UNL A   1      40.202  36.942  41.265  1.00  0.00    -0.237 OA
ATOM     92  O   UNL A   1      38.187  37.808  40.144  1.00  0.00    -0.744 OA
ENDBRANCH  88  89
ENDBRANCH  56  81
BRANCH  68  93
ATOM     93  C   UNL A   1      37.106  32.920  30.810  1.00  0.00     0.058 A 
ATOM     94  C   UNL A   1      37.184  34.021  29.944  1.00  0.00     0.135 A 
ATOM     95  C   UNL A   1      35.856  32.304  30.978  1.00  0.00     0.135 A 
ATOM     96  F   UNL A   1      38.355  34.649  29.752  1.00  0.00    -0.206 F 
ATOM     97  C   UNL A   1      36.059  34.506  29.284  1.00  0.00     0.059 A 
ATOM     98  C   UNL A   1      34.723  32.756  30.309  1.00  0.00     0.059 A 
ATOM     99  F   UNL A   1      35.730  31.239  31.785  1.00  0.00    -0.206 F 
ATOM    100  C   UNL A   1      34.833  33.866  29.473  1.00  0.00     0.060 A 
BRANCH 100 101
ATOM    101  S   UNL A   1      33.386  34.483  28.585  1.00  0.00     0.124 S 
ATOM    102  O   UNL A   1      32.870  35.478  29.520  1.00  0.00    -0.237 OA
ATOM    103  O   UNL A   1      33.971  35.010  27.356  1.00  0.00    -0.237 OA
ATOM    104  O   UNL A   1      32.559  33.292  28.417  1.00  0.00    -0.744 OA
ENDBRANCH 100 101
ENDBRANCH  68  93
ENDBRANCH  42  43
ENDBRANCH  35  37
ENDBRANCH  34  35
ENDBRANCH  33  34
ENDBRANCH  32  33
ENDBRANCH  31  32
ENDBRANCH  30  31
ENDBRANCH  29  30
ENDBRANCH  28  29
ENDBRANCH   1  28
TORSDOF 29
ENDMDL
