MODEL 1
REMARK VINA RESULT:     -10.1      0.000      0.000
REMARK SMILES CN1CCN(C(=O)N2CC[C@@H](CC(=O)OCCOCCOCCOCCOC(=O)c3ccc(-c4c5nc(c(-c6c(F)cc(S(=O)(=O)[O-])cc6F)c6ccc([nH]6)c(-c6c(F)cc(S(=O)(=O)[O-])cc6F)c6nc(c(-c7c(F)cc(S(=O)(=O)[O-])cc7F)c7ccc4[nH]7)C=C6)C=C5)cc3)C2)C(C)(C)C1=O
REMARK SMILES IDX 21 1 20 2 19 3 18 4 17 5 16 6 15 7 13 8 14 9 12 10 11 11
REMARK SMILES IDX 8 12 9 13 96 14 10 15 6 16 7 17 5 18 1 19 2 20 3 21 100 22
REMARK SMILES IDX 4 23 97 24 101 25 98 26 99 27 22 28 23 29 24 30 25 31 26 32
REMARK SMILES IDX 27 33 28 34 29 35 30 36 31 37 95 38 32 39 94 40 33 41 34 42
REMARK SMILES IDX 35 43 88 44 36 45 93 46 87 47 89 48 37 49 92 50 86 51 85 52
REMARK SMILES IDX 38 54 72 55 51 56 71 57 52 58 55 59 70 60 90 61 53 62 54 63
REMARK SMILES IDX 69 65 91 66 56 67 39 68 40 69 49 70 41 71 42 72 48 73 50 74
REMARK SMILES IDX 43 75 44 76 45 77 46 78 47 79 73 80 74 81 83 82 75 83 76 84
REMARK SMILES IDX 82 85 84 86 77 87 78 88 79 89 80 90 81 91 57 92 58 93 67 94
REMARK SMILES IDX 59 95 60 96 66 97 68 98 61 99 62 100 63 101 64 102 65 103
REMARK H PARENT 89 53 55 64
REMARK Flexibility Score: inf
ROOT
ATOM      1  O   UNL A   1      41.994  21.020  25.463  1.00  0.00    -0.377 OA
ENDROOT
BRANCH   1   2
ATOM      2  C   UNL A   1      41.159  21.319  26.562  1.00  0.00     0.188 C 
BRANCH   2   3
ATOM      3  C   UNL A   1      39.667  21.379  26.226  1.00  0.00     0.188 C 
BRANCH   3   4
ATOM      4  O   UNL A   1      38.933  22.580  26.398  1.00  0.00    -0.376 OA
BRANCH   4   5
ATOM      5  C   UNL A   1      37.802  22.866  25.581  1.00  0.00     0.202 C 
BRANCH   5   6
ATOM      6  C   UNL A   1      36.365  22.904  26.134  1.00  0.00     0.261 C 
BRANCH   6   7
ATOM      7  O   UNL A   1      35.338  22.404  25.259  1.00  0.00    -0.463 OA
BRANCH   7   8
ATOM      8  C   UNL A   1      34.191  22.021  25.858  1.00  0.00     0.306 C 
ATOM      9  O   UNL A   1      33.988  22.063  27.068  1.00  0.00    -0.252 OA
BRANCH   8  10
ATOM     10  C   UNL A   1      33.077  21.619  24.912  1.00  0.00     0.128 C 
BRANCH  10  11
ATOM     11  C   UNL A   1      32.229  22.677  24.197  1.00  0.00     0.021 C 
ATOM     12  N   UNL A   1      32.906  24.594  22.981  1.00  0.00    -0.324 N 
ATOM     13  C   UNL A   1      33.263  23.455  22.173  1.00  0.00     0.122 C 
ATOM     14  C   UNL A   1      32.697  24.132  24.347  1.00  0.00     0.125 C 
ATOM     15  C   UNL A   1      32.261  22.426  22.664  1.00  0.00     0.027 C 
BRANCH  12  16
ATOM     16  C   UNL A   1      33.174  25.903  22.738  1.00  0.00     0.320 C 
ATOM     17  O   UNL A   1      33.813  26.190  21.721  1.00  0.00    -0.248 OA
BRANCH  16  18
ATOM     18  N   UNL A   1      32.721  26.890  23.598  1.00  0.00    -0.309 N 
ATOM     19  C   UNL A   1      32.244  30.290  26.184  1.00  0.00     0.146 C 
ATOM     20  N   UNL A   1      32.391  29.195  25.250  1.00  0.00    -0.342 N 
ATOM     21  C   UNL A   1      33.673  28.511  25.203  1.00  0.00     0.140 C 
ATOM     22  C   UNL A   1      31.405  28.933  24.300  1.00  0.00     0.247 C 
ATOM     23  C   UNL A   1      33.578  27.057  24.780  1.00  0.00     0.144 C 
ATOM     24  C   UNL A   1      31.324  27.448  23.798  1.00  0.00     0.118 C 
ATOM     25  O   UNL A   1      30.507  29.748  24.068  1.00  0.00    -0.272 OA
ATOM     26  C   UNL A   1      30.606  26.691  24.952  1.00  0.00     0.045 C 
ATOM     27  C   UNL A   1      30.325  27.390  22.635  1.00  0.00     0.045 C 
ENDBRANCH  16  18
ENDBRANCH  12  16
ENDBRANCH  10  11
ENDBRANCH   8  10
ENDBRANCH   7   8
ENDBRANCH   6   7
ENDBRANCH   5   6
ENDBRANCH   4   5
ENDBRANCH   3   4
ENDBRANCH   2   3
ENDBRANCH   1   2
BRANCH   1  28
ATOM     28  C   UNL A   1      43.233  20.366  25.721  1.00  0.00     0.188 C 
BRANCH  28  29
ATOM     29  C   UNL A   1      44.515  20.880  25.031  1.00  0.00     0.188 C 
BRANCH  29  30
ATOM     30  O   UNL A   1      44.382  22.138  24.386  1.00  0.00    -0.376 OA
BRANCH  30  31
ATOM     31  C   UNL A   1      44.555  23.329  25.141  1.00  0.00     0.202 C 
BRANCH  31  32
ATOM     32  C   UNL A   1      43.482  24.430  25.055  1.00  0.00     0.261 C 
BRANCH  32  33
ATOM     33  O   UNL A   1      42.510  24.487  26.112  1.00  0.00    -0.460 OA
BRANCH  33  34
ATOM     34  C   UNL A   1      41.549  25.429  26.053  1.00  0.00     0.338 C 
ATOM     35  O   UNL A   1      40.704  25.562  25.182  1.00  0.00    -0.246 OA
BRANCH  34  36
ATOM     36  C   UNL A   1      41.553  26.165  27.337  1.00  0.00     0.060 A 
ATOM     37  C   UNL A   1      40.526  25.924  28.259  1.00  0.00     0.016 A 
ATOM     38  C   UNL A   1      42.550  27.101  27.619  1.00  0.00     0.016 A 
ATOM     39  C   UNL A   1      40.462  26.658  29.444  1.00  0.00     0.010 A 
ATOM     40  C   UNL A   1      42.474  27.850  28.797  1.00  0.00     0.010 A 
ATOM     41  C   UNL A   1      41.404  27.665  29.692  1.00  0.00    -0.014 A 
BRANCH  41  42
ATOM     42  C   UNL A   1      41.146  28.666  30.757  1.00  0.00     0.031 A 
ATOM     43  C   UNL A   1      41.999  28.617  31.997  1.00  0.00     0.074 A 
ATOM     44  C   UNL A   1      40.199  29.611  30.626  1.00  0.00     0.049 A 
ATOM     45  N   UNL A   1      41.932  29.340  33.085  1.00  0.00    -0.248 NA
ATOM     46  C   UNL A   1      43.072  27.608  32.012  1.00  0.00     0.031 C 
ATOM     47  C   UNL A   1      39.340  29.792  29.458  1.00  0.00     0.029 A 
ATOM     48  N   UNL A   1      39.794  30.592  31.498  1.00  0.00    -0.354 N 
ATOM     49  C   UNL A   1      42.940  28.867  33.916  1.00  0.00     0.074 A 
ATOM     50  C   UNL A   1      43.583  27.773  33.222  1.00  0.00     0.031 C 
ATOM     51  C   UNL A   1      38.497  30.814  29.692  1.00  0.00     0.029 A 
ATOM     52  C   UNL A   1      38.733  31.335  31.038  1.00  0.00     0.049 A 
ATOM     53  H   UNL A   1      40.224  30.748  32.370  1.00  0.00     0.167 HD
ATOM     54  C   UNL A   1      43.304  29.307  35.144  1.00  0.00     0.037 A 
ATOM     55  C   UNL A   1      38.019  32.305  31.646  1.00  0.00     0.037 A 
ATOM     56  C   UNL A   1      42.657  30.394  35.831  1.00  0.00     0.049 A 
ATOM     57  C   UNL A   1      38.393  32.734  33.044  1.00  0.00     0.074 A 
ATOM     58  C   UNL A   1      42.958  30.929  37.071  1.00  0.00     0.029 A 
ATOM     59  N   UNL A   1      41.570  31.106  35.343  1.00  0.00    -0.354 N 
ATOM     60  N   UNL A   1      39.361  32.293  33.813  1.00  0.00    -0.248 NA
ATOM     61  C   UNL A   1      37.583  33.799  33.653  1.00  0.00     0.031 C 
ATOM     62  C   UNL A   1      42.015  31.921  37.359  1.00  0.00     0.029 A 
ATOM     63  C   UNL A   1      41.171  32.056  36.268  1.00  0.00     0.049 A 
ATOM     64  H   UNL A   1      41.145  30.958  34.466  1.00  0.00     0.167 HD
ATOM     65  C   UNL A   1      39.298  33.050  34.981  1.00  0.00     0.074 A 
ATOM     66  C   UNL A   1      38.201  33.980  34.813  1.00  0.00     0.031 C 
ATOM     67  C   UNL A   1      40.082  32.985  36.087  1.00  0.00     0.037 A 
BRANCH  54  68
ATOM     68  C   UNL A   1      44.430  28.585  35.837  1.00  0.00     0.058 A 
ATOM     69  C   UNL A   1      45.772  28.962  35.671  1.00  0.00     0.135 A 
ATOM     70  C   UNL A   1      44.157  27.504  36.692  1.00  0.00     0.135 A 
ATOM     71  F   UNL A   1      46.093  29.976  34.850  1.00  0.00    -0.206 F 
ATOM     72  C   UNL A   1      46.805  28.272  36.296  1.00  0.00     0.059 A 
ATOM     73  C   UNL A   1      45.172  26.821  37.355  1.00  0.00     0.059 A 
ATOM     74  F   UNL A   1      42.893  27.098  36.887  1.00  0.00    -0.206 F 
ATOM     75  C   UNL A   1      46.495  27.201  37.136  1.00  0.00     0.060 A 
BRANCH  75  76
ATOM     76  S   UNL A   1      47.847  26.309  37.932  1.00  0.00     0.124 S 
ATOM     77  O   UNL A   1      48.996  26.773  37.161  1.00  0.00    -0.237 OA
ATOM     78  O   UNL A   1      47.770  26.792  39.307  1.00  0.00    -0.237 OA
ATOM     79  O   UNL A   1      47.490  24.907  37.742  1.00  0.00    -0.744 OA
ENDBRANCH  75  76
ENDBRANCH  54  68
BRANCH  55  80
ATOM     80  C   UNL A   1      36.870  32.933  30.939  1.00  0.00     0.058 A 
ATOM     81  C   UNL A   1      35.546  32.621  31.282  1.00  0.00     0.135 A 
ATOM     82  C   UNL A   1      37.073  33.866  29.909  1.00  0.00     0.135 A 
ATOM     83  F   UNL A   1      35.297  31.724  32.248  1.00  0.00    -0.206 F 
ATOM     84  C   UNL A   1      34.465  33.203  30.627  1.00  0.00     0.059 A 
ATOM     85  C   UNL A   1      36.010  34.483  29.258  1.00  0.00     0.059 A 
ATOM     86  F   UNL A   1      38.320  34.204  29.544  1.00  0.00    -0.206 F 
ATOM     87  C   UNL A   1      34.707  34.141  29.620  1.00  0.00     0.060 A 
BRANCH  87  88
ATOM     88  S   UNL A   1      33.296  34.937  28.823  1.00  0.00     0.124 S 
ATOM     89  O   UNL A   1      32.482  35.314  29.973  1.00  0.00    -0.237 OA
ATOM     90  O   UNL A   1      33.935  36.035  28.105  1.00  0.00    -0.237 OA
ATOM     91  O   UNL A   1      32.748  33.881  27.978  1.00  0.00    -0.744 OA
ENDBRANCH  87  88
ENDBRANCH  55  80
BRANCH  67  92
ATOM     92  C   UNL A   1      39.825  33.980  37.188  1.00  0.00     0.058 A 
ATOM     93  C   UNL A   1      38.953  33.707  38.254  1.00  0.00     0.135 A 
ATOM     94  C   UNL A   1      40.513  35.206  37.207  1.00  0.00     0.135 A 
ATOM     95  F   UNL A   1      38.267  32.554  38.287  1.00  0.00    -0.206 F 
ATOM     96  C   UNL A   1      38.752  34.623  39.282  1.00  0.00     0.059 A 
ATOM     97  C   UNL A   1      40.353  36.121  38.242  1.00  0.00     0.059 A 
ATOM     98  F   UNL A   1      41.370  35.514  36.220  1.00  0.00    -0.206 F 
ATOM     99  C   UNL A   1      39.460  35.827  39.269  1.00  0.00     0.060 A 
BRANCH  99 100
ATOM    100  S   UNL A   1      39.213  36.992  40.626  1.00  0.00     0.124 S 
ATOM    101  O   UNL A   1      38.298  37.956  40.025  1.00  0.00    -0.237 OA
ATOM    102  O   UNL A   1      38.645  36.141  41.668  1.00  0.00    -0.237 OA
ATOM    103  O   UNL A   1      40.559  37.490  40.898  1.00  0.00    -0.744 OA
ENDBRANCH  99 100
ENDBRANCH  67  92
ENDBRANCH  41  42
ENDBRANCH  34  36
ENDBRANCH  33  34
ENDBRANCH  32  33
ENDBRANCH  31  32
ENDBRANCH  30  31
ENDBRANCH  29  30
ENDBRANCH  28  29
ENDBRANCH   1  28
TORSDOF 26
ENDMDL
MODEL 2
REMARK VINA RESULT:      -9.1      4.456      9.316
REMARK SMILES CN1CCN(C(=O)N2CC[C@@H](CC(=O)OCCOCCOCCOCCOC(=O)c3ccc(-c4c5nc(c(-c6c(F)cc(S(=O)(=O)[O-])cc6F)c6ccc([nH]6)c(-c6c(F)cc(S(=O)(=O)[O-])cc6F)c6nc(c(-c7c(F)cc(S(=O)(=O)[O-])cc7F)c7ccc4[nH]7)C=C6)C=C5)cc3)C2)C(C)(C)C1=O
REMARK SMILES IDX 21 1 20 2 19 3 18 4 17 5 16 6 15 7 13 8 14 9 12 10 11 11
REMARK SMILES IDX 8 12 9 13 96 14 10 15 6 16 7 17 5 18 1 19 2 20 3 21 100 22
REMARK SMILES IDX 4 23 97 24 101 25 98 26 99 27 22 28 23 29 24 30 25 31 26 32
REMARK SMILES IDX 27 33 28 34 29 35 30 36 31 37 95 38 32 39 94 40 33 41 34 42
REMARK SMILES IDX 35 43 88 44 36 45 93 46 87 47 89 48 37 49 92 50 86 51 85 52
REMARK SMILES IDX 38 54 72 55 51 56 71 57 52 58 55 59 70 60 90 61 53 62 54 63
REMARK SMILES IDX 69 65 91 66 56 67 39 68 40 69 49 70 41 71 42 72 48 73 50 74
REMARK SMILES IDX 43 75 44 76 45 77 46 78 47 79 73 80 74 81 83 82 75 83 76 84
REMARK SMILES IDX 82 85 84 86 77 87 78 88 79 89 80 90 81 91 57 92 58 93 67 94
REMARK SMILES IDX 59 95 60 96 66 97 68 98 61 99 62 100 63 101 64 102 65 103
REMARK H PARENT 89 53 55 64
REMARK Flexibility Score: inf
ROOT
ATOM      1  O   UNL A   1      34.013  28.148  24.961  1.00  0.00    -0.377 OA
ENDROOT
BRANCH   1   2
ATOM      2  C   UNL A   1      33.381  28.606  23.785  1.00  0.00     0.188 C 
BRANCH   2   3
ATOM      3  C   UNL A   1      32.556  27.543  23.055  1.00  0.00     0.188 C 
BRANCH   3   4
ATOM      4  O   UNL A   1      31.434  27.909  22.268  1.00  0.00    -0.376 OA
BRANCH   4   5
ATOM      5  C   UNL A   1      30.110  27.709  22.751  1.00  0.00     0.202 C 
BRANCH   5   6
ATOM      6  C   UNL A   1      29.812  27.148  24.154  1.00  0.00     0.261 C 
BRANCH   6   7
ATOM      7  O   UNL A   1      30.397  25.868  24.459  1.00  0.00    -0.463 OA
BRANCH   7   8
ATOM      8  C   UNL A   1      30.577  25.602  25.770  1.00  0.00     0.306 C 
ATOM      9  O   UNL A   1      29.671  25.369  26.565  1.00  0.00    -0.252 OA
BRANCH   8  10
ATOM     10  C   UNL A   1      32.023  25.493  26.209  1.00  0.00     0.128 C 
BRANCH  10  11
ATOM     11  C   UNL A   1      32.807  24.188  26.027  1.00  0.00     0.021 C 
ATOM     12  N   UNL A   1      33.021  22.802  24.119  1.00  0.00    -0.324 N 
ATOM     13  C   UNL A   1      33.767  24.002  23.833  1.00  0.00     0.122 C 
ATOM     14  C   UNL A   1      32.107  23.088  25.216  1.00  0.00     0.125 C 
ATOM     15  C   UNL A   1      34.114  24.468  25.236  1.00  0.00     0.027 C 
BRANCH  12  16
ATOM     16  C   UNL A   1      32.782  21.754  23.288  1.00  0.00     0.320 C 
ATOM     17  O   UNL A   1      32.300  21.988  22.175  1.00  0.00    -0.248 OA
BRANCH  16  18
ATOM     18  N   UNL A   1      33.095  20.461  23.672  1.00  0.00    -0.309 N 
ATOM     19  C   UNL A   1      33.852  16.236  23.919  1.00  0.00     0.146 C 
ATOM     20  N   UNL A   1      33.673  17.668  23.807  1.00  0.00    -0.342 N 
ATOM     21  C   UNL A   1      32.634  18.154  22.913  1.00  0.00     0.140 C 
ATOM     22  C   UNL A   1      34.588  18.546  24.385  1.00  0.00     0.247 C 
ATOM     23  C   UNL A   1      32.046  19.491  23.324  1.00  0.00     0.144 C 
ATOM     24  C   UNL A   1      34.023  19.961  24.764  1.00  0.00     0.118 C 
ATOM     25  O   UNL A   1      35.682  18.151  24.797  1.00  0.00    -0.272 OA
ATOM     26  C   UNL A   1      33.221  19.716  26.076  1.00  0.00     0.045 C 
ATOM     27  C   UNL A   1      35.198  20.843  25.205  1.00  0.00     0.045 C 
ENDBRANCH  16  18
ENDBRANCH  12  16
ENDBRANCH  10  11
ENDBRANCH   8  10
ENDBRANCH   7   8
ENDBRANCH   6   7
ENDBRANCH   5   6
ENDBRANCH   4   5
ENDBRANCH   3   4
ENDBRANCH   2   3
ENDBRANCH   1   2
BRANCH   1  28
ATOM     28  C   UNL A   1      33.665  28.771  26.194  1.00  0.00     0.188 C 
BRANCH  28  29
ATOM     29  C   UNL A   1      33.310  30.274  26.205  1.00  0.00     0.188 C 
BRANCH  29  30
ATOM     30  O   UNL A   1      31.926  30.562  26.082  1.00  0.00    -0.376 OA
BRANCH  30  31
ATOM     31  C   UNL A   1      31.380  31.671  26.781  1.00  0.00     0.202 C 
BRANCH  31  32
ATOM     32  C   UNL A   1      32.217  32.956  26.914  1.00  0.00     0.261 C 
BRANCH  32  33
ATOM     33  O   UNL A   1      33.167  33.017  27.989  1.00  0.00    -0.460 OA
BRANCH  33  34
ATOM     34  C   UNL A   1      33.206  34.124  28.755  1.00  0.00     0.338 C 
ATOM     35  O   UNL A   1      32.456  35.085  28.691  1.00  0.00    -0.246 OA
BRANCH  34  36
ATOM     36  C   UNL A   1      34.189  33.898  29.836  1.00  0.00     0.060 A 
ATOM     37  C   UNL A   1      34.474  34.945  30.722  1.00  0.00     0.016 A 
ATOM     38  C   UNL A   1      34.840  32.669  29.964  1.00  0.00     0.016 A 
ATOM     39  C   UNL A   1      35.453  34.785  31.705  1.00  0.00     0.010 A 
ATOM     40  C   UNL A   1      35.834  32.516  30.934  1.00  0.00     0.010 A 
ATOM     41  C   UNL A   1      36.177  33.588  31.779  1.00  0.00    -0.014 A 
BRANCH  41  42
ATOM     42  C   UNL A   1      37.430  33.535  32.573  1.00  0.00     0.031 A 
ATOM     43  C   UNL A   1      38.741  33.579  31.832  1.00  0.00     0.074 A 
ATOM     44  C   UNL A   1      37.416  33.473  33.916  1.00  0.00     0.049 A 
ATOM     45  N   UNL A   1      39.961  33.490  32.291  1.00  0.00    -0.248 NA
ATOM     46  C   UNL A   1      38.659  33.741  30.370  1.00  0.00     0.031 C 
ATOM     47  C   UNL A   1      36.215  33.471  34.750  1.00  0.00     0.029 A 
ATOM     48  N   UNL A   1      38.451  33.387  34.814  1.00  0.00    -0.354 N 
ATOM     49  C   UNL A   1      40.791  33.570  31.178  1.00  0.00     0.074 A 
ATOM     50  C   UNL A   1      39.934  33.682  30.018  1.00  0.00     0.031 C 
ATOM     51  C   UNL A   1      36.583  33.373  36.040  1.00  0.00     0.029 A 
ATOM     52  C   UNL A   1      38.040  33.269  36.120  1.00  0.00     0.049 A 
ATOM     53  H   UNL A   1      39.398  33.410  34.547  1.00  0.00     0.167 HD
ATOM     54  C   UNL A   1      42.144  33.560  31.126  1.00  0.00     0.037 A 
ATOM     55  C   UNL A   1      38.757  33.072  37.245  1.00  0.00     0.037 A 
ATOM     56  C   UNL A   1      42.991  33.444  32.284  1.00  0.00     0.049 A 
ATOM     57  C   UNL A   1      40.261  32.991  37.160  1.00  0.00     0.074 A 
ATOM     58  C   UNL A   1      44.373  33.438  32.343  1.00  0.00     0.029 A 
ATOM     59  N   UNL A   1      42.536  33.301  33.588  1.00  0.00    -0.354 N 
ATOM     60  N   UNL A   1      41.036  33.088  36.104  1.00  0.00    -0.248 NA
ATOM     61  C   UNL A   1      40.990  32.782  38.420  1.00  0.00     0.031 C 
ATOM     62  C   UNL A   1      44.754  33.230  33.672  1.00  0.00     0.029 A 
ATOM     63  C   UNL A   1      43.610  33.179  34.454  1.00  0.00     0.049 A 
ATOM     64  H   UNL A   1      41.589  33.289  33.858  1.00  0.00     0.167 HD
ATOM     65  C   UNL A   1      42.343  32.988  36.578  1.00  0.00     0.074 A 
ATOM     66  C   UNL A   1      42.252  32.828  38.014  1.00  0.00     0.031 C 
ATOM     67  C   UNL A   1      43.509  33.031  35.885  1.00  0.00     0.037 A 
BRANCH  54  68
ATOM     68  C   UNL A   1      42.789  33.637  29.767  1.00  0.00     0.058 A 
ATOM     69  C   UNL A   1      42.914  34.849  29.069  1.00  0.00     0.135 A 
ATOM     70  C   UNL A   1      43.300  32.478  29.159  1.00  0.00     0.135 A 
ATOM     71  F   UNL A   1      42.426  35.985  29.593  1.00  0.00    -0.206 F 
ATOM     72  C   UNL A   1      43.489  34.904  27.804  1.00  0.00     0.059 A 
ATOM     73  C   UNL A   1      43.910  32.516  27.910  1.00  0.00     0.059 A 
ATOM     74  F   UNL A   1      43.206  31.292  29.779  1.00  0.00    -0.206 F 
ATOM     75  C   UNL A   1      43.983  33.731  27.231  1.00  0.00     0.060 A 
BRANCH  75  76
ATOM     76  S   UNL A   1      44.717  33.817  25.585  1.00  0.00     0.124 S 
ATOM     77  O   UNL A   1      45.071  32.421  25.350  1.00  0.00    -0.237 OA
ATOM     78  O   UNL A   1      43.615  34.335  24.780  1.00  0.00    -0.237 OA
ATOM     79  O   UNL A   1      45.844  34.728  25.760  1.00  0.00    -0.744 OA
ENDBRANCH  75  76
ENDBRANCH  54  68
BRANCH  55  80
ATOM     80  C   UNL A   1      38.060  32.931  38.553  1.00  0.00     0.058 A 
ATOM     81  C   UNL A   1      37.379  31.751  38.890  1.00  0.00     0.135 A 
ATOM     82  C   UNL A   1      38.067  33.970  39.496  1.00  0.00     0.135 A 
ATOM     83  F   UNL A   1      37.328  30.733  38.018  1.00  0.00    -0.206 F 
ATOM     84  C   UNL A   1      36.725  31.609  40.110  1.00  0.00     0.059 A 
ATOM     85  C   UNL A   1      37.445  33.843  40.734  1.00  0.00     0.059 A 
ATOM     86  F   UNL A   1      38.707  35.120  39.226  1.00  0.00    -0.206 F 
ATOM     87  C   UNL A   1      36.770  32.659  41.030  1.00  0.00     0.060 A 
BRANCH  87  88
ATOM     88  S   UNL A   1      35.972  32.436  42.635  1.00  0.00     0.124 S 
ATOM     89  O   UNL A   1      36.130  33.759  43.228  1.00  0.00    -0.237 OA
ATOM     90  O   UNL A   1      34.615  32.067  42.248  1.00  0.00    -0.237 OA
ATOM     91  O   UNL A   1      36.752  31.369  43.253  1.00  0.00    -0.744 OA
ENDBRANCH  87  88
ENDBRANCH  55  80
BRANCH  67  92
ATOM     92  C   UNL A   1      44.793  32.959  36.670  1.00  0.00     0.058 A 
ATOM     93  C   UNL A   1      45.410  31.738  36.987  1.00  0.00     0.135 A 
ATOM     94  C   UNL A   1      45.449  34.140  37.060  1.00  0.00     0.135 A 
ATOM     95  F   UNL A   1      44.828  30.578  36.643  1.00  0.00    -0.206 F 
ATOM     96  C   UNL A   1      46.614  31.690  37.683  1.00  0.00     0.059 A 
ATOM     97  C   UNL A   1      46.670  34.116  37.726  1.00  0.00     0.059 A 
ATOM     98  F   UNL A   1      44.912  35.337  36.772  1.00  0.00    -0.206 F 
ATOM     99  C   UNL A   1      47.238  32.885  38.046  1.00  0.00     0.060 A 
BRANCH  99 100
ATOM    100  S   UNL A   1      48.816  32.808  38.921  1.00  0.00     0.124 S 
ATOM    101  O   UNL A   1      49.754  33.185  37.871  1.00  0.00    -0.237 OA
ATOM    102  O   UNL A   1      48.628  33.789  39.987  1.00  0.00    -0.237 OA
ATOM    103  O   UNL A   1      48.894  31.419  39.363  1.00  0.00    -0.744 OA
ENDBRANCH  99 100
ENDBRANCH  67  92
ENDBRANCH  41  42
ENDBRANCH  34  36
ENDBRANCH  33  34
ENDBRANCH  32  33
ENDBRANCH  31  32
ENDBRANCH  30  31
ENDBRANCH  29  30
ENDBRANCH  28  29
ENDBRANCH   1  28
TORSDOF 26
ENDMDL
MODEL 3
REMARK VINA RESULT:      -8.6      2.765      8.981
REMARK SMILES CN1CCN(C(=O)N2CC[C@@H](CC(=O)OCCOCCOCCOCCOC(=O)c3ccc(-c4c5nc(c(-c6c(F)cc(S(=O)(=O)[O-])cc6F)c6ccc([nH]6)c(-c6c(F)cc(S(=O)(=O)[O-])cc6F)c6nc(c(-c7c(F)cc(S(=O)(=O)[O-])cc7F)c7ccc4[nH]7)C=C6)C=C5)cc3)C2)C(C)(C)C1=O
REMARK SMILES IDX 21 1 20 2 19 3 18 4 17 5 16 6 15 7 13 8 14 9 12 10 11 11
REMARK SMILES IDX 8 12 9 13 96 14 10 15 6 16 7 17 5 18 1 19 2 20 3 21 100 22
REMARK SMILES IDX 4 23 97 24 101 25 98 26 99 27 22 28 23 29 24 30 25 31 26 32
REMARK SMILES IDX 27 33 28 34 29 35 30 36 31 37 95 38 32 39 94 40 33 41 34 42
REMARK SMILES IDX 35 43 88 44 36 45 93 46 87 47 89 48 37 49 92 50 86 51 85 52
REMARK SMILES IDX 38 54 72 55 51 56 71 57 52 58 55 59 70 60 90 61 53 62 54 63
REMARK SMILES IDX 69 65 91 66 56 67 39 68 40 69 49 70 41 71 42 72 48 73 50 74
REMARK SMILES IDX 43 75 44 76 45 77 46 78 47 79 73 80 74 81 83 82 75 83 76 84
REMARK SMILES IDX 82 85 84 86 77 87 78 88 79 89 80 90 81 91 57 92 58 93 67 94
REMARK SMILES IDX 59 95 60 96 66 97 68 98 61 99 62 100 63 101 64 102 65 103
REMARK H PARENT 89 53 55 64
REMARK Flexibility Score: inf
ROOT
ATOM      1  O   UNL A   1      33.488  27.704  23.303  1.00  0.00    -0.377 OA
ENDROOT
BRANCH   1   2
ATOM      2  C   UNL A   1      32.965  28.915  22.799  1.00  0.00     0.188 C 
BRANCH   2   3
ATOM      3  C   UNL A   1      31.773  28.744  21.854  1.00  0.00     0.188 C 
BRANCH   3   4
ATOM      4  O   UNL A   1      30.759  29.733  21.778  1.00  0.00    -0.376 OA
BRANCH   4   5
ATOM      5  C   UNL A   1      29.730  29.797  22.760  1.00  0.00     0.202 C 
BRANCH   5   6
ATOM      6  C   UNL A   1      29.531  28.706  23.828  1.00  0.00     0.261 C 
BRANCH   6   7
ATOM      7  O   UNL A   1      29.136  27.410  23.341  1.00  0.00    -0.463 OA
BRANCH   7   8
ATOM      8  C   UNL A   1      28.499  26.618  24.229  1.00  0.00     0.306 C 
ATOM      9  O   UNL A   1      27.308  26.323  24.172  1.00  0.00    -0.252 OA
BRANCH   8  10
ATOM     10  C   UNL A   1      29.389  25.994  25.284  1.00  0.00     0.128 C 
BRANCH  10  11
ATOM     11  C   UNL A   1      30.788  25.476  24.932  1.00  0.00     0.021 C 
ATOM     12  N   UNL A   1      31.991  23.638  25.817  1.00  0.00    -0.324 N 
ATOM     13  C   UNL A   1      30.922  23.080  25.028  1.00  0.00     0.122 C 
ATOM     14  C   UNL A   1      31.658  25.025  26.115  1.00  0.00     0.125 C 
ATOM     15  C   UNL A   1      30.670  24.208  24.044  1.00  0.00     0.027 C 
BRANCH  12  16
ATOM     16  C   UNL A   1      32.891  22.973  26.588  1.00  0.00     0.320 C 
ATOM     17  O   UNL A   1      32.581  22.712  27.755  1.00  0.00    -0.248 OA
BRANCH  16  18
ATOM     18  N   UNL A   1      34.112  22.577  26.069  1.00  0.00    -0.309 N 
ATOM     19  C   UNL A   1      38.250  21.680  25.326  1.00  0.00     0.146 C 
ATOM     20  N   UNL A   1      36.851  21.911  25.617  1.00  0.00    -0.342 N 
ATOM     21  C   UNL A   1      36.508  23.072  26.421  1.00  0.00     0.140 C 
ATOM     22  C   UNL A   1      35.891  20.951  25.299  1.00  0.00     0.247 C 
ATOM     23  C   UNL A   1      35.130  23.636  26.129  1.00  0.00     0.144 C 
ATOM     24  C   UNL A   1      34.441  21.499  25.053  1.00  0.00     0.118 C 
ATOM     25  O   UNL A   1      36.214  19.802  24.987  1.00  0.00    -0.272 OA
ATOM     26  C   UNL A   1      34.499  22.112  23.623  1.00  0.00     0.045 C 
ATOM     27  C   UNL A   1      33.495  20.300  24.906  1.00  0.00     0.045 C 
ENDBRANCH  16  18
ENDBRANCH  12  16
ENDBRANCH  10  11
ENDBRANCH   8  10
ENDBRANCH   7   8
ENDBRANCH   6   7
ENDBRANCH   5   6
ENDBRANCH   4   5
ENDBRANCH   3   4
ENDBRANCH   2   3
ENDBRANCH   1   2
BRANCH   1  28
ATOM     28  C   UNL A   1      33.848  27.653  24.681  1.00  0.00     0.188 C 
BRANCH  28  29
ATOM     29  C   UNL A   1      33.579  28.883  25.576  1.00  0.00     0.188 C 
BRANCH  29  30
ATOM     30  O   UNL A   1      32.228  29.047  25.976  1.00  0.00    -0.376 OA
BRANCH  30  31
ATOM     31  C   UNL A   1      31.922  29.918  27.056  1.00  0.00     0.202 C 
BRANCH  31  32
ATOM     32  C   UNL A   1      32.490  31.349  27.046  1.00  0.00     0.261 C 
BRANCH  32  33
ATOM     33  O   UNL A   1      33.609  31.620  27.905  1.00  0.00    -0.460 OA
BRANCH  33  34
ATOM     34  C   UNL A   1      33.941  32.902  28.145  1.00  0.00     0.338 C 
ATOM     35  O   UNL A   1      33.355  33.898  27.750  1.00  0.00    -0.246 OA
BRANCH  34  36
ATOM     36  C   UNL A   1      35.029  32.913  29.148  1.00  0.00     0.060 A 
ATOM     37  C   UNL A   1      36.027  33.891  29.054  1.00  0.00     0.016 A 
ATOM     38  C   UNL A   1      35.074  31.953  30.160  1.00  0.00     0.016 A 
ATOM     39  C   UNL A   1      37.106  33.879  29.940  1.00  0.00     0.010 A 
ATOM     40  C   UNL A   1      36.165  31.928  31.034  1.00  0.00     0.010 A 
ATOM     41  C   UNL A   1      37.208  32.863  30.899  1.00  0.00    -0.014 A 
BRANCH  41  42
ATOM     42  C   UNL A   1      38.498  32.641  31.599  1.00  0.00     0.031 A 
ATOM     43  C   UNL A   1      39.507  31.727  30.954  1.00  0.00     0.074 A 
ATOM     44  C   UNL A   1      38.784  33.247  32.765  1.00  0.00     0.049 A 
ATOM     45  N   UNL A   1      40.673  31.331  31.393  1.00  0.00    -0.248 NA
ATOM     46  C   UNL A   1      39.144  31.182  29.635  1.00  0.00     0.031 C 
ATOM     47  C   UNL A   1      37.912  34.187  33.466  1.00  0.00     0.029 A 
ATOM     48  N   UNL A   1      39.892  33.149  33.570  1.00  0.00    -0.354 N 
ATOM     49  C   UNL A   1      41.177  30.482  30.414  1.00  0.00     0.074 A 
ATOM     50  C   UNL A   1      40.176  30.393  29.374  1.00  0.00     0.031 C 
ATOM     51  C   UNL A   1      38.513  34.569  34.607  1.00  0.00     0.029 A 
ATOM     52  C   UNL A   1      39.794  33.874  34.734  1.00  0.00     0.049 A 
ATOM     53  H   UNL A   1      40.682  32.611  33.335  1.00  0.00     0.167 HD
ATOM     54  C   UNL A   1      42.369  29.840  30.379  1.00  0.00     0.037 A 
ATOM     55  C   UNL A   1      40.630  33.945  35.790  1.00  0.00     0.037 A 
ATOM     56  C   UNL A   1      43.359  29.929  31.420  1.00  0.00     0.049 A 
ATOM     57  C   UNL A   1      41.922  33.166  35.766  1.00  0.00     0.074 A 
ATOM     58  C   UNL A   1      44.606  29.331  31.475  1.00  0.00     0.029 A 
ATOM     59  N   UNL A   1      43.213  30.655  32.594  1.00  0.00    -0.354 N 
ATOM     60  N   UNL A   1      42.396  32.381  34.826  1.00  0.00    -0.248 NA
ATOM     61  C   UNL A   1      42.796  33.286  36.942  1.00  0.00     0.031 C 
ATOM     62  C   UNL A   1      45.186  29.643  32.709  1.00  0.00     0.029 A 
ATOM     63  C   UNL A   1      44.333  30.495  33.392  1.00  0.00     0.049 A 
ATOM     64  H   UNL A   1      42.427  31.202  32.826  1.00  0.00     0.167 HD
ATOM     65  C   UNL A   1      43.639  31.945  35.282  1.00  0.00     0.074 A 
ATOM     66  C   UNL A   1      43.842  32.558  36.579  1.00  0.00     0.031 C 
ATOM     67  C   UNL A   1      44.531  31.119  34.678  1.00  0.00     0.037 A 
BRANCH  54  68
ATOM     68  C   UNL A   1      42.647  28.954  29.194  1.00  0.00     0.058 A 
ATOM     69  C   UNL A   1      42.320  27.588  29.190  1.00  0.00     0.135 A 
ATOM     70  C   UNL A   1      43.241  29.485  28.037  1.00  0.00     0.135 A 
ATOM     71  F   UNL A   1      41.769  27.022  30.276  1.00  0.00    -0.206 F 
ATOM     72  C   UNL A   1      42.606  26.774  28.099  1.00  0.00     0.059 A 
ATOM     73  C   UNL A   1      43.504  28.697  26.921  1.00  0.00     0.059 A 
ATOM     74  F   UNL A   1      43.578  30.783  27.984  1.00  0.00    -0.206 F 
ATOM     75  C   UNL A   1      43.199  27.337  26.969  1.00  0.00     0.060 A 
BRANCH  75  76
ATOM     76  S   UNL A   1      43.572  26.266  25.565  1.00  0.00     0.124 S 
ATOM     77  O   UNL A   1      43.845  24.996  26.232  1.00  0.00    -0.237 OA
ATOM     78  O   UNL A   1      42.334  26.323  24.793  1.00  0.00    -0.237 OA
ATOM     79  O   UNL A   1      44.726  26.907  24.942  1.00  0.00    -0.744 OA
ENDBRANCH  75  76
ENDBRANCH  54  68
BRANCH  55  80
ATOM     80  C   UNL A   1      40.268  34.782  36.966  1.00  0.00     0.058 A 
ATOM     81  C   UNL A   1      39.434  34.289  37.981  1.00  0.00     0.135 A 
ATOM     82  C   UNL A   1      40.756  36.091  37.105  1.00  0.00     0.135 A 
ATOM     83  F   UNL A   1      38.927  33.050  37.890  1.00  0.00    -0.206 F 
ATOM     84  C   UNL A   1      39.090  35.063  39.085  1.00  0.00     0.059 A 
ATOM     85  C   UNL A   1      40.450  36.875  38.212  1.00  0.00     0.059 A 
ATOM     86  F   UNL A   1      41.562  36.611  36.165  1.00  0.00    -0.206 F 
ATOM     87  C   UNL A   1      39.610  36.354  39.196  1.00  0.00     0.060 A 
BRANCH  87  88
ATOM     88  S   UNL A   1      39.209  37.324  40.665  1.00  0.00     0.124 S 
ATOM     89  O   UNL A   1      38.211  38.251  40.142  1.00  0.00    -0.237 OA
ATOM     90  O   UNL A   1      38.714  36.299  41.578  1.00  0.00    -0.237 OA
ATOM     91  O   UNL A   1      40.490  37.918  41.036  1.00  0.00    -0.744 OA
ENDBRANCH  87  88
ENDBRANCH  55  80
BRANCH  67  92
ATOM     92  C   UNL A   1      45.838  30.865  35.382  1.00  0.00     0.058 A 
ATOM     93  C   UNL A   1      46.955  31.700  35.210  1.00  0.00     0.135 A 
ATOM     94  C   UNL A   1      45.956  29.799  36.291  1.00  0.00     0.135 A 
ATOM     95  F   UNL A   1      46.901  32.731  34.353  1.00  0.00    -0.206 F 
ATOM     96  C   UNL A   1      48.145  31.472  35.893  1.00  0.00     0.059 A 
ATOM     97  C   UNL A   1      47.125  29.573  37.010  1.00  0.00     0.059 A 
ATOM     98  F   UNL A   1      44.916  28.976  36.504  1.00  0.00    -0.206 F 
ATOM     99  C   UNL A   1      48.220  30.407  36.794  1.00  0.00     0.060 A 
BRANCH  99 100
ATOM    100  S   UNL A   1      49.761  30.142  37.698  1.00  0.00     0.124 S 
ATOM    101  O   UNL A   1      50.337  31.482  37.697  1.00  0.00    -0.237 OA
ATOM    102  O   UNL A   1      49.284  29.657  38.990  1.00  0.00    -0.237 OA
ATOM    103  O   UNL A   1      50.466  29.154  36.887  1.00  0.00    -0.744 OA
ENDBRANCH  99 100
ENDBRANCH  67  92
ENDBRANCH  41  42
ENDBRANCH  34  36
ENDBRANCH  33  34
ENDBRANCH  32  33
ENDBRANCH  31  32
ENDBRANCH  30  31
ENDBRANCH  29  30
ENDBRANCH  28  29
ENDBRANCH   1  28
TORSDOF 26
ENDMDL
