MODEL 1
REMARK VINA RESULT:     -11.3      0.000      0.000
REMARK SMILES CC1(C)O[C@@H]2CC3[C@H]4CCC5=CC(=O)C=C[C@@]5(C)[C@]4(F)[C@H](O)C[C@]3(C)[C@]2(C(=O)OCCOCCOCCOCCOC(=O)c2ccc(-c3c4nc(c(-c5c(F)cc(S(=O)(=O)[O-])cc5F)c5ccc([nH]5)c(-c5c(F)cc(S(=O)(=O)[O-])cc5F)c5nc(c(-c6c(F)cc(S(=O)(=O)[O-])cc6F)c6ccc3[nH]6)C=C5)C=C4)cc2)O1
REMARK SMILES IDX 36 1 35 2 34 3 33 4 32 5 31 6 30 7 29 8 27 9 28 10 26 11
REMARK SMILES IDX 1 12 2 13 4 14 110 15 3 16 5 17 6 18 24 19 7 20 23 21 25 22
REMARK SMILES IDX 8 23 21 24 9 25 19 26 10 27 17 28 20 29 11 30 16 31 18 32
REMARK SMILES IDX 12 33 15 34 13 35 14 36 22 37 37 39 38 40 39 41 40 42 41 43
REMARK SMILES IDX 42 44 43 45 44 46 45 47 109 48 46 49 108 50 47 51 48 52
REMARK SMILES IDX 49 53 102 54 50 55 107 56 101 57 103 58 51 59 106 60 100 61
REMARK SMILES IDX 99 62 52 64 86 65 65 66 85 67 66 68 69 69 84 70 104 71 67 72
REMARK SMILES IDX 68 73 83 75 105 76 70 77 53 78 54 79 63 80 55 81 56 82 62 83
REMARK SMILES IDX 64 84 57 85 58 86 59 87 60 88 61 89 87 90 88 91 97 92 89 93
REMARK SMILES IDX 90 94 96 95 98 96 91 97 92 98 93 99 94 100 95 101 71 102
REMARK SMILES IDX 72 103 81 104 73 105 74 106 80 107 82 108 75 109 76 110
REMARK SMILES IDX 77 111 78 112 79 113
REMARK H PARENT 22 38 103 63 69 74
REMARK Flexibility Score: inf
ROOT
ATOM      1  C   UNL A   1      32.222  32.956  27.231  1.00  0.00     0.188 C 
ENDROOT
BRANCH   1   2
ATOM      2  O   UNL A   1      31.560  31.824  26.704  1.00  0.00    -0.377 OA
BRANCH   2   3
ATOM      3  C   UNL A   1      32.110  30.556  26.965  1.00  0.00     0.188 C 
BRANCH   3   4
ATOM      4  C   UNL A   1      32.422  29.768  25.699  1.00  0.00     0.188 C 
BRANCH   4   5
ATOM      5  O   UNL A   1      31.623  30.087  24.579  1.00  0.00    -0.376 OA
BRANCH   5   6
ATOM      6  C   UNL A   1      30.710  29.146  24.025  1.00  0.00     0.202 C 
BRANCH   6   7
ATOM      7  C   UNL A   1      30.862  27.601  23.949  1.00  0.00     0.261 C 
BRANCH   7   8
ATOM      8  O   UNL A   1      31.270  26.891  25.126  1.00  0.00    -0.461 OA
BRANCH   8   9
ATOM      9  C   UNL A   1      31.021  25.562  25.147  1.00  0.00     0.341 C 
ATOM     10  O   UNL A   1      29.887  25.106  25.232  1.00  0.00    -0.249 OA
BRANCH   9  11
ATOM     11  C   UNL A   1      32.298  24.721  24.871  1.00  0.00     0.200 C 
ATOM     12  C   UNL A   1      33.028  25.524  21.550  1.00  0.00     0.075 C 
ATOM     13  C   UNL A   1      33.419  24.682  22.764  1.00  0.00     0.165 C 
ATOM     14  O   UNL A   1      34.201  25.519  23.613  1.00  0.00    -0.344 OA
ATOM     15  O   UNL A   1      32.295  24.157  23.523  1.00  0.00    -0.329 OA
ATOM     16  C   UNL A   1      34.241  23.485  22.208  1.00  0.00     0.075 C 
ATOM     17  C   UNL A   1      33.700  25.396  24.954  1.00  0.00     0.166 C 
ATOM     18  C   UNL A   1      34.665  24.365  25.680  1.00  0.00     0.040 C 
ATOM     19  C   UNL A   1      32.421  23.555  25.973  1.00  0.00     0.016 C 
ATOM     20  C   UNL A   1      33.834  23.080  25.574  1.00  0.00     0.008 C 
ATOM     21  C   UNL A   1      31.362  22.433  26.018  1.00  0.00     0.046 C 
ATOM     22  C   UNL A   1      32.421  24.177  27.413  1.00  0.00     0.015 C 
ATOM     23  C   UNL A   1      34.166  21.625  25.202  1.00  0.00     0.035 C 
ATOM     24  C   UNL A   1      31.682  21.168  25.235  1.00  0.00     0.154 C 
ATOM     25  C   UNL A   1      35.600  21.192  25.434  1.00  0.00     0.012 C 
ATOM     26  C   UNL A   1      33.098  20.599  25.590  1.00  0.00     0.152 C 
ATOM     27  C   UNL A   1      35.865  19.996  24.519  1.00  0.00     0.032 C 
ATOM     28  C   UNL A   1      33.410  19.180  24.927  1.00  0.00     0.044 C 
ATOM     29  F   UNL A   1      33.177  20.475  26.955  1.00  0.00    -0.239 F 
ATOM     30  C   UNL A   1      34.914  18.865  24.800  1.00  0.00    -0.053 C 
ATOM     31  C   UNL A   1      32.740  18.054  25.722  1.00  0.00    -0.009 C 
ATOM     32  C   UNL A   1      32.810  19.062  23.493  1.00  0.00     0.024 C 
ATOM     33  C   UNL A   1      35.374  17.601  24.835  1.00  0.00     0.052 C 
ATOM     34  C   UNL A   1      33.099  16.770  25.541  1.00  0.00     0.048 C 
ATOM     35  C   UNL A   1      34.442  16.462  24.996  1.00  0.00     0.178 C 
ATOM     36  O   UNL A   1      34.782  15.315  24.742  1.00  0.00    -0.290 OA
BRANCH  24  37
ATOM     37  O   UNL A   1      31.498  21.462  23.847  1.00  0.00    -0.390 OA
ATOM     38  H   UNL A   1      30.581  21.739  23.693  1.00  0.00     0.211 HD
ENDBRANCH  24  37
ENDBRANCH   9  11
ENDBRANCH   8   9
ENDBRANCH   7   8
ENDBRANCH   6   7
ENDBRANCH   5   6
ENDBRANCH   4   5
ENDBRANCH   3   4
ENDBRANCH   2   3
ENDBRANCH   1   2
BRANCH   1  39
ATOM     39  C   UNL A   1      33.577  32.804  27.952  1.00  0.00     0.188 C 
BRANCH  39  40
ATOM     40  O   UNL A   1      33.809  33.680  29.045  1.00  0.00    -0.376 OA
BRANCH  40  41
ATOM     41  C   UNL A   1      34.490  33.208  30.200  1.00  0.00     0.202 C 
BRANCH  41  42
ATOM     42  C   UNL A   1      35.955  32.738  30.085  1.00  0.00     0.261 C 
BRANCH  42  43
ATOM     43  O   UNL A   1      36.180  31.355  29.775  1.00  0.00    -0.460 OA
BRANCH  43  44
ATOM     44  C   UNL A   1      36.752  30.577  30.716  1.00  0.00     0.338 C 
ATOM     45  O   UNL A   1      36.259  30.240  31.783  1.00  0.00    -0.246 OA
BRANCH  44  46
ATOM     46  C   UNL A   1      37.992  30.004  30.147  1.00  0.00     0.060 A 
ATOM     47  C   UNL A   1      38.990  29.557  31.026  1.00  0.00     0.016 A 
ATOM     48  C   UNL A   1      38.159  29.866  28.766  1.00  0.00     0.016 A 
ATOM     49  C   UNL A   1      40.172  29.009  30.528  1.00  0.00     0.010 A 
ATOM     50  C   UNL A   1      39.360  29.349  28.267  1.00  0.00     0.010 A 
ATOM     51  C   UNL A   1      40.386  28.953  29.146  1.00  0.00    -0.014 A 
BRANCH  51  52
ATOM     52  C   UNL A   1      41.759  28.714  28.636  1.00  0.00     0.031 A 
ATOM     53  C   UNL A   1      42.092  27.329  28.145  1.00  0.00     0.074 A 
ATOM     54  C   UNL A   1      42.677  29.697  28.576  1.00  0.00     0.049 A 
ATOM     55  N   UNL A   1      43.225  26.857  27.699  1.00  0.00    -0.248 NA
ATOM     56  C   UNL A   1      40.995  26.343  28.161  1.00  0.00     0.031 C 
ATOM     57  C   UNL A   1      42.461  31.087  28.976  1.00  0.00     0.029 A 
ATOM     58  N   UNL A   1      43.987  29.667  28.163  1.00  0.00    -0.354 N 
ATOM     59  C   UNL A   1      42.986  25.520  27.405  1.00  0.00     0.074 A 
ATOM     60  C   UNL A   1      41.605  25.250  27.730  1.00  0.00     0.031 C 
ATOM     61  C   UNL A   1      43.607  31.771  28.809  1.00  0.00     0.029 A 
ATOM     62  C   UNL A   1      44.646  30.863  28.324  1.00  0.00     0.049 A 
ATOM     63  H   UNL A   1      44.414  28.864  27.786  1.00  0.00     0.167 HD
ATOM     64  C   UNL A   1      43.843  24.600  26.907  1.00  0.00     0.037 A 
ATOM     65  C   UNL A   1      45.944  31.176  28.132  1.00  0.00     0.037 A 
ATOM     66  C   UNL A   1      45.212  24.879  26.564  1.00  0.00     0.049 A 
ATOM     67  C   UNL A   1      46.892  30.112  27.627  1.00  0.00     0.074 A 
ATOM     68  C   UNL A   1      46.146  24.023  26.006  1.00  0.00     0.029 A 
ATOM     69  N   UNL A   1      45.845  26.095  26.755  1.00  0.00    -0.354 N 
ATOM     70  N   UNL A   1      46.641  28.864  27.307  1.00  0.00    -0.248 NA
ATOM     71  C   UNL A   1      48.301  30.499  27.456  1.00  0.00     0.031 C 
ATOM     72  C   UNL A   1      47.363  24.704  25.923  1.00  0.00     0.029 A 
ATOM     73  C   UNL A   1      47.169  26.004  26.362  1.00  0.00     0.049 A 
ATOM     74  H   UNL A   1      45.418  26.905  27.117  1.00  0.00     0.167 HD
ATOM     75  C   UNL A   1      47.849  28.333  26.862  1.00  0.00     0.074 A 
ATOM     76  C   UNL A   1      48.827  29.396  26.942  1.00  0.00     0.031 C 
ATOM     77  C   UNL A   1      48.126  27.079  26.426  1.00  0.00     0.037 A 
BRANCH  64  78
ATOM     78  C   UNL A   1      43.351  23.191  26.729  1.00  0.00     0.058 A 
ATOM     79  C   UNL A   1      43.160  22.622  25.462  1.00  0.00     0.135 A 
ATOM     80  C   UNL A   1      43.157  22.371  27.854  1.00  0.00     0.135 A 
ATOM     81  F   UNL A   1      43.306  23.369  24.355  1.00  0.00    -0.206 F 
ATOM     82  C   UNL A   1      42.799  21.286  25.314  1.00  0.00     0.059 A 
ATOM     83  C   UNL A   1      42.823  21.027  27.730  1.00  0.00     0.059 A 
ATOM     84  F   UNL A   1      43.315  22.872  29.089  1.00  0.00    -0.206 F 
ATOM     85  C   UNL A   1      42.646  20.494  26.455  1.00  0.00     0.060 A 
BRANCH  85  86
ATOM     86  S   UNL A   1      42.244  18.747  26.243  1.00  0.00     0.124 S 
ATOM     87  O   UNL A   1      40.848  18.818  25.822  1.00  0.00    -0.237 OA
ATOM     88  O   UNL A   1      43.195  18.334  25.216  1.00  0.00    -0.237 OA
ATOM     89  O   UNL A   1      42.471  18.181  27.569  1.00  0.00    -0.744 OA
ENDBRANCH  85  86
ENDBRANCH  64  78
BRANCH  65  90
ATOM     90  C   UNL A   1      46.454  32.540  28.453  1.00  0.00     0.058 A 
ATOM     91  C   UNL A   1      46.866  32.882  29.750  1.00  0.00     0.135 A 
ATOM     92  C   UNL A   1      46.475  33.551  27.478  1.00  0.00     0.135 A 
ATOM     93  F   UNL A   1      46.854  31.957  30.722  1.00  0.00    -0.206 F 
ATOM     94  C   UNL A   1      47.238  34.182  30.081  1.00  0.00     0.059 A 
ATOM     95  C   UNL A   1      46.876  34.850  27.777  1.00  0.00     0.059 A 
ATOM     96  F   UNL A   1      46.102  33.281  26.218  1.00  0.00    -0.206 F 
ATOM     97  C   UNL A   1      47.234  35.161  29.087  1.00  0.00     0.060 A 
BRANCH  97  98
ATOM     98  S   UNL A   1      47.715  36.846  29.524  1.00  0.00     0.124 S 
ATOM     99  O   UNL A   1      48.715  37.139  28.505  1.00  0.00    -0.237 OA
ATOM    100  O   UNL A   1      46.451  37.566  29.407  1.00  0.00    -0.237 OA
ATOM    101  O   UNL A   1      48.224  36.706  30.886  1.00  0.00    -0.744 OA
ENDBRANCH  97  98
ENDBRANCH  65  90
BRANCH  77 102
ATOM    102  C   UNL A   1      49.524  26.795  25.944  1.00  0.00     0.058 A 
ATOM    103  C   UNL A   1      49.928  27.069  24.629  1.00  0.00     0.135 A 
ATOM    104  C   UNL A   1      50.491  26.302  26.837  1.00  0.00     0.135 A 
ATOM    105  F   UNL A   1      49.044  27.539  23.734  1.00  0.00    -0.206 F 
ATOM    106  C   UNL A   1      51.233  26.836  24.206  1.00  0.00     0.059 A 
ATOM    107  C   UNL A   1      51.810  26.095  26.446  1.00  0.00     0.059 A 
ATOM    108  F   UNL A   1      50.163  26.037  28.111  1.00  0.00    -0.206 F 
ATOM    109  C   UNL A   1      52.168  26.351  25.124  1.00  0.00     0.060 A 
BRANCH 109 110
ATOM    110  S   UNL A   1      53.866  26.085  24.571  1.00  0.00     0.124 S 
ATOM    111  O   UNL A   1      53.777  26.454  23.162  1.00  0.00    -0.237 OA
ATOM    112  O   UNL A   1      54.619  27.003  25.421  1.00  0.00    -0.237 OA
ATOM    113  O   UNL A   1      54.092  24.667  24.836  1.00  0.00    -0.744 OA
ENDBRANCH 109 110
ENDBRANCH  77 102
ENDBRANCH  51  52
ENDBRANCH  44  46
ENDBRANCH  43  44
ENDBRANCH  42  43
ENDBRANCH  41  42
ENDBRANCH  40  41
ENDBRANCH  39  40
ENDBRANCH   1  39
TORSDOF 24
ENDMDL
MODEL 2
REMARK VINA RESULT:     -11.2      5.682     11.507
REMARK SMILES CC1(C)O[C@@H]2CC3[C@H]4CCC5=CC(=O)C=C[C@@]5(C)[C@]4(F)[C@H](O)C[C@]3(C)[C@]2(C(=O)OCCOCCOCCOCCOC(=O)c2ccc(-c3c4nc(c(-c5c(F)cc(S(=O)(=O)[O-])cc5F)c5ccc([nH]5)c(-c5c(F)cc(S(=O)(=O)[O-])cc5F)c5nc(c(-c6c(F)cc(S(=O)(=O)[O-])cc6F)c6ccc3[nH]6)C=C5)C=C4)cc2)O1
REMARK SMILES IDX 36 1 35 2 34 3 33 4 32 5 31 6 30 7 29 8 27 9 28 10 26 11
REMARK SMILES IDX 1 12 2 13 4 14 110 15 3 16 5 17 6 18 24 19 7 20 23 21 25 22
REMARK SMILES IDX 8 23 21 24 9 25 19 26 10 27 17 28 20 29 11 30 16 31 18 32
REMARK SMILES IDX 12 33 15 34 13 35 14 36 22 37 37 39 38 40 39 41 40 42 41 43
REMARK SMILES IDX 42 44 43 45 44 46 45 47 109 48 46 49 108 50 47 51 48 52
REMARK SMILES IDX 49 53 102 54 50 55 107 56 101 57 103 58 51 59 106 60 100 61
REMARK SMILES IDX 99 62 52 64 86 65 65 66 85 67 66 68 69 69 84 70 104 71 67 72
REMARK SMILES IDX 68 73 83 75 105 76 70 77 53 78 54 79 63 80 55 81 56 82 62 83
REMARK SMILES IDX 64 84 57 85 58 86 59 87 60 88 61 89 87 90 88 91 97 92 89 93
REMARK SMILES IDX 90 94 96 95 98 96 91 97 92 98 93 99 94 100 95 101 71 102
REMARK SMILES IDX 72 103 81 104 73 105 74 106 80 107 82 108 75 109 76 110
REMARK SMILES IDX 77 111 78 112 79 113
REMARK H PARENT 22 38 103 63 69 74
REMARK Flexibility Score: inf
ROOT
ATOM      1  C   UNL A   1      39.376  21.477  25.724  1.00  0.00     0.188 C 
ENDROOT
BRANCH   1   2
ATOM      2  O   UNL A   1      39.242  22.571  26.609  1.00  0.00    -0.377 OA
BRANCH   2   3
ATOM      3  C   UNL A   1      38.122  23.410  26.458  1.00  0.00     0.188 C 
BRANCH   3   4
ATOM      4  C   UNL A   1      37.495  23.326  25.072  1.00  0.00     0.188 C 
BRANCH   4   5
ATOM      5  O   UNL A   1      36.144  22.919  25.046  1.00  0.00    -0.376 OA
BRANCH   5   6
ATOM      6  C   UNL A   1      35.696  21.882  24.179  1.00  0.00     0.202 C 
BRANCH   6   7
ATOM      7  C   UNL A   1      34.232  21.506  23.817  1.00  0.00     0.261 C 
BRANCH   7   8
ATOM      8  O   UNL A   1      33.169  22.343  24.292  1.00  0.00    -0.461 OA
BRANCH   8   9
ATOM      9  C   UNL A   1      32.790  23.357  23.483  1.00  0.00     0.341 C 
ATOM     10  O   UNL A   1      32.592  23.204  22.284  1.00  0.00    -0.249 OA
BRANCH   9  11
ATOM     11  C   UNL A   1      32.468  24.653  24.277  1.00  0.00     0.200 C 
ATOM     12  C   UNL A   1      30.423  23.473  26.853  1.00  0.00     0.075 C 
ATOM     13  C   UNL A   1      31.058  24.703  26.203  1.00  0.00     0.165 C 
ATOM     14  O   UNL A   1      32.396  24.783  26.690  1.00  0.00    -0.344 OA
ATOM     15  O   UNL A   1      31.085  24.671  24.749  1.00  0.00    -0.329 OA
ATOM     16  C   UNL A   1      30.200  25.918  26.654  1.00  0.00     0.075 C 
ATOM     17  C   UNL A   1      33.273  24.987  25.569  1.00  0.00     0.166 C 
ATOM     18  C   UNL A   1      33.572  26.546  25.537  1.00  0.00     0.040 C 
ATOM     19  C   UNL A   1      32.769  25.937  23.354  1.00  0.00     0.016 C 
ATOM     20  C   UNL A   1      32.579  26.999  24.457  1.00  0.00     0.008 C 
ATOM     21  C   UNL A   1      31.924  26.180  22.086  1.00  0.00     0.046 C 
ATOM     22  C   UNL A   1      34.256  25.901  22.856  1.00  0.00     0.015 C 
ATOM     23  C   UNL A   1      31.600  28.179  24.339  1.00  0.00     0.035 C 
ATOM     24  C   UNL A   1      30.711  27.085  22.243  1.00  0.00     0.154 C 
ATOM     25  C   UNL A   1      31.945  29.411  25.151  1.00  0.00     0.012 C 
ATOM     26  C   UNL A   1      31.078  28.447  22.926  1.00  0.00     0.152 C 
ATOM     27  C   UNL A   1      30.648  30.193  25.361  1.00  0.00     0.032 C 
ATOM     28  C   UNL A   1      29.878  29.500  22.956  1.00  0.00     0.044 C 
ATOM     29  F   UNL A   1      32.131  28.997  22.237  1.00  0.00    -0.239 F 
ATOM     30  C   UNL A   1      30.017  30.576  24.051  1.00  0.00    -0.053 C 
ATOM     31  C   UNL A   1      29.738  30.198  21.598  1.00  0.00    -0.009 C 
ATOM     32  C   UNL A   1      28.500  28.807  23.186  1.00  0.00     0.024 C 
ATOM     33  C   UNL A   1      29.499  31.809  23.896  1.00  0.00     0.052 C 
ATOM     34  C   UNL A   1      29.010  31.322  21.470  1.00  0.00     0.048 C 
ATOM     35  C   UNL A   1      28.773  32.173  22.659  1.00  0.00     0.178 C 
ATOM     36  O   UNL A   1      28.053  33.160  22.605  1.00  0.00    -0.290 OA
BRANCH  24  37
ATOM     37  O   UNL A   1      29.702  26.338  22.929  1.00  0.00    -0.390 OA
ATOM     38  H   UNL A   1      29.088  26.949  23.367  1.00  0.00     0.211 HD
ENDBRANCH  24  37
ENDBRANCH   9  11
ENDBRANCH   8   9
ENDBRANCH   7   8
ENDBRANCH   6   7
ENDBRANCH   5   6
ENDBRANCH   4   5
ENDBRANCH   3   4
ENDBRANCH   2   3
ENDBRANCH   1   2
BRANCH   1  39
ATOM     39  C   UNL A   1      40.047  20.171  26.194  1.00  0.00     0.188 C 
BRANCH  39  40
ATOM     40  O   UNL A   1      41.307  19.867  25.613  1.00  0.00    -0.376 OA
BRANCH  40  41
ATOM     41  C   UNL A   1      42.502  20.336  26.223  1.00  0.00     0.202 C 
BRANCH  41  42
ATOM     42  C   UNL A   1      43.095  21.694  25.796  1.00  0.00     0.261 C 
BRANCH  42  43
ATOM     43  O   UNL A   1      42.629  22.862  26.486  1.00  0.00    -0.460 OA
BRANCH  43  44
ATOM     44  C   UNL A   1      42.825  24.065  25.908  1.00  0.00     0.338 C 
ATOM     45  O   UNL A   1      43.176  24.272  24.755  1.00  0.00    -0.246 OA
BRANCH  44  46
ATOM     46  C   UNL A   1      42.323  25.106  26.831  1.00  0.00     0.060 A 
ATOM     47  C   UNL A   1      42.867  26.396  26.747  1.00  0.00     0.016 A 
ATOM     48  C   UNL A   1      41.299  24.834  27.743  1.00  0.00     0.016 A 
ATOM     49  C   UNL A   1      42.418  27.407  27.598  1.00  0.00     0.010 A 
ATOM     50  C   UNL A   1      40.875  25.838  28.620  1.00  0.00     0.010 A 
ATOM     51  C   UNL A   1      41.459  27.118  28.576  1.00  0.00    -0.014 A 
BRANCH  51  52
ATOM     52  C   UNL A   1      41.254  28.074  29.692  1.00  0.00     0.031 A 
ATOM     53  C   UNL A   1      42.153  27.950  30.895  1.00  0.00     0.074 A 
ATOM     54  C   UNL A   1      40.325  29.046  29.635  1.00  0.00     0.049 A 
ATOM     55  N   UNL A   1      42.145  28.628  32.011  1.00  0.00    -0.248 NA
ATOM     56  C   UNL A   1      43.204  26.917  30.827  1.00  0.00     0.031 C 
ATOM     57  C   UNL A   1      39.428  29.298  28.507  1.00  0.00     0.029 A 
ATOM     58  N   UNL A   1      39.974  29.998  30.561  1.00  0.00    -0.354 N 
ATOM     59  C   UNL A   1      43.167  28.092  32.785  1.00  0.00     0.074 A 
ATOM     60  C   UNL A   1      43.771  27.026  32.019  1.00  0.00     0.031 C 
ATOM     61  C   UNL A   1      38.615  30.324  28.818  1.00  0.00     0.029 A 
ATOM     62  C   UNL A   1      38.909  30.779  30.177  1.00  0.00     0.049 A 
ATOM     63  H   UNL A   1      40.442  30.112  31.419  1.00  0.00     0.167 HD
ATOM     64  C   UNL A   1      43.567  28.458  34.024  1.00  0.00     0.037 A 
ATOM     65  C   UNL A   1      38.231  31.726  30.859  1.00  0.00     0.037 A 
ATOM     66  C   UNL A   1      42.976  29.534  34.774  1.00  0.00     0.049 A 
ATOM     67  C   UNL A   1      38.666  32.075  32.264  1.00  0.00     0.074 A 
ATOM     68  C   UNL A   1      43.346  30.012  36.019  1.00  0.00     0.029 A 
ATOM     69  N   UNL A   1      41.893  30.289  34.359  1.00  0.00    -0.354 N 
ATOM     70  N   UNL A   1      39.665  31.594  32.965  1.00  0.00    -0.248 NA
ATOM     71  C   UNL A   1      37.880  33.099  32.971  1.00  0.00     0.031 C 
ATOM     72  C   UNL A   1      42.441  31.012  36.386  1.00  0.00     0.029 A 
ATOM     73  C   UNL A   1      41.553  31.205  35.340  1.00  0.00     0.049 A 
ATOM     74  H   UNL A   1      41.431  30.189  33.495  1.00  0.00     0.167 HD
ATOM     75  C   UNL A   1      39.650  32.282  34.176  1.00  0.00     0.074 A 
ATOM     76  C   UNL A   1      38.552  33.221  34.108  1.00  0.00     0.031 C 
ATOM     77  C   UNL A   1      40.471  32.151  35.248  1.00  0.00     0.037 A 
BRANCH  64  78
ATOM     78  C   UNL A   1      44.672  27.675  34.675  1.00  0.00     0.058 A 
ATOM     79  C   UNL A   1      45.988  28.153  34.737  1.00  0.00     0.135 A 
ATOM     80  C   UNL A   1      44.380  26.466  35.330  1.00  0.00     0.135 A 
ATOM     81  F   UNL A   1      46.326  29.290  34.105  1.00  0.00    -0.206 F 
ATOM     82  C   UNL A   1      46.979  27.463  35.429  1.00  0.00     0.059 A 
ATOM     83  C   UNL A   1      45.347  25.774  36.051  1.00  0.00     0.059 A 
ATOM     84  F   UNL A   1      43.138  25.960  35.291  1.00  0.00    -0.206 F 
ATOM     85  C   UNL A   1      46.644  26.281  36.094  1.00  0.00     0.060 A 
BRANCH  85  86
ATOM     86  S   UNL A   1      47.925  25.435  37.043  1.00  0.00     0.124 S 
ATOM     87  O   UNL A   1      47.821  24.074  36.526  1.00  0.00    -0.237 OA
ATOM     88  O   UNL A   1      49.128  26.167  36.661  1.00  0.00    -0.237 OA
ATOM     89  O   UNL A   1      47.498  25.613  38.428  1.00  0.00    -0.744 OA
ENDBRANCH  85  86
ENDBRANCH  64  78
BRANCH  65  90
ATOM     90  C   UNL A   1      37.042  32.394  30.256  1.00  0.00     0.058 A 
ATOM     91  C   UNL A   1      37.176  33.516  29.423  1.00  0.00     0.135 A 
ATOM     92  C   UNL A   1      35.741  31.962  30.560  1.00  0.00     0.135 A 
ATOM     93  F   UNL A   1      38.396  33.977  29.111  1.00  0.00    -0.206 F 
ATOM     94  C   UNL A   1      36.067  34.210  28.947  1.00  0.00     0.059 A 
ATOM     95  C   UNL A   1      34.616  32.619  30.068  1.00  0.00     0.059 A 
ATOM     96  F   UNL A   1      35.551  30.890  31.344  1.00  0.00    -0.206 F 
ATOM     97  C   UNL A   1      34.789  33.756  29.281  1.00  0.00     0.060 A 
BRANCH  97  98
ATOM     98  S   UNL A   1      33.356  34.663  28.662  1.00  0.00     0.124 S 
ATOM     99  O   UNL A   1      32.764  33.691  27.752  1.00  0.00    -0.237 OA
ATOM    100  O   UNL A   1      32.610  34.929  29.888  1.00  0.00    -0.237 OA
ATOM    101  O   UNL A   1      33.950  35.838  28.032  1.00  0.00    -0.744 OA
ENDBRANCH  97  98
ENDBRANCH  65  90
BRANCH  77 102
ATOM    102  C   UNL A   1      40.257  33.078  36.414  1.00  0.00     0.058 A 
ATOM    103  C   UNL A   1      39.279  32.833  37.390  1.00  0.00     0.135 A 
ATOM    104  C   UNL A   1      41.091  34.195  36.590  1.00  0.00     0.135 A 
ATOM    105  F   UNL A   1      38.454  31.781  37.271  1.00  0.00    -0.206 F 
ATOM    106  C   UNL A   1      39.116  33.679  38.483  1.00  0.00     0.059 A 
ATOM    107  C   UNL A   1      40.969  35.034  37.693  1.00  0.00     0.059 A 
ATOM    108  F   UNL A   1      42.054  34.469  35.695  1.00  0.00    -0.206 F 
ATOM    109  C   UNL A   1      39.969  34.776  38.628  1.00  0.00     0.060 A 
BRANCH 109 110
ATOM    110  S   UNL A   1      39.767  35.845  40.068  1.00  0.00     0.124 S 
ATOM    111  O   UNL A   1      41.076  35.733  40.703  1.00  0.00    -0.237 OA
ATOM    112  O   UNL A   1      39.465  37.137  39.458  1.00  0.00    -0.237 OA
ATOM    113  O   UNL A   1      38.661  35.229  40.797  1.00  0.00    -0.744 OA
ENDBRANCH 109 110
ENDBRANCH  77 102
ENDBRANCH  51  52
ENDBRANCH  44  46
ENDBRANCH  43  44
ENDBRANCH  42  43
ENDBRANCH  41  42
ENDBRANCH  40  41
ENDBRANCH  39  40
ENDBRANCH   1  39
TORSDOF 24
ENDMDL
MODEL 3
REMARK VINA RESULT:     -11.2      1.510      7.891
REMARK SMILES CC1(C)O[C@@H]2CC3[C@H]4CCC5=CC(=O)C=C[C@@]5(C)[C@]4(F)[C@H](O)C[C@]3(C)[C@]2(C(=O)OCCOCCOCCOCCOC(=O)c2ccc(-c3c4nc(c(-c5c(F)cc(S(=O)(=O)[O-])cc5F)c5ccc([nH]5)c(-c5c(F)cc(S(=O)(=O)[O-])cc5F)c5nc(c(-c6c(F)cc(S(=O)(=O)[O-])cc6F)c6ccc3[nH]6)C=C5)C=C4)cc2)O1
REMARK SMILES IDX 36 1 35 2 34 3 33 4 32 5 31 6 30 7 29 8 27 9 28 10 26 11
REMARK SMILES IDX 1 12 2 13 4 14 110 15 3 16 5 17 6 18 24 19 7 20 23 21 25 22
REMARK SMILES IDX 8 23 21 24 9 25 19 26 10 27 17 28 20 29 11 30 16 31 18 32
REMARK SMILES IDX 12 33 15 34 13 35 14 36 22 37 37 39 38 40 39 41 40 42 41 43
REMARK SMILES IDX 42 44 43 45 44 46 45 47 109 48 46 49 108 50 47 51 48 52
REMARK SMILES IDX 49 53 102 54 50 55 107 56 101 57 103 58 51 59 106 60 100 61
REMARK SMILES IDX 99 62 52 64 86 65 65 66 85 67 66 68 69 69 84 70 104 71 67 72
REMARK SMILES IDX 68 73 83 75 105 76 70 77 53 78 54 79 63 80 55 81 56 82 62 83
REMARK SMILES IDX 64 84 57 85 58 86 59 87 60 88 61 89 87 90 88 91 97 92 89 93
REMARK SMILES IDX 90 94 96 95 98 96 91 97 92 98 93 99 94 100 95 101 71 102
REMARK SMILES IDX 72 103 81 104 73 105 74 106 80 107 82 108 75 109 76 110
REMARK SMILES IDX 77 111 78 112 79 113
REMARK H PARENT 22 38 103 63 69 74
REMARK Flexibility Score: inf
ROOT
ATOM      1  C   UNL A   1      33.733  33.482  27.889  1.00  0.00     0.188 C 
ENDROOT
BRANCH   1   2
ATOM      2  O   UNL A   1      32.935  32.365  27.555  1.00  0.00    -0.377 OA
BRANCH   2   3
ATOM      3  C   UNL A   1      33.548  31.099  27.528  1.00  0.00     0.188 C 
BRANCH   3   4
ATOM      4  C   UNL A   1      33.273  30.330  26.242  1.00  0.00     0.188 C 
BRANCH   4   5
ATOM      5  O   UNL A   1      31.960  29.829  26.108  1.00  0.00    -0.376 OA
BRANCH   5   6
ATOM      6  C   UNL A   1      30.995  30.484  25.292  1.00  0.00     0.202 C 
BRANCH   6   7
ATOM      7  C   UNL A   1      30.575  30.127  23.839  1.00  0.00     0.261 C 
BRANCH   7   8
ATOM      8  O   UNL A   1      30.443  28.746  23.479  1.00  0.00    -0.461 OA
BRANCH   8   9
ATOM      9  C   UNL A   1      31.590  28.065  23.263  1.00  0.00     0.341 C 
ATOM     10  O   UNL A   1      32.607  28.605  22.844  1.00  0.00    -0.249 OA
BRANCH   9  11
ATOM     11  C   UNL A   1      31.509  26.599  23.772  1.00  0.00     0.200 C 
ATOM     12  C   UNL A   1      30.348  27.000  27.043  1.00  0.00     0.075 C 
ATOM     13  C   UNL A   1      30.827  26.009  25.983  1.00  0.00     0.165 C 
ATOM     14  O   UNL A   1      29.711  25.736  25.138  1.00  0.00    -0.344 OA
ATOM     15  O   UNL A   1      31.932  26.486  25.167  1.00  0.00    -0.329 OA
ATOM     16  C   UNL A   1      31.295  24.745  26.757  1.00  0.00     0.075 C 
ATOM     17  C   UNL A   1      30.139  25.857  23.771  1.00  0.00     0.166 C 
ATOM     18  C   UNL A   1      30.419  24.374  23.277  1.00  0.00     0.040 C 
ATOM     19  C   UNL A   1      32.405  25.653  22.828  1.00  0.00     0.016 C 
ATOM     20  C   UNL A   1      31.945  24.310  23.434  1.00  0.00     0.008 C 
ATOM     21  C   UNL A   1      33.936  25.842  22.791  1.00  0.00     0.046 C 
ATOM     22  C   UNL A   1      31.939  25.789  21.337  1.00  0.00     0.015 C 
ATOM     23  C   UNL A   1      32.914  23.259  24.001  1.00  0.00     0.035 C 
ATOM     24  C   UNL A   1      34.749  24.975  23.742  1.00  0.00     0.154 C 
ATOM     25  C   UNL A   1      32.423  21.825  23.981  1.00  0.00     0.012 C 
ATOM     26  C   UNL A   1      34.382  23.457  23.614  1.00  0.00     0.152 C 
ATOM     27  C   UNL A   1      33.209  21.063  25.048  1.00  0.00     0.032 C 
ATOM     28  C   UNL A   1      35.327  22.489  24.462  1.00  0.00     0.044 C 
ATOM     29  F   UNL A   1      34.469  23.110  22.288  1.00  0.00    -0.239 F 
ATOM     30  C   UNL A   1      34.690  21.123  24.790  1.00  0.00    -0.053 C 
ATOM     31  C   UNL A   1      36.651  22.248  23.728  1.00  0.00    -0.009 C 
ATOM     32  C   UNL A   1      35.740  23.124  25.824  1.00  0.00     0.024 C 
ATOM     33  C   UNL A   1      35.440  20.017  24.949  1.00  0.00     0.052 C 
ATOM     34  C   UNL A   1      37.470  21.244  24.091  1.00  0.00     0.048 C 
ATOM     35  C   UNL A   1      36.912  20.077  24.814  1.00  0.00     0.178 C 
ATOM     36  O   UNL A   1      37.631  19.180  25.231  1.00  0.00    -0.290 OA
BRANCH  24  37
ATOM     37  O   UNL A   1      34.586  25.509  25.059  1.00  0.00    -0.390 OA
ATOM     38  H   UNL A   1      35.319  25.214  25.622  1.00  0.00     0.211 HD
ENDBRANCH  24  37
ENDBRANCH   9  11
ENDBRANCH   8   9
ENDBRANCH   7   8
ENDBRANCH   6   7
ENDBRANCH   5   6
ENDBRANCH   4   5
ENDBRANCH   3   4
ENDBRANCH   2   3
ENDBRANCH   1   2
BRANCH   1  39
ATOM     39  C   UNL A   1      33.391  34.348  29.119  1.00  0.00     0.188 C 
BRANCH  39  40
ATOM     40  O   UNL A   1      33.947  33.929  30.357  1.00  0.00    -0.376 OA
BRANCH  40  41
ATOM     41  C   UNL A   1      34.905  32.879  30.386  1.00  0.00     0.202 C 
BRANCH  41  42
ATOM     42  C   UNL A   1      35.391  32.326  31.742  1.00  0.00     0.261 C 
BRANCH  42  43
ATOM     43  O   UNL A   1      36.723  31.799  31.799  1.00  0.00    -0.460 OA
BRANCH  43  44
ATOM     44  C   UNL A   1      36.904  30.493  31.513  1.00  0.00     0.338 C 
ATOM     45  O   UNL A   1      36.043  29.626  31.484  1.00  0.00    -0.246 OA
BRANCH  44  46
ATOM     46  C   UNL A   1      38.286  30.319  31.014  1.00  0.00     0.060 A 
ATOM     47  C   UNL A   1      38.514  30.393  29.631  1.00  0.00     0.016 A 
ATOM     48  C   UNL A   1      39.356  30.126  31.893  1.00  0.00     0.016 A 
ATOM     49  C   UNL A   1      39.803  30.236  29.121  1.00  0.00     0.010 A 
ATOM     50  C   UNL A   1      40.643  29.933  31.377  1.00  0.00     0.010 A 
ATOM     51  C   UNL A   1      40.864  29.950  29.987  1.00  0.00    -0.014 A 
BRANCH  51  52
ATOM     52  C   UNL A   1      42.137  29.434  29.425  1.00  0.00     0.031 A 
ATOM     53  C   UNL A   1      43.291  30.396  29.306  1.00  0.00     0.074 A 
ATOM     54  C   UNL A   1      42.284  28.146  29.061  1.00  0.00     0.049 A 
ATOM     55  N   UNL A   1      44.483  30.204  28.808  1.00  0.00    -0.248 NA
ATOM     56  C   UNL A   1      43.066  31.760  29.818  1.00  0.00     0.031 C 
ATOM     57  C   UNL A   1      41.258  27.110  29.172  1.00  0.00     0.029 A 
ATOM     58  N   UNL A   1      43.359  27.495  28.509  1.00  0.00    -0.354 N 
ATOM     59  C   UNL A   1      45.140  31.423  28.924  1.00  0.00     0.074 A 
ATOM     60  C   UNL A   1      44.215  32.352  29.531  1.00  0.00     0.031 C 
ATOM     61  C   UNL A   1      41.748  25.957  28.681  1.00  0.00     0.029 A 
ATOM     62  C   UNL A   1      43.107  26.180  28.190  1.00  0.00     0.049 A 
ATOM     63  H   UNL A   1      44.230  27.928  28.355  1.00  0.00     0.167 HD
ATOM     64  C   UNL A   1      46.403  31.738  28.559  1.00  0.00     0.037 A 
ATOM     65  C   UNL A   1      43.876  25.276  27.548  1.00  0.00     0.037 A 
ATOM     66  C   UNL A   1      47.328  30.804  27.975  1.00  0.00     0.049 A 
ATOM     67  C   UNL A   1      45.264  25.673  27.100  1.00  0.00     0.074 A 
ATOM     68  C   UNL A   1      48.648  31.016  27.616  1.00  0.00     0.029 A 
ATOM     69  N   UNL A   1      47.032  29.490  27.656  1.00  0.00    -0.354 N 
ATOM     70  N   UNL A   1      45.890  26.816  27.261  1.00  0.00    -0.248 NA
ATOM     71  C   UNL A   1      46.052  24.658  26.385  1.00  0.00     0.031 C 
ATOM     72  C   UNL A   1      49.128  29.849  27.016  1.00  0.00     0.029 A 
ATOM     73  C   UNL A   1      48.131  28.888  27.067  1.00  0.00     0.049 A 
ATOM     74  H   UNL A   1      46.167  29.047  27.821  1.00  0.00     0.167 HD
ATOM     75  C   UNL A   1      47.155  26.641  26.702  1.00  0.00     0.074 A 
ATOM     76  C   UNL A   1      47.209  25.282  26.211  1.00  0.00     0.031 C 
ATOM     77  C   UNL A   1      48.178  27.525  26.604  1.00  0.00     0.037 A 
BRANCH  64  78
ATOM     78  C   UNL A   1      46.864  33.157  28.740  1.00  0.00     0.058 A 
ATOM     79  C   UNL A   1      46.678  34.134  27.753  1.00  0.00     0.135 A 
ATOM     80  C   UNL A   1      47.420  33.560  29.967  1.00  0.00     0.135 A 
ATOM     81  F   UNL A   1      46.176  33.797  26.553  1.00  0.00    -0.206 F 
ATOM     82  C   UNL A   1      47.020  35.464  27.974  1.00  0.00     0.059 A 
ATOM     83  C   UNL A   1      47.744  34.888  30.221  1.00  0.00     0.059 A 
ATOM     84  F   UNL A   1      47.629  32.661  30.941  1.00  0.00    -0.206 F 
ATOM     85  C   UNL A   1      47.540  35.833  29.217  1.00  0.00     0.060 A 
BRANCH  85  86
ATOM     86  S   UNL A   1      47.916  37.574  29.512  1.00  0.00     0.124 S 
ATOM     87  O   UNL A   1      46.662  38.213  29.126  1.00  0.00    -0.237 OA
ATOM     88  O   UNL A   1      48.221  37.587  30.939  1.00  0.00    -0.237 OA
ATOM     89  O   UNL A   1      49.050  37.832  28.628  1.00  0.00    -0.744 OA
ENDBRANCH  85  86
ENDBRANCH  64  78
BRANCH  65  90
ATOM     90  C   UNL A   1      43.353  23.914  27.241  1.00  0.00     0.058 A 
ATOM     91  C   UNL A   1      43.432  22.871  28.178  1.00  0.00     0.135 A 
ATOM     92  C   UNL A   1      42.826  23.611  25.975  1.00  0.00     0.135 A 
ATOM     93  F   UNL A   1      43.938  23.104  29.398  1.00  0.00    -0.206 F 
ATOM     94  C   UNL A   1      43.047  21.572  27.860  1.00  0.00     0.059 A 
ATOM     95  C   UNL A   1      42.403  22.326  25.645  1.00  0.00     0.059 A 
ATOM     96  F   UNL A   1      42.718  24.569  25.042  1.00  0.00    -0.206 F 
ATOM     97  C   UNL A   1      42.539  21.309  26.586  1.00  0.00     0.060 A 
BRANCH  97  98
ATOM     98  S   UNL A   1      42.045  19.619  26.180  1.00  0.00     0.124 S 
ATOM     99  O   UNL A   1      40.604  19.768  26.012  1.00  0.00    -0.237 OA
ATOM    100  O   UNL A   1      42.808  19.362  24.964  1.00  0.00    -0.237 OA
ATOM    101  O   UNL A   1      42.468  18.856  27.351  1.00  0.00    -0.744 OA
ENDBRANCH  97  98
ENDBRANCH  65  90
BRANCH  77 102
ATOM    102  C   UNL A   1      49.468  27.041  25.996  1.00  0.00     0.058 A 
ATOM    103  C   UNL A   1      49.733  27.158  24.624  1.00  0.00     0.135 A 
ATOM    104  C   UNL A   1      50.480  26.514  26.816  1.00  0.00     0.135 A 
ATOM    105  F   UNL A   1      48.801  27.654  23.795  1.00  0.00    -0.206 F 
ATOM    106  C   UNL A   1      50.944  26.740  24.080  1.00  0.00     0.059 A 
ATOM    107  C   UNL A   1      51.711  26.122  26.299  1.00  0.00     0.059 A 
ATOM    108  F   UNL A   1      50.286  26.394  28.139  1.00  0.00    -0.206 F 
ATOM    109  C   UNL A   1      51.929  26.226  24.927  1.00  0.00     0.060 A 
BRANCH 109 110
ATOM    110  S   UNL A   1      53.507  25.719  24.213  1.00  0.00     0.124 S 
ATOM    111  O   UNL A   1      54.439  26.614  24.892  1.00  0.00    -0.237 OA
ATOM    112  O   UNL A   1      53.585  24.312  24.594  1.00  0.00    -0.237 OA
ATOM    113  O   UNL A   1      53.329  25.966  22.784  1.00  0.00    -0.744 OA
ENDBRANCH 109 110
ENDBRANCH  77 102
ENDBRANCH  51  52
ENDBRANCH  44  46
ENDBRANCH  43  44
ENDBRANCH  42  43
ENDBRANCH  41  42
ENDBRANCH  40  41
ENDBRANCH  39  40
ENDBRANCH   1  39
TORSDOF 24
ENDMDL
