MODEL 1
REMARK VINA RESULT:      -9.0      0.000      0.000
REMARK SMILES O=C(C[C@@H](NC(=O)C1CC=CC1)C1CC1)OCCOCCOCCOCCOC(=O)c1ccc(-c2c3nc(c(-c4c(F)cc(S(=O)(=O)[O-])cc4F)c4ccc([nH]4)c(-c4c(F)cc(S(=O)(=O)[O-])cc4F)c4nc(c(-c5c(F)cc(S(=O)(=O)[O-])cc5F)c5ccc2[nH]5)C=C4)C=C3)cc1
REMARK SMILES IDX 22 1 21 2 20 3 19 4 18 5 17 6 16 7 2 8 1 9 3 10 4 11 5 12
REMARK SMILES IDX 6 13 7 15 8 16 9 17 12 18 10 19 11 20 13 21 14 22 15 23
REMARK SMILES IDX 23 24 24 25 25 26 26 27 27 28 28 29 29 30 30 31 31 32 32 33
REMARK SMILES IDX 96 34 33 35 95 36 34 37 35 38 36 39 89 40 37 41 94 42 88 43
REMARK SMILES IDX 90 44 38 45 93 46 87 47 86 48 39 50 73 51 52 52 72 53 53 54
REMARK SMILES IDX 56 55 71 56 91 57 54 58 55 59 70 61 92 62 57 63 40 64 41 65
REMARK SMILES IDX 50 66 42 67 43 68 49 69 51 70 44 71 45 72 46 73 47 74 48 75
REMARK SMILES IDX 74 76 75 77 84 78 76 79 77 80 83 81 85 82 78 83 79 84 80 85
REMARK SMILES IDX 81 86 82 87 58 88 59 89 68 90 60 91 61 92 67 93 69 94 62 95
REMARK SMILES IDX 63 96 64 97 65 98 66 99
REMARK H PARENT 5 14 90 49 56 60
REMARK Flexibility Score: inf
ROOT
ATOM      1  O   UNL A   1      33.172  30.174  27.727  1.00  0.00    -0.377 OA
ENDROOT
BRANCH   1   2
ATOM      2  C   UNL A   1      32.429  29.388  26.802  1.00  0.00     0.188 C 
BRANCH   2   3
ATOM      3  C   UNL A   1      33.107  29.034  25.476  1.00  0.00     0.188 C 
BRANCH   3   4
ATOM      4  O   UNL A   1      32.359  29.364  24.308  1.00  0.00    -0.376 OA
BRANCH   4   5
ATOM      5  C   UNL A   1      31.206  28.603  23.942  1.00  0.00     0.202 C 
BRANCH   5   6
ATOM      6  C   UNL A   1      30.971  28.253  22.473  1.00  0.00     0.261 C 
BRANCH   6   7
ATOM      7  O   UNL A   1      31.060  26.846  22.146  1.00  0.00    -0.463 OA
BRANCH   7   8
ATOM      8  C   UNL A   1      32.032  26.079  22.689  1.00  0.00     0.307 C 
ATOM      9  O   UNL A   1      33.221  26.361  22.603  1.00  0.00    -0.252 OA
BRANCH   8  10
ATOM     10  C   UNL A   1      31.539  24.863  23.434  1.00  0.00     0.147 C 
BRANCH  10  11
ATOM     11  C   UNL A   1      32.536  23.928  24.157  1.00  0.00     0.096 C 
BRANCH  11  12
ATOM     12  N   UNL A   1      33.792  23.739  23.417  1.00  0.00    -0.352 N 
ATOM     13  C   UNL A   1      34.975  23.110  23.484  1.00  0.00     0.223 C 
ATOM     14  H   UNL A   1      33.750  24.255  22.579  1.00  0.00     0.163 HD
ATOM     15  O   UNL A   1      35.665  23.216  22.458  1.00  0.00    -0.275 OA
BRANCH  13  16
ATOM     16  C   UNL A   1      35.579  22.405  24.671  1.00  0.00     0.086 C 
ATOM     17  C   UNL A   1      35.099  20.954  24.775  1.00  0.00     0.040 C 
ATOM     18  C   UNL A   1      37.093  22.419  24.829  1.00  0.00     0.040 C 
ATOM     19  C   UNL A   1      36.355  20.190  25.026  1.00  0.00    -0.030 C 
ATOM     20  C   UNL A   1      37.435  20.979  25.035  1.00  0.00    -0.030 C 
ENDBRANCH  13  16
ENDBRANCH  11  12
BRANCH  11  21
ATOM     21  C   UNL A   1      32.736  24.367  25.599  1.00  0.00     0.012 C 
ATOM     22  C   UNL A   1      31.759  24.050  26.712  1.00  0.00     0.006 C 
ATOM     23  C   UNL A   1      33.125  23.449  26.756  1.00  0.00     0.006 C 
ENDBRANCH  11  21
ENDBRANCH  10  11
ENDBRANCH   8  10
ENDBRANCH   7   8
ENDBRANCH   6   7
ENDBRANCH   5   6
ENDBRANCH   4   5
ENDBRANCH   3   4
ENDBRANCH   2   3
ENDBRANCH   1   2
BRANCH   1  24
ATOM     24  C   UNL A   1      34.465  30.592  27.319  1.00  0.00     0.188 C 
BRANCH  24  25
ATOM     25  C   UNL A   1      35.148  31.744  28.094  1.00  0.00     0.188 C 
BRANCH  25  26
ATOM     26  O   UNL A   1      34.379  32.243  29.176  1.00  0.00    -0.376 OA
BRANCH  26  27
ATOM     27  C   UNL A   1      35.108  32.779  30.273  1.00  0.00     0.202 C 
BRANCH  27  28
ATOM     28  C   UNL A   1      36.607  32.449  30.406  1.00  0.00     0.261 C 
BRANCH  28  29
ATOM     29  O   UNL A   1      36.969  31.419  31.341  1.00  0.00    -0.460 OA
BRANCH  29  30
ATOM     30  C   UNL A   1      37.042  30.140  30.909  1.00  0.00     0.338 C 
ATOM     31  O   UNL A   1      36.119  29.350  30.817  1.00  0.00    -0.246 OA
BRANCH  30  32
ATOM     32  C   UNL A   1      38.397  29.956  30.324  1.00  0.00     0.060 A 
ATOM     33  C   UNL A   1      38.524  29.852  28.929  1.00  0.00     0.016 A 
ATOM     34  C   UNL A   1      39.544  30.026  31.124  1.00  0.00     0.016 A 
ATOM     35  C   UNL A   1      39.793  29.822  28.335  1.00  0.00     0.010 A 
ATOM     36  C   UNL A   1      40.810  29.961  30.532  1.00  0.00     0.010 A 
ATOM     37  C   UNL A   1      40.944  29.843  29.136  1.00  0.00    -0.014 A 
BRANCH  37  38
ATOM     38  C   UNL A   1      42.272  29.509  28.560  1.00  0.00     0.031 A 
ATOM     39  C   UNL A   1      42.493  28.089  28.116  1.00  0.00     0.074 A 
ATOM     40  C   UNL A   1      43.271  30.408  28.470  1.00  0.00     0.049 A 
ATOM     41  N   UNL A   1      43.588  27.505  27.706  1.00  0.00    -0.248 NA
ATOM     42  C   UNL A   1      41.315  27.205  28.146  1.00  0.00     0.031 C 
ATOM     43  C   UNL A   1      43.178  31.822  28.829  1.00  0.00     0.029 A 
ATOM     44  N   UNL A   1      44.578  30.252  28.067  1.00  0.00    -0.354 N 
ATOM     45  C   UNL A   1      43.238  26.184  27.457  1.00  0.00     0.074 A 
ATOM     46  C   UNL A   1      41.831  26.048  27.760  1.00  0.00     0.031 C 
ATOM     47  C   UNL A   1      44.386  32.395  28.665  1.00  0.00     0.029 A 
ATOM     48  C   UNL A   1      45.347  31.381  28.228  1.00  0.00     0.049 A 
ATOM     49  H   UNL A   1      44.929  29.409  27.699  1.00  0.00     0.167 HD
ATOM     50  C   UNL A   1      44.020  25.172  27.018  1.00  0.00     0.037 A 
ATOM     51  C   UNL A   1      46.678  31.563  28.081  1.00  0.00     0.037 A 
ATOM     52  C   UNL A   1      45.417  25.309  26.712  1.00  0.00     0.049 A 
ATOM     53  C   UNL A   1      47.544  30.398  27.656  1.00  0.00     0.074 A 
ATOM     54  C   UNL A   1      46.281  24.353  26.210  1.00  0.00     0.029 A 
ATOM     55  N   UNL A   1      46.159  26.465  26.898  1.00  0.00    -0.354 N 
ATOM     56  N   UNL A   1      47.190  29.168  27.365  1.00  0.00    -0.248 NA
ATOM     57  C   UNL A   1      48.992  30.641  27.549  1.00  0.00     0.031 C 
ATOM     58  C   UNL A   1      47.561  24.911  26.152  1.00  0.00     0.029 A 
ATOM     59  C   UNL A   1      47.481  26.233  26.561  1.00  0.00     0.049 A 
ATOM     60  H   UNL A   1      45.799  27.322  27.220  1.00  0.00     0.167 HD
ATOM     61  C   UNL A   1      48.364  28.502  27.022  1.00  0.00     0.074 A 
ATOM     62  C   UNL A   1      49.438  29.466  27.126  1.00  0.00     0.031 C 
ATOM     63  C   UNL A   1      48.539  27.207  26.657  1.00  0.00     0.037 A 
BRANCH  50  64
ATOM     64  C   UNL A   1      43.397  23.813  26.880  1.00  0.00     0.058 A 
ATOM     65  C   UNL A   1      43.022  23.291  25.632  1.00  0.00     0.135 A 
ATOM     66  C   UNL A   1      43.229  22.998  28.012  1.00  0.00     0.135 A 
ATOM     67  F   UNL A   1      43.139  24.039  24.523  1.00  0.00    -0.206 F 
ATOM     68  C   UNL A   1      42.497  22.010  25.513  1.00  0.00     0.059 A 
ATOM     69  C   UNL A   1      42.730  21.704  27.911  1.00  0.00     0.059 A 
ATOM     70  F   UNL A   1      43.561  23.457  29.229  1.00  0.00    -0.206 F 
ATOM     71  C   UNL A   1      42.362  21.221  26.657  1.00  0.00     0.060 A 
BRANCH  71  72
ATOM     72  S   UNL A   1      41.719  19.544  26.477  1.00  0.00     0.124 S 
ATOM     73  O   UNL A   1      42.158  18.928  27.726  1.00  0.00    -0.237 OA
ATOM     74  O   UNL A   1      40.282  19.775  26.357  1.00  0.00    -0.237 OA
ATOM     75  O   UNL A   1      42.376  19.053  25.271  1.00  0.00    -0.744 OA
ENDBRANCH  71  72
ENDBRANCH  50  64
BRANCH  51  76
ATOM     76  C   UNL A   1      47.302  32.881  28.394  1.00  0.00     0.058 A 
ATOM     77  C   UNL A   1      47.729  33.198  29.694  1.00  0.00     0.135 A 
ATOM     78  C   UNL A   1      47.437  33.872  27.409  1.00  0.00     0.135 A 
ATOM     79  F   UNL A   1      47.604  32.295  30.679  1.00  0.00    -0.206 F 
ATOM     80  C   UNL A   1      48.244  34.453  30.010  1.00  0.00     0.059 A 
ATOM     81  C   UNL A   1      47.976  35.124  27.693  1.00  0.00     0.059 A 
ATOM     82  F   UNL A   1      47.046  33.625  26.148  1.00  0.00    -0.206 F 
ATOM     83  C   UNL A   1      48.363  35.410  29.001  1.00  0.00     0.060 A 
BRANCH  83  84
ATOM     84  S   UNL A   1      49.052  37.028  29.415  1.00  0.00     0.124 S 
ATOM     85  O   UNL A   1      50.017  37.220  28.339  1.00  0.00    -0.237 OA
ATOM     86  O   UNL A   1      47.870  37.884  29.373  1.00  0.00    -0.237 OA
ATOM     87  O   UNL A   1      49.619  36.820  30.744  1.00  0.00    -0.744 OA
ENDBRANCH  83  84
ENDBRANCH  51  76
BRANCH  63  88
ATOM     88  C   UNL A   1      49.930  26.749  26.312  1.00  0.00     0.058 A 
ATOM     89  C   UNL A   1      50.477  26.949  25.037  1.00  0.00     0.135 A 
ATOM     90  C   UNL A   1      50.761  26.194  27.301  1.00  0.00     0.135 A 
ATOM     91  F   UNL A   1      49.725  27.471  24.053  1.00  0.00    -0.206 F 
ATOM     92  C   UNL A   1      51.796  26.610  24.749  1.00  0.00     0.059 A 
ATOM     93  C   UNL A   1      52.090  25.874  27.044  1.00  0.00     0.059 A 
ATOM     94  F   UNL A   1      50.292  25.992  28.543  1.00  0.00    -0.206 F 
ATOM     95  C   UNL A   1      52.597  26.081  25.763  1.00  0.00     0.060 A 
BRANCH  95  96
ATOM     96  S   UNL A   1      54.325  25.709  25.393  1.00  0.00     0.124 S 
ATOM     97  O   UNL A   1      54.385  25.975  23.960  1.00  0.00    -0.237 OA
ATOM     98  O   UNL A   1      55.038  26.656  26.245  1.00  0.00    -0.237 OA
ATOM     99  O   UNL A   1      54.461  24.306  25.777  1.00  0.00    -0.744 OA
ENDBRANCH  95  96
ENDBRANCH  63  88
ENDBRANCH  37  38
ENDBRANCH  30  32
ENDBRANCH  29  30
ENDBRANCH  28  29
ENDBRANCH  27  28
ENDBRANCH  26  27
ENDBRANCH  25  26
ENDBRANCH  24  25
ENDBRANCH   1  24
TORSDOF 27
ENDMDL
MODEL 2
REMARK VINA RESULT:      -8.9      2.282      8.648
REMARK SMILES O=C(C[C@@H](NC(=O)C1CC=CC1)C1CC1)OCCOCCOCCOCCOC(=O)c1ccc(-c2c3nc(c(-c4c(F)cc(S(=O)(=O)[O-])cc4F)c4ccc([nH]4)c(-c4c(F)cc(S(=O)(=O)[O-])cc4F)c4nc(c(-c5c(F)cc(S(=O)(=O)[O-])cc5F)c5ccc2[nH]5)C=C4)C=C3)cc1
REMARK SMILES IDX 22 1 21 2 20 3 19 4 18 5 17 6 16 7 2 8 1 9 3 10 4 11 5 12
REMARK SMILES IDX 6 13 7 15 8 16 9 17 12 18 10 19 11 20 13 21 14 22 15 23
REMARK SMILES IDX 23 24 24 25 25 26 26 27 27 28 28 29 29 30 30 31 31 32 32 33
REMARK SMILES IDX 96 34 33 35 95 36 34 37 35 38 36 39 89 40 37 41 94 42 88 43
REMARK SMILES IDX 90 44 38 45 93 46 87 47 86 48 39 50 73 51 52 52 72 53 53 54
REMARK SMILES IDX 56 55 71 56 91 57 54 58 55 59 70 61 92 62 57 63 40 64 41 65
REMARK SMILES IDX 50 66 42 67 43 68 49 69 51 70 44 71 45 72 46 73 47 74 48 75
REMARK SMILES IDX 74 76 75 77 84 78 76 79 77 80 83 81 85 82 78 83 79 84 80 85
REMARK SMILES IDX 81 86 82 87 58 88 59 89 68 90 60 91 61 92 67 93 69 94 62 95
REMARK SMILES IDX 63 96 64 97 65 98 66 99
REMARK H PARENT 5 14 90 49 56 60
REMARK Flexibility Score: inf
ROOT
ATOM      1  O   UNL A   1      32.938  34.313  29.071  1.00  0.00    -0.377 OA
ENDROOT
BRANCH   1   2
ATOM      2  C   UNL A   1      33.968  33.837  28.213  1.00  0.00     0.188 C 
BRANCH   2   3
ATOM      3  C   UNL A   1      34.039  32.327  27.969  1.00  0.00     0.188 C 
BRANCH   3   4
ATOM      4  O   UNL A   1      32.939  31.778  27.247  1.00  0.00    -0.376 OA
BRANCH   4   5
ATOM      5  C   UNL A   1      32.659  30.378  27.297  1.00  0.00     0.202 C 
BRANCH   5   6
ATOM      6  C   UNL A   1      33.450  29.420  26.407  1.00  0.00     0.261 C 
BRANCH   6   7
ATOM      7  O   UNL A   1      32.698  28.308  25.866  1.00  0.00    -0.463 OA
BRANCH   7   8
ATOM      8  C   UNL A   1      32.956  27.850  24.621  1.00  0.00     0.307 C 
ATOM      9  O   UNL A   1      32.651  28.474  23.611  1.00  0.00    -0.252 OA
BRANCH   8  10
ATOM     10  C   UNL A   1      33.674  26.525  24.568  1.00  0.00     0.147 C 
BRANCH  10  11
ATOM     11  C   UNL A   1      33.167  25.393  23.645  1.00  0.00     0.096 C 
BRANCH  11  12
ATOM     12  N   UNL A   1      34.233  24.482  23.207  1.00  0.00    -0.352 N 
ATOM     13  C   UNL A   1      34.842  23.332  23.533  1.00  0.00     0.223 C 
ATOM     14  H   UNL A   1      34.646  24.842  22.388  1.00  0.00     0.163 HD
ATOM     15  O   UNL A   1      35.665  22.937  22.693  1.00  0.00    -0.275 OA
BRANCH  13  16
ATOM     16  C   UNL A   1      34.717  22.553  24.818  1.00  0.00     0.086 C 
ATOM     17  C   UNL A   1      34.857  23.457  26.047  1.00  0.00     0.040 C 
ATOM     18  C   UNL A   1      33.493  21.670  25.013  1.00  0.00     0.040 C 
ATOM     19  C   UNL A   1      33.726  23.033  26.920  1.00  0.00    -0.030 C 
ATOM     20  C   UNL A   1      32.976  22.081  26.354  1.00  0.00    -0.030 C 
ENDBRANCH  13  16
ENDBRANCH  11  12
BRANCH  11  21
ATOM     21  C   UNL A   1      31.974  24.685  24.268  1.00  0.00     0.012 C 
ATOM     22  C   UNL A   1      30.544  25.158  24.109  1.00  0.00     0.006 C 
ATOM     23  C   UNL A   1      30.945  23.851  23.508  1.00  0.00     0.006 C 
ENDBRANCH  11  21
ENDBRANCH  10  11
ENDBRANCH   8  10
ENDBRANCH   7   8
ENDBRANCH   6   7
ENDBRANCH   5   6
ENDBRANCH   4   5
ENDBRANCH   3   4
ENDBRANCH   2   3
ENDBRANCH   1   2
BRANCH   1  24
ATOM     24  C   UNL A   1      33.128  35.595  29.650  1.00  0.00     0.188 C 
BRANCH  24  25
ATOM     25  C   UNL A   1      32.573  35.853  31.071  1.00  0.00     0.188 C 
BRANCH  25  26
ATOM     26  O   UNL A   1      33.279  36.851  31.790  1.00  0.00    -0.376 OA
BRANCH  26  27
ATOM     27  C   UNL A   1      34.315  36.394  32.650  1.00  0.00     0.202 C 
BRANCH  27  28
ATOM     28  C   UNL A   1      34.456  34.882  32.912  1.00  0.00     0.261 C 
BRANCH  28  29
ATOM     29  O   UNL A   1      35.430  34.172  32.130  1.00  0.00    -0.460 OA
BRANCH  29  30
ATOM     30  C   UNL A   1      35.166  32.900  31.755  1.00  0.00     0.338 C 
ATOM     31  O   UNL A   1      34.067  32.414  31.554  1.00  0.00    -0.246 OA
BRANCH  30  32
ATOM     32  C   UNL A   1      36.466  32.280  31.382  1.00  0.00     0.060 A 
ATOM     33  C   UNL A   1      37.173  31.551  32.353  1.00  0.00     0.016 A 
ATOM     34  C   UNL A   1      36.918  32.293  30.057  1.00  0.00     0.016 A 
ATOM     35  C   UNL A   1      38.325  30.836  31.999  1.00  0.00     0.010 A 
ATOM     36  C   UNL A   1      38.088  31.607  29.713  1.00  0.00     0.010 A 
ATOM     37  C   UNL A   1      38.807  30.887  30.684  1.00  0.00    -0.014 A 
BRANCH  37  38
ATOM     38  C   UNL A   1      40.172  30.395  30.360  1.00  0.00     0.031 A 
ATOM     39  C   UNL A   1      41.295  31.396  30.407  1.00  0.00     0.074 A 
ATOM     40  C   UNL A   1      40.417  29.123  29.990  1.00  0.00     0.049 A 
ATOM     41  N   UNL A   1      42.543  31.265  30.045  1.00  0.00    -0.248 NA
ATOM     42  C   UNL A   1      40.956  32.732  30.929  1.00  0.00     0.031 C 
ATOM     43  C   UNL A   1      39.428  28.048  29.938  1.00  0.00     0.029 A 
ATOM     44  N   UNL A   1      41.580  28.528  29.560  1.00  0.00    -0.354 N 
ATOM     45  C   UNL A   1      43.130  32.504  30.270  1.00  0.00     0.074 A 
ATOM     46  C   UNL A   1      42.105  33.376  30.798  1.00  0.00     0.031 C 
ATOM     47  C   UNL A   1      40.021  26.933  29.467  1.00  0.00     0.029 A 
ATOM     48  C   UNL A   1      41.418  27.226  29.146  1.00  0.00     0.049 A 
ATOM     49  H   UNL A   1      42.449  28.992  29.549  1.00  0.00     0.167 HD
ATOM     50  C   UNL A   1      44.410  32.884  30.051  1.00  0.00     0.037 A 
ATOM     51  C   UNL A   1      42.284  26.385  28.539  1.00  0.00     0.037 A 
ATOM     52  C   UNL A   1      45.429  32.015  29.530  1.00  0.00     0.049 A 
ATOM     53  C   UNL A   1      43.691  26.855  28.241  1.00  0.00     0.074 A 
ATOM     54  C   UNL A   1      46.768  32.295  29.325  1.00  0.00     0.029 A 
ATOM     55  N   UNL A   1      45.221  30.710  29.115  1.00  0.00    -0.354 N 
ATOM     56  N   UNL A   1      44.251  28.010  28.514  1.00  0.00    -0.248 NA
ATOM     57  C   UNL A   1      44.580  25.913  27.544  1.00  0.00     0.031 C 
ATOM     58  C   UNL A   1      47.357  31.179  28.724  1.00  0.00     0.029 A 
ATOM     59  C   UNL A   1      46.398  30.184  28.613  1.00  0.00     0.049 A 
ATOM     60  H   UNL A   1      44.364  30.228  29.170  1.00  0.00     0.167 HD
ATOM     61  C   UNL A   1      45.559  27.923  28.042  1.00  0.00     0.074 A 
ATOM     62  C   UNL A   1      45.714  26.599  27.481  1.00  0.00     0.031 C 
ATOM     63  C   UNL A   1      46.542  28.857  28.068  1.00  0.00     0.037 A 
BRANCH  50  64
ATOM     64  C   UNL A   1      44.776  34.313  30.334  1.00  0.00     0.058 A 
ATOM     65  C   UNL A   1      44.642  35.319  29.366  1.00  0.00     0.135 A 
ATOM     66  C   UNL A   1      45.211  34.685  31.616  1.00  0.00     0.135 A 
ATOM     67  F   UNL A   1      44.255  35.011  28.117  1.00  0.00    -0.206 F 
ATOM     68  C   UNL A   1      44.933  36.647  29.659  1.00  0.00     0.059 A 
ATOM     69  C   UNL A   1      45.482  36.010  31.938  1.00  0.00     0.059 A 
ATOM     70  F   UNL A   1      45.367  33.756  32.573  1.00  0.00    -0.206 F 
ATOM     71  C   UNL A   1      45.345  36.983  30.950  1.00  0.00     0.060 A 
BRANCH  71  72
ATOM     72  S   UNL A   1      45.676  38.718  31.324  1.00  0.00     0.124 S 
ATOM     73  O   UNL A   1      47.066  38.847  30.897  1.00  0.00    -0.237 OA
ATOM     74  O   UNL A   1      44.692  39.407  30.495  1.00  0.00    -0.237 OA
ATOM     75  O   UNL A   1      45.453  38.806  32.763  1.00  0.00    -0.744 OA
ENDBRANCH  71  72
ENDBRANCH  50  64
BRANCH  51  76
ATOM     76  C   UNL A   1      41.845  25.026  28.108  1.00  0.00     0.058 A 
ATOM     77  C   UNL A   1      42.306  23.869  28.756  1.00  0.00     0.135 A 
ATOM     78  C   UNL A   1      40.993  24.855  27.005  1.00  0.00     0.135 A 
ATOM     79  F   UNL A   1      43.138  23.974  29.802  1.00  0.00    -0.206 F 
ATOM     80  C   UNL A   1      41.959  22.595  28.313  1.00  0.00     0.059 A 
ATOM     81  C   UNL A   1      40.607  23.593  26.561  1.00  0.00     0.059 A 
ATOM     82  F   UNL A   1      40.520  25.927  26.348  1.00  0.00    -0.206 F 
ATOM     83  C   UNL A   1      41.109  22.468  27.213  1.00  0.00     0.060 A 
BRANCH  83  84
ATOM     84  S   UNL A   1      40.646  20.812  26.658  1.00  0.00     0.124 S 
ATOM     85  O   UNL A   1      39.285  21.030  26.185  1.00  0.00    -0.237 OA
ATOM     86  O   UNL A   1      41.646  20.544  25.628  1.00  0.00    -0.237 OA
ATOM     87  O   UNL A   1      40.774  20.006  27.869  1.00  0.00    -0.744 OA
ENDBRANCH  83  84
ENDBRANCH  51  76
BRANCH  63  88
ATOM     88  C   UNL A   1      47.887  28.487  27.503  1.00  0.00     0.058 A 
ATOM     89  C   UNL A   1      48.951  28.099  28.329  1.00  0.00     0.135 A 
ATOM     90  C   UNL A   1      48.080  28.424  26.112  1.00  0.00     0.135 A 
ATOM     91  F   UNL A   1      48.822  28.146  29.665  1.00  0.00    -0.206 F 
ATOM     92  C   UNL A   1      50.163  27.667  27.798  1.00  0.00     0.059 A 
ATOM     93  C   UNL A   1      49.272  27.968  25.560  1.00  0.00     0.059 A 
ATOM     94  F   UNL A   1      47.090  28.774  25.275  1.00  0.00    -0.206 F 
ATOM     95  C   UNL A   1      50.310  27.596  26.412  1.00  0.00     0.060 A 
BRANCH  95  96
ATOM     96  S   UNL A   1      51.865  26.970  25.739  1.00  0.00     0.124 S 
ATOM     97  O   UNL A   1      51.808  25.563  26.122  1.00  0.00    -0.237 OA
ATOM     98  O   UNL A   1      51.720  27.244  24.312  1.00  0.00    -0.237 OA
ATOM     99  O   UNL A   1      52.879  27.766  26.424  1.00  0.00    -0.744 OA
ENDBRANCH  95  96
ENDBRANCH  63  88
ENDBRANCH  37  38
ENDBRANCH  30  32
ENDBRANCH  29  30
ENDBRANCH  28  29
ENDBRANCH  27  28
ENDBRANCH  26  27
ENDBRANCH  25  26
ENDBRANCH  24  25
ENDBRANCH   1  24
TORSDOF 27
ENDMDL
MODEL 3
REMARK VINA RESULT:      -8.9      1.230      8.286
REMARK SMILES O=C(C[C@@H](NC(=O)C1CC=CC1)C1CC1)OCCOCCOCCOCCOC(=O)c1ccc(-c2c3nc(c(-c4c(F)cc(S(=O)(=O)[O-])cc4F)c4ccc([nH]4)c(-c4c(F)cc(S(=O)(=O)[O-])cc4F)c4nc(c(-c5c(F)cc(S(=O)(=O)[O-])cc5F)c5ccc2[nH]5)C=C4)C=C3)cc1
REMARK SMILES IDX 22 1 21 2 20 3 19 4 18 5 17 6 16 7 2 8 1 9 3 10 4 11 5 12
REMARK SMILES IDX 6 13 7 15 8 16 9 17 12 18 10 19 11 20 13 21 14 22 15 23
REMARK SMILES IDX 23 24 24 25 25 26 26 27 27 28 28 29 29 30 30 31 31 32 32 33
REMARK SMILES IDX 96 34 33 35 95 36 34 37 35 38 36 39 89 40 37 41 94 42 88 43
REMARK SMILES IDX 90 44 38 45 93 46 87 47 86 48 39 50 73 51 52 52 72 53 53 54
REMARK SMILES IDX 56 55 71 56 91 57 54 58 55 59 70 61 92 62 57 63 40 64 41 65
REMARK SMILES IDX 50 66 42 67 43 68 49 69 51 70 44 71 45 72 46 73 47 74 48 75
REMARK SMILES IDX 74 76 75 77 84 78 76 79 77 80 83 81 85 82 78 83 79 84 80 85
REMARK SMILES IDX 81 86 82 87 58 88 59 89 68 90 60 91 61 92 67 93 69 94 62 95
REMARK SMILES IDX 63 96 64 97 65 98 66 99
REMARK H PARENT 5 14 90 49 56 60
REMARK Flexibility Score: inf
ROOT
ATOM      1  O   UNL A   1      32.212  28.448  26.814  1.00  0.00    -0.377 OA
ENDROOT
BRANCH   1   2
ATOM      2  C   UNL A   1      31.480  27.807  25.776  1.00  0.00     0.188 C 
BRANCH   2   3
ATOM      3  C   UNL A   1      31.326  28.563  24.453  1.00  0.00     0.188 C 
BRANCH   3   4
ATOM      4  O   UNL A   1      31.766  27.854  23.298  1.00  0.00    -0.376 OA
BRANCH   4   5
ATOM      5  C   UNL A   1      31.710  26.427  23.253  1.00  0.00     0.202 C 
BRANCH   5   6
ATOM      6  C   UNL A   1      32.069  25.701  21.956  1.00  0.00     0.261 C 
BRANCH   6   7
ATOM      7  O   UNL A   1      33.411  25.162  21.895  1.00  0.00    -0.463 OA
BRANCH   7   8
ATOM      8  C   UNL A   1      33.980  24.619  22.994  1.00  0.00     0.307 C 
ATOM      9  O   UNL A   1      34.052  25.215  24.062  1.00  0.00    -0.252 OA
BRANCH   8  10
ATOM     10  C   UNL A   1      34.495  23.213  22.814  1.00  0.00     0.147 C 
BRANCH  10  11
ATOM     11  C   UNL A   1      34.249  22.142  23.901  1.00  0.00     0.096 C 
BRANCH  11  12
ATOM     12  N   UNL A   1      34.621  22.591  25.250  1.00  0.00    -0.352 N 
ATOM     13  C   UNL A   1      35.649  23.089  25.954  1.00  0.00     0.223 C 
ATOM     14  H   UNL A   1      33.843  22.491  25.846  1.00  0.00     0.163 HD
ATOM     15  O   UNL A   1      35.359  23.415  27.115  1.00  0.00    -0.275 OA
BRANCH  13  16
ATOM     16  C   UNL A   1      37.093  23.189  25.532  1.00  0.00     0.086 C 
ATOM     17  C   UNL A   1      37.911  24.045  26.505  1.00  0.00     0.040 C 
ATOM     18  C   UNL A   1      37.861  21.902  25.267  1.00  0.00     0.040 C 
ATOM     19  C   UNL A   1      39.139  23.230  26.735  1.00  0.00    -0.030 C 
ATOM     20  C   UNL A   1      39.104  22.064  26.082  1.00  0.00    -0.030 C 
ENDBRANCH  13  16
ENDBRANCH  11  12
BRANCH  11  21
ATOM     21  C   UNL A   1      32.833  21.594  23.807  1.00  0.00     0.012 C 
ATOM     22  C   UNL A   1      32.130  21.317  22.495  1.00  0.00     0.006 C 
ATOM     23  C   UNL A   1      32.461  20.172  23.394  1.00  0.00     0.006 C 
ENDBRANCH  11  21
ENDBRANCH  10  11
ENDBRANCH   8  10
ENDBRANCH   7   8
ENDBRANCH   6   7
ENDBRANCH   5   6
ENDBRANCH   4   5
ENDBRANCH   3   4
ENDBRANCH   2   3
ENDBRANCH   1   2
BRANCH   1  24
ATOM     24  C   UNL A   1      33.626  28.449  26.695  1.00  0.00     0.188 C 
BRANCH  24  25
ATOM     25  C   UNL A   1      34.386  29.777  26.923  1.00  0.00     0.188 C 
BRANCH  25  26
ATOM     26  O   UNL A   1      33.606  30.786  27.542  1.00  0.00    -0.376 OA
BRANCH  26  27
ATOM     27  C   UNL A   1      34.275  32.003  27.847  1.00  0.00     0.202 C 
BRANCH  27  28
ATOM     28  C   UNL A   1      35.812  31.999  27.968  1.00  0.00     0.261 C 
BRANCH  28  29
ATOM     29  O   UNL A   1      36.363  31.828  29.284  1.00  0.00    -0.460 OA
BRANCH  29  30
ATOM     30  C   UNL A   1      36.487  30.578  29.783  1.00  0.00     0.338 C 
ATOM     31  O   UNL A   1      35.583  29.847  30.148  1.00  0.00    -0.246 OA
BRANCH  30  32
ATOM     32  C   UNL A   1      37.898  30.161  29.562  1.00  0.00     0.060 A 
ATOM     33  C   UNL A   1      38.272  29.683  28.296  1.00  0.00     0.016 A 
ATOM     34  C   UNL A   1      38.874  30.369  30.544  1.00  0.00     0.016 A 
ATOM     35  C   UNL A   1      39.619  29.417  28.011  1.00  0.00     0.010 A 
ATOM     36  C   UNL A   1      40.213  30.071  30.269  1.00  0.00     0.010 A 
ATOM     37  C   UNL A   1      40.592  29.579  29.007  1.00  0.00    -0.014 A 
BRANCH  37  38
ATOM     38  C   UNL A   1      41.959  29.021  28.825  1.00  0.00     0.031 A 
ATOM     39  C   UNL A   1      43.109  29.990  28.868  1.00  0.00     0.074 A 
ATOM     40  C   UNL A   1      42.183  27.716  28.584  1.00  0.00     0.049 A 
ATOM     41  N   UNL A   1      44.374  29.792  28.609  1.00  0.00    -0.248 NA
ATOM     42  C   UNL A   1      42.782  31.376  29.247  1.00  0.00     0.031 C 
ATOM     43  C   UNL A   1      41.164  26.669  28.553  1.00  0.00     0.029 A 
ATOM     44  N   UNL A   1      43.352  27.052  28.291  1.00  0.00    -0.354 N 
ATOM     45  C   UNL A   1      44.988  31.028  28.769  1.00  0.00     0.074 A 
ATOM     46  C   UNL A   1      43.960  31.972  29.145  1.00  0.00     0.031 C 
ATOM     47  C   UNL A   1      41.748  25.500  28.223  1.00  0.00     0.029 A 
ATOM     48  C   UNL A   1      43.173  25.723  27.980  1.00  0.00     0.049 A 
ATOM     49  H   UNL A   1      44.236  27.487  28.304  1.00  0.00     0.167 HD
ATOM     50  C   UNL A   1      46.292  31.350  28.610  1.00  0.00     0.037 A 
ATOM     51  C   UNL A   1      44.049  24.807  27.511  1.00  0.00     0.037 A 
ATOM     52  C   UNL A   1      47.314  30.410  28.242  1.00  0.00     0.049 A 
ATOM     53  C   UNL A   1      45.489  25.209  27.277  1.00  0.00     0.074 A 
ATOM     54  C   UNL A   1      48.673  30.631  28.110  1.00  0.00     0.029 A 
ATOM     55  N   UNL A   1      47.089  29.079  27.926  1.00  0.00    -0.354 N 
ATOM     56  N   UNL A   1      46.069  26.367  27.489  1.00  0.00    -0.248 NA
ATOM     57  C   UNL A   1      46.391  24.183  26.729  1.00  0.00     0.031 C 
ATOM     58  C   UNL A   1      49.263  29.450  27.651  1.00  0.00     0.029 A 
ATOM     59  C   UNL A   1      48.280  28.478  27.557  1.00  0.00     0.049 A 
ATOM     60  H   UNL A   1      46.215  28.630  27.960  1.00  0.00     0.167 HD
ATOM     61  C   UNL A   1      47.403  26.201  27.122  1.00  0.00     0.074 A 
ATOM     62  C   UNL A   1      47.550  24.828  26.689  1.00  0.00     0.031 C 
ATOM     63  C   UNL A   1      48.414  27.104  27.139  1.00  0.00     0.037 A 
BRANCH  50  64
ATOM     64  C   UNL A   1      46.688  32.787  28.796  1.00  0.00     0.058 A 
ATOM     65  C   UNL A   1      47.086  33.292  30.042  1.00  0.00     0.135 A 
ATOM     66  C   UNL A   1      46.724  33.653  27.691  1.00  0.00     0.135 A 
ATOM     67  F   UNL A   1      47.044  32.512  31.135  1.00  0.00    -0.206 F 
ATOM     68  C   UNL A   1      47.502  34.611  30.188  1.00  0.00     0.059 A 
ATOM     69  C   UNL A   1      47.162  34.968  27.809  1.00  0.00     0.059 A 
ATOM     70  F   UNL A   1      46.341  33.219  26.479  1.00  0.00    -0.206 F 
ATOM     71  C   UNL A   1      47.544  35.438  29.064  1.00  0.00     0.060 A 
BRANCH  71  72
ATOM     72  S   UNL A   1      48.128  37.135  29.264  1.00  0.00     0.124 S 
ATOM     73  O   UNL A   1      48.818  37.055  30.548  1.00  0.00    -0.237 OA
ATOM     74  O   UNL A   1      48.984  37.308  28.094  1.00  0.00    -0.237 OA
ATOM     75  O   UNL A   1      46.899  37.922  29.261  1.00  0.00    -0.744 OA
ENDBRANCH  71  72
ENDBRANCH  50  64
BRANCH  51  76
ATOM     76  C   UNL A   1      43.594  23.430  27.168  1.00  0.00     0.058 A 
ATOM     77  C   UNL A   1      43.327  23.057  25.840  1.00  0.00     0.135 A 
ATOM     78  C   UNL A   1      43.367  22.470  28.167  1.00  0.00     0.135 A 
ATOM     79  F   UNL A   1      43.506  23.941  24.848  1.00  0.00    -0.206 F 
ATOM     80  C   UNL A   1      42.830  21.796  25.520  1.00  0.00     0.059 A 
ATOM     81  C   UNL A   1      42.900  21.193  27.869  1.00  0.00     0.059 A 
ATOM     82  F   UNL A   1      43.607  22.770  29.454  1.00  0.00    -0.206 F 
ATOM     83  C   UNL A   1      42.619  20.870  26.543  1.00  0.00     0.060 A 
BRANCH  83  84
ATOM     84  S   UNL A   1      41.996  19.229  26.116  1.00  0.00     0.124 S 
ATOM     85  O   UNL A   1      42.363  18.459  27.297  1.00  0.00    -0.237 OA
ATOM     86  O   UNL A   1      40.569  19.482  25.935  1.00  0.00    -0.237 OA
ATOM     87  O   UNL A   1      42.725  18.902  24.894  1.00  0.00    -0.744 OA
ENDBRANCH  83  84
ENDBRANCH  51  76
BRANCH  63  88
ATOM     88  C   UNL A   1      49.781  26.647  26.706  1.00  0.00     0.058 A 
ATOM     89  C   UNL A   1      50.736  26.202  27.631  1.00  0.00     0.135 A 
ATOM     90  C   UNL A   1      50.102  26.559  25.341  1.00  0.00     0.135 A 
ATOM     91  F   UNL A   1      50.484  26.270  28.949  1.00  0.00    -0.206 F 
ATOM     92  C   UNL A   1      51.964  25.692  27.220  1.00  0.00     0.059 A 
ATOM     93  C   UNL A   1      51.310  26.026  24.906  1.00  0.00     0.059 A 
ATOM     94  F   UNL A   1      49.218  26.961  24.411  1.00  0.00    -0.206 F 
ATOM     95  C   UNL A   1      52.238  25.599  25.854  1.00  0.00     0.060 A 
BRANCH  95  96
ATOM     96  S   UNL A   1      53.807  24.872  25.335  1.00  0.00     0.124 S 
ATOM     97  O   UNL A   1      54.147  25.697  24.180  1.00  0.00    -0.237 OA
ATOM     98  O   UNL A   1      54.644  25.059  26.516  1.00  0.00    -0.237 OA
ATOM     99  O   UNL A   1      53.458  23.486  25.035  1.00  0.00    -0.744 OA
ENDBRANCH  95  96
ENDBRANCH  63  88
ENDBRANCH  37  38
ENDBRANCH  30  32
ENDBRANCH  29  30
ENDBRANCH  28  29
ENDBRANCH  27  28
ENDBRANCH  26  27
ENDBRANCH  25  26
ENDBRANCH  24  25
ENDBRANCH   1  24
TORSDOF 27
ENDMDL
