MODEL 1
REMARK VINA RESULT:      -9.7      0.000      0.000
REMARK SMILES CNC(=O)NC1=[NH+]N=CN[C@@H]1C(=O)OCCOCCOCCOCCOC(=O)c1ccc(-c2c3nc(c(-c4c(F)cc(S(=O)(=O)[O-])cc4F)c4ccc([nH]4)c(-c4c(F)cc(S(=O)(=O)[O-])cc4F)c4nc(c(-c5c(F)cc(S(=O)(=O)[O-])cc5F)c5ccc2[nH]5)C=C4)C=C3)cc1
REMARK SMILES IDX 21 1 20 2 19 3 18 4 17 5 16 6 15 7 14 8 12 9 13 10 11 11
REMARK SMILES IDX 1 12 2 13 3 14 4 16 5 17 6 18 7 20 8 21 10 23 9 24 22 26
REMARK SMILES IDX 23 27 24 28 25 29 26 30 27 31 28 32 29 33 30 34 94 35 31 36
REMARK SMILES IDX 93 37 32 38 33 39 34 40 87 41 35 42 92 43 86 44 88 45 36 46
REMARK SMILES IDX 91 47 85 48 84 49 37 51 71 52 50 53 70 54 51 55 54 56 69 57
REMARK SMILES IDX 89 58 52 59 53 60 68 62 90 63 55 64 38 65 39 66 48 67 40 68
REMARK SMILES IDX 41 69 47 70 49 71 42 72 43 73 44 74 45 75 46 76 72 77 73 78
REMARK SMILES IDX 82 79 74 80 75 81 81 82 83 83 76 84 77 85 78 86 79 87 80 88
REMARK SMILES IDX 56 89 57 90 66 91 58 92 59 93 65 94 67 95 60 96 61 97 62 98
REMARK SMILES IDX 63 99 64 100
REMARK H PARENT 2 15 5 19 7 22 10 25 88 50 54 61
REMARK Flexibility Score: inf
ROOT
ATOM      1  C   UNL A   1      35.883  20.957  24.880  1.00  0.00     0.188 C 
ENDROOT
BRANCH   1   2
ATOM      2  O   UNL A   1      34.743  20.219  25.335  1.00  0.00    -0.377 OA
BRANCH   2   3
ATOM      3  C   UNL A   1      33.995  19.461  24.404  1.00  0.00     0.188 C 
BRANCH   3   4
ATOM      4  C   UNL A   1      32.479  19.708  24.338  1.00  0.00     0.188 C 
BRANCH   4   5
ATOM      5  O   UNL A   1      31.895  20.463  25.373  1.00  0.00    -0.376 OA
BRANCH   5   6
ATOM      6  C   UNL A   1      31.878  21.884  25.380  1.00  0.00     0.202 C 
BRANCH   6   7
ATOM      7  C   UNL A   1      32.562  22.803  26.408  1.00  0.00     0.261 C 
BRANCH   7   8
ATOM      8  O   UNL A   1      32.256  24.194  26.329  1.00  0.00    -0.461 OA
BRANCH   8   9
ATOM      9  C   UNL A   1      33.137  24.953  25.624  1.00  0.00     0.341 C 
ATOM     10  O   UNL A   1      34.352  24.789  25.657  1.00  0.00    -0.249 OA
BRANCH   9  11
ATOM     11  C   UNL A   1      32.451  25.883  24.622  1.00  0.00     0.308 C 
ATOM     12  C   UNL A   1      32.093  29.155  24.754  1.00  0.00     0.147 C 
ATOM     13  N   UNL A   1      32.191  28.691  26.122  1.00  0.00    -0.321 N 
ATOM     14  C   UNL A   1      31.402  27.801  26.778  1.00  0.00     0.406 C 
ATOM     15  H   UNL A   1      32.931  29.072  26.648  1.00  0.00     0.167 HD
ATOM     16  O   UNL A   1      31.352  27.836  28.004  1.00  0.00    -0.221 OA
ATOM     17  N   UNL A   1      30.655  26.919  26.054  1.00  0.00    -0.191 N 
ATOM     18  C   UNL A   1      30.997  26.069  25.027  1.00  0.00     0.311 C 
ATOM     19  H   UNL A   1      29.705  26.885  26.310  1.00  0.00     0.317 HD
ATOM     20  N   UNL A   1      30.009  25.439  24.470  1.00  0.00    -0.148 N 
ATOM     21  N   UNL A   1      30.265  24.645  23.330  1.00  0.00    -0.077 NA
ATOM     22  H   UNL A   1      29.097  25.514  24.833  1.00  0.00     0.342 HD
ATOM     23  N   UNL A   1      32.495  25.431  23.236  1.00  0.00    -0.350 N 
ATOM     24  C   UNL A   1      31.427  24.734  22.773  1.00  0.00     0.241 C 
ATOM     25  H   UNL A   1      33.270  25.624  22.659  1.00  0.00     0.163 HD
ENDBRANCH   9  11
ENDBRANCH   8   9
ENDBRANCH   7   8
ENDBRANCH   6   7
ENDBRANCH   5   6
ENDBRANCH   4   5
ENDBRANCH   3   4
ENDBRANCH   2   3
ENDBRANCH   1   2
BRANCH   1  26
ATOM     26  C   UNL A   1      36.539  22.069  25.734  1.00  0.00     0.188 C 
BRANCH  26  27
ATOM     27  O   UNL A   1      37.871  22.398  25.378  1.00  0.00    -0.376 OA
BRANCH  27  28
ATOM     28  C   UNL A   1      38.927  21.837  26.144  1.00  0.00     0.202 C 
BRANCH  28  29
ATOM     29  C   UNL A   1      39.429  20.441  25.741  1.00  0.00     0.261 C 
BRANCH  29  30
ATOM     30  O   UNL A   1      40.336  19.807  26.657  1.00  0.00    -0.460 OA
BRANCH  30  31
ATOM     31  C   UNL A   1      41.606  19.621  26.242  1.00  0.00     0.338 C 
ATOM     32  O   UNL A   1      42.041  18.661  25.623  1.00  0.00    -0.246 OA
BRANCH  31  33
ATOM     33  C   UNL A   1      42.355  20.872  26.476  1.00  0.00     0.060 A 
ATOM     34  C   UNL A   1      42.416  21.386  27.778  1.00  0.00     0.016 A 
ATOM     35  C   UNL A   1      42.982  21.540  25.421  1.00  0.00     0.016 A 
ATOM     36  C   UNL A   1      43.063  22.597  28.020  1.00  0.00     0.010 A 
ATOM     37  C   UNL A   1      43.611  22.765  25.662  1.00  0.00     0.010 A 
ATOM     38  C   UNL A   1      43.617  23.319  26.955  1.00  0.00    -0.014 A 
BRANCH  38  39
ATOM     39  C   UNL A   1      43.998  24.738  27.167  1.00  0.00     0.031 A 
ATOM     40  C   UNL A   1      45.434  25.132  26.931  1.00  0.00     0.074 A 
ATOM     41  C   UNL A   1      43.087  25.666  27.509  1.00  0.00     0.049 A 
ATOM     42  N   UNL A   1      46.004  26.302  27.048  1.00  0.00    -0.248 NA
ATOM     43  C   UNL A   1      46.347  24.059  26.503  1.00  0.00     0.031 C 
ATOM     44  C   UNL A   1      41.663  25.417  27.722  1.00  0.00     0.029 A 
ATOM     45  N   UNL A   1      43.230  27.013  27.737  1.00  0.00    -0.354 N 
ATOM     46  C   UNL A   1      47.341  26.105  26.720  1.00  0.00     0.074 A 
ATOM     47  C   UNL A   1      47.504  24.698  26.429  1.00  0.00     0.031 C 
ATOM     48  C   UNL A   1      41.062  26.574  28.054  1.00  0.00     0.029 A 
ATOM     49  C   UNL A   1      42.063  27.637  28.109  1.00  0.00     0.049 A 
ATOM     50  H   UNL A   1      44.088  27.486  27.642  1.00  0.00     0.167 HD
ATOM     51  C   UNL A   1      48.342  27.016  26.659  1.00  0.00     0.037 A 
ATOM     52  C   UNL A   1      41.837  28.918  28.468  1.00  0.00     0.037 A 
ATOM     53  C   UNL A   1      48.172  28.417  26.946  1.00  0.00     0.049 A 
ATOM     54  C   UNL A   1      42.984  29.900  28.459  1.00  0.00     0.074 A 
ATOM     55  C   UNL A   1      49.116  29.426  26.888  1.00  0.00     0.029 A 
ATOM     56  N   UNL A   1      46.984  29.004  27.357  1.00  0.00    -0.354 N 
ATOM     57  N   UNL A   1      44.236  29.707  28.115  1.00  0.00    -0.248 NA
ATOM     58  C   UNL A   1      42.683  31.275  28.879  1.00  0.00     0.031 C 
ATOM     59  C   UNL A   1      48.517  30.611  27.326  1.00  0.00     0.029 A 
ATOM     60  C   UNL A   1      47.180  30.355  27.588  1.00  0.00     0.049 A 
ATOM     61  H   UNL A   1      46.128  28.531  27.468  1.00  0.00     0.167 HD
ATOM     62  C   UNL A   1      44.861  30.944  28.245  1.00  0.00     0.074 A 
ATOM     63  C   UNL A   1      43.847  31.879  28.684  1.00  0.00     0.031 C 
ATOM     64  C   UNL A   1      46.158  31.278  28.018  1.00  0.00     0.037 A 
BRANCH  51  65
ATOM     65  C   UNL A   1      49.717  26.522  26.300  1.00  0.00     0.058 A 
ATOM     66  C   UNL A   1      50.214  26.582  24.988  1.00  0.00     0.135 A 
ATOM     67  C   UNL A   1      50.568  26.017  27.298  1.00  0.00     0.135 A 
ATOM     68  F   UNL A   1      49.438  27.036  23.991  1.00  0.00    -0.206 F 
ATOM     69  C   UNL A   1      51.494  26.136  24.674  1.00  0.00     0.059 A 
ATOM     70  C   UNL A   1      51.863  25.596  27.012  1.00  0.00     0.059 A 
ATOM     71  F   UNL A   1      50.143  25.932  28.568  1.00  0.00    -0.206 F 
ATOM     72  C   UNL A   1      52.313  25.648  25.694  1.00  0.00     0.060 A 
BRANCH  72  73
ATOM     73  S   UNL A   1      53.977  25.089  25.272  1.00  0.00     0.124 S 
ATOM     74  O   UNL A   1      54.275  25.916  24.106  1.00  0.00    -0.237 OA
ATOM     75  O   UNL A   1      54.726  25.407  26.482  1.00  0.00    -0.237 OA
ATOM     76  O   UNL A   1      53.800  23.667  25.001  1.00  0.00    -0.744 OA
ENDBRANCH  72  73
ENDBRANCH  51  65
BRANCH  52  77
ATOM     77  C   UNL A   1      40.473  29.353  28.879  1.00  0.00     0.058 A 
ATOM     78  C   UNL A   1      39.457  29.551  27.932  1.00  0.00     0.135 A 
ATOM     79  C   UNL A   1      40.164  29.602  30.226  1.00  0.00     0.135 A 
ATOM     80  F   UNL A   1      39.705  29.340  26.629  1.00  0.00    -0.206 F 
ATOM     81  C   UNL A   1      38.194  30.001  28.299  1.00  0.00     0.059 A 
ATOM     82  C   UNL A   1      38.898  30.022  30.622  1.00  0.00     0.059 A 
ATOM     83  F   UNL A   1      41.096  29.421  31.175  1.00  0.00    -0.206 F 
ATOM     84  C   UNL A   1      37.922  30.232  29.649  1.00  0.00     0.060 A 
BRANCH  84  85
ATOM     85  S   UNL A   1      36.267  30.780  30.116  1.00  0.00     0.124 S 
ATOM     86  O   UNL A   1      36.455  32.223  30.221  1.00  0.00    -0.237 OA
ATOM     87  O   UNL A   1      35.465  30.320  28.987  1.00  0.00    -0.237 OA
ATOM     88  O   UNL A   1      36.025  30.082  31.375  1.00  0.00    -0.744 OA
ENDBRANCH  84  85
ENDBRANCH  52  77
BRANCH  64  89
ATOM     89  C   UNL A   1      46.546  32.724  28.194  1.00  0.00     0.058 A 
ATOM     90  C   UNL A   1      47.088  33.210  29.394  1.00  0.00     0.135 A 
ATOM     91  C   UNL A   1      46.409  33.628  27.127  1.00  0.00     0.135 A 
ATOM     92  F   UNL A   1      47.240  32.391  30.447  1.00  0.00    -0.206 F 
ATOM     93  C   UNL A   1      47.443  34.547  29.544  1.00  0.00     0.059 A 
ATOM     94  C   UNL A   1      46.791  34.961  27.243  1.00  0.00     0.059 A 
ATOM     95  F   UNL A   1      45.912  33.217  25.950  1.00  0.00    -0.206 F 
ATOM     96  C   UNL A   1      47.291  35.415  28.462  1.00  0.00     0.060 A 
BRANCH  96  97
ATOM     97  S   UNL A   1      47.768  37.145  28.664  1.00  0.00     0.124 S 
ATOM     98  O   UNL A   1      48.874  37.257  27.718  1.00  0.00    -0.237 OA
ATOM     99  O   UNL A   1      46.545  37.851  28.297  1.00  0.00    -0.237 OA
ATOM    100  O   UNL A   1      48.137  37.234  30.074  1.00  0.00    -0.744 OA
ENDBRANCH  96  97
ENDBRANCH  64  89
ENDBRANCH  38  39
ENDBRANCH  31  33
ENDBRANCH  30  31
ENDBRANCH  29  30
ENDBRANCH  28  29
ENDBRANCH  27  28
ENDBRANCH  26  27
ENDBRANCH   1  26
TORSDOF 23
ENDMDL
MODEL 2
REMARK VINA RESULT:      -9.7      3.555      9.432
REMARK SMILES CNC(=O)NC1=[NH+]N=CN[C@@H]1C(=O)OCCOCCOCCOCCOC(=O)c1ccc(-c2c3nc(c(-c4c(F)cc(S(=O)(=O)[O-])cc4F)c4ccc([nH]4)c(-c4c(F)cc(S(=O)(=O)[O-])cc4F)c4nc(c(-c5c(F)cc(S(=O)(=O)[O-])cc5F)c5ccc2[nH]5)C=C4)C=C3)cc1
REMARK SMILES IDX 21 1 20 2 19 3 18 4 17 5 16 6 15 7 14 8 12 9 13 10 11 11
REMARK SMILES IDX 1 12 2 13 3 14 4 16 5 17 6 18 7 20 8 21 10 23 9 24 22 26
REMARK SMILES IDX 23 27 24 28 25 29 26 30 27 31 28 32 29 33 30 34 94 35 31 36
REMARK SMILES IDX 93 37 32 38 33 39 34 40 87 41 35 42 92 43 86 44 88 45 36 46
REMARK SMILES IDX 91 47 85 48 84 49 37 51 71 52 50 53 70 54 51 55 54 56 69 57
REMARK SMILES IDX 89 58 52 59 53 60 68 62 90 63 55 64 38 65 39 66 48 67 40 68
REMARK SMILES IDX 41 69 47 70 49 71 42 72 43 73 44 74 45 75 46 76 72 77 73 78
REMARK SMILES IDX 82 79 74 80 75 81 81 82 83 83 76 84 77 85 78 86 79 87 80 88
REMARK SMILES IDX 56 89 57 90 66 91 58 92 59 93 65 94 67 95 60 96 61 97 62 98
REMARK SMILES IDX 63 99 64 100
REMARK H PARENT 2 15 5 19 7 22 10 25 88 50 54 61
REMARK Flexibility Score: inf
ROOT
ATOM      1  C   UNL A   1      29.858  29.721  23.520  1.00  0.00     0.188 C 
ENDROOT
BRANCH   1   2
ATOM      2  O   UNL A   1      30.192  28.761  22.510  1.00  0.00    -0.377 OA
BRANCH   2   3
ATOM      3  C   UNL A   1      30.369  27.407  22.877  1.00  0.00     0.188 C 
BRANCH   3   4
ATOM      4  C   UNL A   1      31.781  26.814  22.757  1.00  0.00     0.188 C 
BRANCH   4   5
ATOM      5  O   UNL A   1      32.124  26.187  21.544  1.00  0.00    -0.376 OA
BRANCH   5   6
ATOM      6  C   UNL A   1      33.200  25.266  21.426  1.00  0.00     0.202 C 
BRANCH   6   7
ATOM      7  C   UNL A   1      33.462  24.043  22.324  1.00  0.00     0.261 C 
BRANCH   7   8
ATOM      8  O   UNL A   1      32.370  23.145  22.519  1.00  0.00    -0.461 OA
BRANCH   8   9
ATOM      9  C   UNL A   1      31.590  23.392  23.605  1.00  0.00     0.341 C 
ATOM     10  O   UNL A   1      30.374  23.546  23.546  1.00  0.00    -0.249 OA
BRANCH   9  11
ATOM     11  C   UNL A   1      32.346  23.240  24.926  1.00  0.00     0.308 C 
ATOM     12  C   UNL A   1      34.805  21.177  25.670  1.00  0.00     0.147 C 
ATOM     13  N   UNL A   1      34.029  20.542  24.625  1.00  0.00    -0.321 N 
ATOM     14  C   UNL A   1      32.713  20.207  24.626  1.00  0.00     0.406 C 
ATOM     15  H   UNL A   1      34.522  20.324  23.802  1.00  0.00     0.167 HD
ATOM     16  O   UNL A   1      32.320  19.323  23.869  1.00  0.00    -0.221 OA
ATOM     17  N   UNL A   1      31.870  20.833  25.497  1.00  0.00    -0.191 N 
ATOM     18  C   UNL A   1      31.673  22.168  25.767  1.00  0.00     0.311 C 
ATOM     19  H   UNL A   1      31.306  20.224  26.025  1.00  0.00     0.317 HD
ATOM     20  N   UNL A   1      30.867  22.426  26.751  1.00  0.00    -0.148 N 
ATOM     21  N   UNL A   1      30.711  23.767  27.167  1.00  0.00    -0.077 NA
ATOM     22  H   UNL A   1      30.374  21.702  27.200  1.00  0.00     0.342 HD
ATOM     23  N   UNL A   1      32.448  24.461  25.719  1.00  0.00    -0.350 N 
ATOM     24  C   UNL A   1      31.519  24.653  26.688  1.00  0.00     0.241 C 
ATOM     25  H   UNL A   1      33.163  25.119  25.556  1.00  0.00     0.163 HD
ENDBRANCH   9  11
ENDBRANCH   8   9
ENDBRANCH   7   8
ENDBRANCH   6   7
ENDBRANCH   5   6
ENDBRANCH   4   5
ENDBRANCH   3   4
ENDBRANCH   2   3
ENDBRANCH   1   2
BRANCH   1  26
ATOM     26  C   UNL A   1      30.847  30.110  24.646  1.00  0.00     0.188 C 
BRANCH  26  27
ATOM     27  O   UNL A   1      32.190  29.704  24.439  1.00  0.00    -0.376 OA
BRANCH  27  28
ATOM     28  C   UNL A   1      32.984  29.413  25.580  1.00  0.00     0.202 C 
BRANCH  28  29
ATOM     29  C   UNL A   1      32.853  30.351  26.791  1.00  0.00     0.261 C 
BRANCH  29  30
ATOM     30  O   UNL A   1      33.676  30.036  27.926  1.00  0.00    -0.460 OA
BRANCH  30  31
ATOM     31  C   UNL A   1      34.608  30.943  28.286  1.00  0.00     0.338 C 
ATOM     32  O   UNL A   1      34.408  32.094  28.643  1.00  0.00    -0.246 OA
BRANCH  31  33
ATOM     33  C   UNL A   1      35.909  30.253  28.380  1.00  0.00     0.060 A 
ATOM     34  C   UNL A   1      36.279  29.676  29.602  1.00  0.00     0.016 A 
ATOM     35  C   UNL A   1      36.765  30.184  27.277  1.00  0.00     0.016 A 
ATOM     36  C   UNL A   1      37.528  29.072  29.739  1.00  0.00     0.010 A 
ATOM     37  C   UNL A   1      38.026  29.597  27.424  1.00  0.00     0.010 A 
ATOM     38  C   UNL A   1      38.428  29.077  28.667  1.00  0.00    -0.014 A 
BRANCH  38  39
ATOM     39  C   UNL A   1      39.851  28.738  28.919  1.00  0.00     0.031 A 
ATOM     40  C   UNL A   1      40.722  29.772  29.586  1.00  0.00     0.074 A 
ATOM     41  C   UNL A   1      40.349  27.527  28.614  1.00  0.00     0.049 A 
ATOM     42  N   UNL A   1      41.987  29.710  29.909  1.00  0.00    -0.248 NA
ATOM     43  C   UNL A   1      40.075  31.048  29.935  1.00  0.00     0.031 C 
ATOM     44  C   UNL A   1      39.597  26.430  28.008  1.00  0.00     0.029 A 
ATOM     45  N   UNL A   1      41.614  27.017  28.775  1.00  0.00    -0.354 N 
ATOM     46  C   UNL A   1      42.289  30.937  30.489  1.00  0.00     0.074 A 
ATOM     47  C   UNL A   1      41.085  31.736  30.445  1.00  0.00     0.031 C 
ATOM     48  C   UNL A   1      40.417  25.376  27.845  1.00  0.00     0.029 A 
ATOM     49  C   UNL A   1      41.757  25.734  28.304  1.00  0.00     0.049 A 
ATOM     50  H   UNL A   1      42.349  27.524  29.191  1.00  0.00     0.167 HD
ATOM     51  C   UNL A   1      43.463  31.358  31.018  1.00  0.00     0.037 A 
ATOM     52  C   UNL A   1      42.852  24.948  28.237  1.00  0.00     0.037 A 
ATOM     53  C   UNL A   1      44.658  30.556  31.063  1.00  0.00     0.049 A 
ATOM     54  C   UNL A   1      44.166  25.466  28.770  1.00  0.00     0.074 A 
ATOM     55  C   UNL A   1      45.891  30.881  31.600  1.00  0.00     0.029 A 
ATOM     56  N   UNL A   1      44.774  29.276  30.540  1.00  0.00    -0.354 N 
ATOM     57  N   UNL A   1      44.430  26.616  29.345  1.00  0.00    -0.248 NA
ATOM     58  C   UNL A   1      45.328  24.574  28.652  1.00  0.00     0.031 C 
ATOM     59  C   UNL A   1      46.770  29.824  31.345  1.00  0.00     0.029 A 
ATOM     60  C   UNL A   1      46.067  28.810  30.712  1.00  0.00     0.049 A 
ATOM     61  H   UNL A   1      44.046  28.772  30.110  1.00  0.00     0.167 HD
ATOM     62  C   UNL A   1      45.779  26.570  29.688  1.00  0.00     0.074 A 
ATOM     63  C   UNL A   1      46.270  25.275  29.268  1.00  0.00     0.031 C 
ATOM     64  C   UNL A   1      46.542  27.513  30.297  1.00  0.00     0.037 A 
BRANCH  51  65
ATOM     65  C   UNL A   1      43.524  32.760  31.560  1.00  0.00     0.058 A 
ATOM     66  C   UNL A   1      43.317  33.046  32.919  1.00  0.00     0.135 A 
ATOM     67  C   UNL A   1      43.835  33.834  30.709  1.00  0.00     0.135 A 
ATOM     68  F   UNL A   1      42.995  32.062  33.776  1.00  0.00    -0.206 F 
ATOM     69  C   UNL A   1      43.392  34.346  33.410  1.00  0.00     0.059 A 
ATOM     70  C   UNL A   1      43.947  35.136  31.183  1.00  0.00     0.059 A 
ATOM     71  F   UNL A   1      44.038  33.620  29.399  1.00  0.00    -0.206 F 
ATOM     72  C   UNL A   1      43.712  35.384  32.534  1.00  0.00     0.060 A 
BRANCH  72  73
ATOM     73  S   UNL A   1      43.821  37.063  33.190  1.00  0.00     0.124 S 
ATOM     74  O   UNL A   1      42.622  37.129  34.020  1.00  0.00    -0.237 OA
ATOM     75  O   UNL A   1      45.089  37.032  33.910  1.00  0.00    -0.237 OA
ATOM     76  O   UNL A   1      43.801  37.898  31.994  1.00  0.00    -0.744 OA
ENDBRANCH  72  73
ENDBRANCH  51  65
BRANCH  52  77
ATOM     77  C   UNL A   1      42.764  23.588  27.634  1.00  0.00     0.058 A 
ATOM     78  C   UNL A   1      42.436  22.468  28.411  1.00  0.00     0.135 A 
ATOM     79  C   UNL A   1      43.030  23.380  26.270  1.00  0.00     0.135 A 
ATOM     80  F   UNL A   1      42.187  22.612  29.722  1.00  0.00    -0.206 F 
ATOM     81  C   UNL A   1      42.396  21.188  27.868  1.00  0.00     0.059 A 
ATOM     82  C   UNL A   1      42.966  22.113  25.697  1.00  0.00     0.059 A 
ATOM     83  F   UNL A   1      43.342  24.418  25.479  1.00  0.00    -0.206 F 
ATOM     84  C   UNL A   1      42.661  21.021  26.507  1.00  0.00     0.060 A 
BRANCH  84  85
ATOM     85  S   UNL A   1      42.570  19.360  25.807  1.00  0.00     0.124 S 
ATOM     86  O   UNL A   1      43.385  19.502  24.606  1.00  0.00    -0.237 OA
ATOM     87  O   UNL A   1      43.143  18.548  26.876  1.00  0.00    -0.237 OA
ATOM     88  O   UNL A   1      41.141  19.170  25.580  1.00  0.00    -0.744 OA
ENDBRANCH  84  85
ENDBRANCH  52  77
BRANCH  64  89
ATOM     89  C   UNL A   1      47.978  27.164  30.591  1.00  0.00     0.058 A 
ATOM     90  C   UNL A   1      48.354  26.467  31.751  1.00  0.00     0.135 A 
ATOM     91  C   UNL A   1      48.990  27.500  29.676  1.00  0.00     0.135 A 
ATOM     92  F   UNL A   1      47.429  26.122  32.661  1.00  0.00    -0.206 F 
ATOM     93  C   UNL A   1      49.684  26.150  32.011  1.00  0.00     0.059 A 
ATOM     94  C   UNL A   1      50.321  27.161  29.898  1.00  0.00     0.059 A 
ATOM     95  F   UNL A   1      48.689  28.152  28.542  1.00  0.00    -0.206 F 
ATOM     96  C   UNL A   1      50.661  26.501  31.078  1.00  0.00     0.060 A 
BRANCH  96  97
ATOM     97  S   UNL A   1      52.381  26.072  31.421  1.00  0.00     0.124 S 
ATOM     98  O   UNL A   1      52.771  27.134  32.342  1.00  0.00    -0.237 OA
ATOM     99  O   UNL A   1      52.259  24.740  32.004  1.00  0.00    -0.237 OA
ATOM    100  O   UNL A   1      53.012  26.118  30.106  1.00  0.00    -0.744 OA
ENDBRANCH  96  97
ENDBRANCH  64  89
ENDBRANCH  38  39
ENDBRANCH  31  33
ENDBRANCH  30  31
ENDBRANCH  29  30
ENDBRANCH  28  29
ENDBRANCH  27  28
ENDBRANCH  26  27
ENDBRANCH   1  26
TORSDOF 23
ENDMDL
MODEL 3
REMARK VINA RESULT:      -9.7      5.960      8.336
REMARK SMILES CNC(=O)NC1=[NH+]N=CN[C@@H]1C(=O)OCCOCCOCCOCCOC(=O)c1ccc(-c2c3nc(c(-c4c(F)cc(S(=O)(=O)[O-])cc4F)c4ccc([nH]4)c(-c4c(F)cc(S(=O)(=O)[O-])cc4F)c4nc(c(-c5c(F)cc(S(=O)(=O)[O-])cc5F)c5ccc2[nH]5)C=C4)C=C3)cc1
REMARK SMILES IDX 21 1 20 2 19 3 18 4 17 5 16 6 15 7 14 8 12 9 13 10 11 11
REMARK SMILES IDX 1 12 2 13 3 14 4 16 5 17 6 18 7 20 8 21 10 23 9 24 22 26
REMARK SMILES IDX 23 27 24 28 25 29 26 30 27 31 28 32 29 33 30 34 94 35 31 36
REMARK SMILES IDX 93 37 32 38 33 39 34 40 87 41 35 42 92 43 86 44 88 45 36 46
REMARK SMILES IDX 91 47 85 48 84 49 37 51 71 52 50 53 70 54 51 55 54 56 69 57
REMARK SMILES IDX 89 58 52 59 53 60 68 62 90 63 55 64 38 65 39 66 48 67 40 68
REMARK SMILES IDX 41 69 47 70 49 71 42 72 43 73 44 74 45 75 46 76 72 77 73 78
REMARK SMILES IDX 82 79 74 80 75 81 81 82 83 83 76 84 77 85 78 86 79 87 80 88
REMARK SMILES IDX 56 89 57 90 66 91 58 92 59 93 65 94 67 95 60 96 61 97 62 98
REMARK SMILES IDX 63 99 64 100
REMARK H PARENT 2 15 5 19 7 22 10 25 88 50 54 61
REMARK Flexibility Score: inf
ROOT
ATOM      1  C   UNL A   1      38.999  22.819  26.257  1.00  0.00     0.188 C 
ENDROOT
BRANCH   1   2
ATOM      2  O   UNL A   1      37.664  23.037  25.788  1.00  0.00    -0.377 OA
BRANCH   2   3
ATOM      3  C   UNL A   1      36.916  21.940  25.301  1.00  0.00     0.188 C 
BRANCH   3   4
ATOM      4  C   UNL A   1      35.406  22.140  25.098  1.00  0.00     0.188 C 
BRANCH   4   5
ATOM      5  O   UNL A   1      34.836  23.336  25.573  1.00  0.00    -0.376 OA
BRANCH   5   6
ATOM      6  C   UNL A   1      33.856  24.068  24.849  1.00  0.00     0.202 C 
BRANCH   6   7
ATOM      7  C   UNL A   1      32.554  24.663  25.415  1.00  0.00     0.261 C 
BRANCH   7   8
ATOM      8  O   UNL A   1      32.630  25.986  25.945  1.00  0.00    -0.461 OA
BRANCH   8   9
ATOM      9  C   UNL A   1      31.470  26.693  25.936  1.00  0.00     0.341 C 
ATOM     10  O   UNL A   1      30.445  26.323  26.500  1.00  0.00    -0.249 OA
BRANCH   9  11
ATOM     11  C   UNL A   1      31.633  28.094  25.344  1.00  0.00     0.308 C 
ATOM     12  C   UNL A   1      30.609  29.231  22.426  1.00  0.00     0.147 C 
ATOM     13  N   UNL A   1      30.814  27.807  22.270  1.00  0.00    -0.321 N 
ATOM     14  C   UNL A   1      31.946  27.082  22.462  1.00  0.00     0.406 C 
ATOM     15  H   UNL A   1      30.023  27.292  21.986  1.00  0.00     0.167 HD
ATOM     16  O   UNL A   1      32.067  25.999  21.896  1.00  0.00    -0.221 OA
ATOM     17  N   UNL A   1      32.937  27.597  23.246  1.00  0.00    -0.191 N 
ATOM     18  C   UNL A   1      32.903  28.139  24.511  1.00  0.00     0.311 C 
ATOM     19  H   UNL A   1      33.831  27.579  22.835  1.00  0.00     0.317 HD
ATOM     20  N   UNL A   1      34.020  28.651  24.929  1.00  0.00    -0.148 N 
ATOM     21  N   UNL A   1      34.033  29.335  26.165  1.00  0.00    -0.077 NA
ATOM     22  H   UNL A   1      34.843  28.566  24.395  1.00  0.00     0.342 HD
ATOM     23  N   UNL A   1      31.678  29.174  26.324  1.00  0.00    -0.350 N 
ATOM     24  C   UNL A   1      32.901  29.595  26.731  1.00  0.00     0.241 C 
ATOM     25  H   UNL A   1      30.852  29.580  26.676  1.00  0.00     0.163 HD
ENDBRANCH   9  11
ENDBRANCH   8   9
ENDBRANCH   7   8
ENDBRANCH   6   7
ENDBRANCH   5   6
ENDBRANCH   4   5
ENDBRANCH   3   4
ENDBRANCH   2   3
ENDBRANCH   1   2
BRANCH   1  26
ATOM     26  C   UNL A   1      39.676  21.427  26.201  1.00  0.00     0.188 C 
BRANCH  26  27
ATOM     27  O   UNL A   1      40.412  21.065  27.356  1.00  0.00    -0.376 OA
BRANCH  27  28
ATOM     28  C   UNL A   1      41.817  20.899  27.230  1.00  0.00     0.202 C 
BRANCH  28  29
ATOM     29  C   UNL A   1      42.618  22.074  26.647  1.00  0.00     0.261 C 
BRANCH  29  30
ATOM     30  O   UNL A   1      42.497  23.327  27.338  1.00  0.00    -0.460 OA
BRANCH  30  31
ATOM     31  C   UNL A   1      42.371  24.440  26.586  1.00  0.00     0.338 C 
ATOM     32  O   UNL A   1      42.479  24.518  25.371  1.00  0.00    -0.246 OA
BRANCH  31  33
ATOM     33  C   UNL A   1      41.871  25.527  27.450  1.00  0.00     0.060 A 
ATOM     34  C   UNL A   1      42.591  26.727  27.508  1.00  0.00     0.016 A 
ATOM     35  C   UNL A   1      40.707  25.363  28.207  1.00  0.00     0.016 A 
ATOM     36  C   UNL A   1      42.178  27.749  28.362  1.00  0.00     0.010 A 
ATOM     37  C   UNL A   1      40.308  26.380  29.079  1.00  0.00     0.010 A 
ATOM     38  C   UNL A   1      41.066  27.559  29.192  1.00  0.00    -0.014 A 
BRANCH  38  39
ATOM     39  C   UNL A   1      40.837  28.500  30.317  1.00  0.00     0.031 A 
ATOM     40  C   UNL A   1      41.716  28.380  31.536  1.00  0.00     0.074 A 
ATOM     41  C   UNL A   1      39.911  29.472  30.242  1.00  0.00     0.049 A 
ATOM     42  N   UNL A   1      41.709  29.082  32.638  1.00  0.00    -0.248 NA
ATOM     43  C   UNL A   1      42.741  27.323  31.504  1.00  0.00     0.031 C 
ATOM     44  C   UNL A   1      39.031  29.718  29.101  1.00  0.00     0.029 A 
ATOM     45  N   UNL A   1      39.556  30.437  31.153  1.00  0.00    -0.354 N 
ATOM     46  C   UNL A   1      42.718  28.548  33.432  1.00  0.00     0.074 A 
ATOM     47  C   UNL A   1      43.295  27.443  32.699  1.00  0.00     0.031 C 
ATOM     48  C   UNL A   1      38.234  30.765  29.381  1.00  0.00     0.029 A 
ATOM     49  C   UNL A   1      38.525  31.242  30.732  1.00  0.00     0.049 A 
ATOM     50  H   UNL A   1      40.001  30.542  32.025  1.00  0.00     0.167 HD
ATOM     51  C   UNL A   1      43.132  28.947  34.659  1.00  0.00     0.037 A 
ATOM     52  C   UNL A   1      37.880  32.238  31.374  1.00  0.00     0.037 A 
ATOM     53  C   UNL A   1      42.555  30.051  35.381  1.00  0.00     0.049 A 
ATOM     54  C   UNL A   1      38.314  32.619  32.769  1.00  0.00     0.074 A 
ATOM     55  C   UNL A   1      42.919  30.552  36.619  1.00  0.00     0.029 A 
ATOM     56  N   UNL A   1      41.486  30.818  34.939  1.00  0.00    -0.354 N 
ATOM     57  N   UNL A   1      39.290  32.127  33.495  1.00  0.00    -0.248 NA
ATOM     58  C   UNL A   1      37.563  33.697  33.427  1.00  0.00     0.031 C 
ATOM     59  C   UNL A   1      42.030  31.578  36.953  1.00  0.00     0.029 A 
ATOM     60  C   UNL A   1      41.156  31.765  35.893  1.00  0.00     0.049 A 
ATOM     61  H   UNL A   1      41.029  30.705  34.074  1.00  0.00     0.167 HD
ATOM     62  C   UNL A   1      39.291  32.860  34.679  1.00  0.00     0.074 A 
ATOM     63  C   UNL A   1      38.228  33.836  34.565  1.00  0.00     0.031 C 
ATOM     64  C   UNL A   1      40.099  32.738  35.764  1.00  0.00     0.037 A 
BRANCH  51  65
ATOM     65  C   UNL A   1      44.238  28.165  35.313  1.00  0.00     0.058 A 
ATOM     66  C   UNL A   1      43.983  27.070  36.154  1.00  0.00     0.135 A 
ATOM     67  C   UNL A   1      45.580  28.495  35.062  1.00  0.00     0.135 A 
ATOM     68  F   UNL A   1      42.718  26.722  36.446  1.00  0.00    -0.206 F 
ATOM     69  C   UNL A   1      45.016  26.346  36.740  1.00  0.00     0.059 A 
ATOM     70  C   UNL A   1      46.629  27.766  35.611  1.00  0.00     0.059 A 
ATOM     71  F   UNL A   1      45.883  29.537  34.271  1.00  0.00    -0.206 F 
ATOM     72  C   UNL A   1      46.337  26.700  36.459  1.00  0.00     0.060 A 
BRANCH  72  73
ATOM     73  S   UNL A   1      47.666  25.740  37.216  1.00  0.00     0.124 S 
ATOM     74  O   UNL A   1      47.136  25.515  38.557  1.00  0.00    -0.237 OA
ATOM     75  O   UNL A   1      47.727  24.564  36.354  1.00  0.00    -0.237 OA
ATOM     76  O   UNL A   1      48.817  26.632  37.139  1.00  0.00    -0.744 OA
ENDBRANCH  72  73
ENDBRANCH  51  65
BRANCH  52  77
ATOM     77  C   UNL A   1      36.746  32.946  30.715  1.00  0.00     0.058 A 
ATOM     78  C   UNL A   1      36.971  33.932  29.744  1.00  0.00     0.135 A 
ATOM     79  C   UNL A   1      35.414  32.665  31.063  1.00  0.00     0.135 A 
ATOM     80  F   UNL A   1      38.225  34.247  29.387  1.00  0.00    -0.206 F 
ATOM     81  C   UNL A   1      35.922  34.631  29.156  1.00  0.00     0.059 A 
ATOM     82  C   UNL A   1      34.346  33.328  30.466  1.00  0.00     0.059 A 
ATOM     83  F   UNL A   1      35.142  31.725  31.981  1.00  0.00    -0.206 F 
ATOM     84  C   UNL A   1      34.610  34.319  29.523  1.00  0.00     0.060 A 
BRANCH  84  85
ATOM     85  S   UNL A   1      33.257  35.208  28.725  1.00  0.00     0.124 S 
ATOM     86  O   UNL A   1      32.531  35.732  29.877  1.00  0.00    -0.237 OA
ATOM     87  O   UNL A   1      33.972  36.192  27.919  1.00  0.00    -0.237 OA
ATOM     88  O   UNL A   1      32.571  34.165  27.969  1.00  0.00    -0.744 OA
ENDBRANCH  84  85
ENDBRANCH  52  77
BRANCH  64  89
ATOM     89  C   UNL A   1      39.900  33.713  36.895  1.00  0.00     0.058 A 
ATOM     90  C   UNL A   1      40.456  35.002  36.876  1.00  0.00     0.135 A 
ATOM     91  C   UNL A   1      39.105  33.363  37.999  1.00  0.00     0.135 A 
ATOM     92  F   UNL A   1      41.226  35.390  35.846  1.00  0.00    -0.206 F 
ATOM     93  C   UNL A   1      40.263  35.894  37.927  1.00  0.00     0.059 A 
ATOM     94  C   UNL A   1      38.870  34.251  39.044  1.00  0.00     0.059 A 
ATOM     95  F   UNL A   1      38.533  32.150  38.065  1.00  0.00    -0.206 F 
ATOM     96  C   UNL A   1      39.468  35.509  39.007  1.00  0.00     0.060 A 
BRANCH  96  97
ATOM     97  S   UNL A   1      39.215  36.680  40.357  1.00  0.00     0.124 S 
ATOM     98  O   UNL A   1      38.868  37.897  39.630  1.00  0.00    -0.237 OA
ATOM     99  O   UNL A   1      38.130  36.059  41.109  1.00  0.00    -0.237 OA
ATOM    100  O   UNL A   1      40.507  36.703  41.036  1.00  0.00    -0.744 OA
ENDBRANCH  96  97
ENDBRANCH  64  89
ENDBRANCH  38  39
ENDBRANCH  31  33
ENDBRANCH  30  31
ENDBRANCH  29  30
ENDBRANCH  28  29
ENDBRANCH  27  28
ENDBRANCH  26  27
ENDBRANCH   1  26
TORSDOF 23
ENDMDL
