MODEL 1
REMARK VINA RESULT:     -10.4      0.000      0.000
REMARK SMILES CC1=C(CC(=O)OCCOCCOCCOCCOC(=O)c2ccc(-c3c4nc(c(-c5c(F)cc(S(=O)(=O)[O-])cc5F)c5ccc([nH]5)c(-c5c(F)cc(S(=O)(=O)[O-])cc5F)c5nc(c(-c6c(F)cc(S(=O)(=O)[O-])cc6F)c6ccc3[nH]6)C=C5)C=C4)cc2)c2cc(F)ccc2/C1=C\c1cccc(OCc2ccccc2)c1
REMARK SMILES IDX 12 1 11 2 10 3 9 4 8 5 7 6 5 7 6 8 4 9 3 10 1 11 2 12 95 13
REMARK SMILES IDX 88 14 94 15 96 16 89 17 93 18 90 19 92 20 91 21 97 22 98 23
REMARK SMILES IDX 110 24 99 25 101 26 100 27 102 28 103 29 104 30 105 31
REMARK SMILES IDX 109 32 106 33 108 34 107 35 13 36 14 37 15 38 16 39 17 40
REMARK SMILES IDX 18 41 19 42 20 43 21 44 22 45 23 46 87 47 24 48 86 49 25 50
REMARK SMILES IDX 26 51 27 52 80 53 28 54 85 55 79 56 81 57 29 58 84 59 78 60
REMARK SMILES IDX 77 61 30 63 64 64 43 65 63 66 44 67 47 68 62 69 82 70 45 71
REMARK SMILES IDX 46 72 61 74 83 75 48 76 31 77 32 78 41 79 33 80 34 81 40 82
REMARK SMILES IDX 42 83 35 84 36 85 37 86 38 87 39 88 65 89 66 90 75 91 67 92
REMARK SMILES IDX 68 93 74 94 76 95 69 96 70 97 71 98 72 99 73 100 49 101
REMARK SMILES IDX 50 102 59 103 51 104 52 105 58 106 60 107 53 108 54 109
REMARK SMILES IDX 55 110 56 111 57 112
REMARK H PARENT 81 62 47 73
REMARK Flexibility Score: inf
ROOT
ATOM      1  C   UNL A   1      33.601  31.398  27.803  1.00  0.00     0.188 C 
ENDROOT
BRANCH   1   2
ATOM      2  C   UNL A   1      33.532  30.022  27.109  1.00  0.00     0.188 C 
BRANCH   2   3
ATOM      3  O   UNL A   1      33.689  30.033  25.711  1.00  0.00    -0.376 OA
BRANCH   3   4
ATOM      4  C   UNL A   1      32.746  29.434  24.845  1.00  0.00     0.202 C 
BRANCH   4   5
ATOM      5  C   UNL A   1      31.225  29.344  25.089  1.00  0.00     0.261 C 
BRANCH   5   6
ATOM      6  O   UNL A   1      30.328  29.582  23.994  1.00  0.00    -0.463 OA
BRANCH   6   7
ATOM      7  C   UNL A   1      30.623  29.034  22.794  1.00  0.00     0.310 C 
ATOM      8  O   UNL A   1      31.090  29.668  21.853  1.00  0.00    -0.252 OA
BRANCH   7   9
ATOM      9  C   UNL A   1      30.327  27.527  22.685  1.00  0.00     0.159 C 
BRANCH   9  10
ATOM     10  C   UNL A   1      31.288  26.486  23.193  1.00  0.00    -0.025 C 
ATOM     11  C   UNL A   1      33.228  26.748  21.553  1.00  0.00     0.045 C 
ATOM     12  C   UNL A   1      32.517  26.156  22.725  1.00  0.00    -0.039 C 
ATOM     13  C   UNL A   1      33.117  25.100  23.563  1.00  0.00    -0.014 C 
ATOM     14  C   UNL A   1      31.071  25.691  24.426  1.00  0.00    -0.011 A 
ATOM     15  C   UNL A   1      32.151  24.809  24.632  1.00  0.00    -0.010 A 
ATOM     16  C   UNL A   1      34.328  24.543  23.364  1.00  0.00     0.017 C 
ATOM     17  C   UNL A   1      29.987  25.673  25.297  1.00  0.00     0.048 A 
ATOM     18  C   UNL A   1      32.135  23.878  25.667  1.00  0.00     0.012 A 
ATOM     19  C   UNL A   1      29.983  24.737  26.334  1.00  0.00     0.123 A 
ATOM     20  C   UNL A   1      31.036  23.843  26.522  1.00  0.00     0.040 A 
ATOM     21  F   UNL A   1      28.921  24.666  27.148  1.00  0.00    -0.207 F 
BRANCH  16  22
ATOM     22  C   UNL A   1      34.965  23.520  24.204  1.00  0.00    -0.021 A 
ATOM     23  C   UNL A   1      36.334  23.581  24.479  1.00  0.00     0.008 A 
ATOM     24  C   UNL A   1      34.204  22.454  24.706  1.00  0.00     0.054 A 
ATOM     25  C   UNL A   1      36.935  22.576  25.239  1.00  0.00     0.004 A 
ATOM     26  C   UNL A   1      34.791  21.463  25.496  1.00  0.00     0.120 A 
ATOM     27  C   UNL A   1      36.166  21.524  25.742  1.00  0.00     0.046 A 
BRANCH  26  28
ATOM     28  O   UNL A   1      34.152  20.399  26.071  1.00  0.00    -0.489 OA
BRANCH  28  29
ATOM     29  C   UNL A   1      32.985  19.867  25.434  1.00  0.00     0.265 C 
BRANCH  29  30
ATOM     30  C   UNL A   1      33.137  18.412  25.051  1.00  0.00    -0.011 A 
ATOM     31  C   UNL A   1      33.947  18.043  23.968  1.00  0.00     0.007 A 
ATOM     32  C   UNL A   1      32.504  17.405  25.794  1.00  0.00     0.007 A 
ATOM     33  C   UNL A   1      34.142  16.697  23.656  1.00  0.00     0.000 A 
ATOM     34  C   UNL A   1      32.719  16.059  25.497  1.00  0.00     0.000 A 
ATOM     35  C   UNL A   1      33.539  15.706  24.429  1.00  0.00     0.000 A 
ENDBRANCH  29  30
ENDBRANCH  28  29
ENDBRANCH  26  28
ENDBRANCH  16  22
ENDBRANCH   9  10
ENDBRANCH   7   9
ENDBRANCH   6   7
ENDBRANCH   5   6
ENDBRANCH   4   5
ENDBRANCH   3   4
ENDBRANCH   2   3
ENDBRANCH   1   2
BRANCH   1  36
ATOM     36  O   UNL A   1      32.903  32.560  27.388  1.00  0.00    -0.377 OA
BRANCH  36  37
ATOM     37  C   UNL A   1      33.218  33.785  28.003  1.00  0.00     0.188 C 
BRANCH  37  38
ATOM     38  C   UNL A   1      34.707  34.137  27.911  1.00  0.00     0.188 C 
BRANCH  38  39
ATOM     39  O   UNL A   1      35.220  34.736  29.100  1.00  0.00    -0.376 OA
BRANCH  39  40
ATOM     40  C   UNL A   1      36.181  33.981  29.832  1.00  0.00     0.202 C 
BRANCH  40  41
ATOM     41  C   UNL A   1      35.665  32.937  30.837  1.00  0.00     0.261 C 
BRANCH  41  42
ATOM     42  O   UNL A   1      36.161  31.600  30.697  1.00  0.00    -0.460 OA
BRANCH  42  43
ATOM     43  C   UNL A   1      36.885  31.063  31.697  1.00  0.00     0.338 C 
ATOM     44  O   UNL A   1      36.527  30.856  32.842  1.00  0.00    -0.246 OA
BRANCH  43  45
ATOM     45  C   UNL A   1      38.139  30.574  31.085  1.00  0.00     0.060 A 
ATOM     46  C   UNL A   1      38.256  30.472  29.694  1.00  0.00     0.016 A 
ATOM     47  C   UNL A   1      39.171  30.131  31.920  1.00  0.00     0.016 A 
ATOM     48  C   UNL A   1      39.416  29.934  29.138  1.00  0.00     0.010 A 
ATOM     49  C   UNL A   1      40.322  29.570  31.362  1.00  0.00     0.010 A 
ATOM     50  C   UNL A   1      40.459  29.490  29.969  1.00  0.00    -0.014 A 
BRANCH  50  51
ATOM     51  C   UNL A   1      41.777  29.156  29.382  1.00  0.00     0.031 A 
ATOM     52  C   UNL A   1      42.109  27.790  28.870  1.00  0.00     0.074 A 
ATOM     53  C   UNL A   1      42.693  30.141  29.353  1.00  0.00     0.049 A 
ATOM     54  N   UNL A   1      43.209  27.380  28.294  1.00  0.00    -0.248 NA
ATOM     55  C   UNL A   1      41.084  26.751  29.029  1.00  0.00     0.031 C 
ATOM     56  C   UNL A   1      42.467  31.500  29.851  1.00  0.00     0.029 A 
ATOM     57  N   UNL A   1      43.981  30.161  28.893  1.00  0.00    -0.354 N 
ATOM     58  C   UNL A   1      43.007  26.038  27.995  1.00  0.00     0.074 A 
ATOM     59  C   UNL A   1      41.693  25.694  28.502  1.00  0.00     0.031 C 
ATOM     60  C   UNL A   1      43.573  32.229  29.649  1.00  0.00     0.029 A 
ATOM     61  C   UNL A   1      44.590  31.384  29.031  1.00  0.00     0.049 A 
ATOM     62  H   UNL A   1      44.427  29.376  28.499  1.00  0.00     0.167 HD
ATOM     63  C   UNL A   1      43.840  25.186  27.344  1.00  0.00     0.037 A 
ATOM     64  C   UNL A   1      45.828  31.785  28.696  1.00  0.00     0.037 A 
ATOM     65  C   UNL A   1      45.161  25.544  26.883  1.00  0.00     0.049 A 
ATOM     66  C   UNL A   1      46.752  30.811  28.028  1.00  0.00     0.074 A 
ATOM     67  C   UNL A   1      46.076  24.763  26.196  1.00  0.00     0.029 A 
ATOM     68  N   UNL A   1      45.767  26.779  27.079  1.00  0.00    -0.354 N 
ATOM     69  N   UNL A   1      46.526  29.562  27.695  1.00  0.00    -0.248 NA
ATOM     70  C   UNL A   1      48.093  31.296  27.685  1.00  0.00     0.031 C 
ATOM     71  C   UNL A   1      47.248  25.508  26.023  1.00  0.00     0.029 A 
ATOM     72  C   UNL A   1      47.050  26.772  26.554  1.00  0.00     0.049 A 
ATOM     73  H   UNL A   1      45.344  27.548  27.526  1.00  0.00     0.167 HD
ATOM     74  C   UNL A   1      47.692  29.113  27.090  1.00  0.00     0.074 A 
ATOM     75  C   UNL A   1      48.616  30.232  27.090  1.00  0.00     0.031 C 
ATOM     76  C   UNL A   1      47.969  27.887  26.580  1.00  0.00     0.037 A 
BRANCH  63  77
ATOM     77  C   UNL A   1      43.347  23.784  27.098  1.00  0.00     0.058 A 
ATOM     78  C   UNL A   1      42.896  23.380  25.830  1.00  0.00     0.135 A 
ATOM     79  C   UNL A   1      43.357  22.821  28.120  1.00  0.00     0.135 A 
ATOM     80  F   UNL A   1      42.862  24.257  24.814  1.00  0.00    -0.206 F 
ATOM     81  C   UNL A   1      42.432  22.089  25.597  1.00  0.00     0.059 A 
ATOM     82  C   UNL A   1      42.922  21.516  27.904  1.00  0.00     0.059 A 
ATOM     83  F   UNL A   1      43.787  23.145  29.350  1.00  0.00    -0.206 F 
ATOM     84  C   UNL A   1      42.441  21.165  26.643  1.00  0.00     0.060 A 
BRANCH  84  85
ATOM     85  S   UNL A   1      41.797  19.508  26.330  1.00  0.00     0.124 S 
ATOM     86  O   UNL A   1      42.223  19.287  24.951  1.00  0.00    -0.237 OA
ATOM     87  O   UNL A   1      42.483  18.710  27.339  1.00  0.00    -0.237 OA
ATOM     88  O   UNL A   1      40.358  19.659  26.523  1.00  0.00    -0.744 OA
ENDBRANCH  84  85
ENDBRANCH  63  77
BRANCH  64  89
ATOM     89  C   UNL A   1      46.216  33.196  28.940  1.00  0.00     0.058 A 
ATOM     90  C   UNL A   1      46.800  33.575  30.155  1.00  0.00     0.135 A 
ATOM     91  C   UNL A   1      46.111  34.165  27.929  1.00  0.00     0.135 A 
ATOM     92  F   UNL A   1      46.920  32.681  31.148  1.00  0.00    -0.206 F 
ATOM     93  C   UNL A   1      47.281  34.862  30.359  1.00  0.00     0.059 A 
ATOM     94  C   UNL A   1      46.605  35.455  28.101  1.00  0.00     0.059 A 
ATOM     95  F   UNL A   1      45.580  33.843  26.739  1.00  0.00    -0.206 F 
ATOM     96  C   UNL A   1      47.191  35.791  29.320  1.00  0.00     0.060 A 
BRANCH  96  97
ATOM     97  S   UNL A   1      47.913  37.427  29.568  1.00  0.00     0.124 S 
ATOM     98  O   UNL A   1      49.291  37.094  29.910  1.00  0.00    -0.237 OA
ATOM     99  O   UNL A   1      47.711  38.050  28.263  1.00  0.00    -0.237 OA
ATOM    100  O   UNL A   1      47.113  37.989  30.653  1.00  0.00    -0.744 OA
ENDBRANCH  96  97
ENDBRANCH  64  89
BRANCH  76 101
ATOM    101  C   UNL A   1      49.334  27.686  25.982  1.00  0.00     0.058 A 
ATOM    102  C   UNL A   1      49.545  27.759  24.596  1.00  0.00     0.135 A 
ATOM    103  C   UNL A   1      50.452  27.469  26.804  1.00  0.00     0.135 A 
ATOM    104  F   UNL A   1      48.509  27.952  23.764  1.00  0.00    -0.206 F 
ATOM    105  C   UNL A   1      50.813  27.610  24.044  1.00  0.00     0.059 A 
ATOM    106  C   UNL A   1      51.734  27.344  26.275  1.00  0.00     0.059 A 
ATOM    107  F   UNL A   1      50.307  27.395  28.136  1.00  0.00    -0.206 F 
ATOM    108  C   UNL A   1      51.903  27.408  24.894  1.00  0.00     0.060 A 
BRANCH 108 109
ATOM    109  S   UNL A   1      53.549  27.262  24.164  1.00  0.00     0.124 S 
ATOM    110  O   UNL A   1      53.505  28.293  23.132  1.00  0.00    -0.237 OA
ATOM    111  O   UNL A   1      54.418  27.542  25.302  1.00  0.00    -0.237 OA
ATOM    112  O   UNL A   1      53.585  25.886  23.678  1.00  0.00    -0.744 OA
ENDBRANCH 108 109
ENDBRANCH  76 101
ENDBRANCH  50  51
ENDBRANCH  43  45
ENDBRANCH  42  43
ENDBRANCH  41  42
ENDBRANCH  40  41
ENDBRANCH  39  40
ENDBRANCH  38  39
ENDBRANCH  37  38
ENDBRANCH  36  37
ENDBRANCH   1  36
TORSDOF 28
ENDMDL
MODEL 2
REMARK VINA RESULT:      -9.9      5.436      8.307
REMARK SMILES CC1=C(CC(=O)OCCOCCOCCOCCOC(=O)c2ccc(-c3c4nc(c(-c5c(F)cc(S(=O)(=O)[O-])cc5F)c5ccc([nH]5)c(-c5c(F)cc(S(=O)(=O)[O-])cc5F)c5nc(c(-c6c(F)cc(S(=O)(=O)[O-])cc6F)c6ccc3[nH]6)C=C5)C=C4)cc2)c2cc(F)ccc2/C1=C\c1cccc(OCc2ccccc2)c1
REMARK SMILES IDX 12 1 11 2 10 3 9 4 8 5 7 6 5 7 6 8 4 9 3 10 1 11 2 12 95 13
REMARK SMILES IDX 88 14 94 15 96 16 89 17 93 18 90 19 92 20 91 21 97 22 98 23
REMARK SMILES IDX 110 24 99 25 101 26 100 27 102 28 103 29 104 30 105 31
REMARK SMILES IDX 109 32 106 33 108 34 107 35 13 36 14 37 15 38 16 39 17 40
REMARK SMILES IDX 18 41 19 42 20 43 21 44 22 45 23 46 87 47 24 48 86 49 25 50
REMARK SMILES IDX 26 51 27 52 80 53 28 54 85 55 79 56 81 57 29 58 84 59 78 60
REMARK SMILES IDX 77 61 30 63 64 64 43 65 63 66 44 67 47 68 62 69 82 70 45 71
REMARK SMILES IDX 46 72 61 74 83 75 48 76 31 77 32 78 41 79 33 80 34 81 40 82
REMARK SMILES IDX 42 83 35 84 36 85 37 86 38 87 39 88 65 89 66 90 75 91 67 92
REMARK SMILES IDX 68 93 74 94 76 95 69 96 70 97 71 98 72 99 73 100 49 101
REMARK SMILES IDX 50 102 59 103 51 104 52 105 58 106 60 107 53 108 54 109
REMARK SMILES IDX 55 110 56 111 57 112
REMARK H PARENT 81 62 47 73
REMARK Flexibility Score: inf
ROOT
ATOM      1  C   UNL A   1      35.187  29.435  27.715  1.00  0.00     0.188 C 
ENDROOT
BRANCH   1   2
ATOM      2  C   UNL A   1      33.807  29.282  27.042  1.00  0.00     0.188 C 
BRANCH   2   3
ATOM      3  O   UNL A   1      33.099  30.477  26.820  1.00  0.00    -0.376 OA
BRANCH   3   4
ATOM      4  C   UNL A   1      31.918  30.518  26.045  1.00  0.00     0.202 C 
BRANCH   4   5
ATOM      5  C   UNL A   1      31.614  29.636  24.815  1.00  0.00     0.261 C 
BRANCH   5   6
ATOM      6  O   UNL A   1      30.374  29.819  24.116  1.00  0.00    -0.463 OA
BRANCH   6   7
ATOM      7  C   UNL A   1      30.098  28.999  23.076  1.00  0.00     0.310 C 
ATOM      8  O   UNL A   1      30.134  29.354  21.902  1.00  0.00    -0.252 OA
BRANCH   7   9
ATOM      9  C   UNL A   1      29.727  27.559  23.474  1.00  0.00     0.159 C 
BRANCH   9  10
ATOM     10  C   UNL A   1      30.772  26.525  23.798  1.00  0.00    -0.025 C 
ATOM     11  C   UNL A   1      30.472  26.279  26.322  1.00  0.00     0.045 C 
ATOM     12  C   UNL A   1      31.087  25.975  24.996  1.00  0.00    -0.039 C 
ATOM     13  C   UNL A   1      32.155  24.969  24.832  1.00  0.00    -0.014 C 
ATOM     14  C   UNL A   1      31.589  25.827  22.777  1.00  0.00    -0.011 A 
ATOM     15  C   UNL A   1      32.469  24.917  23.397  1.00  0.00    -0.010 A 
ATOM     16  C   UNL A   1      32.702  24.246  25.828  1.00  0.00     0.017 C 
ATOM     17  C   UNL A   1      31.627  25.995  21.396  1.00  0.00     0.048 A 
ATOM     18  C   UNL A   1      33.418  24.214  22.660  1.00  0.00     0.012 A 
ATOM     19  C   UNL A   1      32.581  25.282  20.666  1.00  0.00     0.123 A 
ATOM     20  C   UNL A   1      33.473  24.403  21.281  1.00  0.00     0.040 A 
ATOM     21  F   UNL A   1      32.671  25.475  19.343  1.00  0.00    -0.207 F 
BRANCH  16  22
ATOM     22  C   UNL A   1      33.737  23.212  25.688  1.00  0.00    -0.021 A 
ATOM     23  C   UNL A   1      33.386  21.898  25.365  1.00  0.00     0.008 A 
ATOM     24  C   UNL A   1      35.083  23.534  25.913  1.00  0.00     0.054 A 
ATOM     25  C   UNL A   1      34.375  20.916  25.282  1.00  0.00     0.004 A 
ATOM     26  C   UNL A   1      36.082  22.565  25.798  1.00  0.00     0.120 A 
ATOM     27  C   UNL A   1      35.714  21.251  25.499  1.00  0.00     0.046 A 
BRANCH  26  28
ATOM     28  O   UNL A   1      37.426  22.763  25.957  1.00  0.00    -0.489 OA
BRANCH  28  29
ATOM     29  C   UNL A   1      38.329  21.722  25.567  1.00  0.00     0.265 C 
BRANCH  29  30
ATOM     30  C   UNL A   1      39.630  21.754  26.339  1.00  0.00    -0.011 A 
ATOM     31  C   UNL A   1      40.030  22.918  27.008  1.00  0.00     0.007 A 
ATOM     32  C   UNL A   1      40.437  20.610  26.431  1.00  0.00     0.007 A 
ATOM     33  C   UNL A   1      41.195  22.928  27.776  1.00  0.00     0.000 A 
ATOM     34  C   UNL A   1      41.588  20.614  27.219  1.00  0.00     0.000 A 
ATOM     35  C   UNL A   1      41.966  21.772  27.892  1.00  0.00     0.000 A 
ENDBRANCH  29  30
ENDBRANCH  28  29
ENDBRANCH  26  28
ENDBRANCH  16  22
ENDBRANCH   9  10
ENDBRANCH   7   9
ENDBRANCH   6   7
ENDBRANCH   5   6
ENDBRANCH   4   5
ENDBRANCH   3   4
ENDBRANCH   2   3
ENDBRANCH   1   2
BRANCH   1  36
ATOM     36  O   UNL A   1      35.907  30.649  27.843  1.00  0.00    -0.377 OA
BRANCH  36  37
ATOM     37  C   UNL A   1      37.254  30.590  28.240  1.00  0.00     0.188 C 
BRANCH  37  38
ATOM     38  C   UNL A   1      37.671  29.204  28.743  1.00  0.00     0.188 C 
BRANCH  38  39
ATOM     39  O   UNL A   1      38.867  28.719  28.134  1.00  0.00    -0.376 OA
BRANCH  39  40
ATOM     40  C   UNL A   1      39.294  27.415  28.515  1.00  0.00     0.202 C 
BRANCH  40  41
ATOM     41  C   UNL A   1      40.106  26.596  27.497  1.00  0.00     0.261 C 
BRANCH  41  42
ATOM     42  O   UNL A   1      41.164  27.277  26.811  1.00  0.00    -0.460 OA
BRANCH  42  43
ATOM     43  C   UNL A   1      42.018  26.564  26.054  1.00  0.00     0.338 C 
ATOM     44  O   UNL A   1      41.875  26.226  24.893  1.00  0.00    -0.246 OA
BRANCH  43  45
ATOM     45  C   UNL A   1      43.267  26.446  26.837  1.00  0.00     0.060 A 
ATOM     46  C   UNL A   1      43.887  25.202  27.000  1.00  0.00     0.016 A 
ATOM     47  C   UNL A   1      43.769  27.581  27.485  1.00  0.00     0.016 A 
ATOM     48  C   UNL A   1      45.019  25.097  27.807  1.00  0.00     0.010 A 
ATOM     49  C   UNL A   1      44.888  27.470  28.312  1.00  0.00     0.010 A 
ATOM     50  C   UNL A   1      45.532  26.232  28.459  1.00  0.00    -0.014 A 
BRANCH  50  51
ATOM     51  C   UNL A   1      46.863  26.172  29.105  1.00  0.00     0.031 A 
ATOM     52  C   UNL A   1      47.037  25.933  30.571  1.00  0.00     0.074 A 
ATOM     53  C   UNL A   1      47.929  26.376  28.311  1.00  0.00     0.049 A 
ATOM     54  N   UNL A   1      48.148  25.814  31.252  1.00  0.00    -0.248 NA
ATOM     55  C   UNL A   1      45.816  25.819  31.379  1.00  0.00     0.031 C 
ATOM     56  C   UNL A   1      47.856  26.640  26.872  1.00  0.00     0.029 A 
ATOM     57  N   UNL A   1      49.269  26.392  28.588  1.00  0.00    -0.354 N 
ATOM     58  C   UNL A   1      47.767  25.586  32.569  1.00  0.00     0.074 A 
ATOM     59  C   UNL A   1      46.318  25.633  32.595  1.00  0.00     0.031 C 
ATOM     60  C   UNL A   1      49.098  26.770  26.387  1.00  0.00     0.029 A 
ATOM     61  C   UNL A   1      50.051  26.623  27.483  1.00  0.00     0.049 A 
ATOM     62  H   UNL A   1      49.637  26.250  29.490  1.00  0.00     0.167 HD
ATOM     63  C   UNL A   1      48.559  25.345  33.644  1.00  0.00     0.037 A 
ATOM     64  C   UNL A   1      51.387  26.704  27.361  1.00  0.00     0.037 A 
ATOM     65  C   UNL A   1      50.003  25.342  33.599  1.00  0.00     0.049 A 
ATOM     66  C   UNL A   1      52.242  26.489  28.574  1.00  0.00     0.074 A 
ATOM     67  C   UNL A   1      50.897  25.088  34.625  1.00  0.00     0.029 A 
ATOM     68  N   UNL A   1      50.765  25.624  32.472  1.00  0.00    -0.354 N 
ATOM     69  N   UNL A   1      51.870  26.212  29.801  1.00  0.00    -0.248 NA
ATOM     70  C   UNL A   1      53.693  26.592  28.389  1.00  0.00     0.031 C 
ATOM     71  C   UNL A   1      52.195  25.267  34.132  1.00  0.00     0.029 A 
ATOM     72  C   UNL A   1      52.116  25.581  32.784  1.00  0.00     0.049 A 
ATOM     73  H   UNL A   1      50.399  25.825  31.580  1.00  0.00     0.167 HD
ATOM     74  C   UNL A   1      53.042  26.093  30.535  1.00  0.00     0.074 A 
ATOM     75  C   UNL A   1      54.136  26.314  29.609  1.00  0.00     0.031 C 
ATOM     76  C   UNL A   1      53.196  25.824  31.856  1.00  0.00     0.037 A 
BRANCH  63  77
ATOM     77  C   UNL A   1      47.880  25.069  34.961  1.00  0.00     0.058 A 
ATOM     78  C   UNL A   1      47.642  26.096  35.889  1.00  0.00     0.135 A 
ATOM     79  C   UNL A   1      47.429  23.780  35.288  1.00  0.00     0.135 A 
ATOM     80  F   UNL A   1      48.053  27.349  35.632  1.00  0.00    -0.206 F 
ATOM     81  C   UNL A   1      47.023  25.848  37.110  1.00  0.00     0.059 A 
ATOM     82  C   UNL A   1      46.783  23.513  36.494  1.00  0.00     0.059 A 
ATOM     83  F   UNL A   1      47.618  22.761  34.436  1.00  0.00    -0.206 F 
ATOM     84  C   UNL A   1      46.604  24.550  37.408  1.00  0.00     0.060 A 
BRANCH  84  85
ATOM     85  S   UNL A   1      45.840  24.242  39.014  1.00  0.00     0.124 S 
ATOM     86  O   UNL A   1      44.620  25.038  38.912  1.00  0.00    -0.237 OA
ATOM     87  O   UNL A   1      45.654  22.796  38.999  1.00  0.00    -0.237 OA
ATOM     88  O   UNL A   1      46.831  24.736  39.964  1.00  0.00    -0.744 OA
ENDBRANCH  84  85
ENDBRANCH  63  77
BRANCH  64  89
ATOM     89  C   UNL A   1      51.972  26.939  26.018  1.00  0.00     0.058 A 
ATOM     90  C   UNL A   1      52.395  25.863  25.227  1.00  0.00     0.135 A 
ATOM     91  C   UNL A   1      52.016  28.226  25.458  1.00  0.00     0.135 A 
ATOM     92  F   UNL A   1      52.369  24.617  25.721  1.00  0.00    -0.206 F 
ATOM     93  C   UNL A   1      52.831  26.051  23.921  1.00  0.00     0.059 A 
ATOM     94  C   UNL A   1      52.428  28.436  24.145  1.00  0.00     0.059 A 
ATOM     95  F   UNL A   1      51.599  29.285  26.170  1.00  0.00    -0.206 F 
ATOM     96  C   UNL A   1      52.830  27.340  23.385  1.00  0.00     0.060 A 
BRANCH  96  97
ATOM     97  S   UNL A   1      53.303  27.550  21.655  1.00  0.00     0.124 S 
ATOM     98  O   UNL A   1      52.040  27.297  20.971  1.00  0.00    -0.237 OA
ATOM     99  O   UNL A   1      53.775  28.931  21.635  1.00  0.00    -0.237 OA
ATOM    100  O   UNL A   1      54.338  26.538  21.462  1.00  0.00    -0.744 OA
ENDBRANCH  96  97
ENDBRANCH  64  89
BRANCH  76 101
ATOM    101  C   UNL A   1      54.603  25.758  32.383  1.00  0.00     0.058 A 
ATOM    102  C   UNL A   1      55.237  26.887  32.926  1.00  0.00     0.135 A 
ATOM    103  C   UNL A   1      55.308  24.543  32.393  1.00  0.00     0.135 A 
ATOM    104  F   UNL A   1      54.613  28.076  32.930  1.00  0.00    -0.206 F 
ATOM    105  C   UNL A   1      56.524  26.818  33.447  1.00  0.00     0.059 A 
ATOM    106  C   UNL A   1      56.587  24.445  32.934  1.00  0.00     0.059 A 
ATOM    107  F   UNL A   1      54.747  23.432  31.890  1.00  0.00    -0.206 F 
ATOM    108  C   UNL A   1      57.190  25.590  33.451  1.00  0.00     0.060 A 
BRANCH 108 109
ATOM    109  S   UNL A   1      58.843  25.509  34.173  1.00  0.00     0.124 S 
ATOM    110  O   UNL A   1      58.538  25.311  35.586  1.00  0.00    -0.237 OA
ATOM    111  O   UNL A   1      59.426  24.362  33.484  1.00  0.00    -0.237 OA
ATOM    112  O   UNL A   1      59.428  26.802  33.831  1.00  0.00    -0.744 OA
ENDBRANCH 108 109
ENDBRANCH  76 101
ENDBRANCH  50  51
ENDBRANCH  43  45
ENDBRANCH  42  43
ENDBRANCH  41  42
ENDBRANCH  40  41
ENDBRANCH  39  40
ENDBRANCH  38  39
ENDBRANCH  37  38
ENDBRANCH  36  37
ENDBRANCH   1  36
TORSDOF 28
ENDMDL
MODEL 3
REMARK VINA RESULT:      -9.8      4.122      9.801
REMARK SMILES CC1=C(CC(=O)OCCOCCOCCOCCOC(=O)c2ccc(-c3c4nc(c(-c5c(F)cc(S(=O)(=O)[O-])cc5F)c5ccc([nH]5)c(-c5c(F)cc(S(=O)(=O)[O-])cc5F)c5nc(c(-c6c(F)cc(S(=O)(=O)[O-])cc6F)c6ccc3[nH]6)C=C5)C=C4)cc2)c2cc(F)ccc2/C1=C\c1cccc(OCc2ccccc2)c1
REMARK SMILES IDX 12 1 11 2 10 3 9 4 8 5 7 6 5 7 6 8 4 9 3 10 1 11 2 12 95 13
REMARK SMILES IDX 88 14 94 15 96 16 89 17 93 18 90 19 92 20 91 21 97 22 98 23
REMARK SMILES IDX 110 24 99 25 101 26 100 27 102 28 103 29 104 30 105 31
REMARK SMILES IDX 109 32 106 33 108 34 107 35 13 36 14 37 15 38 16 39 17 40
REMARK SMILES IDX 18 41 19 42 20 43 21 44 22 45 23 46 87 47 24 48 86 49 25 50
REMARK SMILES IDX 26 51 27 52 80 53 28 54 85 55 79 56 81 57 29 58 84 59 78 60
REMARK SMILES IDX 77 61 30 63 64 64 43 65 63 66 44 67 47 68 62 69 82 70 45 71
REMARK SMILES IDX 46 72 61 74 83 75 48 76 31 77 32 78 41 79 33 80 34 81 40 82
REMARK SMILES IDX 42 83 35 84 36 85 37 86 38 87 39 88 65 89 66 90 75 91 67 92
REMARK SMILES IDX 68 93 74 94 76 95 69 96 70 97 71 98 72 99 73 100 49 101
REMARK SMILES IDX 50 102 59 103 51 104 52 105 58 106 60 107 53 108 54 109
REMARK SMILES IDX 55 110 56 111 57 112
REMARK H PARENT 81 62 47 73
REMARK Flexibility Score: inf
ROOT
ATOM      1  C   UNL A   1      35.973  29.396  27.965  1.00  0.00     0.188 C 
ENDROOT
BRANCH   1   2
ATOM      2  C   UNL A   1      34.768  29.480  27.005  1.00  0.00     0.188 C 
BRANCH   2   3
ATOM      3  O   UNL A   1      33.657  30.202  27.480  1.00  0.00    -0.376 OA
BRANCH   3   4
ATOM      4  C   UNL A   1      32.462  30.316  26.736  1.00  0.00     0.202 C 
BRANCH   4   5
ATOM      5  C   UNL A   1      32.244  29.811  25.293  1.00  0.00     0.261 C 
BRANCH   5   6
ATOM      6  O   UNL A   1      30.938  29.918  24.707  1.00  0.00    -0.463 OA
BRANCH   6   7
ATOM      7  C   UNL A   1      30.660  29.159  23.623  1.00  0.00     0.310 C 
ATOM      8  O   UNL A   1      30.721  29.574  22.469  1.00  0.00    -0.252 OA
BRANCH   7   9
ATOM      9  C   UNL A   1      30.251  27.709  23.940  1.00  0.00     0.159 C 
BRANCH   9  10
ATOM     10  C   UNL A   1      31.269  26.620  24.146  1.00  0.00    -0.025 C 
ATOM     11  C   UNL A   1      31.315  26.450  26.694  1.00  0.00     0.045 C 
ATOM     12  C   UNL A   1      31.718  26.078  25.306  1.00  0.00    -0.039 C 
ATOM     13  C   UNL A   1      32.691  25.004  25.025  1.00  0.00    -0.014 C 
ATOM     14  C   UNL A   1      31.891  25.849  23.043  1.00  0.00    -0.011 A 
ATOM     15  C   UNL A   1      32.795  24.900  23.562  1.00  0.00    -0.010 A 
ATOM     16  C   UNL A   1      33.329  24.271  25.957  1.00  0.00     0.017 C 
ATOM     17  C   UNL A   1      31.743  25.983  21.667  1.00  0.00     0.048 A 
ATOM     18  C   UNL A   1      33.587  24.122  22.722  1.00  0.00     0.012 A 
ATOM     19  C   UNL A   1      32.540  25.195  20.833  1.00  0.00     0.123 A 
ATOM     20  C   UNL A   1      33.457  24.277  21.344  1.00  0.00     0.040 A 
ATOM     21  F   UNL A   1      32.454  25.352  19.505  1.00  0.00    -0.207 F 
BRANCH  16  22
ATOM     22  C   UNL A   1      34.271  23.171  25.706  1.00  0.00    -0.021 A 
ATOM     23  C   UNL A   1      33.802  21.903  25.355  1.00  0.00     0.008 A 
ATOM     24  C   UNL A   1      35.650  23.384  25.853  1.00  0.00     0.054 A 
ATOM     25  C   UNL A   1      34.705  20.856  25.167  1.00  0.00     0.004 A 
ATOM     26  C   UNL A   1      36.562  22.350  25.631  1.00  0.00     0.120 A 
ATOM     27  C   UNL A   1      36.077  21.081  25.306  1.00  0.00     0.046 A 
BRANCH  26  28
ATOM     28  O   UNL A   1      37.925  22.442  25.707  1.00  0.00    -0.489 OA
BRANCH  28  29
ATOM     29  C   UNL A   1      38.706  21.244  25.612  1.00  0.00     0.265 C 
BRANCH  29  30
ATOM     30  C   UNL A   1      40.014  21.335  26.365  1.00  0.00    -0.011 A 
ATOM     31  C   UNL A   1      41.033  20.400  26.134  1.00  0.00     0.007 A 
ATOM     32  C   UNL A   1      40.247  22.376  27.276  1.00  0.00     0.007 A 
ATOM     33  C   UNL A   1      42.265  20.522  26.777  1.00  0.00     0.000 A 
ATOM     34  C   UNL A   1      41.487  22.511  27.899  1.00  0.00     0.000 A 
ATOM     35  C   UNL A   1      42.496  21.585  27.648  1.00  0.00     0.000 A 
ENDBRANCH  29  30
ENDBRANCH  28  29
ENDBRANCH  26  28
ENDBRANCH  16  22
ENDBRANCH   9  10
ENDBRANCH   7   9
ENDBRANCH   6   7
ENDBRANCH   5   6
ENDBRANCH   4   5
ENDBRANCH   3   4
ENDBRANCH   2   3
ENDBRANCH   1   2
BRANCH   1  36
ATOM     36  O   UNL A   1      36.986  30.379  28.097  1.00  0.00    -0.377 OA
BRANCH  36  37
ATOM     37  C   UNL A   1      38.317  29.952  28.247  1.00  0.00     0.188 C 
BRANCH  37  38
ATOM     38  C   UNL A   1      38.440  28.446  28.495  1.00  0.00     0.188 C 
BRANCH  38  39
ATOM     39  O   UNL A   1      39.455  27.825  27.706  1.00  0.00    -0.376 OA
BRANCH  39  40
ATOM     40  C   UNL A   1      39.650  26.428  27.901  1.00  0.00     0.202 C 
BRANCH  40  41
ATOM     41  C   UNL A   1      39.893  25.553  26.659  1.00  0.00     0.261 C 
BRANCH  41  42
ATOM     42  O   UNL A   1      40.751  26.090  25.645  1.00  0.00    -0.460 OA
BRANCH  42  43
ATOM     43  C   UNL A   1      42.084  25.962  25.780  1.00  0.00     0.338 C 
ATOM     44  O   UNL A   1      42.788  25.059  25.364  1.00  0.00    -0.246 OA
BRANCH  43  45
ATOM     45  C   UNL A   1      42.568  27.237  26.351  1.00  0.00     0.060 A 
ATOM     46  C   UNL A   1      42.212  28.456  25.763  1.00  0.00     0.016 A 
ATOM     47  C   UNL A   1      43.458  27.201  27.430  1.00  0.00     0.016 A 
ATOM     48  C   UNL A   1      42.742  29.644  26.267  1.00  0.00     0.010 A 
ATOM     49  C   UNL A   1      44.007  28.388  27.918  1.00  0.00     0.010 A 
ATOM     50  C   UNL A   1      43.633  29.617  27.353  1.00  0.00    -0.014 A 
BRANCH  50  51
ATOM     51  C   UNL A   1      43.995  30.877  28.041  1.00  0.00     0.031 A 
ATOM     52  C   UNL A   1      45.280  31.598  27.781  1.00  0.00     0.074 A 
ATOM     53  C   UNL A   1      43.119  31.343  28.949  1.00  0.00     0.049 A 
ATOM     54  N   UNL A   1      45.697  32.732  28.284  1.00  0.00    -0.248 NA
ATOM     55  C   UNL A   1      46.221  30.967  26.847  1.00  0.00     0.031 C 
ATOM     56  C   UNL A   1      41.849  30.696  29.287  1.00  0.00     0.029 A 
ATOM     57  N   UNL A   1      43.152  32.455  29.746  1.00  0.00    -0.354 N 
ATOM     58  C   UNL A   1      46.940  32.970  27.712  1.00  0.00     0.074 A 
ATOM     59  C   UNL A   1      47.229  31.833  26.860  1.00  0.00     0.031 C 
ATOM     60  C   UNL A   1      41.213  31.433  30.207  1.00  0.00     0.029 A 
ATOM     61  C   UNL A   1      42.040  32.589  30.540  1.00  0.00     0.049 A 
ATOM     62  H   UNL A   1      43.899  33.096  29.750  1.00  0.00     0.167 HD
ATOM     63  C   UNL A   1      47.748  34.048  27.876  1.00  0.00     0.037 A 
ATOM     64  C   UNL A   1      41.716  33.538  31.435  1.00  0.00     0.037 A 
ATOM     65  C   UNL A   1      47.454  35.151  28.761  1.00  0.00     0.049 A 
ATOM     66  C   UNL A   1      42.651  34.692  31.641  1.00  0.00     0.074 A 
ATOM     67  C   UNL A   1      48.196  36.299  28.984  1.00  0.00     0.029 A 
ATOM     68  N   UNL A   1      46.339  35.235  29.586  1.00  0.00    -0.354 N 
ATOM     69  N   UNL A   1      43.795  34.937  31.047  1.00  0.00    -0.248 NA
ATOM     70  C   UNL A   1      42.254  35.699  32.631  1.00  0.00     0.031 C 
ATOM     71  C   UNL A   1      47.556  37.050  29.977  1.00  0.00     0.029 A 
ATOM     72  C   UNL A   1      46.387  36.398  30.339  1.00  0.00     0.049 A 
ATOM     73  H   UNL A   1      45.619  34.565  29.628  1.00  0.00     0.167 HD
ATOM     74  C   UNL A   1      44.250  36.135  31.581  1.00  0.00     0.074 A 
ATOM     75  C   UNL A   1      43.249  36.572  32.535  1.00  0.00     0.031 C 
ATOM     76  C   UNL A   1      45.393  36.811  31.303  1.00  0.00     0.037 A 
BRANCH  63  77
ATOM     77  C   UNL A   1      49.030  34.083  27.085  1.00  0.00     0.058 A 
ATOM     78  C   UNL A   1      50.239  33.622  27.631  1.00  0.00     0.135 A 
ATOM     79  C   UNL A   1      49.052  34.545  25.758  1.00  0.00     0.135 A 
ATOM     80  F   UNL A   1      50.282  33.171  28.895  1.00  0.00    -0.206 F 
ATOM     81  C   UNL A   1      51.428  33.658  26.909  1.00  0.00     0.059 A 
ATOM     82  C   UNL A   1      50.225  34.566  25.007  1.00  0.00     0.059 A 
ATOM     83  F   UNL A   1      47.925  34.988  25.179  1.00  0.00    -0.206 F 
ATOM     84  C   UNL A   1      51.413  34.140  25.599  1.00  0.00     0.060 A 
BRANCH  84  85
ATOM     85  S   UNL A   1      52.973  34.218  24.695  1.00  0.00     0.124 S 
ATOM     86  O   UNL A   1      53.799  35.001  25.609  1.00  0.00    -0.237 OA
ATOM     87  O   UNL A   1      53.331  32.809  24.568  1.00  0.00    -0.237 OA
ATOM     88  O   UNL A   1      52.613  34.887  23.448  1.00  0.00    -0.744 OA
ENDBRANCH  84  85
ENDBRANCH  63  77
BRANCH  64  89
ATOM     89  C   UNL A   1      40.414  33.444  32.141  1.00  0.00     0.058 A 
ATOM     90  C   UNL A   1      40.321  32.802  33.382  1.00  0.00     0.135 A 
ATOM     91  C   UNL A   1      39.268  34.086  31.643  1.00  0.00     0.135 A 
ATOM     92  F   UNL A   1      41.391  32.177  33.895  1.00  0.00    -0.206 F 
ATOM     93  C   UNL A   1      39.141  32.808  34.115  1.00  0.00     0.059 A 
ATOM     94  C   UNL A   1      38.081  34.125  32.369  1.00  0.00     0.059 A 
ATOM     95  F   UNL A   1      39.316  34.734  30.469  1.00  0.00    -0.206 F 
ATOM     96  C   UNL A   1      38.031  33.485  33.606  1.00  0.00     0.060 A 
BRANCH  96  97
ATOM     97  S   UNL A   1      36.539  33.568  34.619  1.00  0.00     0.124 S 
ATOM     98  O   UNL A   1      35.705  32.542  34.003  1.00  0.00    -0.237 OA
ATOM     99  O   UNL A   1      37.056  33.257  35.949  1.00  0.00    -0.237 OA
ATOM    100  O   UNL A   1      36.083  34.944  34.438  1.00  0.00    -0.744 OA
ENDBRANCH  96  97
ENDBRANCH  64  89
BRANCH  76 101
ATOM    101  C   UNL A   1      45.628  38.097  32.047  1.00  0.00     0.058 A 
ATOM    102  C   UNL A   1      45.127  39.320  31.573  1.00  0.00     0.135 A 
ATOM    103  C   UNL A   1      46.315  38.101  33.271  1.00  0.00     0.135 A 
ATOM    104  F   UNL A   1      44.473  39.374  30.401  1.00  0.00    -0.206 F 
ATOM    105  C   UNL A   1      45.311  40.504  32.279  1.00  0.00     0.059 A 
ATOM    106  C   UNL A   1      46.487  39.270  34.008  1.00  0.00     0.059 A 
ATOM    107  F   UNL A   1      46.810  36.959  33.773  1.00  0.00    -0.206 F 
ATOM    108  C   UNL A   1      45.988  40.467  33.499  1.00  0.00     0.060 A 
BRANCH 108 109
ATOM    109  S   UNL A   1      46.179  42.006  34.425  1.00  0.00     0.124 S 
ATOM    110  O   UNL A   1      45.543  41.668  35.694  1.00  0.00    -0.237 OA
ATOM    111  O   UNL A   1      47.629  42.165  34.466  1.00  0.00    -0.237 OA
ATOM    112  O   UNL A   1      45.470  42.986  33.608  1.00  0.00    -0.744 OA
ENDBRANCH 108 109
ENDBRANCH  76 101
ENDBRANCH  50  51
ENDBRANCH  43  45
ENDBRANCH  42  43
ENDBRANCH  41  42
ENDBRANCH  40  41
ENDBRANCH  39  40
ENDBRANCH  38  39
ENDBRANCH  37  38
ENDBRANCH  36  37
ENDBRANCH   1  36
TORSDOF 28
ENDMDL
