MODEL 1
REMARK VINA RESULT:     -10.6      0.000      0.000
REMARK SMILES Cc1cc(Cl)c2c(c1)C=C(C(=O)OCCOCCOCCOCCOC(=O)c1ccc(-c3c4nc(c(-c5c(F)cc(S(=O)(=O)[O-])cc5F)c5ccc([nH]5)c(-c5c(F)cc(S(=O)(=O)[O-])cc5F)c5nc(c(-c6c(F)cc(S(=O)(=O)[O-])cc6F)c6ccc3[nH]6)C=C5)C=C4)cc1)[C@@H](C(F)(F)F)O2
REMARK SMILES IDX 20 1 19 2 18 3 17 4 16 5 15 6 14 7 13 8 11 9 12 10 10 11
REMARK SMILES IDX 1 12 2 13 3 14 8 15 4 16 7 17 5 18 6 19 9 20 99 21 94 22
REMARK SMILES IDX 95 23 96 24 97 25 98 26 21 27 22 28 23 29 24 30 25 31 26 32
REMARK SMILES IDX 27 33 28 34 29 35 93 36 30 37 92 38 31 39 32 40 33 41 86 42
REMARK SMILES IDX 34 43 91 44 85 45 87 46 35 47 90 48 84 49 83 50 36 52 70 53
REMARK SMILES IDX 49 54 69 55 50 56 53 57 68 58 88 59 51 60 52 61 67 63 89 64
REMARK SMILES IDX 54 65 37 66 38 67 47 68 39 69 40 70 46 71 48 72 41 73 42 74
REMARK SMILES IDX 43 75 44 76 45 77 71 78 72 79 81 80 73 81 74 82 80 83 82 84
REMARK SMILES IDX 75 85 76 86 77 87 78 88 79 89 55 90 56 91 65 92 57 93 58 94
REMARK SMILES IDX 64 95 66 96 59 97 60 98 61 99 62 100 63 101
REMARK H PARENT 87 51 53 62
REMARK Flexibility Score: inf
ROOT
ATOM      1  C   UNL A   1      38.732  23.279  26.315  1.00  0.00     0.188 C 
ENDROOT
BRANCH   1   2
ATOM      2  O   UNL A   1      37.680  23.626  25.411  1.00  0.00    -0.377 OA
BRANCH   2   3
ATOM      3  C   UNL A   1      36.943  22.572  24.817  1.00  0.00     0.188 C 
BRANCH   3   4
ATOM      4  C   UNL A   1      36.299  22.968  23.475  1.00  0.00     0.188 C 
BRANCH   4   5
ATOM      5  O   UNL A   1      34.894  22.798  23.442  1.00  0.00    -0.376 OA
BRANCH   5   6
ATOM      6  C   UNL A   1      34.004  23.895  23.583  1.00  0.00     0.202 C 
BRANCH   6   7
ATOM      7  C   UNL A   1      33.236  24.576  22.433  1.00  0.00     0.261 C 
BRANCH   7   8
ATOM      8  O   UNL A   1      33.274  26.001  22.361  1.00  0.00    -0.460 OA
BRANCH   8   9
ATOM      9  C   UNL A   1      32.986  26.693  23.476  1.00  0.00     0.338 C 
ATOM     10  O   UNL A   1      33.757  27.013  24.363  1.00  0.00    -0.246 OA
BRANCH   9  11
ATOM     11  C   UNL A   1      31.593  27.177  23.348  1.00  0.00     0.087 C 
ATOM     12  C   UNL A   1      28.384  31.999  21.288  1.00  0.00     0.044 C 
ATOM     13  C   UNL A   1      28.574  30.638  21.888  1.00  0.00    -0.049 A 
ATOM     14  C   UNL A   1      27.512  29.959  22.493  1.00  0.00     0.028 A 
ATOM     15  C   UNL A   1      29.849  30.062  21.915  1.00  0.00     0.015 A 
ATOM     16  C   UNL A   1      27.717  28.707  23.083  1.00  0.00     0.084 A 
ATOM     17  C   UNL A   1      30.065  28.832  22.550  1.00  0.00     0.019 A 
ATOM     18  Cl  UNL A   1      26.362  27.921  23.813  1.00  0.00    -0.080 Cl
ATOM     19  C   UNL A   1      28.995  28.133  23.112  1.00  0.00     0.146 A 
ATOM     20  C   UNL A   1      31.419  28.324  22.684  1.00  0.00     0.027 C 
ATOM     21  O   UNL A   1      29.137  26.909  23.704  1.00  0.00    -0.474 OA
ATOM     22  C   UNL A   1      30.461  26.340  23.889  1.00  0.00     0.316 C 
BRANCH  22  23
ATOM     23  C   UNL A   1      30.646  26.023  25.380  1.00  0.00     0.430 C 
ATOM     24  F   UNL A   1      31.558  25.042  25.568  1.00  0.00    -0.167 F 
ATOM     25  F   UNL A   1      31.072  27.101  26.076  1.00  0.00    -0.167 F 
ATOM     26  F   UNL A   1      29.485  25.612  25.943  1.00  0.00    -0.167 F 
ENDBRANCH  22  23
ENDBRANCH   9  11
ENDBRANCH   8   9
ENDBRANCH   7   8
ENDBRANCH   6   7
ENDBRANCH   5   6
ENDBRANCH   4   5
ENDBRANCH   3   4
ENDBRANCH   2   3
ENDBRANCH   1   2
BRANCH   1  27
ATOM     27  C   UNL A   1      39.486  21.932  26.204  1.00  0.00     0.188 C 
BRANCH  27  28
ATOM     28  O   UNL A   1      40.707  21.881  26.933  1.00  0.00    -0.376 OA
BRANCH  28  29
ATOM     29  C   UNL A   1      41.911  21.724  26.200  1.00  0.00     0.202 C 
BRANCH  29  30
ATOM     30  C   UNL A   1      42.705  23.012  25.944  1.00  0.00     0.261 C 
BRANCH  30  31
ATOM     31  O   UNL A   1      42.388  24.116  26.802  1.00  0.00    -0.460 OA
BRANCH  31  32
ATOM     32  C   UNL A   1      42.256  25.332  26.227  1.00  0.00     0.338 C 
ATOM     33  O   UNL A   1      42.284  25.587  25.035  1.00  0.00    -0.246 OA
BRANCH  32  34
ATOM     34  C   UNL A   1      41.869  26.283  27.288  1.00  0.00     0.060 A 
ATOM     35  C   UNL A   1      42.629  27.446  27.469  1.00  0.00     0.016 A 
ATOM     36  C   UNL A   1      40.750  26.034  28.086  1.00  0.00     0.016 A 
ATOM     37  C   UNL A   1      42.286  28.350  28.474  1.00  0.00     0.010 A 
ATOM     38  C   UNL A   1      40.423  26.928  29.107  1.00  0.00     0.010 A 
ATOM     39  C   UNL A   1      41.208  28.073  29.327  1.00  0.00    -0.014 A 
BRANCH  39  40
ATOM     40  C   UNL A   1      41.043  28.853  30.576  1.00  0.00     0.031 A 
ATOM     41  C   UNL A   1      39.951  29.888  30.620  1.00  0.00     0.074 A 
ATOM     42  C   UNL A   1      41.818  28.635  31.653  1.00  0.00     0.049 A 
ATOM     43  N   UNL A   1      39.631  30.718  31.577  1.00  0.00    -0.248 NA
ATOM     44  C   UNL A   1      39.103  29.998  29.420  1.00  0.00     0.031 C 
ATOM     45  C   UNL A   1      42.873  27.628  31.747  1.00  0.00     0.029 A 
ATOM     46  N   UNL A   1      41.835  29.255  32.878  1.00  0.00    -0.354 N 
ATOM     47  C   UNL A   1      38.547  31.443  31.099  1.00  0.00     0.074 A 
ATOM     48  C   UNL A   1      38.284  30.983  29.754  1.00  0.00     0.031 C 
ATOM     49  C   UNL A   1      43.438  27.701  32.965  1.00  0.00     0.029 A 
ATOM     50  C   UNL A   1      42.808  28.782  33.725  1.00  0.00     0.049 A 
ATOM     51  H   UNL A   1      41.208  29.973  33.126  1.00  0.00     0.167 HD
ATOM     52  C   UNL A   1      37.824  32.396  31.731  1.00  0.00     0.037 A 
ATOM     53  C   UNL A   1      43.158  29.187  34.963  1.00  0.00     0.037 A 
ATOM     54  C   UNL A   1      38.094  32.855  33.067  1.00  0.00     0.049 A 
ATOM     55  C   UNL A   1      42.400  30.320  35.610  1.00  0.00     0.074 A 
ATOM     56  C   UNL A   1      37.421  33.819  33.795  1.00  0.00     0.029 A 
ATOM     57  N   UNL A   1      39.122  32.389  33.872  1.00  0.00    -0.354 N 
ATOM     58  N   UNL A   1      41.369  30.993  35.153  1.00  0.00    -0.248 NA
ATOM     59  C   UNL A   1      42.852  30.753  36.941  1.00  0.00     0.031 C 
ATOM     60  C   UNL A   1      38.075  33.974  35.021  1.00  0.00     0.029 A 
ATOM     61  C   UNL A   1      39.119  33.065  35.080  1.00  0.00     0.049 A 
ATOM     62  H   UNL A   1      39.760  31.682  33.622  1.00  0.00     0.167 HD
ATOM     63  C   UNL A   1      41.036  31.907  36.148  1.00  0.00     0.074 A 
ATOM     64  C   UNL A   1      41.966  31.694  37.237  1.00  0.00     0.031 C 
ATOM     65  C   UNL A   1      40.050  32.838  36.159  1.00  0.00     0.037 A 
BRANCH  52  66
ATOM     66  C   UNL A   1      36.681  33.019  30.979  1.00  0.00     0.058 A 
ATOM     67  C   UNL A   1      35.346  32.720  31.291  1.00  0.00     0.135 A 
ATOM     68  C   UNL A   1      36.923  33.962  29.968  1.00  0.00     0.135 A 
ATOM     69  F   UNL A   1      35.059  31.806  32.233  1.00  0.00    -0.206 F 
ATOM     70  C   UNL A   1      34.290  33.324  30.617  1.00  0.00     0.059 A 
ATOM     71  C   UNL A   1      35.882  34.599  29.300  1.00  0.00     0.059 A 
ATOM     72  F   UNL A   1      38.182  34.277  29.625  1.00  0.00    -0.206 F 
ATOM     73  C   UNL A   1      34.568  34.268  29.627  1.00  0.00     0.060 A 
BRANCH  73  74
ATOM     74  S   UNL A   1      33.184  35.057  28.781  1.00  0.00     0.124 S 
ATOM     75  O   UNL A   1      32.295  35.363  29.898  1.00  0.00    -0.237 OA
ATOM     76  O   UNL A   1      33.824  36.205  28.148  1.00  0.00    -0.237 OA
ATOM     77  O   UNL A   1      32.707  34.024  27.867  1.00  0.00    -0.744 OA
ENDBRANCH  73  74
ENDBRANCH  52  66
BRANCH  53  78
ATOM     78  C   UNL A   1      44.283  28.521  35.675  1.00  0.00     0.058 A 
ATOM     79  C   UNL A   1      44.051  27.461  36.564  1.00  0.00     0.135 A 
ATOM     80  C   UNL A   1      45.614  28.927  35.479  1.00  0.00     0.135 A 
ATOM     81  F   UNL A   1      42.796  27.046  36.798  1.00  0.00    -0.206 F 
ATOM     82  C   UNL A   1      45.092  26.829  37.236  1.00  0.00     0.059 A 
ATOM     83  C   UNL A   1      46.675  28.295  36.120  1.00  0.00     0.059 A 
ATOM     84  F   UNL A   1      45.892  29.935  34.638  1.00  0.00    -0.206 F 
ATOM     85  C   UNL A   1      46.403  27.249  37.001  1.00  0.00     0.060 A 
BRANCH  85  86
ATOM     86  S   UNL A   1      47.748  26.381  37.838  1.00  0.00     0.124 S 
ATOM     87  O   UNL A   1      48.128  25.389  36.838  1.00  0.00    -0.237 OA
ATOM     88  O   UNL A   1      48.707  27.458  38.065  1.00  0.00    -0.237 OA
ATOM     89  O   UNL A   1      47.112  25.853  39.041  1.00  0.00    -0.744 OA
ENDBRANCH  85  86
ENDBRANCH  53  78
BRANCH  65  90
ATOM     90  C   UNL A   1      39.900  33.692  37.389  1.00  0.00     0.058 A 
ATOM     91  C   UNL A   1      40.553  34.928  37.514  1.00  0.00     0.135 A 
ATOM     92  C   UNL A   1      39.020  33.311  38.417  1.00  0.00     0.135 A 
ATOM     93  F   UNL A   1      41.406  35.339  36.562  1.00  0.00    -0.206 F 
ATOM     94  C   UNL A   1      40.351  35.749  38.617  1.00  0.00     0.059 A 
ATOM     95  C   UNL A   1      38.780  34.131  39.517  1.00  0.00     0.059 A 
ATOM     96  F   UNL A   1      38.358  32.145  38.344  1.00  0.00    -0.206 F 
ATOM     97  C   UNL A   1      39.456  35.345  39.611  1.00  0.00     0.060 A 
BRANCH  97  98
ATOM     98  S   UNL A   1      39.170  36.446  41.013  1.00  0.00     0.124 S 
ATOM     99  O   UNL A   1      38.204  35.681  41.796  1.00  0.00    -0.237 OA
ATOM    100  O   UNL A   1      40.504  36.564  41.594  1.00  0.00    -0.237 OA
ATOM    101  O   UNL A   1      38.651  37.661  40.393  1.00  0.00    -0.744 OA
ENDBRANCH  97  98
ENDBRANCH  65  90
ENDBRANCH  39  40
ENDBRANCH  32  34
ENDBRANCH  31  32
ENDBRANCH  30  31
ENDBRANCH  29  30
ENDBRANCH  28  29
ENDBRANCH  27  28
ENDBRANCH   1  27
TORSDOF 24
ENDMDL
MODEL 2
REMARK VINA RESULT:     -10.5      1.593      2.551
REMARK SMILES Cc1cc(Cl)c2c(c1)C=C(C(=O)OCCOCCOCCOCCOC(=O)c1ccc(-c3c4nc(c(-c5c(F)cc(S(=O)(=O)[O-])cc5F)c5ccc([nH]5)c(-c5c(F)cc(S(=O)(=O)[O-])cc5F)c5nc(c(-c6c(F)cc(S(=O)(=O)[O-])cc6F)c6ccc3[nH]6)C=C5)C=C4)cc1)[C@@H](C(F)(F)F)O2
REMARK SMILES IDX 20 1 19 2 18 3 17 4 16 5 15 6 14 7 13 8 11 9 12 10 10 11
REMARK SMILES IDX 1 12 2 13 3 14 8 15 4 16 7 17 5 18 6 19 9 20 99 21 94 22
REMARK SMILES IDX 95 23 96 24 97 25 98 26 21 27 22 28 23 29 24 30 25 31 26 32
REMARK SMILES IDX 27 33 28 34 29 35 93 36 30 37 92 38 31 39 32 40 33 41 86 42
REMARK SMILES IDX 34 43 91 44 85 45 87 46 35 47 90 48 84 49 83 50 36 52 70 53
REMARK SMILES IDX 49 54 69 55 50 56 53 57 68 58 88 59 51 60 52 61 67 63 89 64
REMARK SMILES IDX 54 65 37 66 38 67 47 68 39 69 40 70 46 71 48 72 41 73 42 74
REMARK SMILES IDX 43 75 44 76 45 77 71 78 72 79 81 80 73 81 74 82 80 83 82 84
REMARK SMILES IDX 75 85 76 86 77 87 78 88 79 89 55 90 56 91 65 92 57 93 58 94
REMARK SMILES IDX 64 95 66 96 59 97 60 98 61 99 62 100 63 101
REMARK H PARENT 87 51 53 62
REMARK Flexibility Score: inf
ROOT
ATOM      1  C   UNL A   1      39.076  22.004  25.998  1.00  0.00     0.188 C 
ENDROOT
BRANCH   1   2
ATOM      2  O   UNL A   1      38.051  21.766  25.031  1.00  0.00    -0.377 OA
BRANCH   2   3
ATOM      3  C   UNL A   1      36.734  21.540  25.503  1.00  0.00     0.188 C 
BRANCH   3   4
ATOM      4  C   UNL A   1      36.153  20.189  25.047  1.00  0.00     0.188 C 
BRANCH   4   5
ATOM      5  O   UNL A   1      34.764  20.224  24.776  1.00  0.00    -0.376 OA
BRANCH   5   6
ATOM      6  C   UNL A   1      33.823  20.662  25.744  1.00  0.00     0.202 C 
BRANCH   6   7
ATOM      7  C   UNL A   1      32.705  21.694  25.500  1.00  0.00     0.261 C 
BRANCH   7   8
ATOM      8  O   UNL A   1      33.065  23.075  25.494  1.00  0.00    -0.460 OA
BRANCH   8   9
ATOM      9  C   UNL A   1      33.297  23.657  24.306  1.00  0.00     0.338 C 
ATOM     10  O   UNL A   1      33.580  23.103  23.259  1.00  0.00    -0.246 OA
BRANCH   9  11
ATOM     11  C   UNL A   1      32.956  25.091  24.442  1.00  0.00     0.087 C 
ATOM     12  C   UNL A   1      34.568  30.103  27.616  1.00  0.00     0.044 C 
ATOM     13  C   UNL A   1      33.806  29.322  26.586  1.00  0.00    -0.049 A 
ATOM     14  C   UNL A   1      32.688  29.864  25.947  1.00  0.00     0.028 A 
ATOM     15  C   UNL A   1      34.169  27.999  26.310  1.00  0.00     0.015 A 
ATOM     16  C   UNL A   1      31.966  29.106  25.019  1.00  0.00     0.084 A 
ATOM     17  C   UNL A   1      33.417  27.222  25.419  1.00  0.00     0.019 A 
ATOM     18  Cl  UNL A   1      30.593  29.836  24.265  1.00  0.00    -0.080 Cl
ATOM     19  C   UNL A   1      32.329  27.780  24.746  1.00  0.00     0.146 A 
ATOM     20  C   UNL A   1      33.732  25.814  25.255  1.00  0.00     0.027 C 
ATOM     21  O   UNL A   1      31.586  27.086  23.832  1.00  0.00    -0.474 OA
ATOM     22  C   UNL A   1      31.830  25.669  23.622  1.00  0.00     0.316 C 
BRANCH  22  23
ATOM     23  C   UNL A   1      30.512  24.914  23.847  1.00  0.00     0.430 C 
ATOM     24  F   UNL A   1      30.401  24.483  25.125  1.00  0.00    -0.167 F 
ATOM     25  F   UNL A   1      29.436  25.693  23.596  1.00  0.00    -0.167 F 
ATOM     26  F   UNL A   1      30.423  23.829  23.043  1.00  0.00    -0.167 F 
ENDBRANCH  22  23
ENDBRANCH   9  11
ENDBRANCH   8   9
ENDBRANCH   7   8
ENDBRANCH   6   7
ENDBRANCH   5   6
ENDBRANCH   4   5
ENDBRANCH   3   4
ENDBRANCH   2   3
ENDBRANCH   1   2
BRANCH   1  27
ATOM     27  C   UNL A   1      40.091  20.904  26.392  1.00  0.00     0.188 C 
BRANCH  27  28
ATOM     28  O   UNL A   1      41.192  21.370  27.164  1.00  0.00    -0.376 OA
BRANCH  28  29
ATOM     29  C   UNL A   1      42.477  21.353  26.563  1.00  0.00     0.202 C 
BRANCH  29  30
ATOM     30  C   UNL A   1      43.045  22.723  26.170  1.00  0.00     0.261 C 
BRANCH  30  31
ATOM     31  O   UNL A   1      42.302  23.859  26.636  1.00  0.00    -0.460 OA
BRANCH  31  32
ATOM     32  C   UNL A   1      42.761  25.083  26.296  1.00  0.00     0.338 C 
ATOM     33  O   UNL A   1      43.305  25.400  25.252  1.00  0.00    -0.246 OA
BRANCH  32  34
ATOM     34  C   UNL A   1      42.310  26.029  27.337  1.00  0.00     0.060 A 
ATOM     35  C   UNL A   1      42.960  27.264  27.462  1.00  0.00     0.016 A 
ATOM     36  C   UNL A   1      41.238  25.702  28.170  1.00  0.00     0.016 A 
ATOM     37  C   UNL A   1      42.555  28.164  28.447  1.00  0.00     0.010 A 
ATOM     38  C   UNL A   1      40.850  26.594  29.171  1.00  0.00     0.010 A 
ATOM     39  C   UNL A   1      41.528  27.815  29.335  1.00  0.00    -0.014 A 
BRANCH  39  40
ATOM     40  C   UNL A   1      41.318  28.618  30.563  1.00  0.00     0.031 A 
ATOM     41  C   UNL A   1      40.212  29.639  30.556  1.00  0.00     0.074 A 
ATOM     42  C   UNL A   1      42.064  28.430  31.666  1.00  0.00     0.049 A 
ATOM     43  N   UNL A   1      39.855  30.483  31.487  1.00  0.00    -0.248 NA
ATOM     44  C   UNL A   1      39.398  29.714  29.330  1.00  0.00     0.031 C 
ATOM     45  C   UNL A   1      43.128  27.439  31.810  1.00  0.00     0.029 A 
ATOM     46  N   UNL A   1      42.038  29.074  32.878  1.00  0.00    -0.354 N 
ATOM     47  C   UNL A   1      38.776  31.184  30.964  1.00  0.00     0.074 A 
ATOM     48  C   UNL A   1      38.558  30.695  29.621  1.00  0.00     0.031 C 
ATOM     49  C   UNL A   1      43.657  27.543  33.042  1.00  0.00     0.029 A 
ATOM     50  C   UNL A   1      42.992  28.630  33.762  1.00  0.00     0.049 A 
ATOM     51  H   UNL A   1      41.396  29.789  33.094  1.00  0.00     0.167 HD
ATOM     52  C   UNL A   1      38.024  32.141  31.556  1.00  0.00     0.037 A 
ATOM     53  C   UNL A   1      43.302  29.064  35.001  1.00  0.00     0.037 A 
ATOM     54  C   UNL A   1      38.249  32.629  32.889  1.00  0.00     0.049 A 
ATOM     55  C   UNL A   1      42.512  30.200  35.604  1.00  0.00     0.074 A 
ATOM     56  C   UNL A   1      37.544  33.599  33.579  1.00  0.00     0.029 A 
ATOM     57  N   UNL A   1      39.261  32.192  33.733  1.00  0.00    -0.354 N 
ATOM     58  N   UNL A   1      41.487  30.850  35.104  1.00  0.00    -0.248 NA
ATOM     59  C   UNL A   1      42.921  30.664  36.938  1.00  0.00     0.031 C 
ATOM     60  C   UNL A   1      38.161  33.786  34.820  1.00  0.00     0.029 A 
ATOM     61  C   UNL A   1      39.214  32.892  34.927  1.00  0.00     0.049 A 
ATOM     62  H   UNL A   1      39.914  31.489  33.515  1.00  0.00     0.167 HD
ATOM     63  C   UNL A   1      41.114  31.780  36.071  1.00  0.00     0.074 A 
ATOM     64  C   UNL A   1      42.015  31.599  37.190  1.00  0.00     0.031 C 
ATOM     65  C   UNL A   1      40.116  32.698  36.036  1.00  0.00     0.037 A 
BRANCH  52  66
ATOM     66  C   UNL A   1      36.896  32.734  30.759  1.00  0.00     0.058 A 
ATOM     67  C   UNL A   1      37.116  33.756  29.823  1.00  0.00     0.135 A 
ATOM     68  C   UNL A   1      35.589  32.242  30.898  1.00  0.00     0.135 A 
ATOM     69  F   UNL A   1      38.343  34.280  29.668  1.00  0.00    -0.206 F 
ATOM     70  C   UNL A   1      36.076  34.280  29.062  1.00  0.00     0.059 A 
ATOM     71  C   UNL A   1      34.539  32.732  30.127  1.00  0.00     0.059 A 
ATOM     72  F   UNL A   1      35.323  31.271  31.786  1.00  0.00    -0.206 F 
ATOM     73  C   UNL A   1      34.791  33.756  29.217  1.00  0.00     0.060 A 
BRANCH  73  74
ATOM     74  S   UNL A   1      33.461  34.432  28.203  1.00  0.00     0.124 S 
ATOM     75  O   UNL A   1      34.203  35.284  27.277  1.00  0.00    -0.237 OA
ATOM     76  O   UNL A   1      32.873  33.230  27.624  1.00  0.00    -0.237 OA
ATOM     77  O   UNL A   1      32.622  35.139  29.166  1.00  0.00    -0.744 OA
ENDBRANCH  73  74
ENDBRANCH  52  66
BRANCH  53  78
ATOM     78  C   UNL A   1      44.414  28.427  35.758  1.00  0.00     0.058 A 
ATOM     79  C   UNL A   1      45.715  28.952  35.711  1.00  0.00     0.135 A 
ATOM     80  C   UNL A   1      44.201  27.284  36.546  1.00  0.00     0.135 A 
ATOM     81  F   UNL A   1      45.975  30.033  34.961  1.00  0.00    -0.206 F 
ATOM     82  C   UNL A   1      46.764  28.367  36.414  1.00  0.00     0.059 A 
ATOM     83  C   UNL A   1      45.229  26.695  37.278  1.00  0.00     0.059 A 
ATOM     84  F   UNL A   1      42.976  26.743  36.627  1.00  0.00    -0.206 F 
ATOM     85  C   UNL A   1      46.509  27.242  37.200  1.00  0.00     0.060 A 
BRANCH  85  86
ATOM     86  S   UNL A   1      47.869  26.529  38.150  1.00  0.00     0.124 S 
ATOM     87  O   UNL A   1      49.009  27.295  37.658  1.00  0.00    -0.237 OA
ATOM     88  O   UNL A   1      47.458  26.807  39.523  1.00  0.00    -0.237 OA
ATOM     89  O   UNL A   1      47.845  25.120  37.769  1.00  0.00    -0.744 OA
ENDBRANCH  85  86
ENDBRANCH  53  78
BRANCH  65  90
ATOM     90  C   UNL A   1      39.921  33.573  37.244  1.00  0.00     0.058 A 
ATOM     91  C   UNL A   1      40.585  34.802  37.380  1.00  0.00     0.135 A 
ATOM     92  C   UNL A   1      38.988  33.221  38.235  1.00  0.00     0.135 A 
ATOM     93  F   UNL A   1      41.489  35.186  36.463  1.00  0.00    -0.206 F 
ATOM     94  C   UNL A   1      40.343  35.644  38.460  1.00  0.00     0.059 A 
ATOM     95  C   UNL A   1      38.708  34.062  39.308  1.00  0.00     0.059 A 
ATOM     96  F   UNL A   1      38.313  32.064  38.148  1.00  0.00    -0.206 F 
ATOM     97  C   UNL A   1      39.397  35.268  39.416  1.00  0.00     0.060 A 
BRANCH  97  98
ATOM     98  S   UNL A   1      39.060  36.396  40.786  1.00  0.00     0.124 S 
ATOM     99  O   UNL A   1      37.961  35.716  41.463  1.00  0.00    -0.237 OA
ATOM    100  O   UNL A   1      40.334  36.407  41.499  1.00  0.00    -0.237 OA
ATOM    101  O   UNL A   1      38.709  37.646  40.120  1.00  0.00    -0.744 OA
ENDBRANCH  97  98
ENDBRANCH  65  90
ENDBRANCH  39  40
ENDBRANCH  32  34
ENDBRANCH  31  32
ENDBRANCH  30  31
ENDBRANCH  29  30
ENDBRANCH  28  29
ENDBRANCH  27  28
ENDBRANCH   1  27
TORSDOF 24
ENDMDL
MODEL 3
REMARK VINA RESULT:     -10.4      1.547      2.647
REMARK SMILES Cc1cc(Cl)c2c(c1)C=C(C(=O)OCCOCCOCCOCCOC(=O)c1ccc(-c3c4nc(c(-c5c(F)cc(S(=O)(=O)[O-])cc5F)c5ccc([nH]5)c(-c5c(F)cc(S(=O)(=O)[O-])cc5F)c5nc(c(-c6c(F)cc(S(=O)(=O)[O-])cc6F)c6ccc3[nH]6)C=C5)C=C4)cc1)[C@@H](C(F)(F)F)O2
REMARK SMILES IDX 20 1 19 2 18 3 17 4 16 5 15 6 14 7 13 8 11 9 12 10 10 11
REMARK SMILES IDX 1 12 2 13 3 14 8 15 4 16 7 17 5 18 6 19 9 20 99 21 94 22
REMARK SMILES IDX 95 23 96 24 97 25 98 26 21 27 22 28 23 29 24 30 25 31 26 32
REMARK SMILES IDX 27 33 28 34 29 35 93 36 30 37 92 38 31 39 32 40 33 41 86 42
REMARK SMILES IDX 34 43 91 44 85 45 87 46 35 47 90 48 84 49 83 50 36 52 70 53
REMARK SMILES IDX 49 54 69 55 50 56 53 57 68 58 88 59 51 60 52 61 67 63 89 64
REMARK SMILES IDX 54 65 37 66 38 67 47 68 39 69 40 70 46 71 48 72 41 73 42 74
REMARK SMILES IDX 43 75 44 76 45 77 71 78 72 79 81 80 73 81 74 82 80 83 82 84
REMARK SMILES IDX 75 85 76 86 77 87 78 88 79 89 55 90 56 91 65 92 57 93 58 94
REMARK SMILES IDX 64 95 66 96 59 97 60 98 61 99 62 100 63 101
REMARK H PARENT 87 51 53 62
REMARK Flexibility Score: inf
ROOT
ATOM      1  C   UNL A   1      38.566  23.217  26.156  1.00  0.00     0.188 C 
ENDROOT
BRANCH   1   2
ATOM      2  O   UNL A   1      37.480  23.239  25.227  1.00  0.00    -0.377 OA
BRANCH   2   3
ATOM      3  C   UNL A   1      36.438  22.296  25.404  1.00  0.00     0.188 C 
BRANCH   3   4
ATOM      4  C   UNL A   1      35.149  22.920  25.972  1.00  0.00     0.188 C 
BRANCH   4   5
ATOM      5  O   UNL A   1      33.968  22.232  25.604  1.00  0.00    -0.376 OA
BRANCH   5   6
ATOM      6  C   UNL A   1      33.221  22.590  24.452  1.00  0.00     0.202 C 
BRANCH   6   7
ATOM      7  C   UNL A   1      33.606  23.690  23.443  1.00  0.00     0.261 C 
BRANCH   7   8
ATOM      8  O   UNL A   1      32.799  24.866  23.402  1.00  0.00    -0.460 OA
BRANCH   8   9
ATOM      9  C   UNL A   1      33.275  25.930  22.733  1.00  0.00     0.338 C 
ATOM     10  O   UNL A   1      33.637  25.964  21.570  1.00  0.00    -0.246 OA
BRANCH   9  11
ATOM     11  C   UNL A   1      33.099  27.114  23.602  1.00  0.00     0.087 C 
ATOM     12  C   UNL A   1      35.484  29.752  28.617  1.00  0.00     0.044 C 
ATOM     13  C   UNL A   1      34.563  29.636  27.438  1.00  0.00    -0.049 A 
ATOM     14  C   UNL A   1      33.461  30.484  27.295  1.00  0.00     0.028 A 
ATOM     15  C   UNL A   1      34.760  28.617  26.501  1.00  0.00     0.015 A 
ATOM     16  C   UNL A   1      32.590  30.334  26.210  1.00  0.00     0.084 A 
ATOM     17  C   UNL A   1      33.861  28.435  25.442  1.00  0.00     0.019 A 
ATOM     18  Cl  UNL A   1      31.246  31.415  26.093  1.00  0.00    -0.080 Cl
ATOM     19  C   UNL A   1      32.787  29.312  25.273  1.00  0.00     0.146 A 
ATOM     20  C   UNL A   1      34.011  27.288  24.565  1.00  0.00     0.027 C 
ATOM     21  O   UNL A   1      31.904  29.212  24.235  1.00  0.00    -0.474 OA
ATOM     22  C   UNL A   1      31.978  28.084  23.322  1.00  0.00     0.316 C 
BRANCH  22  23
ATOM     23  C   UNL A   1      30.610  27.387  23.304  1.00  0.00     0.430 C 
ATOM     24  F   UNL A   1      30.408  26.723  22.142  1.00  0.00    -0.167 F 
ATOM     25  F   UNL A   1      30.491  26.484  24.303  1.00  0.00    -0.167 F 
ATOM     26  F   UNL A   1      29.602  28.280  23.444  1.00  0.00    -0.167 F 
ENDBRANCH  22  23
ENDBRANCH   9  11
ENDBRANCH   8   9
ENDBRANCH   7   8
ENDBRANCH   6   7
ENDBRANCH   5   6
ENDBRANCH   4   5
ENDBRANCH   3   4
ENDBRANCH   2   3
ENDBRANCH   1   2
BRANCH   1  27
ATOM     27  C   UNL A   1      39.445  21.958  26.346  1.00  0.00     0.188 C 
BRANCH  27  28
ATOM     28  O   UNL A   1      40.765  22.079  25.827  1.00  0.00    -0.376 OA
BRANCH  28  29
ATOM     29  C   UNL A   1      41.697  22.855  26.563  1.00  0.00     0.202 C 
BRANCH  29  30
ATOM     30  C   UNL A   1      42.253  24.088  25.838  1.00  0.00     0.261 C 
BRANCH  30  31
ATOM     31  O   UNL A   1      41.399  25.240  25.830  1.00  0.00    -0.460 OA
BRANCH  31  32
ATOM     32  C   UNL A   1      41.991  26.452  25.751  1.00  0.00     0.338 C 
ATOM     33  O   UNL A   1      42.341  27.034  24.738  1.00  0.00    -0.246 OA
BRANCH  32  34
ATOM     34  C   UNL A   1      41.965  27.047  27.102  1.00  0.00     0.060 A 
ATOM     35  C   UNL A   1      41.110  26.502  28.069  1.00  0.00     0.016 A 
ATOM     36  C   UNL A   1      42.795  28.125  27.415  1.00  0.00     0.016 A 
ATOM     37  C   UNL A   1      41.062  27.058  29.347  1.00  0.00     0.010 A 
ATOM     38  C   UNL A   1      42.729  28.696  28.688  1.00  0.00     0.010 A 
ATOM     39  C   UNL A   1      41.838  28.185  29.648  1.00  0.00    -0.014 A 
BRANCH  39  40
ATOM     40  C   UNL A   1      41.555  28.961  30.879  1.00  0.00     0.031 A 
ATOM     41  C   UNL A   1      40.413  29.942  30.845  1.00  0.00     0.074 A 
ATOM     42  C   UNL A   1      42.268  28.785  32.005  1.00  0.00     0.049 A 
ATOM     43  N   UNL A   1      39.992  30.758  31.775  1.00  0.00    -0.248 NA
ATOM     44  C   UNL A   1      39.640  30.005  29.593  1.00  0.00     0.031 C 
ATOM     45  C   UNL A   1      43.362  27.831  32.174  1.00  0.00     0.029 A 
ATOM     46  N   UNL A   1      42.175  29.410  33.224  1.00  0.00    -0.354 N 
ATOM     47  C   UNL A   1      38.907  31.427  31.223  1.00  0.00     0.074 A 
ATOM     48  C   UNL A   1      38.755  30.950  29.867  1.00  0.00     0.031 C 
ATOM     49  C   UNL A   1      43.843  27.937  33.425  1.00  0.00     0.029 A 
ATOM     50  C   UNL A   1      43.113  28.988  34.136  1.00  0.00     0.049 A 
ATOM     51  H   UNL A   1      41.499  30.097  33.427  1.00  0.00     0.167 HD
ATOM     52  C   UNL A   1      38.099  32.346  31.801  1.00  0.00     0.037 A 
ATOM     53  C   UNL A   1      43.362  29.414  35.391  1.00  0.00     0.037 A 
ATOM     54  C   UNL A   1      38.259  32.823  33.148  1.00  0.00     0.049 A 
ATOM     55  C   UNL A   1      42.510  30.511  35.980  1.00  0.00     0.074 A 
ATOM     56  C   UNL A   1      37.494  33.755  33.824  1.00  0.00     0.029 A 
ATOM     57  N   UNL A   1      39.255  32.411  34.020  1.00  0.00    -0.354 N 
ATOM     58  N   UNL A   1      41.479  31.130  35.453  1.00  0.00    -0.248 NA
ATOM     59  C   UNL A   1      42.854  30.970  37.335  1.00  0.00     0.031 C 
ATOM     60  C   UNL A   1      38.059  33.946  35.089  1.00  0.00     0.029 A 
ATOM     61  C   UNL A   1      39.140  33.090  35.222  1.00  0.00     0.049 A 
ATOM     62  H   UNL A   1      39.941  31.735  33.817  1.00  0.00     0.167 HD
ATOM     63  C   UNL A   1      41.038  32.031  36.418  1.00  0.00     0.074 A 
ATOM     64  C   UNL A   1      41.905  31.867  37.566  1.00  0.00     0.031 C 
ATOM     65  C   UNL A   1      40.009  32.912  36.359  1.00  0.00     0.037 A 
BRANCH  52  66
ATOM     66  C   UNL A   1      36.978  32.910  30.972  1.00  0.00     0.058 A 
ATOM     67  C   UNL A   1      35.655  32.469  31.129  1.00  0.00     0.135 A 
ATOM     68  C   UNL A   1      37.223  33.935  30.046  1.00  0.00     0.135 A 
ATOM     69  F   UNL A   1      35.370  31.474  31.984  1.00  0.00    -0.206 F 
ATOM     70  C   UNL A   1      34.615  33.017  30.386  1.00  0.00     0.059 A 
ATOM     71  C   UNL A   1      36.193  34.516  29.312  1.00  0.00     0.059 A 
ATOM     72  F   UNL A   1      38.472  34.386  29.851  1.00  0.00    -0.206 F 
ATOM     73  C   UNL A   1      34.893  34.045  29.484  1.00  0.00     0.060 A 
BRANCH  73  74
ATOM     74  S   UNL A   1      33.526  34.758  28.547  1.00  0.00     0.124 S 
ATOM     75  O   UNL A   1      33.283  33.721  27.549  1.00  0.00    -0.237 OA
ATOM     76  O   UNL A   1      32.496  34.907  29.570  1.00  0.00    -0.237 OA
ATOM     77  O   UNL A   1      34.079  36.006  28.030  1.00  0.00    -0.744 OA
ENDBRANCH  73  74
ENDBRANCH  52  66
BRANCH  53  78
ATOM     78  C   UNL A   1      44.470  28.807  36.178  1.00  0.00     0.058 A 
ATOM     79  C   UNL A   1      44.260  27.658  36.956  1.00  0.00     0.135 A 
ATOM     80  C   UNL A   1      45.762  29.359  36.168  1.00  0.00     0.135 A 
ATOM     81  F   UNL A   1      43.041  27.101  37.013  1.00  0.00    -0.206 F 
ATOM     82  C   UNL A   1      45.286  27.079  37.696  1.00  0.00     0.059 A 
ATOM     83  C   UNL A   1      46.811  28.784  36.880  1.00  0.00     0.059 A 
ATOM     84  F   UNL A   1      46.018  30.456  35.439  1.00  0.00    -0.206 F 
ATOM     85  C   UNL A   1      46.560  27.646  37.646  1.00  0.00     0.060 A 
BRANCH  85  86
ATOM     86  S   UNL A   1      47.895  26.850  38.568  1.00  0.00     0.124 S 
ATOM     87  O   UNL A   1      47.747  27.457  39.886  1.00  0.00    -0.237 OA
ATOM     88  O   UNL A   1      47.531  25.440  38.469  1.00  0.00    -0.237 OA
ATOM     89  O   UNL A   1      49.093  27.235  37.827  1.00  0.00    -0.744 OA
ENDBRANCH  85  86
ENDBRANCH  53  78
BRANCH  65  90
ATOM     90  C   UNL A   1      39.738  33.762  37.572  1.00  0.00     0.058 A 
ATOM     91  C   UNL A   1      38.869  33.340  38.589  1.00  0.00     0.135 A 
ATOM     92  C   UNL A   1      40.427  34.973  37.761  1.00  0.00     0.135 A 
ATOM     93  F   UNL A   1      38.184  32.192  38.459  1.00  0.00    -0.206 F 
ATOM     94  C   UNL A   1      38.682  34.092  39.744  1.00  0.00     0.059 A 
ATOM     95  C   UNL A   1      40.277  35.727  38.921  1.00  0.00     0.059 A 
ATOM     96  F   UNL A   1      41.282  35.418  36.826  1.00  0.00    -0.206 F 
ATOM     97  C   UNL A   1      39.396  35.282  39.904  1.00  0.00     0.060 A 
BRANCH  97  98
ATOM     98  S   UNL A   1      39.177  36.221  41.431  1.00  0.00     0.124 S 
ATOM     99  O   UNL A   1      38.969  37.571  40.919  1.00  0.00    -0.237 OA
ATOM    100  O   UNL A   1      38.005  35.581  42.023  1.00  0.00    -0.237 OA
ATOM    101  O   UNL A   1      40.430  36.007  42.146  1.00  0.00    -0.744 OA
ENDBRANCH  97  98
ENDBRANCH  65  90
ENDBRANCH  39  40
ENDBRANCH  32  34
ENDBRANCH  31  32
ENDBRANCH  30  31
ENDBRANCH  29  30
ENDBRANCH  28  29
ENDBRANCH  27  28
ENDBRANCH   1  27
TORSDOF 24
ENDMDL
