MODEL 1
REMARK VINA RESULT:      -9.7      0.000      0.000
REMARK SMILES COc1ccc(-c2ccc(CCC(=O)OCCOCCOCCOCCOC(=O)c3ccc(-c4c5nc(c(-c6c(F)cc(S(=O)(=O)[O-])cc6F)c6ccc([nH]6)c(-c6c(F)cc(S(=O)(=O)[O-])cc6F)c6nc(c(-c7c(F)cc(S(=O)(=O)[O-])cc7F)c7ccc4[nH]7)C=C6)C=C5)cc3)n2-c2ccc(C(C)=O)cc2)cc1
REMARK SMILES IDX 20 1 19 2 18 3 17 4 16 5 15 6 13 7 14 8 12 9 11 10 10 11
REMARK SMILES IDX 7 12 8 13 96 14 9 15 6 16 3 17 4 18 107 19 5 20 106 21 2 22
REMARK SMILES IDX 1 23 97 24 98 25 105 26 99 27 104 28 100 29 101 30 102 31
REMARK SMILES IDX 103 32 21 33 22 34 23 35 24 36 25 37 26 38 27 39 28 40 29 41
REMARK SMILES IDX 30 42 31 43 95 44 32 45 94 46 33 47 34 48 35 49 88 50 36 51
REMARK SMILES IDX 93 52 87 53 89 54 37 55 92 56 86 57 85 58 38 60 72 61 51 62
REMARK SMILES IDX 71 63 52 64 55 65 70 66 90 67 53 68 54 69 69 71 91 72 56 73
REMARK SMILES IDX 39 74 40 75 49 76 41 77 42 78 48 79 50 80 43 81 44 82 45 83
REMARK SMILES IDX 46 84 47 85 73 86 74 87 83 88 75 89 76 90 82 91 84 92 77 93
REMARK SMILES IDX 78 94 79 95 80 96 81 97 57 98 58 99 67 100 59 101 60 102
REMARK SMILES IDX 66 103 68 104 61 105 62 106 63 107 64 108 65 109
REMARK H PARENT 89 59 55 70
REMARK Flexibility Score: inf
ROOT
ATOM      1  C   UNL A   1      38.664  19.433  25.758  1.00  0.00     0.188 C 
ENDROOT
BRANCH   1   2
ATOM      2  C   UNL A   1      37.724  20.109  24.749  1.00  0.00     0.188 C 
BRANCH   2   3
ATOM      3  O   UNL A   1      36.398  19.624  24.875  1.00  0.00    -0.376 OA
BRANCH   3   4
ATOM      4  C   UNL A   1      36.156  18.285  24.512  1.00  0.00     0.202 C 
BRANCH   4   5
ATOM      5  C   UNL A   1      34.695  17.826  24.449  1.00  0.00     0.261 C 
BRANCH   5   6
ATOM      6  O   UNL A   1      33.769  18.476  25.331  1.00  0.00    -0.463 OA
BRANCH   6   7
ATOM      7  C   UNL A   1      32.558  18.819  24.849  1.00  0.00     0.306 C 
ATOM      8  O   UNL A   1      31.809  18.037  24.270  1.00  0.00    -0.252 OA
BRANCH   7   9
ATOM      9  C   UNL A   1      32.268  20.308  24.943  1.00  0.00     0.129 C 
BRANCH   9  10
ATOM     10  C   UNL A   1      32.811  21.288  23.898  1.00  0.00     0.066 C 
BRANCH  10  11
ATOM     11  C   UNL A   1      32.199  22.671  23.922  1.00  0.00     0.024 A 
ATOM     12  C   UNL A   1      31.863  24.798  24.630  1.00  0.00     0.053 A 
ATOM     13  C   UNL A   1      30.796  24.443  23.829  1.00  0.00     0.029 A 
ATOM     14  N   UNL A   1      32.791  23.766  24.553  1.00  0.00    -0.314 N 
ATOM     15  C   UNL A   1      31.026  23.138  23.353  1.00  0.00     0.024 A 
BRANCH  12  16
ATOM     16  C   UNL A   1      32.045  26.063  25.337  1.00  0.00    -0.001 A 
ATOM     17  C   UNL A   1      32.408  28.531  26.608  1.00  0.00     0.118 A 
ATOM     18  C   UNL A   1      31.443  27.637  27.074  1.00  0.00     0.047 A 
ATOM     19  C   UNL A   1      33.238  28.165  25.549  1.00  0.00     0.047 A 
ATOM     20  C   UNL A   1      31.256  26.408  26.438  1.00  0.00     0.014 A 
ATOM     21  C   UNL A   1      33.055  26.935  24.916  1.00  0.00     0.014 A 
BRANCH  17  22
ATOM     22  O   UNL A   1      32.491  29.720  27.276  1.00  0.00    -0.497 OA
ATOM     23  C   UNL A   1      32.959  30.808  26.486  1.00  0.00     0.278 C 
ENDBRANCH  17  22
ENDBRANCH  12  16
BRANCH  14  24
ATOM     24  C   UNL A   1      34.126  23.801  25.023  1.00  0.00     0.046 A 
ATOM     25  C   UNL A   1      35.164  23.922  24.090  1.00  0.00     0.027 A 
ATOM     26  C   UNL A   1      34.399  23.664  26.381  1.00  0.00     0.027 A 
ATOM     27  C   UNL A   1      36.493  23.873  24.517  1.00  0.00     0.014 A 
ATOM     28  C   UNL A   1      35.730  23.589  26.798  1.00  0.00     0.014 A 
ATOM     29  C   UNL A   1      36.787  23.684  25.872  1.00  0.00     0.017 A 
BRANCH  29  30
ATOM     30  C   UNL A   1      38.181  23.532  26.392  1.00  0.00     0.159 C 
ATOM     31  C   UNL A   1      38.734  24.477  27.428  1.00  0.00     0.093 C 
ATOM     32  O   UNL A   1      38.881  22.609  25.969  1.00  0.00    -0.295 OA
ENDBRANCH  29  30
ENDBRANCH  14  24
ENDBRANCH  10  11
ENDBRANCH   9  10
ENDBRANCH   7   9
ENDBRANCH   6   7
ENDBRANCH   5   6
ENDBRANCH   4   5
ENDBRANCH   3   4
ENDBRANCH   2   3
ENDBRANCH   1   2
BRANCH   1  33
ATOM     33  O   UNL A   1      39.924  18.868  25.415  1.00  0.00    -0.377 OA
BRANCH  33  34
ATOM     34  C   UNL A   1      41.096  19.297  26.085  1.00  0.00     0.188 C 
BRANCH  34  35
ATOM     35  C   UNL A   1      42.314  18.384  25.877  1.00  0.00     0.188 C 
BRANCH  35  36
ATOM     36  O   UNL A   1      43.518  18.889  26.457  1.00  0.00    -0.376 OA
BRANCH  36  37
ATOM     37  C   UNL A   1      44.638  18.993  25.584  1.00  0.00     0.202 C 
BRANCH  37  38
ATOM     38  C   UNL A   1      44.795  20.331  24.843  1.00  0.00     0.261 C 
BRANCH  38  39
ATOM     39  O   UNL A   1      44.127  21.453  25.428  1.00  0.00    -0.460 OA
BRANCH  39  40
ATOM     40  C   UNL A   1      43.904  22.478  24.590  1.00  0.00     0.338 C 
ATOM     41  O   UNL A   1      44.292  22.605  23.442  1.00  0.00    -0.246 OA
BRANCH  40  42
ATOM     42  C   UNL A   1      43.094  23.498  25.245  1.00  0.00     0.060 A 
ATOM     43  C   UNL A   1      43.433  24.831  24.991  1.00  0.00     0.016 A 
ATOM     44  C   UNL A   1      42.310  23.112  26.335  1.00  0.00     0.016 A 
ATOM     45  C   UNL A   1      43.137  25.780  25.948  1.00  0.00     0.010 A 
ATOM     46  C   UNL A   1      42.049  24.054  27.309  1.00  0.00     0.010 A 
ATOM     47  C   UNL A   1      42.544  25.357  27.143  1.00  0.00    -0.014 A 
BRANCH  47  48
ATOM     48  C   UNL A   1      42.615  26.258  28.306  1.00  0.00     0.031 A 
ATOM     49  C   UNL A   1      43.664  25.863  29.324  1.00  0.00     0.074 A 
ATOM     50  C   UNL A   1      41.718  27.289  28.284  1.00  0.00     0.049 A 
ATOM     51  N   UNL A   1      43.738  26.149  30.587  1.00  0.00    -0.248 NA
ATOM     52  C   UNL A   1      44.760  24.955  28.895  1.00  0.00     0.031 C 
ATOM     53  C   UNL A   1      40.738  27.511  27.195  1.00  0.00     0.029 A 
ATOM     54  N   UNL A   1      41.435  28.343  29.125  1.00  0.00    -0.354 N 
ATOM     55  C   UNL A   1      44.973  25.656  31.037  1.00  0.00     0.074 A 
ATOM     56  C   UNL A   1      45.494  24.818  29.999  1.00  0.00     0.031 C 
ATOM     57  C   UNL A   1      39.947  28.565  27.467  1.00  0.00     0.029 A 
ATOM     58  C   UNL A   1      40.329  29.140  28.738  1.00  0.00     0.049 A 
ATOM     59  H   UNL A   1      41.963  28.528  29.935  1.00  0.00     0.167 HD
ATOM     60  C   UNL A   1      45.589  26.080  32.173  1.00  0.00     0.037 A 
ATOM     61  C   UNL A   1      39.734  30.178  29.398  1.00  0.00     0.037 A 
ATOM     62  C   UNL A   1      44.830  27.082  32.848  1.00  0.00     0.049 A 
ATOM     63  C   UNL A   1      40.611  30.491  30.544  1.00  0.00     0.074 A 
ATOM     64  C   UNL A   1      43.737  27.050  33.672  1.00  0.00     0.029 A 
ATOM     65  N   UNL A   1      45.060  28.388  32.482  1.00  0.00    -0.354 N 
ATOM     66  N   UNL A   1      41.815  30.971  30.446  1.00  0.00    -0.248 NA
ATOM     67  C   UNL A   1      40.158  30.170  31.900  1.00  0.00     0.031 C 
ATOM     68  C   UNL A   1      43.124  28.317  33.518  1.00  0.00     0.029 A 
ATOM     69  C   UNL A   1      43.879  29.083  32.625  1.00  0.00     0.049 A 
ATOM     70  H   UNL A   1      45.918  28.759  32.172  1.00  0.00     0.167 HD
ATOM     71  C   UNL A   1      42.373  30.685  31.671  1.00  0.00     0.074 A 
ATOM     72  C   UNL A   1      41.270  30.447  32.574  1.00  0.00     0.031 C 
ATOM     73  C   UNL A   1      43.642  30.205  31.736  1.00  0.00     0.037 A 
BRANCH  60  74
ATOM     74  C   UNL A   1      46.987  25.827  32.641  1.00  0.00     0.058 A 
ATOM     75  C   UNL A   1      48.053  26.263  31.826  1.00  0.00     0.135 A 
ATOM     76  C   UNL A   1      47.301  24.913  33.660  1.00  0.00     0.135 A 
ATOM     77  F   UNL A   1      47.843  27.167  30.855  1.00  0.00    -0.206 F 
ATOM     78  C   UNL A   1      49.334  25.737  31.939  1.00  0.00     0.059 A 
ATOM     79  C   UNL A   1      48.589  24.398  33.814  1.00  0.00     0.059 A 
ATOM     80  F   UNL A   1      46.347  24.434  34.471  1.00  0.00    -0.206 F 
ATOM     81  C   UNL A   1      49.582  24.773  32.912  1.00  0.00     0.060 A 
BRANCH  81  82
ATOM     82  S   UNL A   1      51.201  23.976  32.938  1.00  0.00     0.124 S 
ATOM     83  O   UNL A   1      50.836  22.567  32.827  1.00  0.00    -0.237 OA
ATOM     84  O   UNL A   1      51.855  24.552  31.766  1.00  0.00    -0.237 OA
ATOM     85  O   UNL A   1      51.759  24.388  34.222  1.00  0.00    -0.744 OA
ENDBRANCH  81  82
ENDBRANCH  60  74
BRANCH  61  86
ATOM     86  C   UNL A   1      38.423  30.928  29.296  1.00  0.00     0.058 A 
ATOM     87  C   UNL A   1      37.149  30.343  29.220  1.00  0.00     0.135 A 
ATOM     88  C   UNL A   1      38.408  32.334  29.513  1.00  0.00     0.135 A 
ATOM     89  F   UNL A   1      36.984  29.044  28.953  1.00  0.00    -0.206 F 
ATOM     90  C   UNL A   1      35.970  31.056  29.484  1.00  0.00     0.059 A 
ATOM     91  C   UNL A   1      37.256  33.051  29.836  1.00  0.00     0.059 A 
ATOM     92  F   UNL A   1      39.541  33.051  29.497  1.00  0.00    -0.206 F 
ATOM     93  C   UNL A   1      36.039  32.394  29.855  1.00  0.00     0.060 A 
BRANCH  93  94
ATOM     94  S   UNL A   1      34.589  33.230  30.534  1.00  0.00     0.124 S 
ATOM     95  O   UNL A   1      35.110  34.561  30.819  1.00  0.00    -0.237 OA
ATOM     96  O   UNL A   1      33.624  33.147  29.440  1.00  0.00    -0.237 OA
ATOM     97  O   UNL A   1      34.263  32.413  31.699  1.00  0.00    -0.744 OA
ENDBRANCH  93  94
ENDBRANCH  61  86
BRANCH  73  98
ATOM     98  C   UNL A   1      44.501  30.595  30.543  1.00  0.00     0.058 A 
ATOM     99  C   UNL A   1      44.950  31.916  30.382  1.00  0.00     0.135 A 
ATOM    100  C   UNL A   1      44.801  29.716  29.489  1.00  0.00     0.135 A 
ATOM    101  F   UNL A   1      44.708  32.827  31.338  1.00  0.00    -0.206 F 
ATOM    102  C   UNL A   1      45.648  32.332  29.241  1.00  0.00     0.059 A 
ATOM    103  C   UNL A   1      45.508  30.096  28.348  1.00  0.00     0.059 A 
ATOM    104  F   UNL A   1      44.405  28.446  29.539  1.00  0.00    -0.206 F 
ATOM    105  C   UNL A   1      45.923  31.414  28.228  1.00  0.00     0.060 A 
BRANCH 105 106
ATOM    106  S   UNL A   1      46.819  31.954  26.755  1.00  0.00     0.124 S 
ATOM    107  O   UNL A   1      45.753  32.074  25.765  1.00  0.00    -0.237 OA
ATOM    108  O   UNL A   1      47.410  33.212  27.201  1.00  0.00    -0.237 OA
ATOM    109  O   UNL A   1      47.771  30.874  26.510  1.00  0.00    -0.744 OA
ENDBRANCH 105 106
ENDBRANCH  73  98
ENDBRANCH  47  48
ENDBRANCH  40  42
ENDBRANCH  39  40
ENDBRANCH  38  39
ENDBRANCH  37  38
ENDBRANCH  36  37
ENDBRANCH  35  36
ENDBRANCH  34  35
ENDBRANCH  33  34
ENDBRANCH   1  33
TORSDOF 29
ENDMDL
MODEL 2
REMARK VINA RESULT:      -9.1      3.877      8.385
REMARK SMILES COc1ccc(-c2ccc(CCC(=O)OCCOCCOCCOCCOC(=O)c3ccc(-c4c5nc(c(-c6c(F)cc(S(=O)(=O)[O-])cc6F)c6ccc([nH]6)c(-c6c(F)cc(S(=O)(=O)[O-])cc6F)c6nc(c(-c7c(F)cc(S(=O)(=O)[O-])cc7F)c7ccc4[nH]7)C=C6)C=C5)cc3)n2-c2ccc(C(C)=O)cc2)cc1
REMARK SMILES IDX 20 1 19 2 18 3 17 4 16 5 15 6 13 7 14 8 12 9 11 10 10 11
REMARK SMILES IDX 7 12 8 13 96 14 9 15 6 16 3 17 4 18 107 19 5 20 106 21 2 22
REMARK SMILES IDX 1 23 97 24 98 25 105 26 99 27 104 28 100 29 101 30 102 31
REMARK SMILES IDX 103 32 21 33 22 34 23 35 24 36 25 37 26 38 27 39 28 40 29 41
REMARK SMILES IDX 30 42 31 43 95 44 32 45 94 46 33 47 34 48 35 49 88 50 36 51
REMARK SMILES IDX 93 52 87 53 89 54 37 55 92 56 86 57 85 58 38 60 72 61 51 62
REMARK SMILES IDX 71 63 52 64 55 65 70 66 90 67 53 68 54 69 69 71 91 72 56 73
REMARK SMILES IDX 39 74 40 75 49 76 41 77 42 78 48 79 50 80 43 81 44 82 45 83
REMARK SMILES IDX 46 84 47 85 73 86 74 87 83 88 75 89 76 90 82 91 84 92 77 93
REMARK SMILES IDX 78 94 79 95 80 96 81 97 57 98 58 99 67 100 59 101 60 102
REMARK SMILES IDX 66 103 68 104 61 105 62 106 63 107 64 108 65 109
REMARK H PARENT 89 59 55 70
REMARK Flexibility Score: inf
ROOT
ATOM      1  C   UNL A   1      39.287  20.651  25.923  1.00  0.00     0.188 C 
ENDROOT
BRANCH   1   2
ATOM      2  C   UNL A   1      38.125  20.750  24.923  1.00  0.00     0.188 C 
BRANCH   2   3
ATOM      3  O   UNL A   1      36.898  21.012  25.583  1.00  0.00    -0.376 OA
BRANCH   3   4
ATOM      4  C   UNL A   1      35.728  21.032  24.801  1.00  0.00     0.202 C 
BRANCH   4   5
ATOM      5  C   UNL A   1      34.447  20.478  25.436  1.00  0.00     0.261 C 
BRANCH   5   6
ATOM      6  O   UNL A   1      33.734  21.345  26.329  1.00  0.00    -0.463 OA
BRANCH   6   7
ATOM      7  C   UNL A   1      32.425  21.565  26.099  1.00  0.00     0.306 C 
ATOM      8  O   UNL A   1      31.736  20.864  25.364  1.00  0.00    -0.252 OA
BRANCH   7   9
ATOM      9  C   UNL A   1      31.913  22.861  26.706  1.00  0.00     0.129 C 
BRANCH   9  10
ATOM     10  C   UNL A   1      32.357  24.222  26.160  1.00  0.00     0.066 C 
BRANCH  10  11
ATOM     11  C   UNL A   1      31.569  24.737  24.976  1.00  0.00     0.024 A 
ATOM     12  C   UNL A   1      30.339  26.202  23.759  1.00  0.00     0.053 A 
ATOM     13  C   UNL A   1      30.204  24.953  23.185  1.00  0.00     0.029 A 
ATOM     14  N   UNL A   1      31.300  26.089  24.758  1.00  0.00    -0.314 N 
ATOM     15  C   UNL A   1      31.003  24.052  23.914  1.00  0.00     0.024 A 
BRANCH  12  16
ATOM     16  C   UNL A   1      29.689  27.438  23.333  1.00  0.00    -0.001 A 
ATOM     17  C   UNL A   1      28.497  29.808  22.437  1.00  0.00     0.118 A 
ATOM     18  C   UNL A   1      27.721  28.816  23.038  1.00  0.00     0.047 A 
ATOM     19  C   UNL A   1      29.879  29.646  22.344  1.00  0.00     0.047 A 
ATOM     20  C   UNL A   1      28.312  27.630  23.480  1.00  0.00     0.014 A 
ATOM     21  C   UNL A   1      30.471  28.464  22.790  1.00  0.00     0.014 A 
BRANCH  17  22
ATOM     22  O   UNL A   1      27.821  30.916  22.008  1.00  0.00    -0.497 OA
ATOM     23  C   UNL A   1      28.122  31.309  20.673  1.00  0.00     0.278 C 
ENDBRANCH  17  22
ENDBRANCH  12  16
BRANCH  14  24
ATOM     24  C   UNL A   1      31.923  27.157  25.448  1.00  0.00     0.046 A 
ATOM     25  C   UNL A   1      31.269  27.716  26.553  1.00  0.00     0.027 A 
ATOM     26  C   UNL A   1      33.138  27.670  25.002  1.00  0.00     0.027 A 
ATOM     27  C   UNL A   1      31.820  28.825  27.200  1.00  0.00     0.014 A 
ATOM     28  C   UNL A   1      33.669  28.795  25.637  1.00  0.00     0.014 A 
ATOM     29  C   UNL A   1      33.014  29.387  26.733  1.00  0.00     0.017 A 
BRANCH  29  30
ATOM     30  C   UNL A   1      33.617  30.625  27.316  1.00  0.00     0.159 C 
ATOM     31  C   UNL A   1      35.107  30.749  27.510  1.00  0.00     0.093 C 
ATOM     32  O   UNL A   1      32.878  31.559  27.633  1.00  0.00    -0.295 OA
ENDBRANCH  29  30
ENDBRANCH  14  24
ENDBRANCH  10  11
ENDBRANCH   9  10
ENDBRANCH   7   9
ENDBRANCH   6   7
ENDBRANCH   5   6
ENDBRANCH   4   5
ENDBRANCH   3   4
ENDBRANCH   2   3
ENDBRANCH   1   2
BRANCH   1  33
ATOM     33  O   UNL A   1      40.361  19.727  25.801  1.00  0.00    -0.377 OA
BRANCH  33  34
ATOM     34  C   UNL A   1      41.620  20.027  26.379  1.00  0.00     0.188 C 
BRANCH  34  35
ATOM     35  C   UNL A   1      42.311  21.263  25.784  1.00  0.00     0.188 C 
BRANCH  35  36
ATOM     36  O   UNL A   1      42.910  22.115  26.762  1.00  0.00    -0.376 OA
BRANCH  36  37
ATOM     37  C   UNL A   1      42.046  23.060  27.383  1.00  0.00     0.202 C 
BRANCH  37  38
ATOM     38  C   UNL A   1      42.388  24.542  27.153  1.00  0.00     0.261 C 
BRANCH  38  39
ATOM     39  O   UNL A   1      42.207  25.026  25.820  1.00  0.00    -0.460 OA
BRANCH  39  40
ATOM     40  C   UNL A   1      43.329  25.449  25.215  1.00  0.00     0.338 C 
ATOM     41  O   UNL A   1      44.128  24.790  24.573  1.00  0.00    -0.246 OA
BRANCH  40  42
ATOM     42  C   UNL A   1      43.507  26.880  25.425  1.00  0.00     0.060 A 
ATOM     43  C   UNL A   1      44.804  27.319  25.716  1.00  0.00     0.016 A 
ATOM     44  C   UNL A   1      42.372  27.649  25.692  1.00  0.00     0.016 A 
ATOM     45  C   UNL A   1      44.959  28.471  26.457  1.00  0.00     0.010 A 
ATOM     46  C   UNL A   1      42.525  28.781  26.467  1.00  0.00     0.010 A 
ATOM     47  C   UNL A   1      43.810  29.128  26.914  1.00  0.00    -0.014 A 
BRANCH  47  48
ATOM     48  C   UNL A   1      43.956  30.079  28.029  1.00  0.00     0.031 A 
ATOM     49  C   UNL A   1      44.167  31.513  27.589  1.00  0.00     0.074 A 
ATOM     50  C   UNL A   1      43.893  29.513  29.272  1.00  0.00     0.049 A 
ATOM     51  N   UNL A   1      44.712  32.501  28.229  1.00  0.00    -0.248 NA
ATOM     52  C   UNL A   1      43.779  31.892  26.206  1.00  0.00     0.031 C 
ATOM     53  C   UNL A   1      43.695  28.065  29.514  1.00  0.00     0.029 A 
ATOM     54  N   UNL A   1      43.969  29.997  30.560  1.00  0.00    -0.354 N 
ATOM     55  C   UNL A   1      44.533  33.641  27.430  1.00  0.00     0.074 A 
ATOM     56  C   UNL A   1      44.081  33.189  26.148  1.00  0.00     0.031 C 
ATOM     57  C   UNL A   1      43.731  27.788  30.830  1.00  0.00     0.029 A 
ATOM     58  C   UNL A   1      43.942  29.009  31.576  1.00  0.00     0.049 A 
ATOM     59  H   UNL A   1      44.038  30.959  30.759  1.00  0.00     0.167 HD
ATOM     60  C   UNL A   1      44.611  34.915  27.900  1.00  0.00     0.037 A 
ATOM     61  C   UNL A   1      44.102  29.148  32.925  1.00  0.00     0.037 A 
ATOM     62  C   UNL A   1      44.896  34.950  29.298  1.00  0.00     0.049 A 
ATOM     63  C   UNL A   1      44.095  30.600  33.192  1.00  0.00     0.074 A 
ATOM     64  C   UNL A   1      46.039  34.803  30.037  1.00  0.00     0.029 A 
ATOM     65  N   UNL A   1      43.818  34.920  30.152  1.00  0.00    -0.354 N 
ATOM     66  N   UNL A   1      43.068  31.379  33.025  1.00  0.00    -0.248 NA
ATOM     67  C   UNL A   1      45.341  31.259  33.593  1.00  0.00     0.031 C 
ATOM     68  C   UNL A   1      45.601  34.349  31.304  1.00  0.00     0.029 A 
ATOM     69  C   UNL A   1      44.206  34.260  31.299  1.00  0.00     0.049 A 
ATOM     70  H   UNL A   1      42.929  35.301  29.975  1.00  0.00     0.167 HD
ATOM     71  C   UNL A   1      43.628  32.634  32.963  1.00  0.00     0.074 A 
ATOM     72  C   UNL A   1      44.938  32.526  33.563  1.00  0.00     0.031 C 
ATOM     73  C   UNL A   1      43.193  33.518  32.028  1.00  0.00     0.037 A 
BRANCH  60  74
ATOM     74  C   UNL A   1      44.214  36.194  27.235  1.00  0.00     0.058 A 
ATOM     75  C   UNL A   1      45.172  37.225  27.142  1.00  0.00     0.135 A 
ATOM     76  C   UNL A   1      42.877  36.548  26.991  1.00  0.00     0.135 A 
ATOM     77  F   UNL A   1      46.477  36.961  27.322  1.00  0.00    -0.206 F 
ATOM     78  C   UNL A   1      44.815  38.552  26.934  1.00  0.00     0.059 A 
ATOM     79  C   UNL A   1      42.499  37.869  26.745  1.00  0.00     0.059 A 
ATOM     80  F   UNL A   1      41.898  35.635  27.073  1.00  0.00    -0.206 F 
ATOM     81  C   UNL A   1      43.469  38.869  26.777  1.00  0.00     0.060 A 
BRANCH  81  82
ATOM     82  S   UNL A   1      43.003  40.610  26.680  1.00  0.00     0.124 S 
ATOM     83  O   UNL A   1      41.679  40.594  27.294  1.00  0.00    -0.237 OA
ATOM     84  O   UNL A   1      44.052  41.261  27.459  1.00  0.00    -0.237 OA
ATOM     85  O   UNL A   1      43.035  40.887  25.247  1.00  0.00    -0.744 OA
ENDBRANCH  81  82
ENDBRANCH  60  74
BRANCH  61  86
ATOM     86  C   UNL A   1      44.389  28.224  34.091  1.00  0.00     0.058 A 
ATOM     87  C   UNL A   1      45.651  27.721  34.444  1.00  0.00     0.135 A 
ATOM     88  C   UNL A   1      43.376  27.997  35.063  1.00  0.00     0.135 A 
ATOM     89  F   UNL A   1      46.696  27.791  33.615  1.00  0.00    -0.206 F 
ATOM     90  C   UNL A   1      45.922  27.176  35.708  1.00  0.00     0.059 A 
ATOM     91  C   UNL A   1      43.634  27.513  36.345  1.00  0.00     0.059 A 
ATOM     92  F   UNL A   1      42.096  28.320  34.821  1.00  0.00    -0.206 F 
ATOM     93  C   UNL A   1      44.924  27.136  36.674  1.00  0.00     0.060 A 
BRANCH  93  94
ATOM     94  S   UNL A   1      45.331  26.772  38.396  1.00  0.00     0.124 S 
ATOM     95  O   UNL A   1      44.939  25.373  38.512  1.00  0.00    -0.237 OA
ATOM     96  O   UNL A   1      46.766  27.036  38.453  1.00  0.00    -0.237 OA
ATOM     97  O   UNL A   1      44.504  27.726  39.130  1.00  0.00    -0.744 OA
ENDBRANCH  93  94
ENDBRANCH  61  86
BRANCH  73  98
ATOM     98  C   UNL A   1      41.768  33.259  31.561  1.00  0.00     0.058 A 
ATOM     99  C   UNL A   1      40.672  33.673  32.335  1.00  0.00     0.135 A 
ATOM    100  C   UNL A   1      41.458  32.507  30.416  1.00  0.00     0.135 A 
ATOM    101  F   UNL A   1      40.874  34.396  33.449  1.00  0.00    -0.206 F 
ATOM    102  C   UNL A   1      39.353  33.354  31.990  1.00  0.00     0.059 A 
ATOM    103  C   UNL A   1      40.154  32.186  30.038  1.00  0.00     0.059 A 
ATOM    104  F   UNL A   1      42.428  32.053  29.626  1.00  0.00    -0.206 F 
ATOM    105  C   UNL A   1      39.103  32.609  30.838  1.00  0.00     0.060 A 
BRANCH 105 106
ATOM    106  S   UNL A   1      37.401  32.193  30.398  1.00  0.00     0.124 S 
ATOM    107  O   UNL A   1      37.168  33.025  29.222  1.00  0.00    -0.237 OA
ATOM    108  O   UNL A   1      37.492  30.758  30.148  1.00  0.00    -0.237 OA
ATOM    109  O   UNL A   1      36.633  32.569  31.583  1.00  0.00    -0.744 OA
ENDBRANCH 105 106
ENDBRANCH  73  98
ENDBRANCH  47  48
ENDBRANCH  40  42
ENDBRANCH  39  40
ENDBRANCH  38  39
ENDBRANCH  37  38
ENDBRANCH  36  37
ENDBRANCH  35  36
ENDBRANCH  34  35
ENDBRANCH  33  34
ENDBRANCH   1  33
TORSDOF 29
ENDMDL
MODEL 3
REMARK VINA RESULT:      -8.8      4.401      8.960
REMARK SMILES COc1ccc(-c2ccc(CCC(=O)OCCOCCOCCOCCOC(=O)c3ccc(-c4c5nc(c(-c6c(F)cc(S(=O)(=O)[O-])cc6F)c6ccc([nH]6)c(-c6c(F)cc(S(=O)(=O)[O-])cc6F)c6nc(c(-c7c(F)cc(S(=O)(=O)[O-])cc7F)c7ccc4[nH]7)C=C6)C=C5)cc3)n2-c2ccc(C(C)=O)cc2)cc1
REMARK SMILES IDX 20 1 19 2 18 3 17 4 16 5 15 6 13 7 14 8 12 9 11 10 10 11
REMARK SMILES IDX 7 12 8 13 96 14 9 15 6 16 3 17 4 18 107 19 5 20 106 21 2 22
REMARK SMILES IDX 1 23 97 24 98 25 105 26 99 27 104 28 100 29 101 30 102 31
REMARK SMILES IDX 103 32 21 33 22 34 23 35 24 36 25 37 26 38 27 39 28 40 29 41
REMARK SMILES IDX 30 42 31 43 95 44 32 45 94 46 33 47 34 48 35 49 88 50 36 51
REMARK SMILES IDX 93 52 87 53 89 54 37 55 92 56 86 57 85 58 38 60 72 61 51 62
REMARK SMILES IDX 71 63 52 64 55 65 70 66 90 67 53 68 54 69 69 71 91 72 56 73
REMARK SMILES IDX 39 74 40 75 49 76 41 77 42 78 48 79 50 80 43 81 44 82 45 83
REMARK SMILES IDX 46 84 47 85 73 86 74 87 83 88 75 89 76 90 82 91 84 92 77 93
REMARK SMILES IDX 78 94 79 95 80 96 81 97 57 98 58 99 67 100 59 101 60 102
REMARK SMILES IDX 66 103 68 104 61 105 62 106 63 107 64 108 65 109
REMARK H PARENT 89 59 55 70
REMARK Flexibility Score: inf
ROOT
ATOM      1  C   UNL A   1      38.981  21.611  26.059  1.00  0.00     0.188 C 
ENDROOT
BRANCH   1   2
ATOM      2  C   UNL A   1      37.913  22.340  25.229  1.00  0.00     0.188 C 
BRANCH   2   3
ATOM      3  O   UNL A   1      36.609  21.900  25.568  1.00  0.00    -0.376 OA
BRANCH   3   4
ATOM      4  C   UNL A   1      35.916  21.125  24.619  1.00  0.00     0.202 C 
BRANCH   4   5
ATOM      5  C   UNL A   1      34.693  20.340  25.108  1.00  0.00     0.261 C 
BRANCH   5   6
ATOM      6  O   UNL A   1      33.945  20.909  26.192  1.00  0.00    -0.463 OA
BRANCH   6   7
ATOM      7  C   UNL A   1      32.653  21.229  25.981  1.00  0.00     0.306 C 
ATOM      8  O   UNL A   1      31.896  20.573  25.272  1.00  0.00    -0.252 OA
BRANCH   7   9
ATOM      9  C   UNL A   1      32.258  22.574  26.570  1.00  0.00     0.129 C 
BRANCH   9  10
ATOM     10  C   UNL A   1      32.722  23.886  25.930  1.00  0.00     0.066 C 
BRANCH  10  11
ATOM     11  C   UNL A   1      31.851  24.408  24.810  1.00  0.00     0.024 A 
ATOM     12  C   UNL A   1      30.516  25.871  23.706  1.00  0.00     0.053 A 
ATOM     13  C   UNL A   1      30.372  24.632  23.112  1.00  0.00     0.029 A 
ATOM     14  N   UNL A   1      31.539  25.759  24.640  1.00  0.00    -0.314 N 
ATOM     15  C   UNL A   1      31.234  23.734  23.770  1.00  0.00     0.024 A 
BRANCH  12  16
ATOM     16  C   UNL A   1      29.813  27.100  23.348  1.00  0.00    -0.001 A 
ATOM     17  C   UNL A   1      28.416  29.450  22.744  1.00  0.00     0.118 A 
ATOM     18  C   UNL A   1      29.774  29.344  22.441  1.00  0.00     0.047 A 
ATOM     19  C   UNL A   1      27.739  28.359  23.287  1.00  0.00     0.047 A 
ATOM     20  C   UNL A   1      30.475  28.175  22.747  1.00  0.00     0.014 A 
ATOM     21  C   UNL A   1      28.437  27.188  23.588  1.00  0.00     0.014 A 
BRANCH  17  22
ATOM     22  O   UNL A   1      27.829  30.645  22.437  1.00  0.00    -0.497 OA
ATOM     23  C   UNL A   1      28.174  31.159  21.154  1.00  0.00     0.278 C 
ENDBRANCH  17  22
ENDBRANCH  12  16
BRANCH  14  24
ATOM     24  C   UNL A   1      32.181  26.825  25.314  1.00  0.00     0.046 A 
ATOM     25  C   UNL A   1      33.251  27.472  24.684  1.00  0.00     0.027 A 
ATOM     26  C   UNL A   1      31.785  27.186  26.600  1.00  0.00     0.027 A 
ATOM     27  C   UNL A   1      33.957  28.470  25.360  1.00  0.00     0.014 A 
ATOM     28  C   UNL A   1      32.512  28.166  27.280  1.00  0.00     0.014 A 
ATOM     29  C   UNL A   1      33.607  28.809  26.673  1.00  0.00     0.017 A 
BRANCH  29  30
ATOM     30  C   UNL A   1      34.370  29.802  27.491  1.00  0.00     0.159 C 
ATOM     31  C   UNL A   1      33.971  31.255  27.525  1.00  0.00     0.093 C 
ATOM     32  O   UNL A   1      35.335  29.415  28.154  1.00  0.00    -0.295 OA
ENDBRANCH  29  30
ENDBRANCH  14  24
ENDBRANCH  10  11
ENDBRANCH   9  10
ENDBRANCH   7   9
ENDBRANCH   6   7
ENDBRANCH   5   6
ENDBRANCH   4   5
ENDBRANCH   3   4
ENDBRANCH   2   3
ENDBRANCH   1   2
BRANCH   1  33
ATOM     33  O   UNL A   1      39.478  20.315  25.750  1.00  0.00    -0.377 OA
BRANCH  33  34
ATOM     34  C   UNL A   1      40.505  19.745  26.542  1.00  0.00     0.188 C 
BRANCH  34  35
ATOM     35  C   UNL A   1      41.876  19.678  25.851  1.00  0.00     0.188 C 
BRANCH  35  36
ATOM     36  O   UNL A   1      42.853  20.548  26.424  1.00  0.00    -0.376 OA
BRANCH  36  37
ATOM     37  C   UNL A   1      43.288  21.628  25.604  1.00  0.00     0.202 C 
BRANCH  37  38
ATOM     38  C   UNL A   1      42.494  22.938  25.736  1.00  0.00     0.261 C 
BRANCH  38  39
ATOM     39  O   UNL A   1      42.911  23.821  26.780  1.00  0.00    -0.460 OA
BRANCH  39  40
ATOM     40  C   UNL A   1      42.296  23.633  27.959  1.00  0.00     0.338 C 
ATOM     41  O   UNL A   1      41.232  23.077  28.168  1.00  0.00    -0.246 OA
BRANCH  40  42
ATOM     42  C   UNL A   1      43.089  24.207  29.039  1.00  0.00     0.060 A 
ATOM     43  C   UNL A   1      43.126  25.603  29.121  1.00  0.00     0.016 A 
ATOM     44  C   UNL A   1      44.030  23.388  29.668  1.00  0.00     0.016 A 
ATOM     45  C   UNL A   1      44.231  26.201  29.690  1.00  0.00     0.010 A 
ATOM     46  C   UNL A   1      45.153  23.986  30.201  1.00  0.00     0.010 A 
ATOM     47  C   UNL A   1      45.280  25.382  30.125  1.00  0.00    -0.014 A 
BRANCH  47  48
ATOM     48  C   UNL A   1      46.600  26.001  30.329  1.00  0.00     0.031 A 
ATOM     49  C   UNL A   1      46.733  26.747  31.639  1.00  0.00     0.074 A 
ATOM     50  C   UNL A   1      47.481  25.815  29.299  1.00  0.00     0.049 A 
ATOM     51  N   UNL A   1      47.546  27.703  31.967  1.00  0.00    -0.248 NA
ATOM     52  C   UNL A   1      45.775  26.434  32.731  1.00  0.00     0.031 C 
ATOM     53  C   UNL A   1      47.164  25.059  28.065  1.00  0.00     0.029 A 
ATOM     54  N   UNL A   1      48.784  26.194  29.061  1.00  0.00    -0.354 N 
ATOM     55  C   UNL A   1      47.350  27.943  33.336  1.00  0.00     0.074 A 
ATOM     56  C   UNL A   1      46.164  27.238  33.720  1.00  0.00     0.031 C 
ATOM     57  C   UNL A   1      48.198  25.090  27.204  1.00  0.00     0.029 A 
ATOM     58  C   UNL A   1      49.286  25.847  27.782  1.00  0.00     0.049 A 
ATOM     59  H   UNL A   1      49.327  26.670  29.731  1.00  0.00     0.167 HD
ATOM     60  C   UNL A   1      48.253  28.580  34.130  1.00  0.00     0.037 A 
ATOM     61  C   UNL A   1      50.483  26.164  27.204  1.00  0.00     0.037 A 
ATOM     62  C   UNL A   1      49.418  28.971  33.405  1.00  0.00     0.049 A 
ATOM     63  C   UNL A   1      51.301  26.779  28.268  1.00  0.00     0.074 A 
ATOM     64  C   UNL A   1      49.705  30.009  32.560  1.00  0.00     0.029 A 
ATOM     65  N   UNL A   1      50.440  28.053  33.329  1.00  0.00    -0.354 N 
ATOM     66  N   UNL A   1      51.739  26.155  29.321  1.00  0.00    -0.248 NA
ATOM     67  C   UNL A   1      51.588  28.216  28.210  1.00  0.00     0.031 C 
ATOM     68  C   UNL A   1      50.751  29.532  31.733  1.00  0.00     0.029 A 
ATOM     69  C   UNL A   1      51.079  28.230  32.121  1.00  0.00     0.049 A 
ATOM     70  H   UNL A   1      50.673  27.389  34.017  1.00  0.00     0.167 HD
ATOM     71  C   UNL A   1      52.040  27.176  30.194  1.00  0.00     0.074 A 
ATOM     72  C   UNL A   1      52.177  28.370  29.392  1.00  0.00     0.031 C 
ATOM     73  C   UNL A   1      51.689  27.067  31.502  1.00  0.00     0.037 A 
BRANCH  60  74
ATOM     74  C   UNL A   1      48.287  28.690  35.621  1.00  0.00     0.058 A 
ATOM     75  C   UNL A   1      48.531  27.522  36.372  1.00  0.00     0.135 A 
ATOM     76  C   UNL A   1      47.778  29.798  36.319  1.00  0.00     0.135 A 
ATOM     77  F   UNL A   1      49.055  26.432  35.786  1.00  0.00    -0.206 F 
ATOM     78  C   UNL A   1      48.184  27.417  37.714  1.00  0.00     0.059 A 
ATOM     79  C   UNL A   1      47.455  29.726  37.675  1.00  0.00     0.059 A 
ATOM     80  F   UNL A   1      47.502  30.944  35.682  1.00  0.00    -0.206 F 
ATOM     81  C   UNL A   1      47.608  28.515  38.347  1.00  0.00     0.060 A 
BRANCH  81  82
ATOM     82  S   UNL A   1      47.006  28.314  40.036  1.00  0.00     0.124 S 
ATOM     83  O   UNL A   1      45.842  27.459  39.833  1.00  0.00    -0.237 OA
ATOM     84  O   UNL A   1      48.143  27.685  40.702  1.00  0.00    -0.237 OA
ATOM     85  O   UNL A   1      46.724  29.682  40.458  1.00  0.00    -0.744 OA
ENDBRANCH  81  82
ENDBRANCH  60  74
BRANCH  61  86
ATOM     86  C   UNL A   1      51.060  26.142  25.804  1.00  0.00     0.058 A 
ATOM     87  C   UNL A   1      50.592  26.895  24.715  1.00  0.00     0.135 A 
ATOM     88  C   UNL A   1      52.306  25.496  25.576  1.00  0.00     0.135 A 
ATOM     89  F   UNL A   1      49.406  27.510  24.739  1.00  0.00    -0.206 F 
ATOM     90  C   UNL A   1      51.357  27.112  23.560  1.00  0.00     0.059 A 
ATOM     91  C   UNL A   1      53.109  25.743  24.463  1.00  0.00     0.059 A 
ATOM     92  F   UNL A   1      52.827  24.652  26.480  1.00  0.00    -0.206 F 
ATOM     93  C   UNL A   1      52.641  26.586  23.471  1.00  0.00     0.060 A 
BRANCH  93  94
ATOM     94  S   UNL A   1      53.766  27.135  22.168  1.00  0.00     0.124 S 
ATOM     95  O   UNL A   1      55.064  26.746  22.703  1.00  0.00    -0.237 OA
ATOM     96  O   UNL A   1      53.307  26.381  21.004  1.00  0.00    -0.237 OA
ATOM     97  O   UNL A   1      53.509  28.571  22.106  1.00  0.00    -0.744 OA
ENDBRANCH  93  94
ENDBRANCH  61  86
BRANCH  73  98
ATOM     98  C   UNL A   1      51.552  25.628  31.977  1.00  0.00     0.058 A 
ATOM     99  C   UNL A   1      50.291  25.087  32.275  1.00  0.00     0.135 A 
ATOM    100  C   UNL A   1      52.652  24.800  32.254  1.00  0.00     0.135 A 
ATOM    101  F   UNL A   1      49.181  25.808  32.043  1.00  0.00    -0.206 F 
ATOM    102  C   UNL A   1      50.139  23.805  32.818  1.00  0.00     0.059 A 
ATOM    103  C   UNL A   1      52.533  23.514  32.781  1.00  0.00     0.059 A 
ATOM    104  F   UNL A   1      53.891  25.228  32.022  1.00  0.00    -0.206 F 
ATOM    105  C   UNL A   1      51.267  23.024  33.069  1.00  0.00     0.060 A 
BRANCH 105 106
ATOM    106  S   UNL A   1      51.070  21.374  33.775  1.00  0.00     0.124 S 
ATOM    107  O   UNL A   1      52.248  20.674  33.273  1.00  0.00    -0.237 OA
ATOM    108  O   UNL A   1      51.065  21.653  35.208  1.00  0.00    -0.237 OA
ATOM    109  O   UNL A   1      49.796  20.911  33.229  1.00  0.00    -0.744 OA
ENDBRANCH 105 106
ENDBRANCH  73  98
ENDBRANCH  47  48
ENDBRANCH  40  42
ENDBRANCH  39  40
ENDBRANCH  38  39
ENDBRANCH  37  38
ENDBRANCH  36  37
ENDBRANCH  35  36
ENDBRANCH  34  35
ENDBRANCH  33  34
ENDBRANCH   1  33
TORSDOF 29
ENDMDL
