MODEL 1
REMARK VINA RESULT:      -8.9      0.000      0.000
REMARK SMILES N#Cc1ccc(/C=C/C(=O)N[C@H]2C=C[C@H](C(=O)OCCOCCOCCOCCOC(=O)c3ccc(-c4c5nc(c(-c6c(F)cc(S(=O)(=O)[O-])cc6F)c6ccc([nH]6)c(-c6c(F)cc(S(=O)(=O)[O-])cc6F)c6nc(c(-c7c(F)cc(S(=O)(=O)[O-])cc7F)c7ccc4[nH]7)C=C6)C=C5)cc3)C2)cc1
REMARK SMILES IDX 23 1 22 2 21 3 20 4 19 5 18 6 16 7 17 8 15 9 12 10 13 11
REMARK SMILES IDX 99 12 14 13 11 14 9 15 10 16 8 18 7 19 6 20 3 21 4 22 101 23
REMARK SMILES IDX 5 24 100 25 2 26 1 27 24 28 25 29 26 30 27 31 28 32 29 33
REMARK SMILES IDX 30 34 31 35 32 36 33 37 34 38 98 39 35 40 97 41 36 42 37 43
REMARK SMILES IDX 38 44 91 45 39 46 96 47 90 48 92 49 40 50 95 51 89 52 88 53
REMARK SMILES IDX 41 55 75 56 54 57 74 58 55 59 58 60 73 61 93 62 56 63 57 64
REMARK SMILES IDX 72 66 94 67 59 68 42 69 43 70 52 71 44 72 45 73 51 74 53 75
REMARK SMILES IDX 46 76 47 77 48 78 49 79 50 80 76 81 77 82 86 83 78 84 79 85
REMARK SMILES IDX 85 86 87 87 80 88 81 89 82 90 83 91 84 92 60 93 61 94 70 95
REMARK SMILES IDX 62 96 63 97 69 98 71 99 64 100 65 101 66 102 67 103 68 104
REMARK H PARENT 11 17 92 54 58 65
REMARK Flexibility Score: inf
ROOT
ATOM      1  C   UNL A   1      35.010  20.317  25.104  1.00  0.00     0.188 C 
ENDROOT
BRANCH   1   2
ATOM      2  C   UNL A   1      33.587  19.767  24.879  1.00  0.00     0.188 C 
BRANCH   2   3
ATOM      3  O   UNL A   1      32.469  20.534  25.277  1.00  0.00    -0.376 OA
BRANCH   3   4
ATOM      4  C   UNL A   1      31.876  21.480  24.401  1.00  0.00     0.202 C 
BRANCH   4   5
ATOM      5  C   UNL A   1      32.314  21.754  22.945  1.00  0.00     0.261 C 
BRANCH   5   6
ATOM      6  O   UNL A   1      33.528  22.491  22.745  1.00  0.00    -0.463 OA
BRANCH   6   7
ATOM      7  C   UNL A   1      33.433  23.720  22.170  1.00  0.00     0.312 C 
ATOM      8  O   UNL A   1      33.374  23.916  20.963  1.00  0.00    -0.252 OA
BRANCH   7   9
ATOM      9  C   UNL A   1      33.215  24.802  23.242  1.00  0.00     0.124 C 
ATOM     10  C   UNL A   1      31.351  26.019  22.335  1.00  0.00     0.106 C 
ATOM     11  C   UNL A   1      32.554  26.902  22.382  1.00  0.00    -0.006 C 
ATOM     12  C   UNL A   1      31.716  25.051  23.454  1.00  0.00     0.048 C 
ATOM     13  C   UNL A   1      33.614  26.190  22.808  1.00  0.00    -0.014 C 
BRANCH  10  14
ATOM     14  N   UNL A   1      30.086  26.650  22.562  1.00  0.00    -0.346 N 
ATOM     15  C   UNL A   1      29.752  27.635  23.447  1.00  0.00     0.244 C 
ATOM     16  O   UNL A   1      28.594  28.059  23.423  1.00  0.00    -0.270 OA
ATOM     17  H   UNL A   1      29.348  26.326  21.997  1.00  0.00     0.164 HD
BRANCH  15  18
ATOM     18  C   UNL A   1      30.694  28.271  24.437  1.00  0.00     0.072 C 
ATOM     19  C   UNL A   1      31.072  29.549  24.586  1.00  0.00     0.014 C 
BRANCH  19  20
ATOM     20  C   UNL A   1      31.971  30.175  25.578  1.00  0.00    -0.025 A 
ATOM     21  C   UNL A   1      33.455  31.491  27.596  1.00  0.00     0.052 A 
ATOM     22  C   UNL A   1      33.931  30.311  27.011  1.00  0.00     0.020 A 
ATOM     23  C   UNL A   1      32.253  32.032  27.152  1.00  0.00     0.020 A 
ATOM     24  C   UNL A   1      33.193  29.654  26.012  1.00  0.00     0.009 A 
ATOM     25  C   UNL A   1      31.530  31.385  26.148  1.00  0.00     0.009 A 
BRANCH  21  26
ATOM     26  C   UNL A   1      34.182  32.146  28.639  1.00  0.00     0.099 C 
ATOM     27  N   UNL A   1      34.779  32.688  29.481  1.00  0.00    -0.192 NA
ENDBRANCH  21  26
ENDBRANCH  19  20
ENDBRANCH  15  18
ENDBRANCH  10  14
ENDBRANCH   7   9
ENDBRANCH   6   7
ENDBRANCH   5   6
ENDBRANCH   4   5
ENDBRANCH   3   4
ENDBRANCH   2   3
ENDBRANCH   1   2
BRANCH   1  28
ATOM     28  O   UNL A   1      35.098  21.307  26.103  1.00  0.00    -0.377 OA
BRANCH  28  29
ATOM     29  C   UNL A   1      35.024  22.669  25.698  1.00  0.00     0.188 C 
BRANCH  29  30
ATOM     30  C   UNL A   1      36.283  23.436  25.216  1.00  0.00     0.188 C 
BRANCH  30  31
ATOM     31  O   UNL A   1      37.510  22.990  25.768  1.00  0.00    -0.376 OA
BRANCH  31  32
ATOM     32  C   UNL A   1      38.383  23.908  26.399  1.00  0.00     0.202 C 
BRANCH  32  33
ATOM     33  C   UNL A   1      39.876  23.568  26.534  1.00  0.00     0.261 C 
BRANCH  33  34
ATOM     34  O   UNL A   1      40.691  24.492  27.265  1.00  0.00    -0.460 OA
BRANCH  34  35
ATOM     35  C   UNL A   1      40.842  25.732  26.747  1.00  0.00     0.338 C 
ATOM     36  O   UNL A   1      40.979  26.017  25.573  1.00  0.00    -0.246 OA
BRANCH  35  37
ATOM     37  C   UNL A   1      40.602  26.705  27.838  1.00  0.00     0.060 A 
ATOM     38  C   UNL A   1      41.267  27.939  27.814  1.00  0.00     0.016 A 
ATOM     39  C   UNL A   1      39.702  26.409  28.864  1.00  0.00     0.016 A 
ATOM     40  C   UNL A   1      41.064  28.866  28.838  1.00  0.00     0.010 A 
ATOM     41  C   UNL A   1      39.521  27.327  29.902  1.00  0.00     0.010 A 
ATOM     42  C   UNL A   1      40.229  28.542  29.914  1.00  0.00    -0.014 A 
BRANCH  42  43
ATOM     43  C   UNL A   1      40.257  29.368  31.146  1.00  0.00     0.031 A 
ATOM     44  C   UNL A   1      41.379  29.146  32.125  1.00  0.00     0.074 A 
ATOM     45  C   UNL A   1      39.320  30.300  31.392  1.00  0.00     0.049 A 
ATOM     46  N   UNL A   1      41.592  29.699  33.289  1.00  0.00    -0.248 NA
ATOM     47  C   UNL A   1      42.395  28.155  31.733  1.00  0.00     0.031 C 
ATOM     48  C   UNL A   1      38.218  30.646  30.498  1.00  0.00     0.029 A 
ATOM     49  N   UNL A   1      39.148  31.122  32.477  1.00  0.00    -0.354 N 
ATOM     50  C   UNL A   1      42.753  29.111  33.780  1.00  0.00     0.074 A 
ATOM     51  C   UNL A   1      43.175  28.133  32.802  1.00  0.00     0.031 C 
ATOM     52  C   UNL A   1      37.481  31.613  31.072  1.00  0.00     0.029 A 
ATOM     53  C   UNL A   1      38.035  31.923  32.391  1.00  0.00     0.049 A 
ATOM     54  H   UNL A   1      39.764  31.136  33.246  1.00  0.00     0.167 HD
ATOM     55  C   UNL A   1      43.408  29.366  34.938  1.00  0.00     0.037 A 
ATOM     56  C   UNL A   1      37.517  32.792  33.281  1.00  0.00     0.037 A 
ATOM     57  C   UNL A   1      42.969  30.334  35.910  1.00  0.00     0.049 A 
ATOM     58  C   UNL A   1      38.209  32.994  34.605  1.00  0.00     0.074 A 
ATOM     59  C   UNL A   1      43.571  30.687  37.105  1.00  0.00     0.029 A 
ATOM     60  N   UNL A   1      41.808  31.088  35.811  1.00  0.00    -0.354 N 
ATOM     61  N   UNL A   1      39.321  32.455  35.049  1.00  0.00    -0.248 NA
ATOM     62  C   UNL A   1      37.575  33.924  35.550  1.00  0.00     0.031 C 
ATOM     63  C   UNL A   1      42.734  31.594  37.763  1.00  0.00     0.029 A 
ATOM     64  C   UNL A   1      41.652  31.872  36.942  1.00  0.00     0.049 A 
ATOM     65  H   UNL A   1      41.185  31.068  35.048  1.00  0.00     0.167 HD
ATOM     66  C   UNL A   1      39.540  33.011  36.307  1.00  0.00     0.074 A 
ATOM     67  C   UNL A   1      38.447  33.930  36.550  1.00  0.00     0.031 C 
ATOM     68  C   UNL A   1      40.558  32.786  37.176  1.00  0.00     0.037 A 
BRANCH  55  69
ATOM     69  C   UNL A   1      44.634  28.539  35.235  1.00  0.00     0.058 A 
ATOM     70  C   UNL A   1      44.577  27.351  35.983  1.00  0.00     0.135 A 
ATOM     71  C   UNL A   1      45.894  28.957  34.774  1.00  0.00     0.135 A 
ATOM     72  F   UNL A   1      43.404  26.908  36.461  1.00  0.00    -0.206 F 
ATOM     73  C   UNL A   1      45.728  26.643  36.314  1.00  0.00     0.059 A 
ATOM     74  C   UNL A   1      47.053  28.242  35.059  1.00  0.00     0.059 A 
ATOM     75  F   UNL A   1      46.013  30.082  34.052  1.00  0.00    -0.206 F 
ATOM     76  C   UNL A   1      46.963  27.100  35.853  1.00  0.00     0.060 A 
BRANCH  76  77
ATOM     77  S   UNL A   1      48.450  26.196  36.327  1.00  0.00     0.124 S 
ATOM     78  O   UNL A   1      47.983  24.814  36.261  1.00  0.00    -0.237 OA
ATOM     79  O   UNL A   1      49.399  26.594  35.292  1.00  0.00    -0.237 OA
ATOM     80  O   UNL A   1      48.741  26.695  37.667  1.00  0.00    -0.744 OA
ENDBRANCH  76  77
ENDBRANCH  55  69
BRANCH  56  81
ATOM     81  C   UNL A   1      36.287  33.558  32.940  1.00  0.00     0.058 A 
ATOM     82  C   UNL A   1      36.367  34.903  32.548  1.00  0.00     0.135 A 
ATOM     83  C   UNL A   1      35.017  32.963  32.974  1.00  0.00     0.135 A 
ATOM     84  F   UNL A   1      37.557  35.523  32.516  1.00  0.00    -0.206 F 
ATOM     85  C   UNL A   1      35.235  35.629  32.199  1.00  0.00     0.059 A 
ATOM     86  C   UNL A   1      33.871  33.661  32.602  1.00  0.00     0.059 A 
ATOM     87  F   UNL A   1      34.885  31.678  33.339  1.00  0.00    -0.206 F 
ATOM     88  C   UNL A   1      33.991  34.996  32.216  1.00  0.00     0.060 A 
BRANCH  88  89
ATOM     89  S   UNL A   1      32.543  35.927  31.673  1.00  0.00     0.124 S 
ATOM     90  O   UNL A   1      32.998  37.302  31.834  1.00  0.00    -0.237 OA
ATOM     91  O   UNL A   1      32.384  35.461  30.299  1.00  0.00    -0.237 OA
ATOM     92  O   UNL A   1      31.499  35.495  32.598  1.00  0.00    -0.744 OA
ENDBRANCH  88  89
ENDBRANCH  56  81
BRANCH  68  93
ATOM     93  C   UNL A   1      40.573  33.579  38.459  1.00  0.00     0.058 A 
ATOM     94  C   UNL A   1      41.349  34.738  38.614  1.00  0.00     0.135 A 
ATOM     95  C   UNL A   1      39.750  33.199  39.534  1.00  0.00     0.135 A 
ATOM     96  F   UNL A   1      42.160  35.146  37.625  1.00  0.00    -0.206 F 
ATOM     97  C   UNL A   1      41.330  35.475  39.795  1.00  0.00     0.059 A 
ATOM     98  C   UNL A   1      39.686  33.942  40.708  1.00  0.00     0.059 A 
ATOM     99  F   UNL A   1      38.976  32.106  39.440  1.00  0.00    -0.206 F 
ATOM    100  C   UNL A   1      40.490  35.073  40.834  1.00  0.00     0.060 A 
BRANCH 100 101
ATOM    101  S   UNL A   1      40.449  36.061  42.345  1.00  0.00     0.124 S 
ATOM    102  O   UNL A   1      41.444  37.087  42.055  1.00  0.00    -0.237 OA
ATOM    103  O   UNL A   1      39.063  36.514  42.381  1.00  0.00    -0.237 OA
ATOM    104  O   UNL A   1      40.819  35.106  43.386  1.00  0.00    -0.744 OA
ENDBRANCH 100 101
ENDBRANCH  68  93
ENDBRANCH  42  43
ENDBRANCH  35  37
ENDBRANCH  34  35
ENDBRANCH  33  34
ENDBRANCH  32  33
ENDBRANCH  31  32
ENDBRANCH  30  31
ENDBRANCH  29  30
ENDBRANCH  28  29
ENDBRANCH   1  28
TORSDOF 27
ENDMDL
MODEL 2
REMARK VINA RESULT:      -8.9      6.303     10.812
REMARK SMILES N#Cc1ccc(/C=C/C(=O)N[C@H]2C=C[C@H](C(=O)OCCOCCOCCOCCOC(=O)c3ccc(-c4c5nc(c(-c6c(F)cc(S(=O)(=O)[O-])cc6F)c6ccc([nH]6)c(-c6c(F)cc(S(=O)(=O)[O-])cc6F)c6nc(c(-c7c(F)cc(S(=O)(=O)[O-])cc7F)c7ccc4[nH]7)C=C6)C=C5)cc3)C2)cc1
REMARK SMILES IDX 23 1 22 2 21 3 20 4 19 5 18 6 16 7 17 8 15 9 12 10 13 11
REMARK SMILES IDX 99 12 14 13 11 14 9 15 10 16 8 18 7 19 6 20 3 21 4 22 101 23
REMARK SMILES IDX 5 24 100 25 2 26 1 27 24 28 25 29 26 30 27 31 28 32 29 33
REMARK SMILES IDX 30 34 31 35 32 36 33 37 34 38 98 39 35 40 97 41 36 42 37 43
REMARK SMILES IDX 38 44 91 45 39 46 96 47 90 48 92 49 40 50 95 51 89 52 88 53
REMARK SMILES IDX 41 55 75 56 54 57 74 58 55 59 58 60 73 61 93 62 56 63 57 64
REMARK SMILES IDX 72 66 94 67 59 68 42 69 43 70 52 71 44 72 45 73 51 74 53 75
REMARK SMILES IDX 46 76 47 77 48 78 49 79 50 80 76 81 77 82 86 83 78 84 79 85
REMARK SMILES IDX 85 86 87 87 80 88 81 89 82 90 83 91 84 92 60 93 61 94 70 95
REMARK SMILES IDX 62 96 63 97 69 98 71 99 64 100 65 101 66 102 67 103 68 104
REMARK H PARENT 11 17 92 54 58 65
REMARK Flexibility Score: inf
ROOT
ATOM      1  C   UNL A   1      35.787  19.473  24.579  1.00  0.00     0.188 C 
ENDROOT
BRANCH   1   2
ATOM      2  C   UNL A   1      34.411  18.776  24.618  1.00  0.00     0.188 C 
BRANCH   2   3
ATOM      3  O   UNL A   1      33.342  19.377  25.321  1.00  0.00    -0.376 OA
BRANCH   3   4
ATOM      4  C   UNL A   1      32.336  20.113  24.642  1.00  0.00     0.202 C 
BRANCH   4   5
ATOM      5  C   UNL A   1      32.566  21.393  23.808  1.00  0.00     0.261 C 
BRANCH   5   6
ATOM      6  O   UNL A   1      33.200  22.503  24.458  1.00  0.00    -0.463 OA
BRANCH   6   7
ATOM      7  C   UNL A   1      33.774  23.451  23.669  1.00  0.00     0.312 C 
ATOM      8  O   UNL A   1      34.221  23.240  22.549  1.00  0.00    -0.252 OA
BRANCH   7   9
ATOM      9  C   UNL A   1      33.610  24.847  24.294  1.00  0.00     0.124 C 
ATOM     10  C   UNL A   1      31.721  25.706  23.082  1.00  0.00     0.106 C 
ATOM     11  C   UNL A   1      32.932  26.521  22.770  1.00  0.00    -0.006 C 
ATOM     12  C   UNL A   1      32.123  25.189  24.458  1.00  0.00     0.048 C 
ATOM     13  C   UNL A   1      34.003  25.982  23.383  1.00  0.00    -0.014 C 
BRANCH  10  14
ATOM     14  N   UNL A   1      30.472  26.405  23.116  1.00  0.00    -0.346 N 
ATOM     15  C   UNL A   1      30.171  27.622  23.655  1.00  0.00     0.244 C 
ATOM     16  O   UNL A   1      29.020  28.045  23.513  1.00  0.00    -0.270 OA
ATOM     17  H   UNL A   1      29.718  25.938  22.687  1.00  0.00     0.164 HD
BRANCH  15  18
ATOM     18  C   UNL A   1      31.141  28.512  24.389  1.00  0.00     0.072 C 
ATOM     19  C   UNL A   1      31.435  28.595  25.696  1.00  0.00     0.014 C 
BRANCH  19  20
ATOM     20  C   UNL A   1      32.410  29.446  26.409  1.00  0.00    -0.025 A 
ATOM     21  C   UNL A   1      34.484  30.932  27.632  1.00  0.00     0.052 A 
ATOM     22  C   UNL A   1      33.207  31.484  27.470  1.00  0.00     0.020 A 
ATOM     23  C   UNL A   1      34.718  29.627  27.212  1.00  0.00     0.020 A 
ATOM     24  C   UNL A   1      32.177  30.748  26.858  1.00  0.00     0.009 A 
ATOM     25  C   UNL A   1      33.688  28.894  26.620  1.00  0.00     0.009 A 
BRANCH  21  26
ATOM     26  C   UNL A   1      35.547  31.688  28.220  1.00  0.00     0.099 C 
ATOM     27  N   UNL A   1      36.416  32.293  28.706  1.00  0.00    -0.192 NA
ENDBRANCH  21  26
ENDBRANCH  19  20
ENDBRANCH  15  18
ENDBRANCH  10  14
ENDBRANCH   7   9
ENDBRANCH   6   7
ENDBRANCH   5   6
ENDBRANCH   4   5
ENDBRANCH   3   4
ENDBRANCH   2   3
ENDBRANCH   1   2
BRANCH   1  28
ATOM     28  O   UNL A   1      35.787  20.786  25.090  1.00  0.00    -0.377 OA
BRANCH  28  29
ATOM     29  C   UNL A   1      36.867  21.640  24.728  1.00  0.00     0.188 C 
BRANCH  29  30
ATOM     30  C   UNL A   1      38.160  21.710  25.582  1.00  0.00     0.188 C 
BRANCH  30  31
ATOM     31  O   UNL A   1      38.820  20.472  25.780  1.00  0.00    -0.376 OA
BRANCH  31  32
ATOM     32  C   UNL A   1      40.129  20.441  26.319  1.00  0.00     0.202 C 
BRANCH  32  33
ATOM     33  C   UNL A   1      41.001  19.190  26.127  1.00  0.00     0.261 C 
BRANCH  33  34
ATOM     34  O   UNL A   1      42.394  19.314  26.435  1.00  0.00    -0.460 OA
BRANCH  34  35
ATOM     35  C   UNL A   1      43.190  19.883  25.502  1.00  0.00     0.338 C 
ATOM     36  O   UNL A   1      43.498  19.410  24.425  1.00  0.00    -0.246 OA
BRANCH  35  37
ATOM     37  C   UNL A   1      43.455  21.276  25.929  1.00  0.00     0.060 A 
ATOM     38  C   UNL A   1      43.466  22.296  24.967  1.00  0.00     0.016 A 
ATOM     39  C   UNL A   1      43.660  21.577  27.277  1.00  0.00     0.016 A 
ATOM     40  C   UNL A   1      43.724  23.615  25.345  1.00  0.00     0.010 A 
ATOM     41  C   UNL A   1      43.945  22.893  27.650  1.00  0.00     0.010 A 
ATOM     42  C   UNL A   1      44.017  23.911  26.682  1.00  0.00    -0.014 A 
BRANCH  42  43
ATOM     43  C   UNL A   1      44.601  25.228  27.037  1.00  0.00     0.031 A 
ATOM     44  C   UNL A   1      43.747  26.201  27.804  1.00  0.00     0.074 A 
ATOM     45  C   UNL A   1      45.861  25.554  26.700  1.00  0.00     0.049 A 
ATOM     46  N   UNL A   1      44.009  27.424  28.181  1.00  0.00    -0.248 NA
ATOM     47  C   UNL A   1      42.408  25.724  28.189  1.00  0.00     0.031 C 
ATOM     48  C   UNL A   1      46.804  24.679  26.007  1.00  0.00     0.029 A 
ATOM     49  N   UNL A   1      46.558  26.719  26.893  1.00  0.00    -0.354 N 
ATOM     50  C   UNL A   1      42.863  27.872  28.830  1.00  0.00     0.074 A 
ATOM     51  C   UNL A   1      41.893  26.802  28.761  1.00  0.00     0.031 C 
ATOM     52  C   UNL A   1      47.961  25.341  25.834  1.00  0.00     0.029 A 
ATOM     53  C   UNL A   1      47.827  26.698  26.365  1.00  0.00     0.049 A 
ATOM     54  H   UNL A   1      46.186  27.499  27.367  1.00  0.00     0.167 HD
ATOM     55  C   UNL A   1      42.642  29.066  29.431  1.00  0.00     0.037 A 
ATOM     56  C   UNL A   1      48.761  27.667  26.302  1.00  0.00     0.037 A 
ATOM     57  C   UNL A   1      43.612  30.129  29.482  1.00  0.00     0.049 A 
ATOM     58  C   UNL A   1      48.462  29.021  26.895  1.00  0.00     0.074 A 
ATOM     59  C   UNL A   1      43.499  31.369  30.086  1.00  0.00     0.029 A 
ATOM     60  N   UNL A   1      44.866  30.088  28.888  1.00  0.00    -0.354 N 
ATOM     61  N   UNL A   1      47.387  29.427  27.531  1.00  0.00    -0.248 NA
ATOM     62  C   UNL A   1      49.503  30.049  26.762  1.00  0.00     0.031 C 
ATOM     63  C   UNL A   1      44.651  32.105  29.789  1.00  0.00     0.029 A 
ATOM     64  C   UNL A   1      45.519  31.296  29.073  1.00  0.00     0.049 A 
ATOM     65  H   UNL A   1      45.237  29.314  28.405  1.00  0.00     0.167 HD
ATOM     66  C   UNL A   1      47.641  30.744  27.908  1.00  0.00     0.074 A 
ATOM     67  C   UNL A   1      48.971  31.062  27.431  1.00  0.00     0.031 C 
ATOM     68  C   UNL A   1      46.847  31.605  28.594  1.00  0.00     0.037 A 
BRANCH  55  69
ATOM     69  C   UNL A   1      41.276  29.297  30.027  1.00  0.00     0.058 A 
ATOM     70  C   UNL A   1      41.030  29.190  31.406  1.00  0.00     0.135 A 
ATOM     71  C   UNL A   1      40.188  29.615  29.196  1.00  0.00     0.135 A 
ATOM     72  F   UNL A   1      42.026  28.876  32.249  1.00  0.00    -0.206 F 
ATOM     73  C   UNL A   1      39.749  29.329  31.931  1.00  0.00     0.059 A 
ATOM     74  C   UNL A   1      38.906  29.799  29.704  1.00  0.00     0.059 A 
ATOM     75  F   UNL A   1      40.361  29.734  27.870  1.00  0.00    -0.206 F 
ATOM     76  C   UNL A   1      38.691  29.627  31.070  1.00  0.00     0.060 A 
BRANCH  76  77
ATOM     77  S   UNL A   1      37.029  29.761  31.759  1.00  0.00     0.124 S 
ATOM     78  O   UNL A   1      36.968  31.179  32.098  1.00  0.00    -0.237 OA
ATOM     79  O   UNL A   1      36.194  29.340  30.639  1.00  0.00    -0.237 OA
ATOM     80  O   UNL A   1      37.056  28.846  32.896  1.00  0.00    -0.744 OA
ENDBRANCH  76  77
ENDBRANCH  55  69
BRANCH  56  81
ATOM     81  C   UNL A   1      50.081  27.385  25.675  1.00  0.00     0.058 A 
ATOM     82  C   UNL A   1      50.226  27.382  24.280  1.00  0.00     0.135 A 
ATOM     83  C   UNL A   1      51.225  27.136  26.450  1.00  0.00     0.135 A 
ATOM     84  F   UNL A   1      49.158  27.597  23.495  1.00  0.00    -0.206 F 
ATOM     85  C   UNL A   1      51.454  27.148  23.674  1.00  0.00     0.059 A 
ATOM     86  C   UNL A   1      52.471  26.927  25.868  1.00  0.00     0.059 A 
ATOM     87  F   UNL A   1      51.142  27.130  27.790  1.00  0.00    -0.206 F 
ATOM     88  C   UNL A   1      52.576  26.934  24.477  1.00  0.00     0.060 A 
BRANCH  88  89
ATOM     89  S   UNL A   1      54.180  26.721  23.677  1.00  0.00     0.124 S 
ATOM     90  O   UNL A   1      53.796  26.583  22.277  1.00  0.00    -0.237 OA
ATOM     91  O   UNL A   1      54.861  27.961  24.035  1.00  0.00    -0.237 OA
ATOM     92  O   UNL A   1      54.713  25.517  24.307  1.00  0.00    -0.744 OA
ENDBRANCH  88  89
ENDBRANCH  56  81
BRANCH  68  93
ATOM     93  C   UNL A   1      47.406  32.968  28.916  1.00  0.00     0.058 A 
ATOM     94  C   UNL A   1      48.012  33.255  30.149  1.00  0.00     0.135 A 
ATOM     95  C   UNL A   1      47.383  33.989  27.950  1.00  0.00     0.135 A 
ATOM     96  F   UNL A   1      48.058  32.323  31.114  1.00  0.00    -0.206 F 
ATOM     97  C   UNL A   1      48.549  34.511  30.422  1.00  0.00     0.059 A 
ATOM     98  C   UNL A   1      47.947  35.237  28.186  1.00  0.00     0.059 A 
ATOM     99  F   UNL A   1      46.826  33.769  26.747  1.00  0.00    -0.206 F 
ATOM    100  C   UNL A   1      48.518  35.493  29.432  1.00  0.00     0.060 A 
BRANCH 100 101
ATOM    101  S   UNL A   1      49.252  37.104  29.788  1.00  0.00     0.124 S 
ATOM    102  O   UNL A   1      49.000  37.234  31.219  1.00  0.00    -0.237 OA
ATOM    103  O   UNL A   1      50.645  36.900  29.405  1.00  0.00    -0.237 OA
ATOM    104  O   UNL A   1      48.499  38.018  28.934  1.00  0.00    -0.744 OA
ENDBRANCH 100 101
ENDBRANCH  68  93
ENDBRANCH  42  43
ENDBRANCH  35  37
ENDBRANCH  34  35
ENDBRANCH  33  34
ENDBRANCH  32  33
ENDBRANCH  31  32
ENDBRANCH  30  31
ENDBRANCH  29  30
ENDBRANCH  28  29
ENDBRANCH   1  28
TORSDOF 27
ENDMDL
MODEL 3
REMARK VINA RESULT:      -8.8      6.245      8.354
REMARK SMILES N#Cc1ccc(/C=C/C(=O)N[C@H]2C=C[C@H](C(=O)OCCOCCOCCOCCOC(=O)c3ccc(-c4c5nc(c(-c6c(F)cc(S(=O)(=O)[O-])cc6F)c6ccc([nH]6)c(-c6c(F)cc(S(=O)(=O)[O-])cc6F)c6nc(c(-c7c(F)cc(S(=O)(=O)[O-])cc7F)c7ccc4[nH]7)C=C6)C=C5)cc3)C2)cc1
REMARK SMILES IDX 23 1 22 2 21 3 20 4 19 5 18 6 16 7 17 8 15 9 12 10 13 11
REMARK SMILES IDX 99 12 14 13 11 14 9 15 10 16 8 18 7 19 6 20 3 21 4 22 101 23
REMARK SMILES IDX 5 24 100 25 2 26 1 27 24 28 25 29 26 30 27 31 28 32 29 33
REMARK SMILES IDX 30 34 31 35 32 36 33 37 34 38 98 39 35 40 97 41 36 42 37 43
REMARK SMILES IDX 38 44 91 45 39 46 96 47 90 48 92 49 40 50 95 51 89 52 88 53
REMARK SMILES IDX 41 55 75 56 54 57 74 58 55 59 58 60 73 61 93 62 56 63 57 64
REMARK SMILES IDX 72 66 94 67 59 68 42 69 43 70 52 71 44 72 45 73 51 74 53 75
REMARK SMILES IDX 46 76 47 77 48 78 49 79 50 80 76 81 77 82 86 83 78 84 79 85
REMARK SMILES IDX 85 86 87 87 80 88 81 89 82 90 83 91 84 92 60 93 61 94 70 95
REMARK SMILES IDX 62 96 63 97 69 98 71 99 64 100 65 101 66 102 67 103 68 104
REMARK H PARENT 11 17 92 54 58 65
REMARK Flexibility Score: inf
ROOT
ATOM      1  C   UNL A   1      35.765  18.662  24.635  1.00  0.00     0.188 C 
ENDROOT
BRANCH   1   2
ATOM      2  C   UNL A   1      34.230  18.812  24.637  1.00  0.00     0.188 C 
BRANCH   2   3
ATOM      3  O   UNL A   1      33.633  19.890  25.330  1.00  0.00    -0.376 OA
BRANCH   3   4
ATOM      4  C   UNL A   1      32.502  20.567  24.803  1.00  0.00     0.202 C 
BRANCH   4   5
ATOM      5  C   UNL A   1      32.499  21.473  23.552  1.00  0.00     0.261 C 
BRANCH   5   6
ATOM      6  O   UNL A   1      32.394  22.889  23.758  1.00  0.00    -0.463 OA
BRANCH   6   7
ATOM      7  C   UNL A   1      33.538  23.574  24.021  1.00  0.00     0.312 C 
ATOM      8  O   UNL A   1      34.658  23.204  23.693  1.00  0.00    -0.252 OA
BRANCH   7   9
ATOM      9  C   UNL A   1      33.215  24.959  24.610  1.00  0.00     0.124 C 
ATOM     10  C   UNL A   1      32.159  26.048  22.746  1.00  0.00     0.106 C 
ATOM     11  C   UNL A   1      33.439  26.743  23.077  1.00  0.00    -0.006 C 
ATOM     12  C   UNL A   1      31.849  25.447  24.111  1.00  0.00     0.048 C 
ATOM     13  C   UNL A   1      34.067  26.077  24.064  1.00  0.00    -0.014 C 
BRANCH  10  14
ATOM     14  N   UNL A   1      31.091  26.871  22.267  1.00  0.00    -0.346 N 
ATOM     15  C   UNL A   1      30.768  28.156  22.595  1.00  0.00     0.244 C 
ATOM     16  O   UNL A   1      29.820  28.679  22.002  1.00  0.00    -0.270 OA
ATOM     17  H   UNL A   1      30.501  26.447  21.601  1.00  0.00     0.164 HD
BRANCH  15  18
ATOM     18  C   UNL A   1      31.496  29.005  23.605  1.00  0.00     0.072 C 
ATOM     19  C   UNL A   1      31.151  29.374  24.848  1.00  0.00     0.014 C 
BRANCH  19  20
ATOM     20  C   UNL A   1      31.881  30.179  25.849  1.00  0.00    -0.025 A 
ATOM     21  C   UNL A   1      33.520  31.594  27.670  1.00  0.00     0.052 A 
ATOM     22  C   UNL A   1      32.307  32.136  27.228  1.00  0.00     0.020 A 
ATOM     23  C   UNL A   1      33.901  30.331  27.227  1.00  0.00     0.020 A 
ATOM     24  C   UNL A   1      31.494  31.436  26.320  1.00  0.00     0.009 A 
ATOM     25  C   UNL A   1      33.083  29.633  26.337  1.00  0.00     0.009 A 
BRANCH  21  26
ATOM     26  C   UNL A   1      34.371  32.316  28.565  1.00  0.00     0.099 C 
ATOM     27  N   UNL A   1      35.064  32.914  29.286  1.00  0.00    -0.192 NA
ENDBRANCH  21  26
ENDBRANCH  19  20
ENDBRANCH  15  18
ENDBRANCH  10  14
ENDBRANCH   7   9
ENDBRANCH   6   7
ENDBRANCH   5   6
ENDBRANCH   4   5
ENDBRANCH   3   4
ENDBRANCH   2   3
ENDBRANCH   1   2
BRANCH   1  28
ATOM     28  O   UNL A   1      36.462  19.826  25.018  1.00  0.00    -0.377 OA
BRANCH  28  29
ATOM     29  C   UNL A   1      37.823  19.947  24.619  1.00  0.00     0.188 C 
BRANCH  29  30
ATOM     30  C   UNL A   1      38.954  20.145  25.661  1.00  0.00     0.188 C 
BRANCH  30  31
ATOM     31  O   UNL A   1      39.937  19.124  25.685  1.00  0.00    -0.376 OA
BRANCH  31  32
ATOM     32  C   UNL A   1      41.255  19.414  26.111  1.00  0.00     0.202 C 
BRANCH  32  33
ATOM     33  C   UNL A   1      42.409  18.484  25.701  1.00  0.00     0.261 C 
BRANCH  33  34
ATOM     34  O   UNL A   1      43.738  19.005  25.819  1.00  0.00    -0.460 OA
BRANCH  34  35
ATOM     35  C   UNL A   1      44.189  19.794  24.818  1.00  0.00     0.338 C 
ATOM     36  O   UNL A   1      44.413  19.456  23.672  1.00  0.00    -0.246 OA
BRANCH  35  37
ATOM     37  C   UNL A   1      44.163  21.193  25.305  1.00  0.00     0.060 A 
ATOM     38  C   UNL A   1      44.038  22.239  24.379  1.00  0.00     0.016 A 
ATOM     39  C   UNL A   1      44.232  21.468  26.672  1.00  0.00     0.016 A 
ATOM     40  C   UNL A   1      44.024  23.564  24.815  1.00  0.00     0.010 A 
ATOM     41  C   UNL A   1      44.244  22.797  27.105  1.00  0.00     0.010 A 
ATOM     42  C   UNL A   1      44.179  23.851  26.176  1.00  0.00    -0.014 A 
BRANCH  42  43
ATOM     43  C   UNL A   1      44.486  25.237  26.610  1.00  0.00     0.031 A 
ATOM     44  C   UNL A   1      45.856  25.786  26.316  1.00  0.00     0.074 A 
ATOM     45  C   UNL A   1      43.572  25.997  27.239  1.00  0.00     0.049 A 
ATOM     46  N   UNL A   1      46.379  26.939  26.639  1.00  0.00    -0.248 NA
ATOM     47  C   UNL A   1      46.760  24.904  25.560  1.00  0.00     0.031 C 
ATOM     48  C   UNL A   1      42.197  25.599  27.530  1.00  0.00     0.029 A 
ATOM     49  N   UNL A   1      43.675  27.265  27.752  1.00  0.00    -0.354 N 
ATOM     50  C   UNL A   1      47.679  26.915  26.145  1.00  0.00     0.074 A 
ATOM     51  C   UNL A   1      47.874  25.619  25.534  1.00  0.00     0.031 C 
ATOM     52  C   UNL A   1      41.582  26.607  28.172  1.00  0.00     0.029 A 
ATOM     53  C   UNL A   1      42.530  27.703  28.373  1.00  0.00     0.049 A 
ATOM     54  H   UNL A   1      44.492  27.811  27.682  1.00  0.00     0.167 HD
ATOM     55  C   UNL A   1      48.621  27.887  26.193  1.00  0.00     0.037 A 
ATOM     56  C   UNL A   1      42.285  28.847  29.041  1.00  0.00     0.037 A 
ATOM     57  C   UNL A   1      48.418  29.169  26.816  1.00  0.00     0.049 A 
ATOM     58  C   UNL A   1      43.377  29.879  29.165  1.00  0.00     0.074 A 
ATOM     59  C   UNL A   1      49.299  30.234  26.899  1.00  0.00     0.029 A 
ATOM     60  N   UNL A   1      47.263  29.555  27.481  1.00  0.00    -0.354 N 
ATOM     61  N   UNL A   1      44.593  29.861  28.671  1.00  0.00    -0.248 NA
ATOM     62  C   UNL A   1      43.063  31.089  29.938  1.00  0.00     0.031 C 
ATOM     63  C   UNL A   1      48.706  31.229  27.683  1.00  0.00     0.029 A 
ATOM     64  C   UNL A   1      47.423  30.823  28.016  1.00  0.00     0.049 A 
ATOM     65  H   UNL A   1      46.449  29.007  27.562  1.00  0.00     0.167 HD
ATOM     66  C   UNL A   1      45.175  31.071  29.039  1.00  0.00     0.074 A 
ATOM     67  C   UNL A   1      44.174  31.798  29.794  1.00  0.00     0.031 C 
ATOM     68  C   UNL A   1      46.420  31.540  28.768  1.00  0.00     0.037 A 
BRANCH  55  69
ATOM     69  C   UNL A   1      49.973  27.569  25.604  1.00  0.00     0.058 A 
ATOM     70  C   UNL A   1      50.217  27.605  24.221  1.00  0.00     0.135 A 
ATOM     71  C   UNL A   1      51.039  27.203  26.442  1.00  0.00     0.135 A 
ATOM     72  F   UNL A   1      49.235  27.934  23.368  1.00  0.00    -0.206 F 
ATOM     73  C   UNL A   1      51.448  27.232  23.689  1.00  0.00     0.059 A 
ATOM     74  C   UNL A   1      52.290  26.866  25.935  1.00  0.00     0.059 A 
ATOM     75  F   UNL A   1      50.868  27.153  27.773  1.00  0.00    -0.206 F 
ATOM     76  C   UNL A   1      52.477  26.857  24.554  1.00  0.00     0.060 A 
BRANCH  76  77
ATOM     77  S   UNL A   1      54.052  26.335  23.846  1.00  0.00     0.124 S 
ATOM     78  O   UNL A   1      54.276  25.070  24.539  1.00  0.00    -0.237 OA
ATOM     79  O   UNL A   1      53.735  26.232  22.426  1.00  0.00    -0.237 OA
ATOM     80  O   UNL A   1      54.964  27.417  24.206  1.00  0.00    -0.744 OA
ENDBRANCH  76  77
ENDBRANCH  55  69
BRANCH  56  81
ATOM     81  C   UNL A   1      40.937  29.091  29.625  1.00  0.00     0.058 A 
ATOM     82  C   UNL A   1      40.712  28.929  31.000  1.00  0.00     0.135 A 
ATOM     83  C   UNL A   1      39.858  29.511  28.832  1.00  0.00     0.135 A 
ATOM     84  F   UNL A   1      41.708  28.511  31.797  1.00  0.00    -0.206 F 
ATOM     85  C   UNL A   1      39.469  29.177  31.569  1.00  0.00     0.059 A 
ATOM     86  C   UNL A   1      38.611  29.793  29.383  1.00  0.00     0.059 A 
ATOM     87  F   UNL A   1      40.020  29.685  27.511  1.00  0.00    -0.206 F 
ATOM     88  C   UNL A   1      38.427  29.621  30.754  1.00  0.00     0.060 A 
BRANCH  88  89
ATOM     89  S   UNL A   1      36.844  30.026  31.524  1.00  0.00     0.124 S 
ATOM     90  O   UNL A   1      36.972  31.464  31.727  1.00  0.00    -0.237 OA
ATOM     91  O   UNL A   1      35.895  29.605  30.498  1.00  0.00    -0.237 OA
ATOM     92  O   UNL A   1      36.844  29.214  32.738  1.00  0.00    -0.744 OA
ENDBRANCH  88  89
ENDBRANCH  56  81
BRANCH  68  93
ATOM     93  C   UNL A   1      46.766  32.927  29.249  1.00  0.00     0.058 A 
ATOM     94  C   UNL A   1      46.408  34.079  28.533  1.00  0.00     0.135 A 
ATOM     95  C   UNL A   1      47.421  33.105  30.481  1.00  0.00     0.135 A 
ATOM     96  F   UNL A   1      45.787  33.972  27.347  1.00  0.00    -0.206 F 
ATOM     97  C   UNL A   1      46.710  35.354  29.003  1.00  0.00     0.059 A 
ATOM     98  C   UNL A   1      47.699  34.369  30.989  1.00  0.00     0.059 A 
ATOM     99  F   UNL A   1      47.779  32.040  31.217  1.00  0.00    -0.206 F 
ATOM    100  C   UNL A   1      47.350  35.489  30.236  1.00  0.00     0.060 A 
BRANCH 100 101
ATOM    101  S   UNL A   1      47.702  37.150  30.851  1.00  0.00     0.124 S 
ATOM    102  O   UNL A   1      49.072  37.351  30.392  1.00  0.00    -0.237 OA
ATOM    103  O   UNL A   1      46.683  37.950  30.178  1.00  0.00    -0.237 OA
ATOM    104  O   UNL A   1      47.537  37.021  32.296  1.00  0.00    -0.744 OA
ENDBRANCH 100 101
ENDBRANCH  68  93
ENDBRANCH  42  43
ENDBRANCH  35  37
ENDBRANCH  34  35
ENDBRANCH  33  34
ENDBRANCH  32  33
ENDBRANCH  31  32
ENDBRANCH  30  31
ENDBRANCH  29  30
ENDBRANCH  28  29
ENDBRANCH   1  28
TORSDOF 27
ENDMDL
