MODEL 1
REMARK VINA RESULT:     -10.7      0.000      0.000
REMARK SMILES CN1C(=O)C[C@@H](C(=O)OCCOCCOCCOCCOC(=O)c2ccc(-c3c4nc(c(-c5c(F)cc(S(=O)(=O)[O-])cc5F)c5ccc([nH]5)c(-c5c(F)cc(S(=O)(=O)[O-])cc5F)c5nc(c(-c6c(F)cc(S(=O)(=O)[O-])cc6F)c6ccc3[nH]6)C=C5)C=C4)cc2)C12CCN(S(=O)(=O)c1ccccc1F)CC2
REMARK SMILES IDX 16 1 15 2 14 3 13 4 12 5 11 6 10 7 9 8 7 9 8 10 6 11 1 12
REMARK SMILES IDX 2 13 3 14 90 15 4 16 5 17 91 18 105 19 92 20 104 21 93 22
REMARK SMILES IDX 94 23 95 24 96 25 97 26 98 27 102 28 99 29 101 30 103 31
REMARK SMILES IDX 100 32 17 33 18 34 19 35 20 36 21 37 22 38 23 39 24 40 25 41
REMARK SMILES IDX 89 42 26 43 88 44 27 45 28 46 29 47 82 48 30 49 87 50 81 51
REMARK SMILES IDX 83 52 31 53 86 54 80 55 79 56 32 58 66 59 45 60 65 61 46 62
REMARK SMILES IDX 49 63 64 64 84 65 47 66 48 67 63 69 85 70 50 71 33 72 34 73
REMARK SMILES IDX 43 74 35 75 36 76 42 77 44 78 37 79 38 80 39 81 40 82 41 83
REMARK SMILES IDX 67 84 68 85 77 86 69 87 70 88 76 89 78 90 71 91 72 92 73 93
REMARK SMILES IDX 74 94 75 95 51 96 52 97 61 98 53 99 54 100 60 101 62 102
REMARK SMILES IDX 55 103 56 104 57 105 58 106 59 107
REMARK H PARENT 83 57 49 68
REMARK Flexibility Score: inf
ROOT
ATOM      1  C   UNL A   1      35.656  30.625  27.634  1.00  0.00     0.188 C 
ENDROOT
BRANCH   1   2
ATOM      2  O   UNL A   1      34.423  29.911  27.625  1.00  0.00    -0.377 OA
BRANCH   2   3
ATOM      3  C   UNL A   1      33.256  30.458  27.045  1.00  0.00     0.188 C 
BRANCH   3   4
ATOM      4  C   UNL A   1      32.012  29.575  27.048  1.00  0.00     0.188 C 
BRANCH   4   5
ATOM      5  O   UNL A   1      31.693  28.861  25.876  1.00  0.00    -0.376 OA
BRANCH   5   6
ATOM      6  C   UNL A   1      32.277  29.254  24.634  1.00  0.00     0.202 C 
BRANCH   6   7
ATOM      7  C   UNL A   1      33.093  28.274  23.762  1.00  0.00     0.261 C 
BRANCH   7   8
ATOM      8  O   UNL A   1      32.429  27.684  22.603  1.00  0.00    -0.463 OA
BRANCH   8   9
ATOM      9  C   UNL A   1      32.878  26.469  22.230  1.00  0.00     0.311 C 
ATOM     10  O   UNL A   1      33.712  26.307  21.335  1.00  0.00    -0.252 OA
BRANCH   9  11
ATOM     11  C   UNL A   1      32.255  25.221  22.847  1.00  0.00     0.134 C 
ATOM     12  C   UNL A   1      31.554  24.782  26.534  1.00  0.00     0.147 C 
ATOM     13  N   UNL A   1      31.658  25.113  25.119  1.00  0.00    -0.339 N 
ATOM     14  C   UNL A   1      30.595  25.748  24.494  1.00  0.00     0.223 C 
ATOM     15  C   UNL A   1      32.572  24.452  24.169  1.00  0.00     0.059 C 
ATOM     16  O   UNL A   1      29.619  26.243  25.033  1.00  0.00    -0.275 OA
ATOM     17  C   UNL A   1      30.771  25.613  23.011  1.00  0.00     0.118 C 
ATOM     18  C   UNL A   1      34.017  24.455  24.690  1.00  0.00     0.046 C 
ATOM     19  C   UNL A   1      32.115  22.959  24.000  1.00  0.00     0.046 C 
ATOM     20  C   UNL A   1      34.963  23.479  24.012  1.00  0.00     0.105 C 
ATOM     21  C   UNL A   1      33.124  22.061  23.282  1.00  0.00     0.105 C 
ATOM     22  N   UNL A   1      34.454  22.098  23.940  1.00  0.00    -0.198 NA
BRANCH  22  23
ATOM     23  S   UNL A   1      34.638  21.038  25.265  1.00  0.00     0.245 S 
ATOM     24  O   UNL A   1      36.033  20.987  25.616  1.00  0.00    -0.207 OA
ATOM     25  O   UNL A   1      33.664  21.467  26.261  1.00  0.00    -0.207 OA
BRANCH  23  26
ATOM     26  C   UNL A   1      34.121  19.441  24.710  1.00  0.00     0.118 A 
ATOM     27  C   UNL A   1      32.762  19.149  24.527  1.00  0.00     0.025 A 
ATOM     28  C   UNL A   1      35.061  18.422  24.609  1.00  0.00     0.143 A 
ATOM     29  C   UNL A   1      32.364  17.843  24.221  1.00  0.00     0.002 A 
ATOM     30  C   UNL A   1      34.662  17.118  24.317  1.00  0.00     0.041 A 
ATOM     31  F   UNL A   1      36.371  18.663  24.742  1.00  0.00    -0.206 F 
ATOM     32  C   UNL A   1      33.314  16.826  24.121  1.00  0.00     0.003 A 
ENDBRANCH  23  26
ENDBRANCH  22  23
ENDBRANCH   9  11
ENDBRANCH   8   9
ENDBRANCH   7   8
ENDBRANCH   6   7
ENDBRANCH   5   6
ENDBRANCH   4   5
ENDBRANCH   3   4
ENDBRANCH   2   3
ENDBRANCH   1   2
BRANCH   1  33
ATOM     33  C   UNL A   1      35.668  32.105  28.024  1.00  0.00     0.188 C 
BRANCH  33  34
ATOM     34  O   UNL A   1      34.966  32.471  29.215  1.00  0.00    -0.376 OA
BRANCH  34  35
ATOM     35  C   UNL A   1      35.181  31.680  30.380  1.00  0.00     0.202 C 
BRANCH  35  36
ATOM     36  C   UNL A   1      35.660  32.456  31.599  1.00  0.00     0.261 C 
BRANCH  36  37
ATOM     37  O   UNL A   1      36.837  31.850  32.163  1.00  0.00    -0.460 OA
BRANCH  37  38
ATOM     38  C   UNL A   1      38.001  32.429  31.802  1.00  0.00     0.338 C 
ATOM     39  O   UNL A   1      38.378  33.555  32.088  1.00  0.00    -0.246 OA
BRANCH  38  40
ATOM     40  C   UNL A   1      38.879  31.459  31.125  1.00  0.00     0.060 A 
ATOM     41  C   UNL A   1      39.851  30.831  31.909  1.00  0.00     0.016 A 
ATOM     42  C   UNL A   1      38.867  31.292  29.737  1.00  0.00     0.016 A 
ATOM     43  C   UNL A   1      40.871  30.108  31.301  1.00  0.00     0.010 A 
ATOM     44  C   UNL A   1      39.897  30.566  29.127  1.00  0.00     0.010 A 
ATOM     45  C   UNL A   1      40.934  30.026  29.904  1.00  0.00    -0.014 A 
BRANCH  45  46
ATOM     46  C   UNL A   1      42.188  29.545  29.277  1.00  0.00     0.031 A 
ATOM     47  C   UNL A   1      43.346  30.499  29.144  1.00  0.00     0.074 A 
ATOM     48  C   UNL A   1      42.314  28.261  28.902  1.00  0.00     0.049 A 
ATOM     49  N   UNL A   1      44.548  30.285  28.675  1.00  0.00    -0.248 NA
ATOM     50  C   UNL A   1      43.118  31.879  29.605  1.00  0.00     0.031 C 
ATOM     51  C   UNL A   1      41.266  27.247  29.011  1.00  0.00     0.029 A 
ATOM     52  N   UNL A   1      43.377  27.592  28.352  1.00  0.00    -0.354 N 
ATOM     53  C   UNL A   1      45.217  31.501  28.780  1.00  0.00     0.074 A 
ATOM     54  C   UNL A   1      44.278  32.456  29.325  1.00  0.00     0.031 C 
ATOM     55  C   UNL A   1      41.737  26.083  28.532  1.00  0.00     0.029 A 
ATOM     56  C   UNL A   1      43.108  26.277  28.060  1.00  0.00     0.049 A 
ATOM     57  H   UNL A   1      44.250  28.015  28.183  1.00  0.00     0.167 HD
ATOM     58  C   UNL A   1      46.503  31.788  28.462  1.00  0.00     0.037 A 
ATOM     59  C   UNL A   1      43.874  25.345  27.463  1.00  0.00     0.037 A 
ATOM     60  C   UNL A   1      47.426  30.827  27.916  1.00  0.00     0.049 A 
ATOM     61  C   UNL A   1      45.284  25.698  27.069  1.00  0.00     0.074 A 
ATOM     62  C   UNL A   1      48.756  31.005  27.580  1.00  0.00     0.029 A 
ATOM     63  N   UNL A   1      47.109  29.510  27.611  1.00  0.00    -0.354 N 
ATOM     64  N   UNL A   1      45.919  26.838  27.215  1.00  0.00    -0.248 NA
ATOM     65  C   UNL A   1      46.085  24.640  26.441  1.00  0.00     0.031 C 
ATOM     66  C   UNL A   1      49.226  29.813  27.017  1.00  0.00     0.029 A 
ATOM     67  C   UNL A   1      48.209  28.872  27.061  1.00  0.00     0.049 A 
ATOM     68  H   UNL A   1      46.231  29.091  27.763  1.00  0.00     0.167 HD
ATOM     69  C   UNL A   1      47.202  26.627  26.717  1.00  0.00     0.074 A 
ATOM     70  C   UNL A   1      47.254  25.247  26.281  1.00  0.00     0.031 C 
ATOM     71  C   UNL A   1      48.241  27.496  26.631  1.00  0.00     0.037 A 
BRANCH  58  72
ATOM     72  C   UNL A   1      46.972  33.205  28.662  1.00  0.00     0.058 A 
ATOM     73  C   UNL A   1      47.563  33.632  29.864  1.00  0.00     0.135 A 
ATOM     74  C   UNL A   1      46.845  34.148  27.629  1.00  0.00     0.135 A 
ATOM     75  F   UNL A   1      47.697  32.779  30.892  1.00  0.00    -0.206 F 
ATOM     76  C   UNL A   1      47.978  34.947  30.045  1.00  0.00     0.059 A 
ATOM     77  C   UNL A   1      47.279  35.463  27.778  1.00  0.00     0.059 A 
ATOM     78  F   UNL A   1      46.287  33.798  26.460  1.00  0.00    -0.206 F 
ATOM     79  C   UNL A   1      47.829  35.858  28.996  1.00  0.00     0.060 A 
BRANCH  79  80
ATOM     80  S   UNL A   1      48.357  37.564  29.251  1.00  0.00     0.124 S 
ATOM     81  O   UNL A   1      48.100  37.739  30.677  1.00  0.00    -0.237 OA
ATOM     82  O   UNL A   1      49.764  37.517  28.863  1.00  0.00    -0.237 OA
ATOM     83  O   UNL A   1      47.489  38.327  28.360  1.00  0.00    -0.744 OA
ENDBRANCH  79  80
ENDBRANCH  58  72
BRANCH  59  84
ATOM     84  C   UNL A   1      43.312  23.994  27.194  1.00  0.00     0.058 A 
ATOM     85  C   UNL A   1      43.289  23.000  28.182  1.00  0.00     0.135 A 
ATOM     86  C   UNL A   1      42.757  23.683  25.941  1.00  0.00     0.135 A 
ATOM     87  F   UNL A   1      43.814  23.244  29.392  1.00  0.00    -0.206 F 
ATOM     88  C   UNL A   1      42.744  21.743  27.937  1.00  0.00     0.059 A 
ATOM     89  C   UNL A   1      42.182  22.445  25.681  1.00  0.00     0.059 A 
ATOM     90  F   UNL A   1      42.743  24.605  24.965  1.00  0.00    -0.206 F 
ATOM     91  C   UNL A   1      42.185  21.477  26.685  1.00  0.00     0.060 A 
BRANCH  91  92
ATOM     92  S   UNL A   1      41.423  19.866  26.402  1.00  0.00     0.124 S 
ATOM     93  O   UNL A   1      42.236  19.343  25.309  1.00  0.00    -0.237 OA
ATOM     94  O   UNL A   1      41.598  19.215  27.696  1.00  0.00    -0.237 OA
ATOM     95  O   UNL A   1      40.044  20.202  26.058  1.00  0.00    -0.744 OA
ENDBRANCH  91  92
ENDBRANCH  59  84
BRANCH  71  96
ATOM     96  C   UNL A   1      49.536  26.973  26.068  1.00  0.00     0.058 A 
ATOM     97  C   UNL A   1      49.838  27.061  24.701  1.00  0.00     0.135 A 
ATOM     98  C   UNL A   1      50.511  26.429  26.922  1.00  0.00     0.135 A 
ATOM     99  F   UNL A   1      48.940  27.568  23.841  1.00  0.00    -0.206 F 
ATOM    100  C   UNL A   1      51.051  26.605  24.194  1.00  0.00     0.059 A 
ATOM    101  C   UNL A   1      51.742  25.995  26.441  1.00  0.00     0.059 A 
ATOM    102  F   UNL A   1      50.279  26.334  28.240  1.00  0.00    -0.206 F 
ATOM    103  C   UNL A   1      51.998  26.076  25.073  1.00  0.00     0.060 A 
BRANCH 103 104
ATOM    104  S   UNL A   1      53.580  25.518  24.407  1.00  0.00     0.124 S 
ATOM    105  O   UNL A   1      53.449  25.876  22.998  1.00  0.00    -0.237 OA
ATOM    106  O   UNL A   1      54.538  26.308  25.175  1.00  0.00    -0.237 OA
ATOM    107  O   UNL A   1      53.585  24.087  24.693  1.00  0.00    -0.744 OA
ENDBRANCH 103 104
ENDBRANCH  71  96
ENDBRANCH  45  46
ENDBRANCH  38  40
ENDBRANCH  37  38
ENDBRANCH  36  37
ENDBRANCH  35  36
ENDBRANCH  34  35
ENDBRANCH  33  34
ENDBRANCH   1  33
TORSDOF 25
ENDMDL
MODEL 2
REMARK VINA RESULT:     -10.4      5.413      7.743
REMARK SMILES CN1C(=O)C[C@@H](C(=O)OCCOCCOCCOCCOC(=O)c2ccc(-c3c4nc(c(-c5c(F)cc(S(=O)(=O)[O-])cc5F)c5ccc([nH]5)c(-c5c(F)cc(S(=O)(=O)[O-])cc5F)c5nc(c(-c6c(F)cc(S(=O)(=O)[O-])cc6F)c6ccc3[nH]6)C=C5)C=C4)cc2)C12CCN(S(=O)(=O)c1ccccc1F)CC2
REMARK SMILES IDX 16 1 15 2 14 3 13 4 12 5 11 6 10 7 9 8 7 9 8 10 6 11 1 12
REMARK SMILES IDX 2 13 3 14 90 15 4 16 5 17 91 18 105 19 92 20 104 21 93 22
REMARK SMILES IDX 94 23 95 24 96 25 97 26 98 27 102 28 99 29 101 30 103 31
REMARK SMILES IDX 100 32 17 33 18 34 19 35 20 36 21 37 22 38 23 39 24 40 25 41
REMARK SMILES IDX 89 42 26 43 88 44 27 45 28 46 29 47 82 48 30 49 87 50 81 51
REMARK SMILES IDX 83 52 31 53 86 54 80 55 79 56 32 58 66 59 45 60 65 61 46 62
REMARK SMILES IDX 49 63 64 64 84 65 47 66 48 67 63 69 85 70 50 71 33 72 34 73
REMARK SMILES IDX 43 74 35 75 36 76 42 77 44 78 37 79 38 80 39 81 40 82 41 83
REMARK SMILES IDX 67 84 68 85 77 86 69 87 70 88 76 89 78 90 71 91 72 92 73 93
REMARK SMILES IDX 74 94 75 95 51 96 52 97 61 98 53 99 54 100 60 101 62 102
REMARK SMILES IDX 55 103 56 104 57 105 58 106 59 107
REMARK H PARENT 83 57 49 68
REMARK Flexibility Score: inf
ROOT
ATOM      1  C   UNL A   1      35.118  29.910  27.494  1.00  0.00     0.188 C 
ENDROOT
BRANCH   1   2
ATOM      2  O   UNL A   1      34.418  28.693  27.242  1.00  0.00    -0.377 OA
BRANCH   2   3
ATOM      3  C   UNL A   1      33.009  28.659  27.149  1.00  0.00     0.188 C 
BRANCH   3   4
ATOM      4  C   UNL A   1      32.420  28.463  25.755  1.00  0.00     0.188 C 
BRANCH   4   5
ATOM      5  O   UNL A   1      33.254  28.672  24.639  1.00  0.00    -0.376 OA
BRANCH   5   6
ATOM      6  C   UNL A   1      33.113  27.835  23.491  1.00  0.00     0.202 C 
BRANCH   6   7
ATOM      7  C   UNL A   1      31.989  28.046  22.452  1.00  0.00     0.261 C 
BRANCH   7   8
ATOM      8  O   UNL A   1      31.494  26.869  21.742  1.00  0.00    -0.463 OA
BRANCH   8   9
ATOM      9  C   UNL A   1      32.236  25.753  21.876  1.00  0.00     0.311 C 
ATOM     10  O   UNL A   1      33.268  25.551  21.231  1.00  0.00    -0.252 OA
BRANCH   9  11
ATOM     11  C   UNL A   1      31.734  24.625  22.773  1.00  0.00     0.134 C 
ATOM     12  C   UNL A   1      31.745  24.733  26.549  1.00  0.00     0.147 C 
ATOM     13  N   UNL A   1      31.579  24.859  25.107  1.00  0.00    -0.339 N 
ATOM     14  C   UNL A   1      30.421  25.434  24.607  1.00  0.00     0.223 C 
ATOM     15  C   UNL A   1      32.292  24.040  24.109  1.00  0.00     0.059 C 
ATOM     16  O   UNL A   1      29.569  26.033  25.243  1.00  0.00    -0.275 OA
ATOM     17  C   UNL A   1      30.311  25.086  23.153  1.00  0.00     0.118 C 
ATOM     18  C   UNL A   1      33.809  24.067  24.344  1.00  0.00     0.046 C 
ATOM     19  C   UNL A   1      31.801  22.554  24.246  1.00  0.00     0.046 C 
ATOM     20  C   UNL A   1      34.603  22.975  23.649  1.00  0.00     0.105 C 
ATOM     21  C   UNL A   1      32.649  21.530  23.489  1.00  0.00     0.105 C 
ATOM     22  N   UNL A   1      34.081  21.615  23.874  1.00  0.00    -0.198 NA
BRANCH  22  23
ATOM     23  S   UNL A   1      34.507  20.747  25.280  1.00  0.00     0.245 S 
ATOM     24  O   UNL A   1      35.937  20.806  25.435  1.00  0.00    -0.207 OA
ATOM     25  O   UNL A   1      33.649  21.256  26.343  1.00  0.00    -0.207 OA
BRANCH  23  26
ATOM     26  C   UNL A   1      34.024  19.068  25.003  1.00  0.00     0.118 A 
ATOM     27  C   UNL A   1      32.727  18.635  25.312  1.00  0.00     0.025 A 
ATOM     28  C   UNL A   1      34.986  18.139  24.625  1.00  0.00     0.143 A 
ATOM     29  C   UNL A   1      32.405  17.276  25.216  1.00  0.00     0.002 A 
ATOM     30  C   UNL A   1      34.668  16.785  24.543  1.00  0.00     0.041 A 
ATOM     31  F   UNL A   1      36.226  18.515  24.288  1.00  0.00    -0.206 F 
ATOM     32  C   UNL A   1      33.376  16.350  24.836  1.00  0.00     0.003 A 
ENDBRANCH  23  26
ENDBRANCH  22  23
ENDBRANCH   9  11
ENDBRANCH   8   9
ENDBRANCH   7   8
ENDBRANCH   6   7
ENDBRANCH   5   6
ENDBRANCH   4   5
ENDBRANCH   3   4
ENDBRANCH   2   3
ENDBRANCH   1   2
BRANCH   1  33
ATOM     33  C   UNL A   1      34.397  31.064  28.193  1.00  0.00     0.188 C 
BRANCH  33  34
ATOM     34  O   UNL A   1      34.100  32.220  27.406  1.00  0.00    -0.376 OA
BRANCH  34  35
ATOM     35  C   UNL A   1      32.850  32.867  27.625  1.00  0.00     0.202 C 
BRANCH  35  36
ATOM     36  C   UNL A   1      32.941  34.367  27.866  1.00  0.00     0.261 C 
BRANCH  36  37
ATOM     37  O   UNL A   1      32.523  34.698  29.204  1.00  0.00    -0.460 OA
BRANCH  37  38
ATOM     38  C   UNL A   1      33.487  35.233  29.982  1.00  0.00     0.338 C 
ATOM     39  O   UNL A   1      33.426  36.281  30.606  1.00  0.00    -0.246 OA
BRANCH  38  40
ATOM     40  C   UNL A   1      34.615  34.297  30.132  1.00  0.00     0.060 A 
ATOM     41  C   UNL A   1      34.440  33.233  31.022  1.00  0.00     0.016 A 
ATOM     42  C   UNL A   1      35.863  34.544  29.555  1.00  0.00     0.016 A 
ATOM     43  C   UNL A   1      35.533  32.466  31.409  1.00  0.00     0.010 A 
ATOM     44  C   UNL A   1      36.963  33.773  29.949  1.00  0.00     0.010 A 
ATOM     45  C   UNL A   1      36.810  32.774  30.924  1.00  0.00    -0.014 A 
BRANCH  45  46
ATOM     46  C   UNL A   1      37.988  32.172  31.593  1.00  0.00     0.031 A 
ATOM     47  C   UNL A   1      38.410  32.705  32.938  1.00  0.00     0.074 A 
ATOM     48  C   UNL A   1      38.621  31.121  31.045  1.00  0.00     0.049 A 
ATOM     49  N   UNL A   1      39.374  32.303  33.724  1.00  0.00    -0.248 NA
ATOM     50  C   UNL A   1      37.639  33.843  33.466  1.00  0.00     0.031 C 
ATOM     51  C   UNL A   1      38.278  30.509  29.762  1.00  0.00     0.029 A 
ATOM     52  N   UNL A   1      39.686  30.386  31.498  1.00  0.00    -0.354 N 
ATOM     53  C   UNL A   1      39.329  33.137  34.836  1.00  0.00     0.074 A 
ATOM     54  C   UNL A   1      38.265  34.090  34.607  1.00  0.00     0.031 C 
ATOM     55  C   UNL A   1      39.125  29.493  29.526  1.00  0.00     0.029 A 
ATOM     56  C   UNL A   1      40.084  29.402  30.626  1.00  0.00     0.049 A 
ATOM     57  H   UNL A   1      40.122  30.547  32.365  1.00  0.00     0.167 HD
ATOM     58  C   UNL A   1      40.098  33.102  35.952  1.00  0.00     0.037 A 
ATOM     59  C   UNL A   1      41.117  28.541  30.701  1.00  0.00     0.037 A 
ATOM     60  C   UNL A   1      41.157  32.150  36.164  1.00  0.00     0.049 A 
ATOM     61  C   UNL A   1      41.992  28.551  31.926  1.00  0.00     0.074 A 
ATOM     62  C   UNL A   1      41.981  32.009  37.265  1.00  0.00     0.029 A 
ATOM     63  N   UNL A   1      41.547  31.184  35.247  1.00  0.00    -0.354 N 
ATOM     64  N   UNL A   1      41.911  29.316  32.990  1.00  0.00    -0.248 NA
ATOM     65  C   UNL A   1      43.091  27.578  31.968  1.00  0.00     0.031 C 
ATOM     66  C   UNL A   1      42.908  30.998  36.990  1.00  0.00     0.029 A 
ATOM     67  C   UNL A   1      42.621  30.464  35.743  1.00  0.00     0.049 A 
ATOM     68  H   UNL A   1      41.123  31.031  34.371  1.00  0.00     0.167 HD
ATOM     69  C   UNL A   1      42.934  28.901  33.837  1.00  0.00     0.074 A 
ATOM     70  C   UNL A   1      43.609  27.808  33.167  1.00  0.00     0.031 C 
ATOM     71  C   UNL A   1      43.282  29.379  35.059  1.00  0.00     0.037 A 
BRANCH  58  72
ATOM     72  C   UNL A   1      39.845  34.146  37.008  1.00  0.00     0.058 A 
ATOM     73  C   UNL A   1      40.393  35.438  36.925  1.00  0.00     0.135 A 
ATOM     74  C   UNL A   1      39.027  33.855  38.112  1.00  0.00     0.135 A 
ATOM     75  F   UNL A   1      41.195  35.767  35.901  1.00  0.00    -0.206 F 
ATOM     76  C   UNL A   1      40.167  36.389  37.914  1.00  0.00     0.059 A 
ATOM     77  C   UNL A   1      38.764  34.802  39.099  1.00  0.00     0.059 A 
ATOM     78  F   UNL A   1      38.478  32.638  38.245  1.00  0.00    -0.206 F 
ATOM     79  C   UNL A   1      39.352  36.061  39.001  1.00  0.00     0.060 A 
BRANCH  79  80
ATOM     80  S   UNL A   1      39.082  37.301  40.284  1.00  0.00     0.124 S 
ATOM     81  O   UNL A   1      38.481  36.498  41.344  1.00  0.00    -0.237 OA
ATOM     82  O   UNL A   1      40.436  37.781  40.544  1.00  0.00    -0.237 OA
ATOM     83  O   UNL A   1      38.190  38.264  39.645  1.00  0.00    -0.744 OA
ENDBRANCH  79  80
ENDBRANCH  58  72
BRANCH  59  84
ATOM     84  C   UNL A   1      41.379  27.608  29.571  1.00  0.00     0.058 A 
ATOM     85  C   UNL A   1      42.529  27.724  28.778  1.00  0.00     0.135 A 
ATOM     86  C   UNL A   1      40.489  26.560  29.284  1.00  0.00     0.135 A 
ATOM     87  F   UNL A   1      43.406  28.713  29.006  1.00  0.00    -0.206 F 
ATOM     88  C   UNL A   1      42.785  26.839  27.735  1.00  0.00     0.059 A 
ATOM     89  C   UNL A   1      40.737  25.647  28.265  1.00  0.00     0.059 A 
ATOM     90  F   UNL A   1      39.379  26.399  30.022  1.00  0.00    -0.206 F 
ATOM     91  C   UNL A   1      41.886  25.798  27.490  1.00  0.00     0.060 A 
BRANCH  91  92
ATOM     92  S   UNL A   1      42.263  24.619  26.177  1.00  0.00     0.124 S 
ATOM     93  O   UNL A   1      41.732  25.305  25.004  1.00  0.00    -0.237 OA
ATOM     94  O   UNL A   1      43.717  24.527  26.260  1.00  0.00    -0.237 OA
ATOM     95  O   UNL A   1      41.541  23.418  26.586  1.00  0.00    -0.744 OA
ENDBRANCH  91  92
ENDBRANCH  59  84
BRANCH  71  96
ATOM     96  C   UNL A   1      44.428  28.705  35.766  1.00  0.00     0.058 A 
ATOM     97  C   UNL A   1      44.236  27.577  36.579  1.00  0.00     0.135 A 
ATOM     98  C   UNL A   1      45.743  29.163  35.579  1.00  0.00     0.135 A 
ATOM     99  F   UNL A   1      43.000  27.102  36.795  1.00  0.00    -0.206 F 
ATOM    100  C   UNL A   1      45.305  26.942  37.202  1.00  0.00     0.059 A 
ATOM    101  C   UNL A   1      46.829  28.524  36.168  1.00  0.00     0.059 A 
ATOM    102  F   UNL A   1      45.984  30.230  34.801  1.00  0.00    -0.206 F 
ATOM    103  C   UNL A   1      46.599  27.421  36.988  1.00  0.00     0.060 A 
BRANCH 103 104
ATOM    104  S   UNL A   1      47.980  26.567  37.777  1.00  0.00     0.124 S 
ATOM    105  O   UNL A   1      47.318  25.911  38.899  1.00  0.00    -0.237 OA
ATOM    106  O   UNL A   1      48.449  25.684  36.713  1.00  0.00    -0.237 OA
ATOM    107  O   UNL A   1      48.892  27.650  38.132  1.00  0.00    -0.744 OA
ENDBRANCH 103 104
ENDBRANCH  71  96
ENDBRANCH  45  46
ENDBRANCH  38  40
ENDBRANCH  37  38
ENDBRANCH  36  37
ENDBRANCH  35  36
ENDBRANCH  34  35
ENDBRANCH  33  34
ENDBRANCH   1  33
TORSDOF 25
ENDMDL
MODEL 3
REMARK VINA RESULT:      -9.9      5.831      8.143
REMARK SMILES CN1C(=O)C[C@@H](C(=O)OCCOCCOCCOCCOC(=O)c2ccc(-c3c4nc(c(-c5c(F)cc(S(=O)(=O)[O-])cc5F)c5ccc([nH]5)c(-c5c(F)cc(S(=O)(=O)[O-])cc5F)c5nc(c(-c6c(F)cc(S(=O)(=O)[O-])cc6F)c6ccc3[nH]6)C=C5)C=C4)cc2)C12CCN(S(=O)(=O)c1ccccc1F)CC2
REMARK SMILES IDX 16 1 15 2 14 3 13 4 12 5 11 6 10 7 9 8 7 9 8 10 6 11 1 12
REMARK SMILES IDX 2 13 3 14 90 15 4 16 5 17 91 18 105 19 92 20 104 21 93 22
REMARK SMILES IDX 94 23 95 24 96 25 97 26 98 27 102 28 99 29 101 30 103 31
REMARK SMILES IDX 100 32 17 33 18 34 19 35 20 36 21 37 22 38 23 39 24 40 25 41
REMARK SMILES IDX 89 42 26 43 88 44 27 45 28 46 29 47 82 48 30 49 87 50 81 51
REMARK SMILES IDX 83 52 31 53 86 54 80 55 79 56 32 58 66 59 45 60 65 61 46 62
REMARK SMILES IDX 49 63 64 64 84 65 47 66 48 67 63 69 85 70 50 71 33 72 34 73
REMARK SMILES IDX 43 74 35 75 36 76 42 77 44 78 37 79 38 80 39 81 40 82 41 83
REMARK SMILES IDX 67 84 68 85 77 86 69 87 70 88 76 89 78 90 71 91 72 92 73 93
REMARK SMILES IDX 74 94 75 95 51 96 52 97 61 98 53 99 54 100 60 101 62 102
REMARK SMILES IDX 55 103 56 104 57 105 58 106 59 107
REMARK H PARENT 83 57 49 68
REMARK Flexibility Score: inf
ROOT
ATOM      1  C   UNL A   1      34.666  30.435  27.243  1.00  0.00     0.188 C 
ENDROOT
BRANCH   1   2
ATOM      2  O   UNL A   1      34.289  29.080  27.008  1.00  0.00    -0.377 OA
BRANCH   2   3
ATOM      3  C   UNL A   1      33.097  28.542  27.542  1.00  0.00     0.188 C 
BRANCH   3   4
ATOM      4  C   UNL A   1      31.941  28.342  26.567  1.00  0.00     0.188 C 
BRANCH   4   5
ATOM      5  O   UNL A   1      31.376  29.478  25.953  1.00  0.00    -0.376 OA
BRANCH   5   6
ATOM      6  C   UNL A   1      31.436  29.610  24.533  1.00  0.00     0.202 C 
BRANCH   6   7
ATOM      7  C   UNL A   1      30.198  29.391  23.633  1.00  0.00     0.261 C 
BRANCH   7   8
ATOM      8  O   UNL A   1      30.244  28.291  22.673  1.00  0.00    -0.463 OA
BRANCH   8   9
ATOM      9  C   UNL A   1      30.346  27.058  23.205  1.00  0.00     0.311 C 
ATOM     10  O   UNL A   1      29.372  26.422  23.616  1.00  0.00    -0.252 OA
BRANCH   9  11
ATOM     11  C   UNL A   1      31.728  26.452  23.428  1.00  0.00     0.134 C 
ATOM     12  C   UNL A   1      32.976  23.306  21.748  1.00  0.00     0.147 C 
ATOM     13  N   UNL A   1      32.502  24.613  22.183  1.00  0.00    -0.339 N 
ATOM     14  C   UNL A   1      32.743  25.720  21.384  1.00  0.00     0.223 C 
ATOM     15  C   UNL A   1      32.194  24.969  23.581  1.00  0.00     0.059 C 
ATOM     16  O   UNL A   1      33.161  25.717  20.237  1.00  0.00    -0.275 OA
ATOM     17  C   UNL A   1      32.532  26.954  22.210  1.00  0.00     0.118 C 
ATOM     18  C   UNL A   1      31.227  23.958  24.216  1.00  0.00     0.046 C 
ATOM     19  C   UNL A   1      33.533  24.949  24.403  1.00  0.00     0.046 C 
ATOM     20  C   UNL A   1      31.147  23.986  25.732  1.00  0.00     0.105 C 
ATOM     21  C   UNL A   1      33.350  25.007  25.921  1.00  0.00     0.105 C 
ATOM     22  N   UNL A   1      32.457  23.924  26.405  1.00  0.00    -0.198 NA
BRANCH  22  23
ATOM     23  S   UNL A   1      33.219  22.422  26.677  1.00  0.00     0.245 S 
ATOM     24  O   UNL A   1      33.412  22.260  28.094  1.00  0.00    -0.207 OA
ATOM     25  O   UNL A   1      32.437  21.435  25.942  1.00  0.00    -0.207 OA
BRANCH  23  26
ATOM     26  C   UNL A   1      34.798  22.505  25.884  1.00  0.00     0.118 A 
ATOM     27  C   UNL A   1      35.847  23.244  26.449  1.00  0.00     0.025 A 
ATOM     28  C   UNL A   1      34.947  21.963  24.613  1.00  0.00     0.143 A 
ATOM     29  C   UNL A   1      37.042  23.411  25.740  1.00  0.00     0.002 A 
ATOM     30  C   UNL A   1      36.133  22.142  23.903  1.00  0.00     0.041 A 
ATOM     31  F   UNL A   1      33.984  21.222  24.052  1.00  0.00    -0.206 F 
ATOM     32  C   UNL A   1      37.184  22.864  24.465  1.00  0.00     0.003 A 
ENDBRANCH  23  26
ENDBRANCH  22  23
ENDBRANCH   9  11
ENDBRANCH   8   9
ENDBRANCH   7   8
ENDBRANCH   6   7
ENDBRANCH   5   6
ENDBRANCH   4   5
ENDBRANCH   3   4
ENDBRANCH   2   3
ENDBRANCH   1   2
BRANCH   1  33
ATOM     33  C   UNL A   1      33.641  31.414  27.821  1.00  0.00     0.188 C 
BRANCH  33  34
ATOM     34  O   UNL A   1      33.934  32.808  27.706  1.00  0.00    -0.376 OA
BRANCH  34  35
ATOM     35  C   UNL A   1      32.869  33.729  27.926  1.00  0.00     0.202 C 
BRANCH  35  36
ATOM     36  C   UNL A   1      33.303  35.096  28.435  1.00  0.00     0.261 C 
BRANCH  36  37
ATOM     37  O   UNL A   1      32.479  35.518  29.537  1.00  0.00    -0.460 OA
BRANCH  37  38
ATOM     38  C   UNL A   1      33.122  35.616  30.720  1.00  0.00     0.338 C 
ATOM     39  O   UNL A   1      32.785  36.286  31.683  1.00  0.00    -0.246 OA
BRANCH  38  40
ATOM     40  C   UNL A   1      34.243  34.662  30.785  1.00  0.00     0.060 A 
ATOM     41  C   UNL A   1      34.099  33.575  31.653  1.00  0.00     0.016 A 
ATOM     42  C   UNL A   1      35.462  34.908  30.148  1.00  0.00     0.016 A 
ATOM     43  C   UNL A   1      35.200  32.783  31.960  1.00  0.00     0.010 A 
ATOM     44  C   UNL A   1      36.570  34.111  30.462  1.00  0.00     0.010 A 
ATOM     45  C   UNL A   1      36.454  33.087  31.416  1.00  0.00    -0.014 A 
BRANCH  45  46
ATOM     46  C   UNL A   1      37.656  32.451  32.005  1.00  0.00     0.031 A 
ATOM     47  C   UNL A   1      38.165  32.951  33.332  1.00  0.00     0.074 A 
ATOM     48  C   UNL A   1      38.237  31.401  31.402  1.00  0.00     0.049 A 
ATOM     49  N   UNL A   1      39.165  32.516  34.054  1.00  0.00    -0.248 NA
ATOM     50  C   UNL A   1      37.448  34.091  33.926  1.00  0.00     0.031 C 
ATOM     51  C   UNL A   1      37.809  30.820  30.130  1.00  0.00     0.029 A 
ATOM     52  N   UNL A   1      39.312  30.637  31.779  1.00  0.00    -0.354 N 
ATOM     53  C   UNL A   1      39.199  33.329  35.183  1.00  0.00     0.074 A 
ATOM     54  C   UNL A   1      38.143  34.305  35.033  1.00  0.00     0.031 C 
ATOM     55  C   UNL A   1      38.622  29.794  29.826  1.00  0.00     0.029 A 
ATOM     56  C   UNL A   1      39.641  29.664  30.867  1.00  0.00     0.049 A 
ATOM     57  H   UNL A   1      39.800  30.774  32.622  1.00  0.00     0.167 HD
ATOM     58  C   UNL A   1      40.030  33.258  36.251  1.00  0.00     0.037 A 
ATOM     59  C   UNL A   1      40.659  28.782  30.866  1.00  0.00     0.037 A 
ATOM     60  C   UNL A   1      41.081  32.283  36.384  1.00  0.00     0.049 A 
ATOM     61  C   UNL A   1      41.604  28.753  32.039  1.00  0.00     0.074 A 
ATOM     62  C   UNL A   1      41.965  32.106  37.433  1.00  0.00     0.029 A 
ATOM     63  N   UNL A   1      41.400  31.328  35.428  1.00  0.00    -0.354 N 
ATOM     64  N   UNL A   1      41.598  29.499  33.120  1.00  0.00    -0.248 NA
ATOM     65  C   UNL A   1      42.684  27.760  31.999  1.00  0.00     0.031 C 
ATOM     66  C   UNL A   1      42.855  31.084  37.086  1.00  0.00     0.029 A 
ATOM     67  C   UNL A   1      42.487  30.580  35.848  1.00  0.00     0.049 A 
ATOM     68  H   UNL A   1      40.923  31.201  34.576  1.00  0.00     0.167 HD
ATOM     69  C   UNL A   1      42.660  29.049  33.899  1.00  0.00     0.074 A 
ATOM     70  C   UNL A   1      43.275  27.958  33.170  1.00  0.00     0.031 C 
ATOM     71  C   UNL A   1      43.086  29.496  35.107  1.00  0.00     0.037 A 
BRANCH  58  72
ATOM     72  C   UNL A   1      39.859  34.286  37.339  1.00  0.00     0.058 A 
ATOM     73  C   UNL A   1      39.003  34.075  38.434  1.00  0.00     0.135 A 
ATOM     74  C   UNL A   1      40.575  35.493  37.295  1.00  0.00     0.135 A 
ATOM     75  F   UNL A   1      38.282  32.947  38.521  1.00  0.00    -0.206 F 
ATOM     76  C   UNL A   1      38.839  35.038  39.425  1.00  0.00     0.059 A 
ATOM     77  C   UNL A   1      40.448  36.458  38.291  1.00  0.00     0.059 A 
ATOM     78  F   UNL A   1      41.405  35.750  36.272  1.00  0.00    -0.206 F 
ATOM     79  C   UNL A   1      39.564  36.229  39.343  1.00  0.00     0.060 A 
BRANCH  79  80
ATOM     80  S   UNL A   1      39.328  37.474  40.628  1.00  0.00     0.124 S 
ATOM     81  O   UNL A   1      40.623  38.146  40.625  1.00  0.00    -0.237 OA
ATOM     82  O   UNL A   1      38.209  38.254  40.104  1.00  0.00    -0.237 OA
ATOM     83  O   UNL A   1      39.034  36.684  41.819  1.00  0.00    -0.744 OA
ENDBRANCH  79  80
ENDBRANCH  58  72
BRANCH  59  84
ATOM     84  C   UNL A   1      40.838  27.868  29.707  1.00  0.00     0.058 A 
ATOM     85  C   UNL A   1      41.855  28.072  28.763  1.00  0.00     0.135 A 
ATOM     86  C   UNL A   1      40.005  26.749  29.538  1.00  0.00     0.135 A 
ATOM     87  F   UNL A   1      42.672  29.129  28.874  1.00  0.00    -0.206 F 
ATOM     88  C   UNL A   1      42.036  27.204  27.690  1.00  0.00     0.059 A 
ATOM     89  C   UNL A   1      40.183  25.853  28.491  1.00  0.00     0.059 A 
ATOM     90  F   UNL A   1      39.024  26.503  30.422  1.00  0.00    -0.206 F 
ATOM     91  C   UNL A   1      41.199  26.093  27.566  1.00  0.00     0.060 A 
BRANCH  91  92
ATOM     92  S   UNL A   1      41.486  24.940  26.207  1.00  0.00     0.124 S 
ATOM     93  O   UNL A   1      40.227  24.205  26.174  1.00  0.00    -0.237 OA
ATOM     94  O   UNL A   1      41.728  25.844  25.088  1.00  0.00    -0.237 OA
ATOM     95  O   UNL A   1      42.650  24.179  26.652  1.00  0.00    -0.744 OA
ENDBRANCH  91  92
ENDBRANCH  59  84
BRANCH  71  96
ATOM     96  C   UNL A   1      44.258  28.789  35.734  1.00  0.00     0.058 A 
ATOM     97  C   UNL A   1      45.578  29.221  35.535  1.00  0.00     0.135 A 
ATOM     98  C   UNL A   1      44.048  27.698  36.595  1.00  0.00     0.135 A 
ATOM     99  F   UNL A   1      45.833  30.256  34.719  1.00  0.00    -0.206 F 
ATOM    100  C   UNL A   1      46.652  28.581  36.144  1.00  0.00     0.059 A 
ATOM    101  C   UNL A   1      45.105  27.063  37.238  1.00  0.00     0.059 A 
ATOM    102  F   UNL A   1      42.805  27.251  36.832  1.00  0.00    -0.206 F 
ATOM    103  C   UNL A   1      46.405  27.504  36.998  1.00  0.00     0.060 A 
BRANCH 103 104
ATOM    104  S   UNL A   1      47.805  26.703  37.808  1.00  0.00     0.124 S 
ATOM    105  O   UNL A   1      47.660  25.325  37.353  1.00  0.00    -0.237 OA
ATOM    106  O   UNL A   1      48.943  27.435  37.259  1.00  0.00    -0.237 OA
ATOM    107  O   UNL A   1      47.550  26.926  39.228  1.00  0.00    -0.744 OA
ENDBRANCH 103 104
ENDBRANCH  71  96
ENDBRANCH  45  46
ENDBRANCH  38  40
ENDBRANCH  37  38
ENDBRANCH  36  37
ENDBRANCH  35  36
ENDBRANCH  34  35
ENDBRANCH  33  34
ENDBRANCH   1  33
TORSDOF 25
ENDMDL
