MODEL 1
REMARK VINA RESULT:     -10.0      0.000      0.000
REMARK SMILES COc1ccc(S(=O)(=O)N2CCC[C@H](C(=O)N3CCC[C@H](C(=O)OCCOCCOCCOCCOC(=O)c4ccc(-c5c6nc(c(-c7c(F)cc(S(=O)(=O)[O-])cc7F)c7ccc([nH]7)c(-c7c(F)cc(S(=O)(=O)[O-])cc7F)c7nc(c(-c8c(F)cc(S(=O)(=O)[O-])cc8F)c8ccc5[nH]8)C=C7)C=C6)cc4)C3)C2)cc1
REMARK SMILES IDX 29 1 28 2 27 3 26 4 25 5 24 6 22 7 23 8 21 9 17 10 18 11
REMARK SMILES IDX 105 12 19 13 20 14 15 15 16 16 14 17 10 18 11 19 106 20
REMARK SMILES IDX 12 21 13 22 7 23 8 24 9 25 6 26 3 27 4 28 108 29 5 30 107 31
REMARK SMILES IDX 2 32 1 33 30 34 31 35 32 36 33 37 34 38 35 39 36 40 37 41
REMARK SMILES IDX 38 42 39 43 40 44 104 45 41 46 103 47 42 48 43 49 44 50
REMARK SMILES IDX 97 51 45 52 102 53 96 54 98 55 46 56 101 57 95 58 94 59
REMARK SMILES IDX 47 61 81 62 60 63 80 64 61 65 64 66 79 67 99 68 62 69 63 70
REMARK SMILES IDX 78 72 100 73 65 74 48 75 49 76 58 77 50 78 51 79 57 80 59 81
REMARK SMILES IDX 52 82 53 83 54 84 55 85 56 86 82 87 83 88 92 89 84 90 85 91
REMARK SMILES IDX 91 92 93 93 86 94 87 95 88 96 89 97 90 98 66 99 67 100
REMARK SMILES IDX 76 101 68 102 69 103 75 104 77 105 70 106 71 107 72 108
REMARK SMILES IDX 73 109 74 110
REMARK H PARENT 98 60 64 71
REMARK Flexibility Score: inf
ROOT
ATOM      1  C   UNL A   1      35.187  31.397  27.969  1.00  0.00     0.188 C 
ENDROOT
BRANCH   1   2
ATOM      2  C   UNL A   1      36.082  30.200  27.618  1.00  0.00     0.188 C 
BRANCH   2   3
ATOM      3  O   UNL A   1      35.380  28.973  27.528  1.00  0.00    -0.376 OA
BRANCH   3   4
ATOM      4  C   UNL A   1      34.124  29.026  26.873  1.00  0.00     0.202 C 
BRANCH   4   5
ATOM      5  C   UNL A   1      34.101  29.077  25.336  1.00  0.00     0.261 C 
BRANCH   5   6
ATOM      6  O   UNL A   1      33.611  27.916  24.650  1.00  0.00    -0.463 OA
BRANCH   6   7
ATOM      7  C   UNL A   1      32.689  28.105  23.687  1.00  0.00     0.310 C 
ATOM      8  O   UNL A   1      32.802  27.692  22.534  1.00  0.00    -0.252 OA
BRANCH   7   9
ATOM      9  C   UNL A   1      31.515  28.978  24.114  1.00  0.00     0.119 C 
ATOM     10  N   UNL A   1      29.927  27.128  24.360  1.00  0.00    -0.342 N 
ATOM     11  C   UNL A   1      28.991  27.654  23.375  1.00  0.00     0.119 C 
ATOM     12  C   UNL A   1      30.685  28.140  25.082  1.00  0.00     0.134 C 
ATOM     13  C   UNL A   1      29.683  28.561  22.365  1.00  0.00     0.022 C 
ATOM     14  C   UNL A   1      30.588  29.584  23.054  1.00  0.00     0.019 C 
BRANCH  10  15
ATOM     15  C   UNL A   1      30.327  25.809  24.257  1.00  0.00     0.227 C 
ATOM     16  O   UNL A   1      29.879  25.072  23.376  1.00  0.00    -0.275 OA
BRANCH  15  17
ATOM     17  C   UNL A   1      31.230  25.217  25.343  1.00  0.00     0.094 C 
ATOM     18  N   UNL A   1      32.118  23.180  24.246  1.00  0.00    -0.197 NA
ATOM     19  C   UNL A   1      31.369  22.262  25.118  1.00  0.00     0.102 C 
ATOM     20  C   UNL A   1      32.435  24.543  24.712  1.00  0.00     0.116 C 
ATOM     21  C   UNL A   1      30.837  22.882  26.405  1.00  0.00     0.018 C 
ATOM     22  C   UNL A   1      30.587  24.391  26.447  1.00  0.00     0.016 C 
BRANCH  18  23
ATOM     23  S   UNL A   1      33.121  22.483  23.069  1.00  0.00     0.243 S 
ATOM     24  O   UNL A   1      33.394  23.463  22.042  1.00  0.00    -0.207 OA
ATOM     25  O   UNL A   1      32.558  21.187  22.750  1.00  0.00    -0.207 OA
BRANCH  23  26
ATOM     26  C   UNL A   1      34.665  22.157  23.897  1.00  0.00     0.082 A 
ATOM     27  C   UNL A   1      37.187  21.535  24.905  1.00  0.00     0.118 A 
ATOM     28  C   UNL A   1      37.023  22.643  24.071  1.00  0.00     0.048 A 
ATOM     29  C   UNL A   1      36.080  20.788  25.298  1.00  0.00     0.048 A 
ATOM     30  C   UNL A   1      35.763  22.951  23.554  1.00  0.00     0.025 A 
ATOM     31  C   UNL A   1      34.821  21.094  24.789  1.00  0.00     0.025 A 
BRANCH  27  32
ATOM     32  O   UNL A   1      38.463  21.252  25.309  1.00  0.00    -0.497 OA
ATOM     33  C   UNL A   1      38.754  19.854  25.296  1.00  0.00     0.278 C 
ENDBRANCH  27  32
ENDBRANCH  23  26
ENDBRANCH  18  23
ENDBRANCH  15  17
ENDBRANCH  10  15
ENDBRANCH   7   9
ENDBRANCH   6   7
ENDBRANCH   5   6
ENDBRANCH   4   5
ENDBRANCH   3   4
ENDBRANCH   2   3
ENDBRANCH   1   2
BRANCH   1  34
ATOM     34  O   UNL A   1      35.663  32.715  27.734  1.00  0.00    -0.377 OA
BRANCH  34  35
ATOM     35  C   UNL A   1      34.879  33.834  28.142  1.00  0.00     0.188 C 
BRANCH  35  36
ATOM     36  C   UNL A   1      33.383  33.606  28.423  1.00  0.00     0.188 C 
BRANCH  36  37
ATOM     37  O   UNL A   1      32.604  34.796  28.420  1.00  0.00    -0.376 OA
BRANCH  37  38
ATOM     38  C   UNL A   1      33.230  35.968  28.928  1.00  0.00     0.202 C 
BRANCH  38  39
ATOM     39  C   UNL A   1      32.577  36.594  30.169  1.00  0.00     0.261 C 
BRANCH  39  40
ATOM     40  O   UNL A   1      32.371  35.696  31.273  1.00  0.00    -0.460 OA
BRANCH  40  41
ATOM     41  C   UNL A   1      33.062  35.931  32.409  1.00  0.00     0.338 C 
ATOM     42  O   UNL A   1      32.766  36.686  33.315  1.00  0.00    -0.246 OA
BRANCH  41  43
ATOM     43  C   UNL A   1      34.191  34.985  32.453  1.00  0.00     0.060 A 
ATOM     44  C   UNL A   1      34.023  33.759  33.105  1.00  0.00     0.016 A 
ATOM     45  C   UNL A   1      35.422  35.337  31.894  1.00  0.00     0.016 A 
ATOM     46  C   UNL A   1      35.108  32.894  33.243  1.00  0.00     0.010 A 
ATOM     47  C   UNL A   1      36.511  34.479  32.049  1.00  0.00     0.010 A 
ATOM     48  C   UNL A   1      36.367  33.274  32.758  1.00  0.00    -0.014 A 
BRANCH  48  49
ATOM     49  C   UNL A   1      37.570  32.520  33.178  1.00  0.00     0.031 A 
ATOM     50  C   UNL A   1      38.238  32.915  34.468  1.00  0.00     0.074 A 
ATOM     51  C   UNL A   1      38.050  31.502  32.443  1.00  0.00     0.049 A 
ATOM     52  N   UNL A   1      39.321  32.435  35.023  1.00  0.00    -0.248 NA
ATOM     53  C   UNL A   1      37.597  33.998  35.233  1.00  0.00     0.031 C 
ATOM     54  C   UNL A   1      37.472  31.014  31.193  1.00  0.00     0.029 A 
ATOM     55  N   UNL A   1      39.148  30.704  32.643  1.00  0.00    -0.354 N 
ATOM     56  C   UNL A   1      39.484  33.148  36.205  1.00  0.00     0.074 A 
ATOM     57  C   UNL A   1      38.412  34.117  36.271  1.00  0.00     0.031 C 
ATOM     58  C   UNL A   1      38.235  30.011  30.723  1.00  0.00     0.029 A 
ATOM     59  C   UNL A   1      39.364  29.802  31.629  1.00  0.00     0.049 A 
ATOM     60  H   UNL A   1      39.725  30.770  33.437  1.00  0.00     0.167 HD
ATOM     61  C   UNL A   1      40.434  33.000  37.156  1.00  0.00     0.037 A 
ATOM     62  C   UNL A   1      40.372  28.926  31.446  1.00  0.00     0.037 A 
ATOM     63  C   UNL A   1      41.512  32.051  37.077  1.00  0.00     0.049 A 
ATOM     64  C   UNL A   1      41.457  28.822  32.489  1.00  0.00     0.074 A 
ATOM     65  C   UNL A   1      42.541  31.837  37.976  1.00  0.00     0.029 A 
ATOM     66  N   UNL A   1      41.700  31.158  36.032  1.00  0.00    -0.354 N 
ATOM     67  N   UNL A   1      41.594  29.493  33.609  1.00  0.00    -0.248 NA
ATOM     68  C   UNL A   1      42.523  27.837  32.247  1.00  0.00     0.031 C 
ATOM     69  C   UNL A   1      43.370  30.836  37.460  1.00  0.00     0.029 A 
ATOM     70  C   UNL A   1      42.833  30.398  36.260  1.00  0.00     0.049 A 
ATOM     71  H   UNL A   1      41.113  31.078  35.245  1.00  0.00     0.167 HD
ATOM     72  C   UNL A   1      42.743  28.995  34.215  1.00  0.00     0.074 A 
ATOM     73  C   UNL A   1      43.259  27.959  33.343  1.00  0.00     0.031 C 
ATOM     74  C   UNL A   1      43.321  29.361  35.386  1.00  0.00     0.037 A 
BRANCH  61  75
ATOM     75  C   UNL A   1      40.354  33.898  38.357  1.00  0.00     0.058 A 
ATOM     76  C   UNL A   1      39.541  33.575  39.455  1.00  0.00     0.135 A 
ATOM     77  C   UNL A   1      41.108  35.080  38.422  1.00  0.00     0.135 A 
ATOM     78  F   UNL A   1      38.782  32.469  39.434  1.00  0.00    -0.206 F 
ATOM     79  C   UNL A   1      39.466  34.403  40.571  1.00  0.00     0.059 A 
ATOM     80  C   UNL A   1      41.065  35.911  39.538  1.00  0.00     0.059 A 
ATOM     81  F   UNL A   1      41.893  35.438  37.394  1.00  0.00    -0.206 F 
ATOM     82  C   UNL A   1      40.231  35.570  40.602  1.00  0.00     0.060 A 
BRANCH  82  83
ATOM     83  S   UNL A   1      40.130  36.630  42.060  1.00  0.00     0.124 S 
ATOM     84  O   UNL A   1      39.543  35.720  43.040  1.00  0.00    -0.237 OA
ATOM     85  O   UNL A   1      41.526  36.987  42.285  1.00  0.00    -0.237 OA
ATOM     86  O   UNL A   1      39.268  37.725  41.625  1.00  0.00    -0.744 OA
ENDBRANCH  82  83
ENDBRANCH  61  75
BRANCH  62  87
ATOM     87  C   UNL A   1      40.418  28.087  30.218  1.00  0.00     0.058 A 
ATOM     88  C   UNL A   1      39.529  27.018  30.032  1.00  0.00     0.135 A 
ATOM     89  C   UNL A   1      41.367  28.330  29.213  1.00  0.00     0.135 A 
ATOM     90  F   UNL A   1      38.611  26.738  30.970  1.00  0.00    -0.206 F 
ATOM     91  C   UNL A   1      39.591  26.206  28.903  1.00  0.00     0.059 A 
ATOM     92  C   UNL A   1      41.432  27.547  28.063  1.00  0.00     0.059 A 
ATOM     93  F   UNL A   1      42.235  29.345  29.339  1.00  0.00    -0.206 F 
ATOM     94  C   UNL A   1      40.549  26.479  27.924  1.00  0.00     0.060 A 
BRANCH  94  95
ATOM     95  S   UNL A   1      40.603  25.437  26.449  1.00  0.00     0.124 S 
ATOM     96  O   UNL A   1      40.879  26.419  25.407  1.00  0.00    -0.237 OA
ATOM     97  O   UNL A   1      41.691  24.515  26.760  1.00  0.00    -0.237 OA
ATOM     98  O   UNL A   1      39.273  24.835  26.413  1.00  0.00    -0.744 OA
ENDBRANCH  94  95
ENDBRANCH  62  87
BRANCH  74  99
ATOM     99  C   UNL A   1      44.554  28.616  35.817  1.00  0.00     0.058 A 
ATOM    100  C   UNL A   1      45.841  29.068  35.487  1.00  0.00     0.135 A 
ATOM    101  C   UNL A   1      44.446  27.473  36.624  1.00  0.00     0.135 A 
ATOM    102  F   UNL A   1      45.998  30.154  34.715  1.00  0.00    -0.206 F 
ATOM    103  C   UNL A   1      46.979  28.400  35.928  1.00  0.00     0.059 A 
ATOM    104  C   UNL A   1      45.570  26.803  37.096  1.00  0.00     0.059 A 
ATOM    105  F   UNL A   1      43.237  27.007  36.978  1.00  0.00    -0.206 F 
ATOM    106  C   UNL A   1      46.833  27.269  36.734  1.00  0.00     0.060 A 
BRANCH 106 107
ATOM    107  S   UNL A   1      48.318  26.434  37.335  1.00  0.00     0.124 S 
ATOM    108  O   UNL A   1      47.874  25.045  37.384  1.00  0.00    -0.237 OA
ATOM    109  O   UNL A   1      49.298  26.750  36.299  1.00  0.00    -0.237 OA
ATOM    110  O   UNL A   1      48.559  27.063  38.629  1.00  0.00    -0.744 OA
ENDBRANCH 106 107
ENDBRANCH  74  99
ENDBRANCH  48  49
ENDBRANCH  41  43
ENDBRANCH  40  41
ENDBRANCH  39  40
ENDBRANCH  38  39
ENDBRANCH  37  38
ENDBRANCH  36  37
ENDBRANCH  35  36
ENDBRANCH  34  35
ENDBRANCH   1  34
TORSDOF 28
ENDMDL
MODEL 2
REMARK VINA RESULT:      -9.6      5.575      7.537
REMARK SMILES COc1ccc(S(=O)(=O)N2CCC[C@H](C(=O)N3CCC[C@H](C(=O)OCCOCCOCCOCCOC(=O)c4ccc(-c5c6nc(c(-c7c(F)cc(S(=O)(=O)[O-])cc7F)c7ccc([nH]7)c(-c7c(F)cc(S(=O)(=O)[O-])cc7F)c7nc(c(-c8c(F)cc(S(=O)(=O)[O-])cc8F)c8ccc5[nH]8)C=C7)C=C6)cc4)C3)C2)cc1
REMARK SMILES IDX 29 1 28 2 27 3 26 4 25 5 24 6 22 7 23 8 21 9 17 10 18 11
REMARK SMILES IDX 105 12 19 13 20 14 15 15 16 16 14 17 10 18 11 19 106 20
REMARK SMILES IDX 12 21 13 22 7 23 8 24 9 25 6 26 3 27 4 28 108 29 5 30 107 31
REMARK SMILES IDX 2 32 1 33 30 34 31 35 32 36 33 37 34 38 35 39 36 40 37 41
REMARK SMILES IDX 38 42 39 43 40 44 104 45 41 46 103 47 42 48 43 49 44 50
REMARK SMILES IDX 97 51 45 52 102 53 96 54 98 55 46 56 101 57 95 58 94 59
REMARK SMILES IDX 47 61 81 62 60 63 80 64 61 65 64 66 79 67 99 68 62 69 63 70
REMARK SMILES IDX 78 72 100 73 65 74 48 75 49 76 58 77 50 78 51 79 57 80 59 81
REMARK SMILES IDX 52 82 53 83 54 84 55 85 56 86 82 87 83 88 92 89 84 90 85 91
REMARK SMILES IDX 91 92 93 93 86 94 87 95 88 96 89 97 90 98 66 99 67 100
REMARK SMILES IDX 76 101 68 102 69 103 75 104 77 105 70 106 71 107 72 108
REMARK SMILES IDX 73 109 74 110
REMARK H PARENT 98 60 64 71
REMARK Flexibility Score: inf
ROOT
ATOM      1  C   UNL A   1      34.820  32.462  27.964  1.00  0.00     0.188 C 
ENDROOT
BRANCH   1   2
ATOM      2  C   UNL A   1      35.933  31.437  28.229  1.00  0.00     0.188 C 
BRANCH   2   3
ATOM      3  O   UNL A   1      35.950  30.366  27.302  1.00  0.00    -0.376 OA
BRANCH   3   4
ATOM      4  C   UNL A   1      34.949  29.378  27.481  1.00  0.00     0.202 C 
BRANCH   4   5
ATOM      5  C   UNL A   1      33.855  29.241  26.408  1.00  0.00     0.261 C 
BRANCH   5   6
ATOM      6  O   UNL A   1      33.826  28.020  25.655  1.00  0.00    -0.463 OA
BRANCH   6   7
ATOM      7  C   UNL A   1      32.990  27.959  24.601  1.00  0.00     0.310 C 
ATOM      8  O   UNL A   1      33.354  27.757  23.444  1.00  0.00    -0.252 OA
BRANCH   7   9
ATOM      9  C   UNL A   1      31.537  28.268  24.942  1.00  0.00     0.119 C 
ATOM     10  N   UNL A   1      30.883  25.935  25.306  1.00  0.00    -0.342 N 
ATOM     11  C   UNL A   1      29.858  25.944  24.270  1.00  0.00     0.119 C 
ATOM     12  C   UNL A   1      31.100  27.219  25.959  1.00  0.00     0.134 C 
ATOM     13  C   UNL A   1      30.142  26.995  23.203  1.00  0.00     0.022 C 
ATOM     14  C   UNL A   1      30.491  28.349  23.824  1.00  0.00     0.019 C 
BRANCH  10  15
ATOM     15  C   UNL A   1      31.812  24.912  25.312  1.00  0.00     0.227 C 
ATOM     16  O   UNL A   1      32.804  24.955  26.043  1.00  0.00    -0.275 OA
BRANCH  15  17
ATOM     17  C   UNL A   1      31.681  23.779  24.291  1.00  0.00     0.094 C 
ATOM     18  N   UNL A   1      33.580  22.303  24.884  1.00  0.00    -0.197 NA
ATOM     19  C   UNL A   1      34.330  22.606  23.655  1.00  0.00     0.102 C 
ATOM     20  C   UNL A   1      32.115  22.463  24.910  1.00  0.00     0.116 C 
ATOM     21  C   UNL A   1      33.508  23.228  22.533  1.00  0.00     0.018 C 
ATOM     22  C   UNL A   1      32.236  24.000  22.892  1.00  0.00     0.016 C 
BRANCH  18  23
ATOM     23  S   UNL A   1      34.285  21.207  25.969  1.00  0.00     0.243 S 
ATOM     24  O   UNL A   1      33.588  21.280  27.234  1.00  0.00    -0.207 OA
ATOM     25  O   UNL A   1      35.719  21.392  25.883  1.00  0.00    -0.207 OA
BRANCH  23  26
ATOM     26  C   UNL A   1      33.957  19.592  25.291  1.00  0.00     0.082 A 
ATOM     27  C   UNL A   1      33.452  16.958  24.536  1.00  0.00     0.118 A 
ATOM     28  C   UNL A   1      32.449  17.712  25.149  1.00  0.00     0.048 A 
ATOM     29  C   UNL A   1      34.676  17.545  24.228  1.00  0.00     0.048 A 
ATOM     30  C   UNL A   1      32.702  19.029  25.539  1.00  0.00     0.025 A 
ATOM     31  C   UNL A   1      34.932  18.858  24.612  1.00  0.00     0.025 A 
BRANCH  27  32
ATOM     32  O   UNL A   1      33.155  15.653  24.252  1.00  0.00    -0.497 OA
ATOM     33  C   UNL A   1      32.772  14.905  25.407  1.00  0.00     0.278 C 
ENDBRANCH  27  32
ENDBRANCH  23  26
ENDBRANCH  18  23
ENDBRANCH  15  17
ENDBRANCH  10  15
ENDBRANCH   7   9
ENDBRANCH   6   7
ENDBRANCH   5   6
ENDBRANCH   4   5
ENDBRANCH   3   4
ENDBRANCH   2   3
ENDBRANCH   1   2
BRANCH   1  34
ATOM     34  O   UNL A   1      35.169  33.776  27.548  1.00  0.00    -0.377 OA
BRANCH  34  35
ATOM     35  C   UNL A   1      34.593  34.902  28.205  1.00  0.00     0.188 C 
BRANCH  35  36
ATOM     36  C   UNL A   1      33.559  34.643  29.316  1.00  0.00     0.188 C 
BRANCH  36  37
ATOM     37  O   UNL A   1      33.984  35.049  30.611  1.00  0.00    -0.376 OA
BRANCH  37  38
ATOM     38  C   UNL A   1      35.079  34.338  31.173  1.00  0.00     0.202 C 
BRANCH  38  39
ATOM     39  C   UNL A   1      34.739  32.998  31.842  1.00  0.00     0.261 C 
BRANCH  39  40
ATOM     40  O   UNL A   1      35.762  31.991  31.754  1.00  0.00    -0.460 OA
BRANCH  40  41
ATOM     41  C   UNL A   1      36.952  32.255  32.334  1.00  0.00     0.338 C 
ATOM     42  O   UNL A   1      37.154  32.849  33.377  1.00  0.00    -0.246 OA
BRANCH  41  43
ATOM     43  C   UNL A   1      37.994  31.554  31.564  1.00  0.00     0.060 A 
ATOM     44  C   UNL A   1      38.452  30.312  32.017  1.00  0.00     0.016 A 
ATOM     45  C   UNL A   1      38.546  32.151  30.428  1.00  0.00     0.016 A 
ATOM     46  C   UNL A   1      39.505  29.681  31.357  1.00  0.00     0.010 A 
ATOM     47  C   UNL A   1      39.613  31.527  29.781  1.00  0.00     0.010 A 
ATOM     48  C   UNL A   1      40.121  30.310  30.266  1.00  0.00    -0.014 A 
BRANCH  48  49
ATOM     49  C   UNL A   1      41.424  29.808  29.773  1.00  0.00     0.031 A 
ATOM     50  C   UNL A   1      42.575  30.774  29.704  1.00  0.00     0.074 A 
ATOM     51  C   UNL A   1      41.586  28.524  29.408  1.00  0.00     0.049 A 
ATOM     52  N   UNL A   1      43.794  30.584  29.272  1.00  0.00    -0.248 NA
ATOM     53  C   UNL A   1      42.314  32.141  30.188  1.00  0.00     0.031 C 
ATOM     54  C   UNL A   1      40.552  27.493  29.457  1.00  0.00     0.029 A 
ATOM     55  N   UNL A   1      42.688  27.875  28.911  1.00  0.00    -0.354 N 
ATOM     56  C   UNL A   1      44.447  31.799  29.442  1.00  0.00     0.074 A 
ATOM     57  C   UNL A   1      43.482  32.731  29.983  1.00  0.00     0.031 C 
ATOM     58  C   UNL A   1      41.063  26.341  28.986  1.00  0.00     0.029 A 
ATOM     59  C   UNL A   1      42.452  26.562  28.584  1.00  0.00     0.049 A 
ATOM     60  H   UNL A   1      43.564  28.309  28.800  1.00  0.00     0.167 HD
ATOM     61  C   UNL A   1      45.739  32.108  29.183  1.00  0.00     0.037 A 
ATOM     62  C   UNL A   1      43.261  25.652  28.006  1.00  0.00     0.037 A 
ATOM     63  C   UNL A   1      46.691  31.186  28.625  1.00  0.00     0.049 A 
ATOM     64  C   UNL A   1      44.679  26.036  27.667  1.00  0.00     0.074 A 
ATOM     65  C   UNL A   1      48.017  31.406  28.302  1.00  0.00     0.029 A 
ATOM     66  N   UNL A   1      46.413  29.866  28.303  1.00  0.00    -0.354 N 
ATOM     67  N   UNL A   1      45.289  27.185  27.843  1.00  0.00    -0.248 NA
ATOM     68  C   UNL A   1      45.524  25.000  27.054  1.00  0.00     0.031 C 
ATOM     69  C   UNL A   1      48.534  30.228  27.755  1.00  0.00     0.029 A 
ATOM     70  C   UNL A   1      47.541  29.262  27.776  1.00  0.00     0.049 A 
ATOM     71  H   UNL A   1      45.542  29.424  28.430  1.00  0.00     0.167 HD
ATOM     72  C   UNL A   1      46.591  27.002  27.388  1.00  0.00     0.074 A 
ATOM     73  C   UNL A   1      46.685  25.629  26.937  1.00  0.00     0.031 C 
ATOM     74  C   UNL A   1      47.617  27.888  27.346  1.00  0.00     0.037 A 
BRANCH  61  75
ATOM     75  C   UNL A   1      46.189  33.507  29.491  1.00  0.00     0.058 A 
ATOM     76  C   UNL A   1      46.135  34.521  28.521  1.00  0.00     0.135 A 
ATOM     77  C   UNL A   1      46.659  33.845  30.769  1.00  0.00     0.135 A 
ATOM     78  F   UNL A   1      45.715  34.245  27.277  1.00  0.00    -0.206 F 
ATOM     79  C   UNL A   1      46.547  35.819  28.803  1.00  0.00     0.059 A 
ATOM     80  C   UNL A   1      47.057  35.143  31.080  1.00  0.00     0.059 A 
ATOM     81  F   UNL A   1      46.739  32.911  31.729  1.00  0.00    -0.206 F 
ATOM     82  C   UNL A   1      47.008  36.120  30.086  1.00  0.00     0.060 A 
BRANCH  82  83
ATOM     83  S   UNL A   1      47.533  37.811  30.440  1.00  0.00     0.124 S 
ATOM     84  O   UNL A   1      48.900  37.803  29.929  1.00  0.00    -0.237 OA
ATOM     85  O   UNL A   1      46.575  38.602  29.676  1.00  0.00    -0.237 OA
ATOM     86  O   UNL A   1      47.405  37.909  31.891  1.00  0.00    -0.744 OA
ENDBRANCH  82  83
ENDBRANCH  61  75
BRANCH  62  87
ATOM     87  C   UNL A   1      42.749  24.291  27.691  1.00  0.00     0.058 A 
ATOM     88  C   UNL A   1      42.858  23.240  28.614  1.00  0.00     0.135 A 
ATOM     89  C   UNL A   1      42.154  24.012  26.451  1.00  0.00     0.135 A 
ATOM     90  F   UNL A   1      43.430  23.453  29.809  1.00  0.00    -0.206 F 
ATOM     91  C   UNL A   1      42.415  21.955  28.312  1.00  0.00     0.059 A 
ATOM     92  C   UNL A   1      41.680  22.741  26.135  1.00  0.00     0.059 A 
ATOM     93  F   UNL A   1      42.019  24.984  25.537  1.00  0.00    -0.206 F 
ATOM     94  C   UNL A   1      41.829  21.716  27.068  1.00  0.00     0.060 A 
BRANCH  94  95
ATOM     95  S   UNL A   1      41.230  20.052  26.695  1.00  0.00     0.124 S 
ATOM     96  O   UNL A   1      40.903  19.553  28.025  1.00  0.00    -0.237 OA
ATOM     97  O   UNL A   1      40.095  20.321  25.817  1.00  0.00    -0.237 OA
ATOM     98  O   UNL A   1      42.376  19.420  26.046  1.00  0.00    -0.744 OA
ENDBRANCH  94  95
ENDBRANCH  62  87
BRANCH  74  99
ATOM     99  C   UNL A   1      48.941  27.397  26.830  1.00  0.00     0.058 A 
ATOM    100  C   UNL A   1      49.941  26.927  27.695  1.00  0.00     0.135 A 
ATOM    101  C   UNL A   1      49.184  27.336  25.449  1.00  0.00     0.135 A 
ATOM    102  F   UNL A   1      49.758  26.967  29.024  1.00  0.00    -0.206 F 
ATOM    103  C   UNL A   1      51.146  26.431  27.208  1.00  0.00     0.059 A 
ATOM    104  C   UNL A   1      50.372  26.821  24.939  1.00  0.00     0.059 A 
ATOM    105  F   UNL A   1      48.254  27.761  24.579  1.00  0.00    -0.206 F 
ATOM    106  C   UNL A   1      51.352  26.380  25.828  1.00  0.00     0.060 A 
BRANCH 106 107
ATOM    107  S   UNL A   1      52.903  25.696  25.206  1.00  0.00     0.124 S 
ATOM    108  O   UNL A   1      53.886  26.435  25.991  1.00  0.00    -0.237 OA
ATOM    109  O   UNL A   1      52.773  24.277  25.526  1.00  0.00    -0.237 OA
ATOM    110  O   UNL A   1      52.867  26.016  23.782  1.00  0.00    -0.744 OA
ENDBRANCH 106 107
ENDBRANCH  74  99
ENDBRANCH  48  49
ENDBRANCH  41  43
ENDBRANCH  40  41
ENDBRANCH  39  40
ENDBRANCH  38  39
ENDBRANCH  37  38
ENDBRANCH  36  37
ENDBRANCH  35  36
ENDBRANCH  34  35
ENDBRANCH   1  34
TORSDOF 28
ENDMDL
MODEL 3
REMARK VINA RESULT:      -8.9      5.540      8.121
REMARK SMILES COc1ccc(S(=O)(=O)N2CCC[C@H](C(=O)N3CCC[C@H](C(=O)OCCOCCOCCOCCOC(=O)c4ccc(-c5c6nc(c(-c7c(F)cc(S(=O)(=O)[O-])cc7F)c7ccc([nH]7)c(-c7c(F)cc(S(=O)(=O)[O-])cc7F)c7nc(c(-c8c(F)cc(S(=O)(=O)[O-])cc8F)c8ccc5[nH]8)C=C7)C=C6)cc4)C3)C2)cc1
REMARK SMILES IDX 29 1 28 2 27 3 26 4 25 5 24 6 22 7 23 8 21 9 17 10 18 11
REMARK SMILES IDX 105 12 19 13 20 14 15 15 16 16 14 17 10 18 11 19 106 20
REMARK SMILES IDX 12 21 13 22 7 23 8 24 9 25 6 26 3 27 4 28 108 29 5 30 107 31
REMARK SMILES IDX 2 32 1 33 30 34 31 35 32 36 33 37 34 38 35 39 36 40 37 41
REMARK SMILES IDX 38 42 39 43 40 44 104 45 41 46 103 47 42 48 43 49 44 50
REMARK SMILES IDX 97 51 45 52 102 53 96 54 98 55 46 56 101 57 95 58 94 59
REMARK SMILES IDX 47 61 81 62 60 63 80 64 61 65 64 66 79 67 99 68 62 69 63 70
REMARK SMILES IDX 78 72 100 73 65 74 48 75 49 76 58 77 50 78 51 79 57 80 59 81
REMARK SMILES IDX 52 82 53 83 54 84 55 85 56 86 82 87 83 88 92 89 84 90 85 91
REMARK SMILES IDX 91 92 93 93 86 94 87 95 88 96 89 97 90 98 66 99 67 100
REMARK SMILES IDX 76 101 68 102 69 103 75 104 77 105 70 106 71 107 72 108
REMARK SMILES IDX 73 109 74 110
REMARK H PARENT 98 60 64 71
REMARK Flexibility Score: inf
ROOT
ATOM      1  C   UNL A   1      34.585  31.903  28.468  1.00  0.00     0.188 C 
ENDROOT
BRANCH   1   2
ATOM      2  C   UNL A   1      35.324  30.558  28.428  1.00  0.00     0.188 C 
BRANCH   2   3
ATOM      3  O   UNL A   1      35.393  29.987  27.133  1.00  0.00    -0.376 OA
BRANCH   3   4
ATOM      4  C   UNL A   1      34.371  29.057  26.813  1.00  0.00     0.202 C 
BRANCH   4   5
ATOM      5  C   UNL A   1      34.307  28.508  25.378  1.00  0.00     0.261 C 
BRANCH   5   6
ATOM      6  O   UNL A   1      33.648  27.247  25.190  1.00  0.00    -0.463 OA
BRANCH   6   7
ATOM      7  C   UNL A   1      32.613  27.208  24.327  1.00  0.00     0.310 C 
ATOM      8  O   UNL A   1      32.698  26.805  23.168  1.00  0.00    -0.252 OA
BRANCH   7   9
ATOM      9  C   UNL A   1      31.325  27.811  24.874  1.00  0.00     0.119 C 
ATOM     10  N   UNL A   1      30.520  25.740  25.906  1.00  0.00    -0.342 N 
ATOM     11  C   UNL A   1      29.288  25.700  25.129  1.00  0.00     0.119 C 
ATOM     12  C   UNL A   1      31.026  27.078  26.178  1.00  0.00     0.134 C 
ATOM     13  C   UNL A   1      29.428  26.448  23.808  1.00  0.00     0.022 C 
ATOM     14  C   UNL A   1      30.062  27.827  24.006  1.00  0.00     0.019 C 
BRANCH  10  15
ATOM     15  C   UNL A   1      31.305  24.604  25.965  1.00  0.00     0.227 C 
ATOM     16  O   UNL A   1      32.310  24.558  26.678  1.00  0.00    -0.275 OA
BRANCH  15  17
ATOM     17  C   UNL A   1      31.002  23.438  25.020  1.00  0.00     0.094 C 
ATOM     18  N   UNL A   1      33.131  22.172  25.033  1.00  0.00    -0.197 NA
ATOM     19  C   UNL A   1      33.461  22.517  23.642  1.00  0.00     0.102 C 
ATOM     20  C   UNL A   1      31.727  22.187  25.482  1.00  0.00     0.116 C 
ATOM     21  C   UNL A   1      32.292  23.025  22.807  1.00  0.00     0.018 C 
ATOM     22  C   UNL A   1      31.105  23.677  23.521  1.00  0.00     0.016 C 
BRANCH  18  23
ATOM     23  S   UNL A   1      34.226  21.179  25.864  1.00  0.00     0.243 S 
ATOM     24  O   UNL A   1      33.881  21.166  27.268  1.00  0.00    -0.207 OA
ATOM     25  O   UNL A   1      35.554  21.545  25.414  1.00  0.00    -0.207 OA
BRANCH  23  26
ATOM     26  C   UNL A   1      33.936  19.533  25.246  1.00  0.00     0.082 A 
ATOM     27  C   UNL A   1      33.493  16.862  24.588  1.00  0.00     0.118 A 
ATOM     28  C   UNL A   1      32.474  17.613  25.177  1.00  0.00     0.048 A 
ATOM     29  C   UNL A   1      34.702  17.467  24.255  1.00  0.00     0.048 A 
ATOM     30  C   UNL A   1      32.696  18.949  25.520  1.00  0.00     0.025 A 
ATOM     31  C   UNL A   1      34.926  18.799  24.590  1.00  0.00     0.025 A 
BRANCH  27  32
ATOM     32  O   UNL A   1      33.227  15.541  24.353  1.00  0.00    -0.497 OA
ATOM     33  C   UNL A   1      32.654  14.878  25.481  1.00  0.00     0.278 C 
ENDBRANCH  27  32
ENDBRANCH  23  26
ENDBRANCH  18  23
ENDBRANCH  15  17
ENDBRANCH  10  15
ENDBRANCH   7   9
ENDBRANCH   6   7
ENDBRANCH   5   6
ENDBRANCH   4   5
ENDBRANCH   3   4
ENDBRANCH   2   3
ENDBRANCH   1   2
BRANCH   1  34
ATOM     34  O   UNL A   1      35.146  33.026  27.801  1.00  0.00    -0.377 OA
BRANCH  34  35
ATOM     35  C   UNL A   1      34.464  34.278  27.828  1.00  0.00     0.188 C 
BRANCH  35  36
ATOM     36  C   UNL A   1      33.450  34.527  28.960  1.00  0.00     0.188 C 
BRANCH  36  37
ATOM     37  O   UNL A   1      33.905  35.433  29.958  1.00  0.00    -0.376 OA
BRANCH  37  38
ATOM     38  C   UNL A   1      34.477  34.858  31.126  1.00  0.00     0.202 C 
BRANCH  38  39
ATOM     39  C   UNL A   1      33.699  33.692  31.753  1.00  0.00     0.261 C 
BRANCH  39  40
ATOM     40  O   UNL A   1      34.506  32.601  32.227  1.00  0.00    -0.460 OA
BRANCH  40  41
ATOM     41  C   UNL A   1      35.300  32.827  33.295  1.00  0.00     0.338 C 
ATOM     42  O   UNL A   1      34.959  33.146  34.419  1.00  0.00    -0.246 OA
BRANCH  41  43
ATOM     43  C   UNL A   1      36.677  32.466  32.918  1.00  0.00     0.060 A 
ATOM     44  C   UNL A   1      37.729  32.827  33.767  1.00  0.00     0.016 A 
ATOM     45  C   UNL A   1      36.924  31.817  31.706  1.00  0.00     0.016 A 
ATOM     46  C   UNL A   1      39.045  32.581  33.379  1.00  0.00     0.010 A 
ATOM     47  C   UNL A   1      38.242  31.588  31.312  1.00  0.00     0.010 A 
ATOM     48  C   UNL A   1      39.308  32.005  32.129  1.00  0.00    -0.014 A 
BRANCH  48  49
ATOM     49  C   UNL A   1      40.684  32.038  31.582  1.00  0.00     0.031 A 
ATOM     50  C   UNL A   1      41.590  30.872  31.875  1.00  0.00     0.074 A 
ATOM     51  C   UNL A   1      41.115  33.068  30.833  1.00  0.00     0.049 A 
ATOM     52  N   UNL A   1      42.841  30.690  31.544  1.00  0.00    -0.248 NA
ATOM     53  C   UNL A   1      41.003  29.764  32.648  1.00  0.00     0.031 C 
ATOM     54  C   UNL A   1      40.319  34.236  30.463  1.00  0.00     0.029 A 
ATOM     55  N   UNL A   1      42.340  33.297  30.261  1.00  0.00    -0.354 N 
ATOM     56  C   UNL A   1      43.188  29.445  32.055  1.00  0.00     0.074 A 
ATOM     57  C   UNL A   1      42.029  28.931  32.751  1.00  0.00     0.031 C 
ATOM     58  C   UNL A   1      41.086  35.073  29.741  1.00  0.00     0.029 A 
ATOM     59  C   UNL A   1      42.429  34.508  29.618  1.00  0.00     0.049 A 
ATOM     60  H   UNL A   1      43.085  32.655  30.306  1.00  0.00     0.167 HD
ATOM     61  C   UNL A   1      44.363  28.783  31.945  1.00  0.00     0.037 A 
ATOM     62  C   UNL A   1      43.483  35.098  29.019  1.00  0.00     0.037 A 
ATOM     63  C   UNL A   1      45.522  29.307  31.272  1.00  0.00     0.049 A 
ATOM     64  C   UNL A   1      44.802  34.369  28.963  1.00  0.00     0.074 A 
ATOM     65  C   UNL A   1      46.768  28.727  31.125  1.00  0.00     0.029 A 
ATOM     66  N   UNL A   1      45.574  30.539  30.637  1.00  0.00    -0.354 N 
ATOM     67  N   UNL A   1      45.114  33.187  29.440  1.00  0.00    -0.248 NA
ATOM     68  C   UNL A   1      45.913  35.052  28.282  1.00  0.00     0.031 C 
ATOM     69  C   UNL A   1      47.585  29.622  30.427  1.00  0.00     0.029 A 
ATOM     70  C   UNL A   1      46.835  30.741  30.104  1.00  0.00     0.049 A 
ATOM     71  H   UNL A   1      44.825  31.175  30.575  1.00  0.00     0.167 HD
ATOM     72  C   UNL A   1      46.445  32.975  29.096  1.00  0.00     0.074 A 
ATOM     73  C   UNL A   1      46.878  34.146  28.361  1.00  0.00     0.031 C 
ATOM     74  C   UNL A   1      47.240  31.909  29.363  1.00  0.00     0.037 A 
BRANCH  61  75
ATOM     75  C   UNL A   1      44.453  27.426  32.580  1.00  0.00     0.058 A 
ATOM     76  C   UNL A   1      44.245  26.256  31.832  1.00  0.00     0.135 A 
ATOM     77  C   UNL A   1      44.767  27.289  33.941  1.00  0.00     0.135 A 
ATOM     78  F   UNL A   1      43.918  26.332  30.533  1.00  0.00    -0.206 F 
ATOM     79  C   UNL A   1      44.329  24.997  32.416  1.00  0.00     0.059 A 
ATOM     80  C   UNL A   1      44.879  26.038  34.541  1.00  0.00     0.059 A 
ATOM     81  F   UNL A   1      44.966  28.377  34.702  1.00  0.00    -0.206 F 
ATOM     82  C   UNL A   1      44.646  24.897  33.772  1.00  0.00     0.060 A 
BRANCH  82  83
ATOM     83  S   UNL A   1      44.761  23.256  34.514  1.00  0.00     0.124 S 
ATOM     84  O   UNL A   1      44.402  23.538  35.901  1.00  0.00    -0.237 OA
ATOM     85  O   UNL A   1      43.779  22.496  33.748  1.00  0.00    -0.237 OA
ATOM     86  O   UNL A   1      46.153  22.879  34.291  1.00  0.00    -0.744 OA
ENDBRANCH  82  83
ENDBRANCH  61  75
BRANCH  62  87
ATOM     87  C   UNL A   1      43.344  36.461  28.438  1.00  0.00     0.058 A 
ATOM     88  C   UNL A   1      42.829  36.654  27.147  1.00  0.00     0.135 A 
ATOM     89  C   UNL A   1      43.741  37.597  29.160  1.00  0.00     0.135 A 
ATOM     90  F   UNL A   1      42.447  35.598  26.413  1.00  0.00    -0.206 F 
ATOM     91  C   UNL A   1      42.731  37.923  26.584  1.00  0.00     0.059 A 
ATOM     92  C   UNL A   1      43.630  38.879  28.627  1.00  0.00     0.059 A 
ATOM     93  F   UNL A   1      44.233  37.467  30.401  1.00  0.00    -0.206 F 
ATOM     94  C   UNL A   1      43.137  39.030  27.332  1.00  0.00     0.060 A 
BRANCH  94  95
ATOM     95  S   UNL A   1      42.980  40.676  26.603  1.00  0.00     0.124 S 
ATOM     96  O   UNL A   1      43.550  41.515  27.650  1.00  0.00    -0.237 OA
ATOM     97  O   UNL A   1      43.772  40.551  25.383  1.00  0.00    -0.237 OA
ATOM     98  O   UNL A   1      41.541  40.815  26.394  1.00  0.00    -0.744 OA
ENDBRANCH  94  95
ENDBRANCH  62  87
BRANCH  74  99
ATOM     99  C   UNL A   1      48.646  31.937  28.830  1.00  0.00     0.058 A 
ATOM    100  C   UNL A   1      49.715  32.424  29.596  1.00  0.00     0.135 A 
ATOM    101  C   UNL A   1      48.933  31.408  27.561  1.00  0.00     0.135 A 
ATOM    102  F   UNL A   1      49.492  32.942  30.814  1.00  0.00    -0.206 F 
ATOM    103  C   UNL A   1      51.020  32.404  29.115  1.00  0.00     0.059 A 
ATOM    104  C   UNL A   1      50.234  31.356  27.070  1.00  0.00     0.059 A 
ATOM    105  F   UNL A   1      47.947  30.917  26.794  1.00  0.00    -0.206 F 
ATOM    106  C   UNL A   1      51.270  31.866  27.851  1.00  0.00     0.060 A 
BRANCH 106 107
ATOM    107  S   UNL A   1      52.973  31.808  27.253  1.00  0.00     0.124 S 
ATOM    108  O   UNL A   1      53.107  30.402  26.883  1.00  0.00    -0.237 OA
ATOM    109  O   UNL A   1      52.951  32.756  26.144  1.00  0.00    -0.237 OA
ATOM    110  O   UNL A   1      53.753  32.229  28.413  1.00  0.00    -0.744 OA
ENDBRANCH 106 107
ENDBRANCH  74  99
ENDBRANCH  48  49
ENDBRANCH  41  43
ENDBRANCH  40  41
ENDBRANCH  39  40
ENDBRANCH  38  39
ENDBRANCH  37  38
ENDBRANCH  36  37
ENDBRANCH  35  36
ENDBRANCH  34  35
ENDBRANCH   1  34
TORSDOF 28
ENDMDL
