MODEL 1
REMARK VINA RESULT:      -9.3      0.000      0.000
REMARK SMILES Cc1ccc(C(C)(C)C)c(OCC(=O)c2nc(C)c(C(=O)OCCOCCOCCOCCOC(=O)c3ccc(-c4c5nc(c(-c6c(F)cc(S(=O)(=O)[O-])cc6F)c6ccc([nH]6)c(-c6c(F)cc(S(=O)(=O)[O-])cc6F)c6nc(c(-c7c(F)cc(S(=O)(=O)[O-])cc7F)c7ccc4[nH]7)C=C6)C=C5)cc3)s2)c1
REMARK SMILES IDX 27 1 26 2 25 3 24 4 23 5 22 6 20 7 21 8 19 9 15 10 16 11
REMARK SMILES IDX 103 12 17 13 18 14 13 15 14 16 12 17 11 18 10 19 1 20 2 21
REMARK SMILES IDX 3 22 104 23 4 24 5 25 6 26 7 27 8 28 9 29 28 30 29 31 30 32
REMARK SMILES IDX 31 33 32 34 33 35 34 36 35 37 36 38 37 39 38 40 102 41 39 42
REMARK SMILES IDX 101 43 40 44 41 45 42 46 95 47 43 48 100 49 94 50 96 51
REMARK SMILES IDX 44 52 99 53 93 54 92 55 45 57 79 58 58 59 78 60 59 61 62 62
REMARK SMILES IDX 77 63 97 64 60 65 61 66 76 68 98 69 63 70 46 71 47 72 56 73
REMARK SMILES IDX 48 74 49 75 55 76 57 77 50 78 51 79 52 80 53 81 54 82 80 83
REMARK SMILES IDX 81 84 90 85 82 86 83 87 89 88 91 89 84 90 85 91 86 92 87 93
REMARK SMILES IDX 88 94 64 95 65 96 74 97 66 98 67 99 73 100 75 101 68 102
REMARK SMILES IDX 69 103 70 104 71 105 72 106
REMARK H PARENT 96 56 62 67
REMARK Flexibility Score: inf
ROOT
ATOM      1  C   UNL A   1      37.693  29.891  32.920  1.00  0.00     0.188 C 
ENDROOT
BRANCH   1   2
ATOM      2  C   UNL A   1      37.760  29.589  31.377  1.00  0.00     0.188 C 
BRANCH   2   3
ATOM      3  O   UNL A   1      36.611  29.331  30.119  1.00  0.00    -0.376 OA
BRANCH   3   4
ATOM      4  C   UNL A   1      36.436  29.731  28.397  1.00  0.00     0.202 C 
BRANCH   4   5
ATOM      5  C   UNL A   1      35.089  29.256  27.132  1.00  0.00     0.261 C 
BRANCH   5   6
ATOM      6  O   UNL A   1      33.635  30.188  26.640  1.00  0.00    -0.459 OA
BRANCH   6   7
ATOM      7  C   UNL A   1      32.236  30.080  26.217  1.00  0.00     0.350 C 
ATOM      8  O   UNL A   1      31.456  31.001  25.949  1.00  0.00    -0.245 OA
BRANCH   7   9
ATOM      9  C   UNL A   1      31.673  28.794  25.752  1.00  0.00     0.136 A 
ATOM     10  C   UNL A   1      30.950  26.406  25.930  1.00  0.00     0.164 A 
ATOM     11  N   UNL A   1      30.818  26.864  24.701  1.00  0.00    -0.237 NA
ATOM     12  S   UNL A   1      31.581  27.536  27.025  1.00  0.00    -0.103 S 
ATOM     13  C   UNL A   1      31.274  28.188  24.572  1.00  0.00     0.064 A 
ATOM     14  C   UNL A   1      31.252  28.728  23.194  1.00  0.00     0.068 C 
BRANCH  10  15
ATOM     15  C   UNL A   1      30.601  25.018  26.264  1.00  0.00     0.228 C 
ATOM     16  O   UNL A   1      29.491  24.714  26.729  1.00  0.00    -0.288 OA
BRANCH  15  17
ATOM     17  C   UNL A   1      31.623  23.859  26.143  1.00  0.00     0.313 C 
BRANCH  17  18
ATOM     18  O   UNL A   1      32.112  23.282  24.956  1.00  0.00    -0.485 OA
BRANCH  18  19
ATOM     19  C   UNL A   1      32.887  22.162  25.007  1.00  0.00     0.123 A 
ATOM     20  C   UNL A   1      32.529  18.395  25.511  1.00  0.00     0.044 C 
ATOM     21  C   UNL A   1      33.124  19.742  25.232  1.00  0.00    -0.047 A 
ATOM     22  C   UNL A   1      34.446  19.853  24.814  1.00  0.00     0.004 A 
ATOM     23  C   UNL A   1      32.368  20.909  25.372  1.00  0.00     0.050 A 
ATOM     24  C   UNL A   1      34.997  21.107  24.543  1.00  0.00     0.008 A 
ATOM     25  C   UNL A   1      34.241  22.299  24.629  1.00  0.00    -0.000 A 
BRANCH  25  26
ATOM     26  C   UNL A   1      34.955  23.636  24.297  1.00  0.00    -0.010 C 
ATOM     27  C   UNL A   1      36.404  23.321  23.855  1.00  0.00     0.016 C 
ATOM     28  C   UNL A   1      34.217  24.361  23.145  1.00  0.00     0.016 C 
ATOM     29  C   UNL A   1      35.074  24.674  25.440  1.00  0.00     0.016 C 
ENDBRANCH  25  26
ENDBRANCH  18  19
ENDBRANCH  17  18
ENDBRANCH  15  17
ENDBRANCH  10  15
ENDBRANCH   7   9
ENDBRANCH   6   7
ENDBRANCH   5   6
ENDBRANCH   4   5
ENDBRANCH   3   4
ENDBRANCH   2   3
ENDBRANCH   1   2
BRANCH   1  30
ATOM     30  O   UNL A   1      36.897  31.073  33.087  1.00  0.00    -0.377 OA
BRANCH  30  31
ATOM     31  C   UNL A   1      37.220  31.870  31.965  1.00  0.00     0.188 C 
BRANCH  31  32
ATOM     32  C   UNL A   1      36.784  33.301  31.994  1.00  0.00     0.188 C 
BRANCH  32  33
ATOM     33  O   UNL A   1      37.764  34.272  31.679  1.00  0.00    -0.376 OA
BRANCH  33  34
ATOM     34  C   UNL A   1      38.800  34.446  32.639  1.00  0.00     0.202 C 
BRANCH  34  35
ATOM     35  C   UNL A   1      40.248  34.061  32.229  1.00  0.00     0.261 C 
BRANCH  35  36
ATOM     36  O   UNL A   1      40.613  32.657  32.349  1.00  0.00    -0.460 OA
BRANCH  36  37
ATOM     37  C   UNL A   1      41.173  32.252  33.541  1.00  0.00     0.338 C 
ATOM     38  O   UNL A   1      41.439  33.010  34.467  1.00  0.00    -0.246 OA
BRANCH  37  39
ATOM     39  C   UNL A   1      41.645  30.787  33.483  1.00  0.00     0.060 A 
ATOM     40  C   UNL A   1      42.547  30.446  34.470  1.00  0.00     0.016 A 
ATOM     41  C   UNL A   1      42.193  30.433  32.283  1.00  0.00     0.016 A 
ATOM     42  C   UNL A   1      43.930  30.681  34.289  1.00  0.00     0.010 A 
ATOM     43  C   UNL A   1      43.564  30.710  32.096  1.00  0.00     0.010 A 
ATOM     44  C   UNL A   1      44.389  31.263  33.104  1.00  0.00    -0.014 A 
BRANCH  44  45
ATOM     45  C   UNL A   1      45.717  32.497  33.015  1.00  0.00     0.031 A 
ATOM     46  C   UNL A   1      45.746  34.312  33.831  1.00  0.00     0.074 A 
ATOM     47  C   UNL A   1      46.510  31.853  32.043  1.00  0.00     0.049 A 
ATOM     48  N   UNL A   1      45.500  35.487  33.177  1.00  0.00    -0.248 NA
ATOM     49  C   UNL A   1      45.272  34.942  35.292  1.00  0.00     0.031 C 
ATOM     50  C   UNL A   1      47.805  32.092  31.458  1.00  0.00     0.029 A 
ATOM     51  N   UNL A   1      46.012  31.014  30.998  1.00  0.00    -0.354 N 
ATOM     52  C   UNL A   1      45.307  36.652  33.910  1.00  0.00     0.074 A 
ATOM     53  C   UNL A   1      45.091  36.244  35.233  1.00  0.00     0.031 C 
ATOM     54  C   UNL A   1      47.737  32.024  30.109  1.00  0.00     0.029 A 
ATOM     55  C   UNL A   1      46.458  31.483  29.765  1.00  0.00     0.049 A 
ATOM     56  H   UNL A   1      45.441  30.223  31.131  1.00  0.00     0.167 HD
ATOM     57  C   UNL A   1      45.363  37.917  33.403  1.00  0.00     0.037 A 
ATOM     58  C   UNL A   1      45.718  31.635  28.638  1.00  0.00     0.037 A 
ATOM     59  C   UNL A   1      45.826  37.927  32.019  1.00  0.00     0.049 A 
ATOM     60  C   UNL A   1      45.592  33.096  28.162  1.00  0.00     0.074 A 
ATOM     61  C   UNL A   1      47.094  38.079  31.482  1.00  0.00     0.029 A 
ATOM     62  N   UNL A   1      45.043  37.404  30.993  1.00  0.00    -0.354 N 
ATOM     63  N   UNL A   1      45.795  34.183  28.885  1.00  0.00    -0.248 NA
ATOM     64  C   UNL A   1      45.210  33.432  26.790  1.00  0.00     0.031 C 
ATOM     65  C   UNL A   1      47.112  37.460  30.201  1.00  0.00     0.029 A 
ATOM     66  C   UNL A   1      45.830  37.022  29.902  1.00  0.00     0.049 A 
ATOM     67  H   UNL A   1      44.063  37.314  31.030  1.00  0.00     0.167 HD
ATOM     68  C   UNL A   1      45.409  35.311  28.164  1.00  0.00     0.074 A 
ATOM     69  C   UNL A   1      45.171  34.775  26.831  1.00  0.00     0.031 C 
ATOM     70  C   UNL A   1      45.234  36.601  28.633  1.00  0.00     0.037 A 
BRANCH  57  71
ATOM     71  C   UNL A   1      45.365  39.080  34.400  1.00  0.00     0.058 A 
ATOM     72  C   UNL A   1      44.305  39.999  34.471  1.00  0.00     0.135 A 
ATOM     73  C   UNL A   1      46.489  39.415  35.197  1.00  0.00     0.135 A 
ATOM     74  F   UNL A   1      43.140  39.761  33.854  1.00  0.00    -0.206 F 
ATOM     75  C   UNL A   1      44.404  41.219  35.154  1.00  0.00     0.059 A 
ATOM     76  C   UNL A   1      46.642  40.660  35.828  1.00  0.00     0.059 A 
ATOM     77  F   UNL A   1      47.510  38.550  35.332  1.00  0.00    -0.206 F 
ATOM     78  C   UNL A   1      45.593  41.567  35.789  1.00  0.00     0.060 A 
BRANCH  78  79
ATOM     79  S   UNL A   1      45.741  43.207  36.537  1.00  0.00     0.124 S 
ATOM     80  O   UNL A   1      45.481  44.094  35.408  1.00  0.00    -0.237 OA
ATOM     81  O   UNL A   1      44.704  43.167  37.562  1.00  0.00    -0.237 OA
ATOM     82  O   UNL A   1      47.113  43.234  37.038  1.00  0.00    -0.744 OA
ENDBRANCH  78  79
ENDBRANCH  57  71
BRANCH  58  83
ATOM     83  C   UNL A   1      44.822  30.440  28.378  1.00  0.00     0.058 A 
ATOM     84  C   UNL A   1      43.422  30.681  28.464  1.00  0.00     0.135 A 
ATOM     85  C   UNL A   1      45.186  29.231  27.773  1.00  0.00     0.135 A 
ATOM     86  F   UNL A   1      42.977  31.773  29.109  1.00  0.00    -0.206 F 
ATOM     87  C   UNL A   1      42.465  29.905  27.804  1.00  0.00     0.059 A 
ATOM     88  C   UNL A   1      44.229  28.399  27.141  1.00  0.00     0.059 A 
ATOM     89  F   UNL A   1      46.479  28.899  27.655  1.00  0.00    -0.206 F 
ATOM     90  C   UNL A   1      42.881  28.783  27.102  1.00  0.00     0.060 A 
BRANCH  90  91
ATOM     91  S   UNL A   1      41.708  28.046  25.902  1.00  0.00     0.124 S 
ATOM     92  O   UNL A   1      40.426  28.561  26.362  1.00  0.00    -0.237 OA
ATOM     93  O   UNL A   1      42.184  28.576  24.626  1.00  0.00    -0.237 OA
ATOM     94  O   UNL A   1      41.919  26.612  26.073  1.00  0.00    -0.744 OA
ENDBRANCH  90  91
ENDBRANCH  58  83
BRANCH  70  95
ATOM     95  C   UNL A   1      44.518  37.722  27.863  1.00  0.00     0.058 A 
ATOM     96  C   UNL A   1      43.134  37.955  27.920  1.00  0.00     0.135 A 
ATOM     97  C   UNL A   1      45.256  38.716  27.157  1.00  0.00     0.135 A 
ATOM     98  F   UNL A   1      42.329  37.201  28.682  1.00  0.00    -0.206 F 
ATOM     99  C   UNL A   1      42.517  39.005  27.234  1.00  0.00     0.059 A 
ATOM    100  C   UNL A   1      44.670  39.815  26.537  1.00  0.00     0.059 A 
ATOM    101  F   UNL A   1      46.590  38.673  27.045  1.00  0.00    -0.206 F 
ATOM    102  C   UNL A   1      43.292  39.926  26.539  1.00  0.00     0.060 A 
BRANCH 102 103
ATOM    103  S   UNL A   1      42.510  41.292  25.669  1.00  0.00     0.124 S 
ATOM    104  O   UNL A   1      41.202  41.333  26.318  1.00  0.00    -0.237 OA
ATOM    105  O   UNL A   1      43.397  42.413  25.966  1.00  0.00    -0.237 OA
ATOM    106  O   UNL A   1      42.514  40.850  24.278  1.00  0.00    -0.744 OA
ENDBRANCH 102 103
ENDBRANCH  70  95
ENDBRANCH  44  45
ENDBRANCH  37  39
ENDBRANCH  36  37
ENDBRANCH  35  36
ENDBRANCH  34  35
ENDBRANCH  33  34
ENDBRANCH  32  33
ENDBRANCH  31  32
ENDBRANCH  30  31
ENDBRANCH   1  30
TORSDOF 28
ENDMDL
MODEL 2
REMARK VINA RESULT:      -9.1      4.904      6.501
REMARK SMILES Cc1ccc(C(C)(C)C)c(OCC(=O)c2nc(C)c(C(=O)OCCOCCOCCOCCOC(=O)c3ccc(-c4c5nc(c(-c6c(F)cc(S(=O)(=O)[O-])cc6F)c6ccc([nH]6)c(-c6c(F)cc(S(=O)(=O)[O-])cc6F)c6nc(c(-c7c(F)cc(S(=O)(=O)[O-])cc7F)c7ccc4[nH]7)C=C6)C=C5)cc3)s2)c1
REMARK SMILES IDX 27 1 26 2 25 3 24 4 23 5 22 6 20 7 21 8 19 9 15 10 16 11
REMARK SMILES IDX 103 12 17 13 18 14 13 15 14 16 12 17 11 18 10 19 1 20 2 21
REMARK SMILES IDX 3 22 104 23 4 24 5 25 6 26 7 27 8 28 9 29 28 30 29 31 30 32
REMARK SMILES IDX 31 33 32 34 33 35 34 36 35 37 36 38 37 39 38 40 102 41 39 42
REMARK SMILES IDX 101 43 40 44 41 45 42 46 95 47 43 48 100 49 94 50 96 51
REMARK SMILES IDX 44 52 99 53 93 54 92 55 45 57 79 58 58 59 78 60 59 61 62 62
REMARK SMILES IDX 77 63 97 64 60 65 61 66 76 68 98 69 63 70 46 71 47 72 56 73
REMARK SMILES IDX 48 74 49 75 55 76 57 77 50 78 51 79 52 80 53 81 54 82 80 83
REMARK SMILES IDX 81 84 90 85 82 86 83 87 89 88 91 89 84 90 85 91 86 92 87 93
REMARK SMILES IDX 88 94 64 95 65 96 74 97 66 98 67 99 73 100 75 101 68 102
REMARK SMILES IDX 69 103 70 104 71 105 72 106
REMARK H PARENT 96 56 62 67
REMARK Flexibility Score: inf
ROOT
ATOM      1  C   UNL A   1      38.432  29.432  32.960  1.00  0.00     0.188 C 
ENDROOT
BRANCH   1   2
ATOM      2  C   UNL A   1      37.854  29.126  31.528  1.00  0.00     0.188 C 
BRANCH   2   3
ATOM      3  O   UNL A   1      36.770  29.907  30.441  1.00  0.00    -0.376 OA
BRANCH   3   4
ATOM      4  C   UNL A   1      36.659  30.224  28.697  1.00  0.00     0.202 C 
BRANCH   4   5
ATOM      5  C   UNL A   1      35.261  29.877  27.447  1.00  0.00     0.261 C 
BRANCH   5   6
ATOM      6  O   UNL A   1      33.679  30.710  27.274  1.00  0.00    -0.459 OA
BRANCH   6   7
ATOM      7  C   UNL A   1      32.292  30.555  26.828  1.00  0.00     0.350 C 
ATOM      8  O   UNL A   1      31.464  31.449  26.613  1.00  0.00    -0.245 OA
BRANCH   7   9
ATOM      9  C   UNL A   1      31.804  29.275  26.272  1.00  0.00     0.136 A 
ATOM     10  C   UNL A   1      31.436  26.802  26.182  1.00  0.00     0.164 A 
ATOM     11  N   UNL A   1      30.985  27.401  25.098  1.00  0.00    -0.237 NA
ATOM     12  S   UNL A   1      32.145  27.853  27.308  1.00  0.00    -0.103 S 
ATOM     13  C   UNL A   1      31.236  28.784  25.107  1.00  0.00     0.064 A 
ATOM     14  C   UNL A   1      30.849  29.501  23.872  1.00  0.00     0.068 C 
BRANCH  10  15
ATOM     15  C   UNL A   1      31.341  25.344  26.339  1.00  0.00     0.228 C 
ATOM     16  O   UNL A   1      30.284  24.788  26.678  1.00  0.00    -0.288 OA
BRANCH  15  17
ATOM     17  C   UNL A   1      32.572  24.416  26.180  1.00  0.00     0.313 C 
BRANCH  17  18
ATOM     18  O   UNL A   1      33.263  24.122  24.990  1.00  0.00    -0.485 OA
BRANCH  18  19
ATOM     19  C   UNL A   1      34.357  23.310  25.015  1.00  0.00     0.123 A 
ATOM     20  C   UNL A   1      38.028  23.404  26.057  1.00  0.00     0.044 C 
ATOM     21  C   UNL A   1      36.700  22.906  25.572  1.00  0.00    -0.047 A 
ATOM     22  C   UNL A   1      36.503  21.551  25.332  1.00  0.00     0.004 A 
ATOM     23  C   UNL A   1      35.632  23.784  25.363  1.00  0.00     0.050 A 
ATOM     24  C   UNL A   1      35.262  21.086  24.891  1.00  0.00     0.008 A 
ATOM     25  C   UNL A   1      34.151  21.944  24.719  1.00  0.00    -0.000 A 
BRANCH  25  26
ATOM     26  C   UNL A   1      32.818  21.316  24.232  1.00  0.00    -0.010 C 
ATOM     27  C   UNL A   1      31.781  21.422  25.375  1.00  0.00     0.016 C 
ATOM     28  C   UNL A   1      32.292  22.082  22.993  1.00  0.00     0.016 C 
ATOM     29  C   UNL A   1      32.850  19.824  23.822  1.00  0.00     0.016 C 
ENDBRANCH  25  26
ENDBRANCH  18  19
ENDBRANCH  17  18
ENDBRANCH  15  17
ENDBRANCH  10  15
ENDBRANCH   7   9
ENDBRANCH   6   7
ENDBRANCH   5   6
ENDBRANCH   4   5
ENDBRANCH   3   4
ENDBRANCH   2   3
ENDBRANCH   1   2
BRANCH   1  30
ATOM     30  O   UNL A   1      39.832  29.708  32.802  1.00  0.00    -0.377 OA
BRANCH  30  31
ATOM     31  C   UNL A   1      40.454  28.450  32.973  1.00  0.00     0.188 C 
BRANCH  31  32
ATOM     32  C   UNL A   1      40.961  28.118  34.341  1.00  0.00     0.188 C 
BRANCH  32  33
ATOM     33  O   UNL A   1      41.923  27.084  34.431  1.00  0.00    -0.376 OA
BRANCH  33  34
ATOM     34  C   UNL A   1      41.789  26.203  35.541  1.00  0.00     0.202 C 
BRANCH  34  35
ATOM     35  C   UNL A   1      42.611  26.512  36.822  1.00  0.00     0.261 C 
BRANCH  35  36
ATOM     36  O   UNL A   1      43.232  27.826  36.903  1.00  0.00    -0.460 OA
BRANCH  36  37
ATOM     37  C   UNL A   1      44.472  27.899  37.500  1.00  0.00     0.338 C 
ATOM     38  O   UNL A   1      44.675  28.397  38.601  1.00  0.00    -0.246 OA
BRANCH  37  39
ATOM     39  C   UNL A   1      45.598  27.503  36.527  1.00  0.00     0.060 A 
ATOM     40  C   UNL A   1      46.802  28.131  36.775  1.00  0.00     0.016 A 
ATOM     41  C   UNL A   1      45.289  27.710  35.214  1.00  0.00     0.016 A 
ATOM     42  C   UNL A   1      47.068  29.411  36.235  1.00  0.00     0.010 A 
ATOM     43  C   UNL A   1      45.518  29.002  34.694  1.00  0.00     0.010 A 
ATOM     44  C   UNL A   1      46.107  30.048  35.445  1.00  0.00    -0.014 A 
BRANCH  44  45
ATOM     45  C   UNL A   1      45.741  31.823  35.509  1.00  0.00     0.031 A 
ATOM     46  C   UNL A   1      44.602  32.784  36.829  1.00  0.00     0.074 A 
ATOM     47  C   UNL A   1      46.293  32.176  34.260  1.00  0.00     0.049 A 
ATOM     48  N   UNL A   1      43.313  33.191  36.627  1.00  0.00    -0.248 NA
ATOM     49  C   UNL A   1      44.393  32.692  38.473  1.00  0.00     0.031 C 
ATOM     50  C   UNL A   1      46.525  33.412  33.557  1.00  0.00     0.029 A 
ATOM     51  N   UNL A   1      46.344  31.325  33.112  1.00  0.00    -0.354 N 
ATOM     52  C   UNL A   1      42.554  33.624  37.708  1.00  0.00     0.074 A 
ATOM     53  C   UNL A   1      43.246  33.215  38.854  1.00  0.00     0.031 C 
ATOM     54  C   UNL A   1      46.064  33.332  32.288  1.00  0.00     0.029 A 
ATOM     55  C   UNL A   1      45.747  31.962  32.027  1.00  0.00     0.049 A 
ATOM     56  H   UNL A   1      46.742  30.425  33.093  1.00  0.00     0.167 HD
ATOM     57  C   UNL A   1      41.393  34.335  37.616  1.00  0.00     0.037 A 
ATOM     58  C   UNL A   1      44.861  31.419  31.154  1.00  0.00     0.037 A 
ATOM     59  C   UNL A   1      41.116  34.748  36.245  1.00  0.00     0.049 A 
ATOM     60  C   UNL A   1      43.466  32.075  31.186  1.00  0.00     0.074 A 
ATOM     61  C   UNL A   1      41.421  35.916  35.565  1.00  0.00     0.029 A 
ATOM     62  N   UNL A   1      40.782  33.817  35.264  1.00  0.00    -0.354 N 
ATOM     63  N   UNL A   1      42.959  32.806  32.162  1.00  0.00    -0.248 NA
ATOM     64  C   UNL A   1      42.521  31.937  30.077  1.00  0.00     0.031 C 
ATOM     65  C   UNL A   1      41.465  35.621  34.173  1.00  0.00     0.029 A 
ATOM     66  C   UNL A   1      41.080  34.301  33.986  1.00  0.00     0.049 A 
ATOM     67  H   UNL A   1      40.389  32.933  35.445  1.00  0.00     0.167 HD
ATOM     68  C   UNL A   1      41.615  33.070  31.908  1.00  0.00     0.074 A 
ATOM     69  C   UNL A   1      41.448  32.600  30.539  1.00  0.00     0.031 C 
ATOM     70  C   UNL A   1      40.670  33.586  32.778  1.00  0.00     0.037 A 
BRANCH  57  71
ATOM     71  C   UNL A   1      40.825  34.930  38.908  1.00  0.00     0.058 A 
ATOM     72  C   UNL A   1      41.273  36.160  39.418  1.00  0.00     0.135 A 
ATOM     73  C   UNL A   1      39.942  34.224  39.764  1.00  0.00     0.135 A 
ATOM     74  F   UNL A   1      42.027  36.983  38.679  1.00  0.00    -0.206 F 
ATOM     75  C   UNL A   1      40.992  36.586  40.725  1.00  0.00     0.059 A 
ATOM     76  C   UNL A   1      39.706  34.591  41.099  1.00  0.00     0.059 A 
ATOM     77  F   UNL A   1      39.328  33.106  39.337  1.00  0.00    -0.206 F 
ATOM     78  C   UNL A   1      40.250  35.774  41.577  1.00  0.00     0.060 A 
BRANCH  78  79
ATOM     79  S   UNL A   1      40.026  36.282  43.299  1.00  0.00     0.124 S 
ATOM     80  O   UNL A   1      40.469  37.672  43.278  1.00  0.00    -0.237 OA
ATOM     81  O   UNL A   1      38.595  36.076  43.492  1.00  0.00    -0.237 OA
ATOM     82  O   UNL A   1      40.894  35.371  44.042  1.00  0.00    -0.744 OA
ENDBRANCH  78  79
ENDBRANCH  57  71
BRANCH  58  83
ATOM     83  C   UNL A   1      45.282  30.035  30.700  1.00  0.00     0.058 A 
ATOM     84  C   UNL A   1      46.474  29.969  29.926  1.00  0.00     0.135 A 
ATOM     85  C   UNL A   1      44.821  28.810  31.197  1.00  0.00     0.135 A 
ATOM     86  F   UNL A   1      46.941  31.081  29.333  1.00  0.00    -0.206 F 
ATOM     87  C   UNL A   1      47.274  28.826  29.841  1.00  0.00     0.059 A 
ATOM     88  C   UNL A   1      45.588  27.625  31.080  1.00  0.00     0.059 A 
ATOM     89  F   UNL A   1      43.697  28.758  31.925  1.00  0.00    -0.206 F 
ATOM     90  C   UNL A   1      46.847  27.661  30.461  1.00  0.00     0.060 A 
BRANCH  90  91
ATOM     91  S   UNL A   1      48.079  26.330  30.718  1.00  0.00     0.124 S 
ATOM     92  O   UNL A   1      47.699  25.799  32.020  1.00  0.00    -0.237 OA
ATOM     93  O   UNL A   1      47.837  25.448  29.578  1.00  0.00    -0.237 OA
ATOM     94  O   UNL A   1      49.351  27.044  30.666  1.00  0.00    -0.744 OA
ENDBRANCH  90  91
ENDBRANCH  58  83
BRANCH  70  95
ATOM     95  C   UNL A   1      39.153  33.565  32.534  1.00  0.00     0.058 A 
ATOM     96  C   UNL A   1      38.236  32.883  33.351  1.00  0.00     0.135 A 
ATOM     97  C   UNL A   1      38.556  34.387  31.535  1.00  0.00     0.135 A 
ATOM     98  F   UNL A   1      38.635  32.202  34.433  1.00  0.00    -0.206 F 
ATOM     99  C   UNL A   1      36.857  32.911  33.123  1.00  0.00     0.059 A 
ATOM    100  C   UNL A   1      37.182  34.494  31.344  1.00  0.00     0.059 A 
ATOM    101  F   UNL A   1      39.284  35.140  30.699  1.00  0.00    -0.206 F 
ATOM    102  C   UNL A   1      36.340  33.713  32.113  1.00  0.00     0.060 A 
BRANCH 102 103
ATOM    103  S   UNL A   1      34.566  33.771  31.823  1.00  0.00     0.124 S 
ATOM    104  O   UNL A   1      34.516  34.275  30.453  1.00  0.00    -0.237 OA
ATOM    105  O   UNL A   1      34.165  32.379  31.998  1.00  0.00    -0.237 OA
ATOM    106  O   UNL A   1      34.087  34.689  32.852  1.00  0.00    -0.744 OA
ENDBRANCH 102 103
ENDBRANCH  70  95
ENDBRANCH  44  45
ENDBRANCH  37  39
ENDBRANCH  36  37
ENDBRANCH  35  36
ENDBRANCH  34  35
ENDBRANCH  33  34
ENDBRANCH  32  33
ENDBRANCH  31  32
ENDBRANCH  30  31
ENDBRANCH   1  30
TORSDOF 28
ENDMDL
MODEL 3
REMARK VINA RESULT:      -8.7      5.750     11.294
REMARK SMILES Cc1ccc(C(C)(C)C)c(OCC(=O)c2nc(C)c(C(=O)OCCOCCOCCOCCOC(=O)c3ccc(-c4c5nc(c(-c6c(F)cc(S(=O)(=O)[O-])cc6F)c6ccc([nH]6)c(-c6c(F)cc(S(=O)(=O)[O-])cc6F)c6nc(c(-c7c(F)cc(S(=O)(=O)[O-])cc7F)c7ccc4[nH]7)C=C6)C=C5)cc3)s2)c1
REMARK SMILES IDX 27 1 26 2 25 3 24 4 23 5 22 6 20 7 21 8 19 9 15 10 16 11
REMARK SMILES IDX 103 12 17 13 18 14 13 15 14 16 12 17 11 18 10 19 1 20 2 21
REMARK SMILES IDX 3 22 104 23 4 24 5 25 6 26 7 27 8 28 9 29 28 30 29 31 30 32
REMARK SMILES IDX 31 33 32 34 33 35 34 36 35 37 36 38 37 39 38 40 102 41 39 42
REMARK SMILES IDX 101 43 40 44 41 45 42 46 95 47 43 48 100 49 94 50 96 51
REMARK SMILES IDX 44 52 99 53 93 54 92 55 45 57 79 58 58 59 78 60 59 61 62 62
REMARK SMILES IDX 77 63 97 64 60 65 61 66 76 68 98 69 63 70 46 71 47 72 56 73
REMARK SMILES IDX 48 74 49 75 55 76 57 77 50 78 51 79 52 80 53 81 54 82 80 83
REMARK SMILES IDX 81 84 90 85 82 86 83 87 89 88 91 89 84 90 85 91 86 92 87 93
REMARK SMILES IDX 88 94 64 95 65 96 74 97 66 98 67 99 73 100 75 101 68 102
REMARK SMILES IDX 69 103 70 104 71 105 72 106
REMARK H PARENT 96 56 62 67
REMARK Flexibility Score: inf
ROOT
ATOM      1  C   UNL A   1      43.978  24.740  26.642  1.00  0.00     0.188 C 
ENDROOT
BRANCH   1   2
ATOM      2  C   UNL A   1      43.218  24.753  28.020  1.00  0.00     0.188 C 
BRANCH   2   3
ATOM      3  O   UNL A   1      41.585  24.557  28.532  1.00  0.00    -0.376 OA
BRANCH   3   4
ATOM      4  C   UNL A   1      39.968  25.043  27.980  1.00  0.00     0.202 C 
BRANCH   4   5
ATOM      5  C   UNL A   1      38.884  24.392  26.552  1.00  0.00     0.261 C 
BRANCH   5   6
ATOM      6  O   UNL A   1      37.752  22.997  26.549  1.00  0.00    -0.459 OA
BRANCH   6   7
ATOM      7  C   UNL A   1      36.753  22.274  25.759  1.00  0.00     0.350 C 
ATOM      8  O   UNL A   1      36.719  21.063  25.511  1.00  0.00    -0.245 OA
BRANCH   7   9
ATOM      9  C   UNL A   1      35.455  22.894  25.412  1.00  0.00     0.136 A 
ATOM     10  C   UNL A   1      33.140  23.753  25.813  1.00  0.00     0.164 A 
ATOM     11  N   UNL A   1      33.472  23.823  24.539  1.00  0.00    -0.237 NA
ATOM     12  S   UNL A   1      34.347  23.094  26.805  1.00  0.00    -0.103 S 
ATOM     13  C   UNL A   1      34.748  23.291  24.288  1.00  0.00     0.064 A 
ATOM     14  C   UNL A   1      35.139  23.242  22.862  1.00  0.00     0.068 C 
BRANCH  10  15
ATOM     15  C   UNL A   1      31.816  24.188  26.278  1.00  0.00     0.228 C 
ATOM     16  O   UNL A   1      31.388  23.898  27.407  1.00  0.00    -0.288 OA
BRANCH  15  17
ATOM     17  C   UNL A   1      30.833  24.959  25.361  1.00  0.00     0.313 C 
BRANCH  17  18
ATOM     18  O   UNL A   1      30.328  26.257  25.563  1.00  0.00    -0.485 OA
BRANCH  18  19
ATOM     19  C   UNL A   1      31.160  27.334  25.501  1.00  0.00     0.123 A 
ATOM     20  C   UNL A   1      34.010  28.927  27.480  1.00  0.00     0.044 C 
ATOM     21  C   UNL A   1      33.009  28.653  26.398  1.00  0.00    -0.047 A 
ATOM     22  C   UNL A   1      33.047  29.373  25.209  1.00  0.00     0.004 A 
ATOM     23  C   UNL A   1      32.030  27.669  26.553  1.00  0.00     0.050 A 
ATOM     24  C   UNL A   1      32.121  29.111  24.196  1.00  0.00     0.008 A 
ATOM     25  C   UNL A   1      31.151  28.088  24.306  1.00  0.00    -0.000 A 
BRANCH  25  26
ATOM     26  C   UNL A   1      30.178  27.880  23.116  1.00  0.00    -0.010 C 
ATOM     27  C   UNL A   1      30.787  26.821  22.165  1.00  0.00     0.016 C 
ATOM     28  C   UNL A   1      28.809  27.373  23.632  1.00  0.00     0.016 C 
ATOM     29  C   UNL A   1      29.866  29.114  22.236  1.00  0.00     0.016 C 
ENDBRANCH  25  26
ENDBRANCH  18  19
ENDBRANCH  17  18
ENDBRANCH  15  17
ENDBRANCH  10  15
ENDBRANCH   7   9
ENDBRANCH   6   7
ENDBRANCH   5   6
ENDBRANCH   4   5
ENDBRANCH   3   4
ENDBRANCH   2   3
ENDBRANCH   1   2
BRANCH   1  30
ATOM     30  O   UNL A   1      45.380  24.857  26.930  1.00  0.00    -0.377 OA
BRANCH  30  31
ATOM     31  C   UNL A   1      46.013  24.281  25.805  1.00  0.00     0.188 C 
BRANCH  31  32
ATOM     32  C   UNL A   1      46.981  25.138  25.052  1.00  0.00     0.188 C 
BRANCH  32  33
ATOM     33  O   UNL A   1      47.341  26.369  25.650  1.00  0.00    -0.376 OA
BRANCH  33  34
ATOM     34  C   UNL A   1      46.895  27.542  24.980  1.00  0.00     0.202 C 
BRANCH  34  35
ATOM     35  C   UNL A   1      45.687  28.312  25.579  1.00  0.00     0.261 C 
BRANCH  35  36
ATOM     36  O   UNL A   1      45.966  29.207  26.692  1.00  0.00    -0.460 OA
BRANCH  36  37
ATOM     37  C   UNL A   1      45.940  30.560  26.433  1.00  0.00     0.338 C 
ATOM     38  O   UNL A   1      46.927  31.219  26.129  1.00  0.00    -0.246 OA
BRANCH  37  39
ATOM     39  C   UNL A   1      44.582  31.187  26.802  1.00  0.00     0.060 A 
ATOM     40  C   UNL A   1      44.671  32.472  27.296  1.00  0.00     0.016 A 
ATOM     41  C   UNL A   1      43.862  30.450  27.698  1.00  0.00     0.016 A 
ATOM     42  C   UNL A   1      44.914  32.697  28.672  1.00  0.00     0.010 A 
ATOM     43  C   UNL A   1      44.141  30.650  29.067  1.00  0.00     0.010 A 
ATOM     44  C   UNL A   1      45.066  31.612  29.539  1.00  0.00    -0.014 A 
BRANCH  44  45
ATOM     45  C   UNL A   1      46.270  31.544  30.894  1.00  0.00     0.031 A 
ATOM     46  C   UNL A   1      48.028  30.610  30.914  1.00  0.00     0.074 A 
ATOM     47  C   UNL A   1      45.461  32.118  31.897  1.00  0.00     0.049 A 
ATOM     48  N   UNL A   1      48.284  29.401  31.498  1.00  0.00    -0.248 NA
ATOM     49  C   UNL A   1      49.263  30.426  29.821  1.00  0.00     0.031 C 
ATOM     50  C   UNL A   1      45.663  32.533  33.261  1.00  0.00     0.029 A 
ATOM     51  N   UNL A   1      44.038  32.002  31.972  1.00  0.00    -0.354 N 
ATOM     52  C   UNL A   1      49.481  28.749  31.226  1.00  0.00     0.074 A 
ATOM     53  C   UNL A   1      50.024  29.391  30.106  1.00  0.00     0.031 C 
ATOM     54  C   UNL A   1      44.692  32.037  34.059  1.00  0.00     0.029 A 
ATOM     55  C   UNL A   1      43.672  31.492  33.216  1.00  0.00     0.049 A 
ATOM     56  H   UNL A   1      43.411  32.246  31.253  1.00  0.00     0.167 HD
ATOM     57  C   UNL A   1      49.997  27.718  31.956  1.00  0.00     0.037 A 
ATOM     58  C   UNL A   1      42.768  30.510  33.457  1.00  0.00     0.037 A 
ATOM     59  C   UNL A   1      49.233  27.481  33.175  1.00  0.00     0.049 A 
ATOM     60  C   UNL A   1      43.374  29.242  34.094  1.00  0.00     0.074 A 
ATOM     61  C   UNL A   1      49.401  27.958  34.465  1.00  0.00     0.029 A 
ATOM     62  N   UNL A   1      47.935  26.977  33.128  1.00  0.00    -0.354 N 
ATOM     63  N   UNL A   1      44.645  28.885  34.087  1.00  0.00    -0.248 NA
ATOM     64  C   UNL A   1      42.548  28.262  34.800  1.00  0.00     0.031 C 
ATOM     65  C   UNL A   1      48.139  27.921  35.122  1.00  0.00     0.029 A 
ATOM     66  C   UNL A   1      47.217  27.320  34.277  1.00  0.00     0.049 A 
ATOM     67  H   UNL A   1      47.570  26.448  32.382  1.00  0.00     0.167 HD
ATOM     68  C   UNL A   1      44.779  27.597  34.601  1.00  0.00     0.074 A 
ATOM     69  C   UNL A   1      43.451  27.324  35.133  1.00  0.00     0.031 C 
ATOM     70  C   UNL A   1      45.888  26.770  34.547  1.00  0.00     0.037 A 
BRANCH  57  71
ATOM     71  C   UNL A   1      51.435  27.286  31.652  1.00  0.00     0.058 A 
ATOM     72  C   UNL A   1      52.541  27.917  32.245  1.00  0.00     0.135 A 
ATOM     73  C   UNL A   1      51.764  26.348  30.641  1.00  0.00     0.135 A 
ATOM     74  F   UNL A   1      52.389  28.748  33.284  1.00  0.00    -0.206 F 
ATOM     75  C   UNL A   1      53.852  27.746  31.777  1.00  0.00     0.059 A 
ATOM     76  C   UNL A   1      53.055  26.215  30.105  1.00  0.00     0.059 A 
ATOM     77  F   UNL A   1      50.811  25.572  30.095  1.00  0.00    -0.206 F 
ATOM     78  C   UNL A   1      54.097  26.932  30.674  1.00  0.00     0.060 A 
BRANCH  78  79
ATOM     79  S   UNL A   1      55.775  26.846  30.003  1.00  0.00     0.124 S 
ATOM     80  O   UNL A   1      55.561  27.106  28.584  1.00  0.00    -0.237 OA
ATOM     81  O   UNL A   1      56.452  27.903  30.746  1.00  0.00    -0.237 OA
ATOM     82  O   UNL A   1      56.202  25.485  30.322  1.00  0.00    -0.744 OA
ENDBRANCH  78  79
ENDBRANCH  57  71
BRANCH  58  83
ATOM     83  C   UNL A   1      41.502  30.686  32.643  1.00  0.00     0.058 A 
ATOM     84  C   UNL A   1      41.281  29.724  31.618  1.00  0.00     0.135 A 
ATOM     85  C   UNL A   1      40.395  31.479  32.970  1.00  0.00     0.135 A 
ATOM     86  F   UNL A   1      42.309  28.980  31.176  1.00  0.00    -0.206 F 
ATOM     87  C   UNL A   1      40.014  29.410  31.118  1.00  0.00     0.059 A 
ATOM     88  C   UNL A   1      39.109  31.215  32.438  1.00  0.00     0.059 A 
ATOM     89  F   UNL A   1      40.499  32.427  33.912  1.00  0.00    -0.206 F 
ATOM     90  C   UNL A   1      38.918  30.132  31.566  1.00  0.00     0.060 A 
BRANCH  90  91
ATOM     91  S   UNL A   1      37.252  29.437  31.252  1.00  0.00     0.124 S 
ATOM     92  O   UNL A   1      36.477  29.970  32.364  1.00  0.00    -0.237 OA
ATOM     93  O   UNL A   1      36.926  29.977  29.934  1.00  0.00    -0.237 OA
ATOM     94  O   UNL A   1      37.487  27.997  31.270  1.00  0.00    -0.744 OA
ENDBRANCH  90  91
ENDBRANCH  58  83
BRANCH  70  95
ATOM     95  C   UNL A   1      45.873  25.265  34.856  1.00  0.00     0.058 A 
ATOM     96  C   UNL A   1      45.570  24.272  33.910  1.00  0.00     0.135 A 
ATOM     97  C   UNL A   1      46.334  24.766  36.108  1.00  0.00     0.135 A 
ATOM     98  F   UNL A   1      45.280  24.582  32.639  1.00  0.00    -0.206 F 
ATOM     99  C   UNL A   1      45.597  22.908  34.213  1.00  0.00     0.059 A 
ATOM    100  C   UNL A   1      46.448  23.412  36.404  1.00  0.00     0.059 A 
ATOM    101  F   UNL A   1      46.709  25.576  37.107  1.00  0.00    -0.206 F 
ATOM    102  C   UNL A   1      46.031  22.487  35.465  1.00  0.00     0.060 A 
BRANCH 102 103
ATOM    103  S   UNL A   1      46.089  20.733  35.860  1.00  0.00     0.124 S 
ATOM    104  O   UNL A   1      45.088  20.200  34.940  1.00  0.00    -0.237 OA
ATOM    105  O   UNL A   1      47.473  20.382  35.558  1.00  0.00    -0.237 OA
ATOM    106  O   UNL A   1      45.734  20.696  37.275  1.00  0.00    -0.744 OA
ENDBRANCH 102 103
ENDBRANCH  70  95
ENDBRANCH  44  45
ENDBRANCH  37  39
ENDBRANCH  36  37
ENDBRANCH  35  36
ENDBRANCH  34  35
ENDBRANCH  33  34
ENDBRANCH  32  33
ENDBRANCH  31  32
ENDBRANCH  30  31
ENDBRANCH   1  30
TORSDOF 28
ENDMDL
