MODEL 1
REMARK VINA RESULT:     -11.0      0.000      0.000
REMARK SMILES C[C@@](COc1ccccc1)(NC(=O)CN1CSCC1=O)C(=O)OCCOCCOCCOCCOC(=O)c1ccc(-c2c3nc(c(-c4c(F)cc(S(=O)(=O)[O-])cc4F)c4ccc([nH]4)c(-c4c(F)cc(S(=O)(=O)[O-])cc4F)c4nc(c(-c5c(F)cc(S(=O)(=O)[O-])cc5F)c5ccc2[nH]5)C=C4)C=C3)cc1
REMARK SMILES IDX 29 1 28 2 27 3 26 4 25 5 24 6 23 7 21 8 22 9 2 10 1 11 3 12
REMARK SMILES IDX 4 13 5 14 6 15 10 16 7 17 9 18 8 19 11 20 12 21 13 23 14 24
REMARK SMILES IDX 15 25 16 26 19 27 17 28 18 29 20 30 30 31 31 32 32 33 33 34
REMARK SMILES IDX 34 35 35 36 36 37 37 38 38 39 39 40 103 41 40 42 102 43
REMARK SMILES IDX 41 44 42 45 43 46 96 47 44 48 101 49 95 50 97 51 45 52
REMARK SMILES IDX 100 53 94 54 93 55 46 57 80 58 59 59 79 60 60 61 63 62 78 63
REMARK SMILES IDX 98 64 61 65 62 66 77 68 99 69 64 70 47 71 48 72 57 73 49 74
REMARK SMILES IDX 50 75 56 76 58 77 51 78 52 79 53 80 54 81 55 82 81 83 82 84
REMARK SMILES IDX 91 85 83 86 84 87 90 88 92 89 85 90 86 91 87 92 88 93 89 94
REMARK SMILES IDX 65 95 66 96 75 97 67 98 68 99 74 100 76 101 69 102 70 103
REMARK SMILES IDX 71 104 72 105 73 106
REMARK H PARENT 11 22 97 56 63 67
REMARK Flexibility Score: inf
ROOT
ATOM      1  O   UNL A   1      43.890  18.521  25.952  1.00  0.00    -0.377 OA
ENDROOT
BRANCH   1   2
ATOM      2  C   UNL A   1      42.475  18.590  26.072  1.00  0.00     0.188 C 
BRANCH   2   3
ATOM      3  C   UNL A   1      41.863  19.476  27.405  1.00  0.00     0.188 C 
BRANCH   3   4
ATOM      4  O   UNL A   1      40.612  21.030  27.513  1.00  0.00    -0.376 OA
BRANCH   4   5
ATOM      5  C   UNL A   1      39.514  21.893  26.670  1.00  0.00     0.202 C 
BRANCH   5   6
ATOM      6  C   UNL A   1      38.492  21.355  25.534  1.00  0.00     0.261 C 
BRANCH   6   7
ATOM      7  O   UNL A   1      37.693  22.379  24.840  1.00  0.00    -0.461 OA
BRANCH   7   8
ATOM      8  C   UNL A   1      36.817  23.208  25.495  1.00  0.00     0.335 C 
ATOM      9  O   UNL A   1      37.178  24.068  26.290  1.00  0.00    -0.249 OA
BRANCH   8  10
ATOM     10  C   UNL A   1      35.322  23.078  24.934  1.00  0.00     0.169 C 
ATOM     11  C   UNL A   1      34.294  23.069  26.093  1.00  0.00     0.051 C 
BRANCH  10  12
ATOM     12  C   UNL A   1      35.155  21.676  24.247  1.00  0.00     0.269 C 
BRANCH  12  13
ATOM     13  O   UNL A   1      34.639  20.663  25.181  1.00  0.00    -0.491 OA
BRANCH  13  14
ATOM     14  C   UNL A   1      34.231  19.480  24.607  1.00  0.00     0.119 A 
ATOM     15  C   UNL A   1      35.038  18.345  24.598  1.00  0.00     0.046 A 
ATOM     16  C   UNL A   1      32.913  19.402  24.125  1.00  0.00     0.046 A 
ATOM     17  C   UNL A   1      34.501  17.112  24.207  1.00  0.00     0.004 A 
ATOM     18  C   UNL A   1      32.368  18.160  23.775  1.00  0.00     0.004 A 
ATOM     19  C   UNL A   1      33.161  17.014  23.825  1.00  0.00     0.000 A 
ENDBRANCH  13  14
ENDBRANCH  12  13
ENDBRANCH  10  12
BRANCH  10  20
ATOM     20  N   UNL A   1      34.933  24.090  23.908  1.00  0.00    -0.336 N 
ATOM     21  C   UNL A   1      33.846  24.852  23.652  1.00  0.00     0.240 C 
ATOM     22  H   UNL A   1      35.649  24.241  23.250  1.00  0.00     0.164 HD
ATOM     23  O   UNL A   1      33.743  25.262  22.487  1.00  0.00    -0.273 OA
BRANCH  21  24
ATOM     24  C   UNL A   1      32.833  25.332  24.707  1.00  0.00     0.220 C 
BRANCH  24  25
ATOM     25  N   UNL A   1      31.865  26.447  24.501  1.00  0.00    -0.323 N 
ATOM     26  C   UNL A   1      30.121  26.068  23.752  1.00  0.00     0.190 C 
ATOM     27  C   UNL A   1      32.305  28.219  24.476  1.00  0.00     0.233 C 
ATOM     28  S   UNL A   1      28.992  28.072  23.237  1.00  0.00    -0.130 SA
ATOM     29  C   UNL A   1      30.792  29.392  23.941  1.00  0.00     0.171 C 
ATOM     30  O   UNL A   1      33.393  28.749  24.540  1.00  0.00    -0.274 OA
ENDBRANCH  24  25
ENDBRANCH  21  24
ENDBRANCH  10  20
ENDBRANCH   8  10
ENDBRANCH   7   8
ENDBRANCH   6   7
ENDBRANCH   5   6
ENDBRANCH   4   5
ENDBRANCH   3   4
ENDBRANCH   2   3
ENDBRANCH   1   2
BRANCH   1  31
ATOM     31  C   UNL A   1      44.532  19.069  24.792  1.00  0.00     0.188 C 
BRANCH  31  32
ATOM     32  C   UNL A   1      46.044  19.020  25.077  1.00  0.00     0.188 C 
BRANCH  32  33
ATOM     33  O   UNL A   1      46.686  20.268  25.308  1.00  0.00    -0.376 OA
BRANCH  33  34
ATOM     34  C   UNL A   1      46.094  21.402  24.693  1.00  0.00     0.202 C 
BRANCH  34  35
ATOM     35  C   UNL A   1      45.588  22.487  25.651  1.00  0.00     0.261 C 
BRANCH  35  36
ATOM     36  O   UNL A   1      45.009  23.641  25.013  1.00  0.00    -0.460 OA
BRANCH  36  37
ATOM     37  C   UNL A   1      43.678  23.528  24.771  1.00  0.00     0.338 C 
ATOM     38  O   UNL A   1      43.125  22.653  24.125  1.00  0.00    -0.246 OA
BRANCH  37  39
ATOM     39  C   UNL A   1      42.918  24.549  25.525  1.00  0.00     0.060 A 
ATOM     40  C   UNL A   1      43.430  25.855  25.554  1.00  0.00     0.016 A 
ATOM     41  C   UNL A   1      41.812  24.206  26.306  1.00  0.00     0.016 A 
ATOM     42  C   UNL A   1      42.904  26.793  26.434  1.00  0.00     0.010 A 
ATOM     43  C   UNL A   1      41.300  25.141  27.214  1.00  0.00     0.010 A 
ATOM     44  C   UNL A   1      41.895  26.410  27.328  1.00  0.00    -0.014 A 
BRANCH  44  45
ATOM     45  C   UNL A   1      41.722  27.227  28.554  1.00  0.00     0.031 A 
ATOM     46  C   UNL A   1      42.736  27.052  29.657  1.00  0.00     0.074 A 
ATOM     47  C   UNL A   1      40.768  28.168  28.644  1.00  0.00     0.049 A 
ATOM     48  N   UNL A   1      42.861  27.701  30.786  1.00  0.00    -0.248 NA
ATOM     49  C   UNL A   1      43.756  26.009  29.452  1.00  0.00     0.031 C 
ATOM     50  C   UNL A   1      39.766  28.457  27.620  1.00  0.00     0.029 A 
ATOM     51  N   UNL A   1      40.497  29.066  29.645  1.00  0.00    -0.354 N 
ATOM     52  C   UNL A   1      43.970  27.148  31.419  1.00  0.00     0.074 A 
ATOM     53  C   UNL A   1      44.465  26.091  30.567  1.00  0.00     0.031 C 
ATOM     54  C   UNL A   1      38.984  29.464  28.049  1.00  0.00     0.029 A 
ATOM     55  C   UNL A   1      39.423  29.880  29.381  1.00  0.00     0.049 A 
ATOM     56  H   UNL A   1      41.023  29.121  30.476  1.00  0.00     0.167 HD
ATOM     57  C   UNL A   1      44.532  27.494  32.601  1.00  0.00     0.037 A 
ATOM     58  C   UNL A   1      38.860  30.846  30.133  1.00  0.00     0.037 A 
ATOM     59  C   UNL A   1      44.027  28.541  33.449  1.00  0.00     0.049 A 
ATOM     60  C   UNL A   1      39.476  31.188  31.466  1.00  0.00     0.074 A 
ATOM     61  C   UNL A   1      44.512  28.972  34.669  1.00  0.00     0.029 A 
ATOM     62  N   UNL A   1      42.916  29.321  33.160  1.00  0.00    -0.354 N 
ATOM     63  N   UNL A   1      40.529  30.663  32.049  1.00  0.00    -0.248 NA
ATOM     64  C   UNL A   1      38.838  32.264  32.237  1.00  0.00     0.031 C 
ATOM     65  C   UNL A   1      43.668  29.984  35.141  1.00  0.00     0.029 A 
ATOM     66  C   UNL A   1      42.688  30.218  34.189  1.00  0.00     0.049 A 
ATOM     67  H   UNL A   1      42.370  29.246  32.344  1.00  0.00     0.167 HD
ATOM     68  C   UNL A   1      40.693  31.359  33.242  1.00  0.00     0.074 A 
ATOM     69  C   UNL A   1      39.640  32.354  33.288  1.00  0.00     0.031 C 
ATOM     70  C   UNL A   1      41.628  31.195  34.213  1.00  0.00     0.037 A 
BRANCH  57  71
ATOM     71  C   UNL A   1      45.727  26.704  33.057  1.00  0.00     0.058 A 
ATOM     72  C   UNL A   1      47.040  27.097  32.748  1.00  0.00     0.135 A 
ATOM     73  C   UNL A   1      45.558  25.536  33.818  1.00  0.00     0.135 A 
ATOM     74  F   UNL A   1      47.259  28.191  32.001  1.00  0.00    -0.206 F 
ATOM     75  C   UNL A   1      48.140  26.348  33.155  1.00  0.00     0.059 A 
ATOM     76  C   UNL A   1      46.644  24.785  34.257  1.00  0.00     0.059 A 
ATOM     77  F   UNL A   1      44.324  25.110  34.134  1.00  0.00    -0.206 F 
ATOM     78  C   UNL A   1      47.931  25.191  33.908  1.00  0.00     0.060 A 
BRANCH  78  79
ATOM     79  S   UNL A   1      49.365  24.227  34.431  1.00  0.00     0.124 S 
ATOM     80  O   UNL A   1      50.005  25.142  35.371  1.00  0.00    -0.237 OA
ATOM     81  O   UNL A   1      48.748  23.043  35.021  1.00  0.00    -0.237 OA
ATOM     82  O   UNL A   1      50.092  23.997  33.186  1.00  0.00    -0.744 OA
ENDBRANCH  78  79
ENDBRANCH  57  71
BRANCH  58  83
ATOM     83  C   UNL A   1      37.648  31.555  29.644  1.00  0.00     0.058 A 
ATOM     84  C   UNL A   1      36.373  30.976  29.731  1.00  0.00     0.135 A 
ATOM     85  C   UNL A   1      37.742  32.840  29.087  1.00  0.00     0.135 A 
ATOM     86  F   UNL A   1      36.230  29.744  30.245  1.00  0.00    -0.206 F 
ATOM     87  C   UNL A   1      35.236  31.639  29.278  1.00  0.00     0.059 A 
ATOM     88  C   UNL A   1      36.617  33.535  28.649  1.00  0.00     0.059 A 
ATOM     89  F   UNL A   1      38.935  33.444  28.988  1.00  0.00    -0.206 F 
ATOM     90  C   UNL A   1      35.369  32.922  28.744  1.00  0.00     0.060 A 
BRANCH  90  91
ATOM     91  S   UNL A   1      33.881  33.807  28.224  1.00  0.00     0.124 S 
ATOM     92  O   UNL A   1      34.438  34.827  27.343  1.00  0.00    -0.237 OA
ATOM     93  O   UNL A   1      33.109  32.751  27.576  1.00  0.00    -0.237 OA
ATOM     94  O   UNL A   1      33.326  34.293  29.484  1.00  0.00    -0.744 OA
ENDBRANCH  90  91
ENDBRANCH  58  83
BRANCH  70  95
ATOM     95  C   UNL A   1      41.567  32.132  35.387  1.00  0.00     0.058 A 
ATOM     96  C   UNL A   1      40.684  31.920  36.458  1.00  0.00     0.135 A 
ATOM     97  C   UNL A   1      42.415  33.250  35.447  1.00  0.00     0.135 A 
ATOM     98  F   UNL A   1      39.854  30.865  36.449  1.00  0.00    -0.206 F 
ATOM     99  C   UNL A   1      40.611  32.809  37.525  1.00  0.00     0.059 A 
ATOM    100  C   UNL A   1      42.379  34.137  36.518  1.00  0.00     0.059 A 
ATOM    101  F   UNL A   1      43.291  33.490  34.458  1.00  0.00    -0.206 F 
ATOM    102  C   UNL A   1      41.457  33.920  37.541  1.00  0.00     0.060 A 
BRANCH 102 103
ATOM    103  S   UNL A   1      41.342  35.078  38.920  1.00  0.00     0.124 S 
ATOM    104  O   UNL A   1      42.736  35.474  39.086  1.00  0.00    -0.237 OA
ATOM    105  O   UNL A   1      40.449  36.107  38.396  1.00  0.00    -0.237 OA
ATOM    106  O   UNL A   1      40.787  34.266  39.999  1.00  0.00    -0.744 OA
ENDBRANCH 102 103
ENDBRANCH  70  95
ENDBRANCH  44  45
ENDBRANCH  37  39
ENDBRANCH  36  37
ENDBRANCH  35  36
ENDBRANCH  34  35
ENDBRANCH  33  34
ENDBRANCH  32  33
ENDBRANCH  31  32
ENDBRANCH   1  31
TORSDOF 29
ENDMDL
MODEL 2
REMARK VINA RESULT:     -10.3      1.679      2.297
REMARK SMILES C[C@@](COc1ccccc1)(NC(=O)CN1CSCC1=O)C(=O)OCCOCCOCCOCCOC(=O)c1ccc(-c2c3nc(c(-c4c(F)cc(S(=O)(=O)[O-])cc4F)c4ccc([nH]4)c(-c4c(F)cc(S(=O)(=O)[O-])cc4F)c4nc(c(-c5c(F)cc(S(=O)(=O)[O-])cc5F)c5ccc2[nH]5)C=C4)C=C3)cc1
REMARK SMILES IDX 29 1 28 2 27 3 26 4 25 5 24 6 23 7 21 8 22 9 2 10 1 11 3 12
REMARK SMILES IDX 4 13 5 14 6 15 10 16 7 17 9 18 8 19 11 20 12 21 13 23 14 24
REMARK SMILES IDX 15 25 16 26 19 27 17 28 18 29 20 30 30 31 31 32 32 33 33 34
REMARK SMILES IDX 34 35 35 36 36 37 37 38 38 39 39 40 103 41 40 42 102 43
REMARK SMILES IDX 41 44 42 45 43 46 96 47 44 48 101 49 95 50 97 51 45 52
REMARK SMILES IDX 100 53 94 54 93 55 46 57 80 58 59 59 79 60 60 61 63 62 78 63
REMARK SMILES IDX 98 64 61 65 62 66 77 68 99 69 64 70 47 71 48 72 57 73 49 74
REMARK SMILES IDX 50 75 56 76 58 77 51 78 52 79 53 80 54 81 55 82 81 83 82 84
REMARK SMILES IDX 91 85 83 86 84 87 90 88 92 89 85 90 86 91 87 92 88 93 89 94
REMARK SMILES IDX 65 95 66 96 75 97 67 98 68 99 74 100 76 101 69 102 70 103
REMARK SMILES IDX 71 104 72 105 73 106
REMARK H PARENT 11 22 97 56 63 67
REMARK Flexibility Score: inf
ROOT
ATOM      1  O   UNL A   1      43.483  18.937  26.097  1.00  0.00    -0.377 OA
ENDROOT
BRANCH   1   2
ATOM      2  C   UNL A   1      42.063  18.980  26.038  1.00  0.00     0.188 C 
BRANCH   2   3
ATOM      3  C   UNL A   1      41.278  19.955  27.209  1.00  0.00     0.188 C 
BRANCH   3   4
ATOM      4  O   UNL A   1      40.070  21.536  27.035  1.00  0.00    -0.376 OA
BRANCH   4   5
ATOM      5  C   UNL A   1      38.923  22.214  26.095  1.00  0.00     0.202 C 
BRANCH   5   6
ATOM      6  C   UNL A   1      37.556  22.941  26.571  1.00  0.00     0.261 C 
BRANCH   6   7
ATOM      7  O   UNL A   1      36.307  22.433  25.978  1.00  0.00    -0.461 OA
BRANCH   7   8
ATOM      8  C   UNL A   1      35.397  23.249  25.351  1.00  0.00     0.335 C 
ATOM      9  O   UNL A   1      35.582  24.448  25.177  1.00  0.00    -0.249 OA
BRANCH   8  10
ATOM     10  C   UNL A   1      34.199  22.421  24.684  1.00  0.00     0.169 C 
ATOM     11  C   UNL A   1      32.874  22.642  25.457  1.00  0.00     0.051 C 
BRANCH  10  12
ATOM     12  C   UNL A   1      34.492  20.886  24.836  1.00  0.00     0.269 C 
BRANCH  12  13
ATOM     13  O   UNL A   1      33.291  20.132  25.229  1.00  0.00    -0.491 OA
BRANCH  13  14
ATOM     14  C   UNL A   1      33.315  18.786  24.942  1.00  0.00     0.119 A 
ATOM     15  C   UNL A   1      34.081  18.266  23.901  1.00  0.00     0.046 A 
ATOM     16  C   UNL A   1      32.631  17.914  25.806  1.00  0.00     0.046 A 
ATOM     17  C   UNL A   1      34.250  16.880  23.786  1.00  0.00     0.004 A 
ATOM     18  C   UNL A   1      32.837  16.532  25.713  1.00  0.00     0.004 A 
ATOM     19  C   UNL A   1      33.654  16.016  24.707  1.00  0.00     0.000 A 
ENDBRANCH  13  14
ENDBRANCH  12  13
ENDBRANCH  10  12
BRANCH  10  20
ATOM     20  N   UNL A   1      33.990  22.659  23.225  1.00  0.00    -0.336 N 
ATOM     21  C   UNL A   1      33.605  23.698  22.452  1.00  0.00     0.240 C 
ATOM     22  H   UNL A   1      34.181  21.855  22.690  1.00  0.00     0.164 HD
ATOM     23  O   UNL A   1      33.161  23.397  21.335  1.00  0.00    -0.273 OA
BRANCH  21  24
ATOM     24  C   UNL A   1      33.797  25.184  22.805  1.00  0.00     0.220 C 
BRANCH  24  25
ATOM     25  N   UNL A   1      32.711  26.083  23.291  1.00  0.00    -0.323 N 
ATOM     26  C   UNL A   1      31.183  26.430  22.157  1.00  0.00     0.190 C 
ATOM     27  C   UNL A   1      32.870  27.251  24.687  1.00  0.00     0.233 C 
ATOM     28  S   UNL A   1      29.850  28.145  23.072  1.00  0.00    -0.130 SA
ATOM     29  C   UNL A   1      31.294  28.444  24.889  1.00  0.00     0.171 C 
ATOM     30  O   UNL A   1      33.840  27.530  25.357  1.00  0.00    -0.274 OA
ENDBRANCH  24  25
ENDBRANCH  21  24
ENDBRANCH  10  20
ENDBRANCH   8  10
ENDBRANCH   7   8
ENDBRANCH   6   7
ENDBRANCH   5   6
ENDBRANCH   4   5
ENDBRANCH   3   4
ENDBRANCH   2   3
ENDBRANCH   1   2
BRANCH   1  31
ATOM     31  C   UNL A   1      44.249  19.118  24.898  1.00  0.00     0.188 C 
BRANCH  31  32
ATOM     32  C   UNL A   1      45.712  18.823  25.277  1.00  0.00     0.188 C 
BRANCH  32  33
ATOM     33  O   UNL A   1      46.575  19.947  25.394  1.00  0.00    -0.376 OA
BRANCH  33  34
ATOM     34  C   UNL A   1      46.189  21.112  24.681  1.00  0.00     0.202 C 
BRANCH  34  35
ATOM     35  C   UNL A   1      45.816  22.324  25.544  1.00  0.00     0.261 C 
BRANCH  35  36
ATOM     36  O   UNL A   1      45.236  23.427  24.824  1.00  0.00    -0.460 OA
BRANCH  36  37
ATOM     37  C   UNL A   1      43.881  23.380  24.739  1.00  0.00     0.338 C 
ATOM     38  O   UNL A   1      43.220  22.634  24.034  1.00  0.00    -0.246 OA
BRANCH  37  39
ATOM     39  C   UNL A   1      43.259  24.275  25.739  1.00  0.00     0.060 A 
ATOM     40  C   UNL A   1      43.539  25.647  25.652  1.00  0.00     0.016 A 
ATOM     41  C   UNL A   1      42.538  23.768  26.823  1.00  0.00     0.016 A 
ATOM     42  C   UNL A   1      43.189  26.500  26.692  1.00  0.00     0.010 A 
ATOM     43  C   UNL A   1      42.211  24.620  27.885  1.00  0.00     0.010 A 
ATOM     44  C   UNL A   1      42.603  25.970  27.849  1.00  0.00    -0.014 A 
BRANCH  44  45
ATOM     45  C   UNL A   1      42.714  26.766  29.097  1.00  0.00     0.031 A 
ATOM     46  C   UNL A   1      43.973  26.610  29.913  1.00  0.00     0.074 A 
ATOM     47  C   UNL A   1      41.785  27.674  29.438  1.00  0.00     0.049 A 
ATOM     48  N   UNL A   1      44.353  27.248  30.989  1.00  0.00    -0.248 NA
ATOM     49  C   UNL A   1      44.940  25.602  29.443  1.00  0.00     0.031 C 
ATOM     50  C   UNL A   1      40.554  27.943  28.697  1.00  0.00     0.029 A 
ATOM     51  N   UNL A   1      41.744  28.550  30.492  1.00  0.00    -0.354 N 
ATOM     52  C   UNL A   1      45.599  26.723  31.319  1.00  0.00     0.074 A 
ATOM     53  C   UNL A   1      45.899  25.693  30.350  1.00  0.00     0.031 C 
ATOM     54  C   UNL A   1      39.874  28.919  29.325  1.00  0.00     0.029 A 
ATOM     55  C   UNL A   1      40.616  29.332  30.517  1.00  0.00     0.049 A 
ATOM     56  H   UNL A   1      42.457  28.612  31.169  1.00  0.00     0.167 HD
ATOM     57  C   UNL A   1      46.425  27.071  32.333  1.00  0.00     0.037 A 
ATOM     58  C   UNL A   1      40.228  30.270  31.404  1.00  0.00     0.037 A 
ATOM     59  C   UNL A   1      46.116  28.091  33.300  1.00  0.00     0.049 A 
ATOM     60  C   UNL A   1      41.143  30.615  32.551  1.00  0.00     0.074 A 
ATOM     61  C   UNL A   1      46.874  28.521  34.373  1.00  0.00     0.029 A 
ATOM     62  N   UNL A   1      44.946  28.838  33.310  1.00  0.00    -0.354 N 
ATOM     63  N   UNL A   1      42.322  30.116  32.847  1.00  0.00    -0.248 NA
ATOM     64  C   UNL A   1      40.685  31.660  33.477  1.00  0.00     0.031 C 
ATOM     65  C   UNL A   1      46.143  29.500  35.058  1.00  0.00     0.029 A 
ATOM     66  C   UNL A   1      44.953  29.714  34.381  1.00  0.00     0.049 A 
ATOM     67  H   UNL A   1      44.218  28.756  32.652  1.00  0.00     0.167 HD
ATOM     68  C   UNL A   1      42.755  30.802  33.977  1.00  0.00     0.074 A 
ATOM     69  C   UNL A   1      41.718  31.762  34.301  1.00  0.00     0.031 C 
ATOM     70  C   UNL A   1      43.904  30.656  34.684  1.00  0.00     0.037 A 
BRANCH  57  71
ATOM     71  C   UNL A   1      47.717  26.314  32.466  1.00  0.00     0.058 A 
ATOM     72  C   UNL A   1      48.854  26.647  31.710  1.00  0.00     0.135 A 
ATOM     73  C   UNL A   1      47.823  25.242  33.366  1.00  0.00     0.135 A 
ATOM     74  F   UNL A   1      48.801  27.647  30.815  1.00  0.00    -0.206 F 
ATOM     75  C   UNL A   1      50.039  25.927  31.822  1.00  0.00     0.059 A 
ATOM     76  C   UNL A   1      49.006  24.524  33.513  1.00  0.00     0.059 A 
ATOM     77  F   UNL A   1      46.764  24.876  34.107  1.00  0.00    -0.206 F 
ATOM     78  C   UNL A   1      50.105  24.865  32.726  1.00  0.00     0.060 A 
BRANCH  78  79
ATOM     79  S   UNL A   1      51.648  23.938  32.864  1.00  0.00     0.124 S 
ATOM     80  O   UNL A   1      52.555  24.762  32.071  1.00  0.00    -0.237 OA
ATOM     81  O   UNL A   1      51.886  23.938  34.303  1.00  0.00    -0.237 OA
ATOM     82  O   UNL A   1      51.316  22.638  32.286  1.00  0.00    -0.744 OA
ENDBRANCH  78  79
ENDBRANCH  57  71
BRANCH  58  83
ATOM     83  C   UNL A   1      38.913  30.946  31.242  1.00  0.00     0.058 A 
ATOM     84  C   UNL A   1      38.782  32.127  30.497  1.00  0.00     0.135 A 
ATOM     85  C   UNL A   1      37.753  30.412  31.825  1.00  0.00     0.135 A 
ATOM     86  F   UNL A   1      39.863  32.685  29.929  1.00  0.00    -0.206 F 
ATOM     87  C   UNL A   1      37.552  32.759  30.340  1.00  0.00     0.059 A 
ATOM     88  C   UNL A   1      36.507  31.011  31.662  1.00  0.00     0.059 A 
ATOM     89  F   UNL A   1      37.821  29.279  32.540  1.00  0.00    -0.206 F 
ATOM     90  C   UNL A   1      36.419  32.189  30.922  1.00  0.00     0.060 A 
BRANCH  90  91
ATOM     91  S   UNL A   1      34.813  32.974  30.654  1.00  0.00     0.124 S 
ATOM     92  O   UNL A   1      34.044  32.466  31.784  1.00  0.00    -0.237 OA
ATOM     93  O   UNL A   1      35.156  34.392  30.698  1.00  0.00    -0.237 OA
ATOM     94  O   UNL A   1      34.414  32.477  29.341  1.00  0.00    -0.744 OA
ENDBRANCH  90  91
ENDBRANCH  58  83
BRANCH  70  95
ATOM     95  C   UNL A   1      44.108  31.576  35.856  1.00  0.00     0.058 A 
ATOM     96  C   UNL A   1      43.732  31.210  37.158  1.00  0.00     0.135 A 
ATOM     97  C   UNL A   1      44.702  32.836  35.674  1.00  0.00     0.135 A 
ATOM     98  F   UNL A   1      43.162  30.016  37.385  1.00  0.00    -0.206 F 
ATOM     99  C   UNL A   1      43.895  32.078  38.232  1.00  0.00     0.059 A 
ATOM    100  C   UNL A   1      44.899  33.710  36.739  1.00  0.00     0.059 A 
ATOM    101  F   UNL A   1      45.096  33.229  34.453  1.00  0.00    -0.206 F 
ATOM    102  C   UNL A   1      44.471  33.331  38.010  1.00  0.00     0.060 A 
BRANCH 102 103
ATOM    103  S   UNL A   1      44.661  34.459  39.405  1.00  0.00     0.124 S 
ATOM    104  O   UNL A   1      43.671  35.483  39.090  1.00  0.00    -0.237 OA
ATOM    105  O   UNL A   1      44.348  33.605  40.547  1.00  0.00    -0.237 OA
ATOM    106  O   UNL A   1      46.055  34.882  39.311  1.00  0.00    -0.744 OA
ENDBRANCH 102 103
ENDBRANCH  70  95
ENDBRANCH  44  45
ENDBRANCH  37  39
ENDBRANCH  36  37
ENDBRANCH  35  36
ENDBRANCH  34  35
ENDBRANCH  33  34
ENDBRANCH  32  33
ENDBRANCH  31  32
ENDBRANCH   1  31
TORSDOF 29
ENDMDL
MODEL 3
REMARK VINA RESULT:     -10.1      1.711      3.903
REMARK SMILES C[C@@](COc1ccccc1)(NC(=O)CN1CSCC1=O)C(=O)OCCOCCOCCOCCOC(=O)c1ccc(-c2c3nc(c(-c4c(F)cc(S(=O)(=O)[O-])cc4F)c4ccc([nH]4)c(-c4c(F)cc(S(=O)(=O)[O-])cc4F)c4nc(c(-c5c(F)cc(S(=O)(=O)[O-])cc5F)c5ccc2[nH]5)C=C4)C=C3)cc1
REMARK SMILES IDX 29 1 28 2 27 3 26 4 25 5 24 6 23 7 21 8 22 9 2 10 1 11 3 12
REMARK SMILES IDX 4 13 5 14 6 15 10 16 7 17 9 18 8 19 11 20 12 21 13 23 14 24
REMARK SMILES IDX 15 25 16 26 19 27 17 28 18 29 20 30 30 31 31 32 32 33 33 34
REMARK SMILES IDX 34 35 35 36 36 37 37 38 38 39 39 40 103 41 40 42 102 43
REMARK SMILES IDX 41 44 42 45 43 46 96 47 44 48 101 49 95 50 97 51 45 52
REMARK SMILES IDX 100 53 94 54 93 55 46 57 80 58 59 59 79 60 60 61 63 62 78 63
REMARK SMILES IDX 98 64 61 65 62 66 77 68 99 69 64 70 47 71 48 72 57 73 49 74
REMARK SMILES IDX 50 75 56 76 58 77 51 78 52 79 53 80 54 81 55 82 81 83 82 84
REMARK SMILES IDX 91 85 83 86 84 87 90 88 92 89 85 90 86 91 87 92 88 93 89 94
REMARK SMILES IDX 65 95 66 96 75 97 67 98 68 99 74 100 76 101 69 102 70 103
REMARK SMILES IDX 71 104 72 105 73 106
REMARK H PARENT 11 22 97 56 63 67
REMARK Flexibility Score: inf
ROOT
ATOM      1  O   UNL A   1      43.189  19.052  26.174  1.00  0.00    -0.377 OA
ENDROOT
BRANCH   1   2
ATOM      2  C   UNL A   1      41.775  19.164  26.095  1.00  0.00     0.188 C 
BRANCH   2   3
ATOM      3  C   UNL A   1      41.035  20.284  27.161  1.00  0.00     0.188 C 
BRANCH   3   4
ATOM      4  O   UNL A   1      39.926  21.911  26.828  1.00  0.00    -0.376 OA
BRANCH   4   5
ATOM      5  C   UNL A   1      38.674  22.491  25.958  1.00  0.00     0.202 C 
BRANCH   5   6
ATOM      6  C   UNL A   1      37.726  23.756  26.309  1.00  0.00     0.261 C 
BRANCH   6   7
ATOM      7  O   UNL A   1      36.277  23.553  26.137  1.00  0.00    -0.461 OA
BRANCH   7   8
ATOM      8  C   UNL A   1      35.616  23.869  24.976  1.00  0.00     0.335 C 
ATOM      9  O   UNL A   1      36.049  23.592  23.863  1.00  0.00    -0.249 OA
BRANCH   8  10
ATOM     10  C   UNL A   1      34.138  24.421  25.250  1.00  0.00     0.169 C 
ATOM     11  C   UNL A   1      33.255  24.296  23.983  1.00  0.00     0.051 C 
BRANCH  10  12
ATOM     12  C   UNL A   1      34.212  25.965  25.527  1.00  0.00     0.269 C 
BRANCH  12  13
ATOM     13  O   UNL A   1      33.130  26.699  24.853  1.00  0.00    -0.491 OA
BRANCH  13  14
ATOM     14  C   UNL A   1      32.599  27.754  25.560  1.00  0.00     0.119 A 
ATOM     15  C   UNL A   1      31.838  27.565  26.711  1.00  0.00     0.046 A 
ATOM     16  C   UNL A   1      32.943  29.057  25.159  1.00  0.00     0.046 A 
ATOM     17  C   UNL A   1      31.509  28.663  27.516  1.00  0.00     0.004 A 
ATOM     18  C   UNL A   1      32.649  30.146  25.989  1.00  0.00     0.004 A 
ATOM     19  C   UNL A   1      31.939  29.947  27.172  1.00  0.00     0.000 A 
ENDBRANCH  13  14
ENDBRANCH  12  13
ENDBRANCH  10  12
BRANCH  10  20
ATOM     20  N   UNL A   1      33.438  23.824  26.426  1.00  0.00    -0.336 N 
ATOM     21  C   UNL A   1      33.083  22.582  26.822  1.00  0.00     0.240 C 
ATOM     22  H   UNL A   1      33.167  24.509  27.079  1.00  0.00     0.164 HD
ATOM     23  O   UNL A   1      32.164  22.528  27.652  1.00  0.00    -0.273 OA
BRANCH  21  24
ATOM     24  C   UNL A   1      33.806  21.283  26.421  1.00  0.00     0.220 C 
BRANCH  24  25
ATOM     25  N   UNL A   1      33.409  20.416  25.275  1.00  0.00    -0.323 N 
ATOM     26  C   UNL A   1      33.091  21.215  23.543  1.00  0.00     0.190 C 
ATOM     27  C   UNL A   1      32.762  18.715  25.430  1.00  0.00     0.233 C 
ATOM     28  S   UNL A   1      32.149  19.636  22.067  1.00  0.00    -0.130 SA
ATOM     29  C   UNL A   1      32.122  17.964  23.705  1.00  0.00     0.171 C 
ATOM     30  O   UNL A   1      32.492  18.075  26.423  1.00  0.00    -0.274 OA
ENDBRANCH  24  25
ENDBRANCH  21  24
ENDBRANCH  10  20
ENDBRANCH   8  10
ENDBRANCH   7   8
ENDBRANCH   6   7
ENDBRANCH   5   6
ENDBRANCH   4   5
ENDBRANCH   3   4
ENDBRANCH   2   3
ENDBRANCH   1   2
BRANCH   1  31
ATOM     31  C   UNL A   1      43.978  19.166  24.981  1.00  0.00     0.188 C 
BRANCH  31  32
ATOM     32  C   UNL A   1      45.397  18.702  25.361  1.00  0.00     0.188 C 
BRANCH  32  33
ATOM     33  O   UNL A   1      46.376  19.721  25.514  1.00  0.00    -0.376 OA
BRANCH  33  34
ATOM     34  C   UNL A   1      46.161  20.915  24.778  1.00  0.00     0.202 C 
BRANCH  34  35
ATOM     35  C   UNL A   1      45.796  22.150  25.611  1.00  0.00     0.261 C 
BRANCH  35  36
ATOM     36  O   UNL A   1      45.515  23.338  24.848  1.00  0.00    -0.460 OA
BRANCH  36  37
ATOM     37  C   UNL A   1      44.216  23.457  24.469  1.00  0.00     0.338 C 
ATOM     38  O   UNL A   1      43.637  22.787  23.628  1.00  0.00    -0.246 OA
BRANCH  37  39
ATOM     39  C   UNL A   1      43.507  24.437  25.320  1.00  0.00     0.060 A 
ATOM     40  C   UNL A   1      43.992  25.754  25.340  1.00  0.00     0.016 A 
ATOM     41  C   UNL A   1      42.485  24.046  26.188  1.00  0.00     0.016 A 
ATOM     42  C   UNL A   1      43.529  26.654  26.293  1.00  0.00     0.010 A 
ATOM     43  C   UNL A   1      42.039  24.942  27.166  1.00  0.00     0.010 A 
ATOM     44  C   UNL A   1      42.615  26.222  27.263  1.00  0.00    -0.014 A 
BRANCH  44  45
ATOM     45  C   UNL A   1      42.539  26.999  28.525  1.00  0.00     0.031 A 
ATOM     46  C   UNL A   1      43.646  26.808  29.531  1.00  0.00     0.074 A 
ATOM     47  C   UNL A   1      41.584  27.923  28.725  1.00  0.00     0.049 A 
ATOM     48  N   UNL A   1      43.859  27.425  30.664  1.00  0.00    -0.248 NA
ATOM     49  C   UNL A   1      44.657  25.786  29.207  1.00  0.00     0.031 C 
ATOM     50  C   UNL A   1      40.494  28.227  27.800  1.00  0.00     0.029 A 
ATOM     51  N   UNL A   1      41.389  28.787  29.772  1.00  0.00    -0.354 N 
ATOM     52  C   UNL A   1      45.025  26.870  31.182  1.00  0.00     0.074 A 
ATOM     53  C   UNL A   1      45.458  25.847  30.258  1.00  0.00     0.031 C 
ATOM     54  C   UNL A   1      39.739  29.209  28.325  1.00  0.00     0.029 A 
ATOM     55  C   UNL A   1      40.286  29.592  29.626  1.00  0.00     0.049 A 
ATOM     56  H   UNL A   1      41.984  28.826  30.556  1.00  0.00     0.167 HD
ATOM     57  C   UNL A   1      45.683  27.190  32.321  1.00  0.00     0.037 A 
ATOM     58  C   UNL A   1      39.778  30.527  30.454  1.00  0.00     0.037 A 
ATOM     59  C   UNL A   1      45.240  28.204  33.241  1.00  0.00     0.049 A 
ATOM     60  C   UNL A   1      40.502  30.839  31.738  1.00  0.00     0.074 A 
ATOM     61  C   UNL A   1      45.823  28.605  34.428  1.00  0.00     0.029 A 
ATOM     62  N   UNL A   1      44.099  28.975  33.073  1.00  0.00    -0.354 N 
ATOM     63  N   UNL A   1      41.608  30.313  32.212  1.00  0.00    -0.248 NA
ATOM     64  C   UNL A   1      39.920  31.882  32.594  1.00  0.00     0.031 C 
ATOM     65  C   UNL A   1      45.010  29.590  35.002  1.00  0.00     0.029 A 
ATOM     66  C   UNL A   1      43.949  29.838  34.144  1.00  0.00     0.049 A 
ATOM     67  H   UNL A   1      43.485  28.916  32.305  1.00  0.00     0.167 HD
ATOM     68  C   UNL A   1      41.866  30.975  33.408  1.00  0.00     0.074 A 
ATOM     69  C   UNL A   1      40.808  31.953  33.575  1.00  0.00     0.031 C 
ATOM     70  C   UNL A   1      42.883  30.797  34.289  1.00  0.00     0.037 A 
BRANCH  57  71
ATOM     71  C   UNL A   1      46.922  26.404  32.649  1.00  0.00     0.058 A 
ATOM     72  C   UNL A   1      48.186  26.770  32.154  1.00  0.00     0.135 A 
ATOM     73  C   UNL A   1      46.848  25.270  33.473  1.00  0.00     0.135 A 
ATOM     74  F   UNL A   1      48.312  27.831  31.341  1.00  0.00    -0.206 F 
ATOM     75  C   UNL A   1      49.325  26.025  32.444  1.00  0.00     0.059 A 
ATOM     76  C   UNL A   1      47.977  24.525  33.796  1.00  0.00     0.059 A 
ATOM     77  F   UNL A   1      45.664  24.871  33.965  1.00  0.00    -0.206 F 
ATOM     78  C   UNL A   1      49.210  24.902  33.265  1.00  0.00     0.060 A 
BRANCH  78  79
ATOM     79  S   UNL A   1      50.694  23.942  33.635  1.00  0.00     0.124 S 
ATOM     80  O   UNL A   1      50.567  22.834  32.693  1.00  0.00    -0.237 OA
ATOM     81  O   UNL A   1      51.762  24.896  33.351  1.00  0.00    -0.237 OA
ATOM     82  O   UNL A   1      50.530  23.590  35.042  1.00  0.00    -0.744 OA
ENDBRANCH  78  79
ENDBRANCH  57  71
BRANCH  58  83
ATOM     83  C   UNL A   1      38.519  31.232  30.092  1.00  0.00     0.058 A 
ATOM     84  C   UNL A   1      37.269  30.604  30.201  1.00  0.00     0.135 A 
ATOM     85  C   UNL A   1      38.543  32.560  29.638  1.00  0.00     0.135 A 
ATOM     86  F   UNL A   1      37.192  29.331  30.619  1.00  0.00    -0.206 F 
ATOM     87  C   UNL A   1      36.089  31.263  29.868  1.00  0.00     0.059 A 
ATOM     88  C   UNL A   1      37.376  33.249  29.322  1.00  0.00     0.059 A 
ATOM     89  F   UNL A   1      39.711  33.210  29.524  1.00  0.00    -0.206 F 
ATOM     90  C   UNL A   1      36.154  32.589  29.435  1.00  0.00     0.060 A 
BRANCH  90  91
ATOM     91  S   UNL A   1      34.613  33.462  29.073  1.00  0.00     0.124 S 
ATOM     92  O   UNL A   1      34.020  32.603  28.054  1.00  0.00    -0.237 OA
ATOM     93  O   UNL A   1      33.951  33.464  30.374  1.00  0.00    -0.237 OA
ATOM     94  O   UNL A   1      35.071  34.769  28.611  1.00  0.00    -0.744 OA
ENDBRANCH  90  91
ENDBRANCH  58  83
BRANCH  70  95
ATOM     95  C   UNL A   1      42.911  31.699  35.492  1.00  0.00     0.058 A 
ATOM     96  C   UNL A   1      42.289  31.342  36.699  1.00  0.00     0.135 A 
ATOM     97  C   UNL A   1      43.584  32.930  35.440  1.00  0.00     0.135 A 
ATOM     98  F   UNL A   1      41.635  30.174  36.801  1.00  0.00    -0.206 F 
ATOM     99  C   UNL A   1      42.294  32.195  37.797  1.00  0.00     0.059 A 
ATOM    100  C   UNL A   1      43.625  33.787  36.536  1.00  0.00     0.059 A 
ATOM    101  F   UNL A   1      44.212  33.312  34.316  1.00  0.00    -0.206 F 
ATOM    102  C   UNL A   1      42.956  33.420  37.702  1.00  0.00     0.060 A 
BRANCH 102 103
ATOM    103  S   UNL A   1      42.940  34.529  39.126  1.00  0.00     0.124 S 
ATOM    104  O   UNL A   1      44.309  35.031  39.120  1.00  0.00    -0.237 OA
ATOM    105  O   UNL A   1      41.909  35.495  38.763  1.00  0.00    -0.237 OA
ATOM    106  O   UNL A   1      42.600  33.646  40.238  1.00  0.00    -0.744 OA
ENDBRANCH 102 103
ENDBRANCH  70  95
ENDBRANCH  44  45
ENDBRANCH  37  39
ENDBRANCH  36  37
ENDBRANCH  35  36
ENDBRANCH  34  35
ENDBRANCH  33  34
ENDBRANCH  32  33
ENDBRANCH  31  32
ENDBRANCH   1  31
TORSDOF 29
ENDMDL
