MODEL 1
REMARK VINA RESULT:     -11.6      0.000      0.000
REMARK SMILES O=C(OCCOCCOCCOCCOC(=O)c1nc2cc3c(cc2[nH]1)OCO3)c1ccc(-c2c3nc(c(-c4c(F)cc(S(=O)(=O)[O-])cc4F)c4ccc([nH]4)c(-c4c(F)cc(S(=O)(=O)[O-])cc4F)c4nc(c(-c5c(F)cc(S(=O)(=O)[O-])cc5F)c5ccc2[nH]5)C=C4)C=C3)cc1
REMARK SMILES IDX 7 1 6 2 5 3 4 4 3 5 2 6 1 7 30 8 31 9 95 10 32 11 94 12
REMARK SMILES IDX 33 13 34 14 35 15 88 16 36 17 93 18 87 19 89 20 37 21 92 22
REMARK SMILES IDX 86 23 85 24 38 26 72 27 51 28 71 29 52 30 55 31 70 32 90 33
REMARK SMILES IDX 53 34 54 35 69 37 91 38 56 39 39 40 40 41 49 42 41 43 42 44
REMARK SMILES IDX 48 45 50 46 43 47 44 48 45 49 46 50 47 51 73 52 74 53 83 54
REMARK SMILES IDX 75 55 76 56 82 57 84 58 77 59 78 60 79 61 80 62 81 63 57 64
REMARK SMILES IDX 58 65 67 66 59 67 60 68 66 69 68 70 61 71 62 72 63 73 64 74
REMARK SMILES IDX 65 75 8 76 9 77 10 78 11 79 12 80 13 81 14 82 15 83 16 84
REMARK SMILES IDX 17 85 18 86 19 87 26 88 20 89 25 90 21 92 24 93 22 94 23 95
REMARK SMILES IDX 29 96 27 97 28 98
REMARK H PARENT 89 25 55 36 26 91
REMARK Flexibility Score: inf
ROOT
ATOM      1  C   UNL A   1      32.470  28.914  23.308  1.00  0.00     0.188 C 
ENDROOT
BRANCH   1   2
ATOM      2  O   UNL A   1      32.715  29.344  24.645  1.00  0.00    -0.376 OA
BRANCH   2   3
ATOM      3  C   UNL A   1      31.621  30.016  25.260  1.00  0.00     0.202 C 
BRANCH   3   4
ATOM      4  C   UNL A   1      32.063  30.824  26.484  1.00  0.00     0.261 C 
BRANCH   4   5
ATOM      5  O   UNL A   1      33.381  30.478  26.948  1.00  0.00    -0.460 OA
BRANCH   5   6
ATOM      6  C   UNL A   1      34.026  31.470  27.630  1.00  0.00     0.338 C 
ATOM      7  O   UNL A   1      33.571  32.568  27.837  1.00  0.00    -0.246 OA
BRANCH   6   8
ATOM      8  C   UNL A   1      35.385  30.988  28.021  1.00  0.00     0.060 A 
ATOM      9  C   UNL A   1      36.336  31.908  28.477  1.00  0.00     0.016 A 
ATOM     10  C   UNL A   1      35.752  29.654  27.793  1.00  0.00     0.016 A 
ATOM     11  C   UNL A   1      37.652  31.489  28.690  1.00  0.00     0.010 A 
ATOM     12  C   UNL A   1      37.071  29.260  27.921  1.00  0.00     0.010 A 
ATOM     13  C   UNL A   1      38.019  30.168  28.395  1.00  0.00    -0.014 A 
BRANCH  13  14
ATOM     14  C   UNL A   1      39.279  29.612  28.888  1.00  0.00     0.031 A 
ATOM     15  C   UNL A   1      39.408  29.719  30.345  1.00  0.00     0.074 A 
ATOM     16  C   UNL A   1      40.220  28.948  28.190  1.00  0.00     0.049 A 
ATOM     17  N   UNL A   1      40.217  30.516  30.956  1.00  0.00    -0.248 NA
ATOM     18  C   UNL A   1      38.488  28.979  31.222  1.00  0.00     0.031 C 
ATOM     19  C   UNL A   1      40.181  28.724  26.761  1.00  0.00     0.029 A 
ATOM     20  N   UNL A   1      41.363  28.286  28.575  1.00  0.00    -0.354 N 
ATOM     21  C   UNL A   1      40.136  30.133  32.275  1.00  0.00     0.074 A 
ATOM     22  C   UNL A   1      38.920  29.367  32.423  1.00  0.00     0.031 C 
ATOM     23  C   UNL A   1      41.142  27.867  26.384  1.00  0.00     0.029 A 
ATOM     24  C   UNL A   1      41.923  27.523  27.553  1.00  0.00     0.049 A 
ATOM     25  H   UNL A   1      41.745  28.345  29.481  1.00  0.00     0.167 HD
ATOM     26  C   UNL A   1      41.254  30.127  33.039  1.00  0.00     0.037 A 
ATOM     27  C   UNL A   1      43.005  26.709  27.556  1.00  0.00     0.037 A 
ATOM     28  C   UNL A   1      42.344  30.862  32.458  1.00  0.00     0.049 A 
ATOM     29  C   UNL A   1      44.005  27.341  28.447  1.00  0.00     0.074 A 
ATOM     30  C   UNL A   1      42.614  32.194  32.232  1.00  0.00     0.029 A 
ATOM     31  N   UNL A   1      43.189  30.137  31.656  1.00  0.00    -0.354 N 
ATOM     32  N   UNL A   1      44.571  28.491  28.184  1.00  0.00    -0.248 NA
ATOM     33  C   UNL A   1      44.168  26.872  29.819  1.00  0.00     0.031 C 
ATOM     34  C   UNL A   1      43.581  32.249  31.190  1.00  0.00     0.029 A 
ATOM     35  C   UNL A   1      43.892  30.950  30.797  1.00  0.00     0.049 A 
ATOM     36  H   UNL A   1      43.279  29.157  31.691  1.00  0.00     0.167 HD
ATOM     37  C   UNL A   1      44.727  29.077  29.424  1.00  0.00     0.074 A 
ATOM     38  C   UNL A   1      44.649  27.985  30.381  1.00  0.00     0.031 C 
ATOM     39  C   UNL A   1      44.543  30.415  29.611  1.00  0.00     0.037 A 
BRANCH  26  40
ATOM     40  C   UNL A   1      41.452  29.073  34.073  1.00  0.00     0.058 A 
ATOM     41  C   UNL A   1      41.393  29.388  35.434  1.00  0.00     0.135 A 
ATOM     42  C   UNL A   1      41.882  27.770  33.734  1.00  0.00     0.135 A 
ATOM     43  F   UNL A   1      41.062  30.628  35.828  1.00  0.00    -0.206 F 
ATOM     44  C   UNL A   1      41.704  28.446  36.409  1.00  0.00     0.059 A 
ATOM     45  C   UNL A   1      42.137  26.798  34.686  1.00  0.00     0.059 A 
ATOM     46  F   UNL A   1      42.128  27.427  32.459  1.00  0.00    -0.206 F 
ATOM     47  C   UNL A   1      42.065  27.153  36.025  1.00  0.00     0.060 A 
BRANCH  47  48
ATOM     48  S   UNL A   1      42.462  25.930  37.284  1.00  0.00     0.124 S 
ATOM     49  O   UNL A   1      43.428  26.659  38.098  1.00  0.00    -0.237 OA
ATOM     50  O   UNL A   1      41.162  25.684  37.899  1.00  0.00    -0.237 OA
ATOM     51  O   UNL A   1      42.999  24.817  36.506  1.00  0.00    -0.744 OA
ENDBRANCH  47  48
ENDBRANCH  26  40
BRANCH  27  52
ATOM     52  C   UNL A   1      43.197  25.459  26.772  1.00  0.00     0.058 A 
ATOM     53  C   UNL A   1      43.954  25.428  25.589  1.00  0.00     0.135 A 
ATOM     54  C   UNL A   1      42.842  24.196  27.303  1.00  0.00     0.135 A 
ATOM     55  F   UNL A   1      44.367  26.572  25.019  1.00  0.00    -0.206 F 
ATOM     56  C   UNL A   1      44.380  24.229  25.005  1.00  0.00     0.059 A 
ATOM     57  C   UNL A   1      43.233  22.989  26.726  1.00  0.00     0.059 A 
ATOM     58  F   UNL A   1      42.177  24.090  28.463  1.00  0.00    -0.206 F 
ATOM     59  C   UNL A   1      44.035  23.013  25.595  1.00  0.00     0.060 A 
BRANCH  59  60
ATOM     60  S   UNL A   1      44.778  21.480  24.988  1.00  0.00     0.124 S 
ATOM     61  O   UNL A   1      43.943  20.464  25.618  1.00  0.00    -0.237 OA
ATOM     62  O   UNL A   1      44.630  21.620  23.543  1.00  0.00    -0.237 OA
ATOM     63  O   UNL A   1      46.153  21.550  25.476  1.00  0.00    -0.744 OA
ENDBRANCH  59  60
ENDBRANCH  27  52
BRANCH  39  64
ATOM     64  C   UNL A   1      44.890  31.359  28.492  1.00  0.00     0.058 A 
ATOM     65  C   UNL A   1      44.067  31.667  27.397  1.00  0.00     0.135 A 
ATOM     66  C   UNL A   1      46.102  32.067  28.597  1.00  0.00     0.135 A 
ATOM     67  F   UNL A   1      42.861  31.097  27.254  1.00  0.00    -0.206 F 
ATOM     68  C   UNL A   1      44.441  32.626  26.447  1.00  0.00     0.059 A 
ATOM     69  C   UNL A   1      46.475  33.052  27.686  1.00  0.00     0.059 A 
ATOM     70  F   UNL A   1      46.925  31.839  29.635  1.00  0.00    -0.206 F 
ATOM     71  C   UNL A   1      45.639  33.325  26.610  1.00  0.00     0.060 A 
BRANCH  71  72
ATOM     72  S   UNL A   1      46.055  34.646  25.448  1.00  0.00     0.124 S 
ATOM     73  O   UNL A   1      47.503  34.513  25.328  1.00  0.00    -0.237 OA
ATOM     74  O   UNL A   1      45.285  34.273  24.264  1.00  0.00    -0.237 OA
ATOM     75  O   UNL A   1      45.596  35.857  26.125  1.00  0.00    -0.744 OA
ENDBRANCH  71  72
ENDBRANCH  39  64
ENDBRANCH  13  14
ENDBRANCH   6   8
ENDBRANCH   5   6
ENDBRANCH   4   5
ENDBRANCH   3   4
ENDBRANCH   2   3
ENDBRANCH   1   2
BRANCH   1  76
ATOM     76  C   UNL A   1      30.977  28.964  22.993  1.00  0.00     0.188 C 
BRANCH  76  77
ATOM     77  O   UNL A   1      30.507  27.881  22.194  1.00  0.00    -0.377 OA
BRANCH  77  78
ATOM     78  C   UNL A   1      31.276  26.682  22.211  1.00  0.00     0.188 C 
BRANCH  78  79
ATOM     79  C   UNL A   1      32.076  26.298  20.960  1.00  0.00     0.188 C 
BRANCH  79  80
ATOM     80  O   UNL A   1      33.313  25.636  21.200  1.00  0.00    -0.376 OA
BRANCH  80  81
ATOM     81  C   UNL A   1      33.681  25.507  22.572  1.00  0.00     0.202 C 
BRANCH  81  82
ATOM     82  C   UNL A   1      33.915  24.047  22.956  1.00  0.00     0.261 C 
BRANCH  82  83
ATOM     83  O   UNL A   1      32.913  23.183  22.384  1.00  0.00    -0.457 OA
BRANCH  83  84
ATOM     84  C   UNL A   1      31.867  22.858  23.181  1.00  0.00     0.374 C 
ATOM     85  O   UNL A   1      31.036  23.642  23.613  1.00  0.00    -0.243 OA
BRANCH  84  86
ATOM     86  C   UNL A   1      31.960  21.472  23.577  1.00  0.00     0.218 A 
ATOM     87  N   UNL A   1      32.040  20.994  24.812  1.00  0.00    -0.222 NA
ATOM     88  N   UNL A   1      32.115  20.469  22.657  1.00  0.00    -0.332 N 
ATOM     89  C   UNL A   1      32.408  19.670  24.668  1.00  0.00     0.093 A 
ATOM     90  C   UNL A   1      32.444  19.317  23.317  1.00  0.00     0.070 A 
ATOM     91  H   UNL A   1      32.008  20.562  21.683  1.00  0.00     0.168 HD
ATOM     92  C   UNL A   1      32.766  18.714  25.640  1.00  0.00     0.081 A 
ATOM     93  C   UNL A   1      32.807  18.056  22.838  1.00  0.00     0.079 A 
ATOM     94  C   UNL A   1      33.166  17.473  25.162  1.00  0.00     0.168 A 
ATOM     95  C   UNL A   1      33.183  17.162  23.821  1.00  0.00     0.168 A 
ATOM     96  O   UNL A   1      33.598  16.432  25.931  1.00  0.00    -0.454 OA
ATOM     97  O   UNL A   1      33.626  15.897  23.581  1.00  0.00    -0.454 OA
ATOM     98  C   UNL A   1      33.956  15.471  24.917  1.00  0.00     0.468 C 
ENDBRANCH  84  86
ENDBRANCH  83  84
ENDBRANCH  82  83
ENDBRANCH  81  82
ENDBRANCH  80  81
ENDBRANCH  79  80
ENDBRANCH  78  79
ENDBRANCH  77  78
ENDBRANCH  76  77
ENDBRANCH   1  76
TORSDOF 23
ENDMDL
MODEL 2
REMARK VINA RESULT:     -11.3      1.912      3.115
REMARK SMILES O=C(OCCOCCOCCOCCOC(=O)c1nc2cc3c(cc2[nH]1)OCO3)c1ccc(-c2c3nc(c(-c4c(F)cc(S(=O)(=O)[O-])cc4F)c4ccc([nH]4)c(-c4c(F)cc(S(=O)(=O)[O-])cc4F)c4nc(c(-c5c(F)cc(S(=O)(=O)[O-])cc5F)c5ccc2[nH]5)C=C4)C=C3)cc1
REMARK SMILES IDX 7 1 6 2 5 3 4 4 3 5 2 6 1 7 30 8 31 9 95 10 32 11 94 12
REMARK SMILES IDX 33 13 34 14 35 15 88 16 36 17 93 18 87 19 89 20 37 21 92 22
REMARK SMILES IDX 86 23 85 24 38 26 72 27 51 28 71 29 52 30 55 31 70 32 90 33
REMARK SMILES IDX 53 34 54 35 69 37 91 38 56 39 39 40 40 41 49 42 41 43 42 44
REMARK SMILES IDX 48 45 50 46 43 47 44 48 45 49 46 50 47 51 73 52 74 53 83 54
REMARK SMILES IDX 75 55 76 56 82 57 84 58 77 59 78 60 79 61 80 62 81 63 57 64
REMARK SMILES IDX 58 65 67 66 59 67 60 68 66 69 68 70 61 71 62 72 63 73 64 74
REMARK SMILES IDX 65 75 8 76 9 77 10 78 11 79 12 80 13 81 14 82 15 83 16 84
REMARK SMILES IDX 17 85 18 86 19 87 26 88 20 89 25 90 21 92 24 93 22 94 23 95
REMARK SMILES IDX 29 96 27 97 28 98
REMARK H PARENT 89 25 55 36 26 91
REMARK Flexibility Score: inf
ROOT
ATOM      1  C   UNL A   1      31.932  28.919  23.615  1.00  0.00     0.188 C 
ENDROOT
BRANCH   1   2
ATOM      2  O   UNL A   1      32.525  29.535  24.755  1.00  0.00    -0.376 OA
BRANCH   2   3
ATOM      3  C   UNL A   1      31.595  30.002  25.727  1.00  0.00     0.202 C 
BRANCH   3   4
ATOM      4  C   UNL A   1      32.294  30.491  26.998  1.00  0.00     0.261 C 
BRANCH   4   5
ATOM      5  O   UNL A   1      33.680  30.826  26.793  1.00  0.00    -0.460 OA
BRANCH   5   6
ATOM      6  C   UNL A   1      34.214  31.655  27.737  1.00  0.00     0.338 C 
ATOM      7  O   UNL A   1      33.677  32.649  28.160  1.00  0.00    -0.246 OA
BRANCH   6   8
ATOM      8  C   UNL A   1      35.572  31.158  28.108  1.00  0.00     0.060 A 
ATOM      9  C   UNL A   1      36.536  32.065  28.565  1.00  0.00     0.016 A 
ATOM     10  C   UNL A   1      35.926  29.823  27.861  1.00  0.00     0.016 A 
ATOM     11  C   UNL A   1      37.850  31.633  28.759  1.00  0.00     0.010 A 
ATOM     12  C   UNL A   1      37.243  29.417  27.972  1.00  0.00     0.010 A 
ATOM     13  C   UNL A   1      38.203  30.313  28.446  1.00  0.00    -0.014 A 
BRANCH  13  14
ATOM     14  C   UNL A   1      39.464  29.741  28.920  1.00  0.00     0.031 A 
ATOM     15  C   UNL A   1      39.613  29.838  30.376  1.00  0.00     0.074 A 
ATOM     16  C   UNL A   1      40.389  29.071  28.206  1.00  0.00     0.049 A 
ATOM     17  N   UNL A   1      40.437  30.624  30.980  1.00  0.00    -0.248 NA
ATOM     18  C   UNL A   1      38.696  29.103  31.260  1.00  0.00     0.031 C 
ATOM     19  C   UNL A   1      40.330  28.855  26.776  1.00  0.00     0.029 A 
ATOM     20  N   UNL A   1      41.530  28.395  28.573  1.00  0.00    -0.354 N 
ATOM     21  C   UNL A   1      40.369  30.234  32.298  1.00  0.00     0.074 A 
ATOM     22  C   UNL A   1      39.147  29.480  32.458  1.00  0.00     0.031 C 
ATOM     23  C   UNL A   1      41.277  27.991  26.383  1.00  0.00     0.029 A 
ATOM     24  C   UNL A   1      42.069  27.632  27.540  1.00  0.00     0.049 A 
ATOM     25  H   UNL A   1      41.924  28.446  29.474  1.00  0.00     0.167 HD
ATOM     26  C   UNL A   1      41.496  30.212  33.048  1.00  0.00     0.037 A 
ATOM     27  C   UNL A   1      43.142  26.807  27.525  1.00  0.00     0.037 A 
ATOM     28  C   UNL A   1      42.587  30.939  32.457  1.00  0.00     0.049 A 
ATOM     29  C   UNL A   1      44.160  27.424  28.406  1.00  0.00     0.074 A 
ATOM     30  C   UNL A   1      42.867  32.270  32.235  1.00  0.00     0.029 A 
ATOM     31  N   UNL A   1      43.413  30.210  31.641  1.00  0.00    -0.354 N 
ATOM     32  N   UNL A   1      44.735  28.570  28.143  1.00  0.00    -0.248 NA
ATOM     33  C   UNL A   1      44.336  26.946  29.773  1.00  0.00     0.031 C 
ATOM     34  C   UNL A   1      43.822  32.321  31.181  1.00  0.00     0.029 A 
ATOM     35  C   UNL A   1      44.114  31.021  30.777  1.00  0.00     0.049 A 
ATOM     36  H   UNL A   1      43.494  29.229  31.669  1.00  0.00     0.167 HD
ATOM     37  C   UNL A   1      44.912  29.147  29.383  1.00  0.00     0.074 A 
ATOM     38  C   UNL A   1      44.835  28.050  30.335  1.00  0.00     0.031 C 
ATOM     39  C   UNL A   1      44.744  30.486  29.580  1.00  0.00     0.037 A 
BRANCH  26  40
ATOM     40  C   UNL A   1      41.696  29.150  34.074  1.00  0.00     0.058 A 
ATOM     41  C   UNL A   1      41.840  27.812  33.696  1.00  0.00     0.135 A 
ATOM     42  C   UNL A   1      41.568  29.417  35.456  1.00  0.00     0.135 A 
ATOM     43  F   UNL A   1      41.896  27.477  32.398  1.00  0.00    -0.206 F 
ATOM     44  C   UNL A   1      41.896  26.794  34.644  1.00  0.00     0.059 A 
ATOM     45  C   UNL A   1      41.682  28.430  36.419  1.00  0.00     0.059 A 
ATOM     46  F   UNL A   1      41.261  30.646  35.902  1.00  0.00    -0.206 F 
ATOM     47  C   UNL A   1      41.826  27.116  36.001  1.00  0.00     0.060 A 
BRANCH  47  48
ATOM     48  S   UNL A   1      41.904  25.803  37.230  1.00  0.00     0.124 S 
ATOM     49  O   UNL A   1      42.917  26.323  38.141  1.00  0.00    -0.237 OA
ATOM     50  O   UNL A   1      40.537  25.775  37.740  1.00  0.00    -0.237 OA
ATOM     51  O   UNL A   1      42.295  24.637  36.444  1.00  0.00    -0.744 OA
ENDBRANCH  47  48
ENDBRANCH  26  40
BRANCH  27  52
ATOM     52  C   UNL A   1      43.312  25.560  26.731  1.00  0.00     0.058 A 
ATOM     53  C   UNL A   1      44.145  25.500  25.602  1.00  0.00     0.135 A 
ATOM     54  C   UNL A   1      42.844  24.313  27.212  1.00  0.00     0.135 A 
ATOM     55  F   UNL A   1      44.665  26.624  25.084  1.00  0.00    -0.206 F 
ATOM     56  C   UNL A   1      44.536  24.286  25.024  1.00  0.00     0.059 A 
ATOM     57  C   UNL A   1      43.200  23.094  26.640  1.00  0.00     0.059 A 
ATOM     58  F   UNL A   1      42.096  24.231  28.322  1.00  0.00    -0.206 F 
ATOM     59  C   UNL A   1      44.078  23.085  25.567  1.00  0.00     0.060 A 
BRANCH  59  60
ATOM     60  S   UNL A   1      44.767  21.518  24.981  1.00  0.00     0.124 S 
ATOM     61  O   UNL A   1      43.944  20.540  25.685  1.00  0.00    -0.237 OA
ATOM     62  O   UNL A   1      44.555  21.611  23.540  1.00  0.00    -0.237 OA
ATOM     63  O   UNL A   1      46.163  21.580  25.405  1.00  0.00    -0.744 OA
ENDBRANCH  59  60
ENDBRANCH  27  52
BRANCH  39  64
ATOM     64  C   UNL A   1      45.087  31.432  28.462  1.00  0.00     0.058 A 
ATOM     65  C   UNL A   1      44.219  31.830  27.432  1.00  0.00     0.135 A 
ATOM     66  C   UNL A   1      46.353  32.047  28.501  1.00  0.00     0.135 A 
ATOM     67  F   UNL A   1      42.968  31.354  27.358  1.00  0.00    -0.206 F 
ATOM     68  C   UNL A   1      44.601  32.785  26.481  1.00  0.00     0.059 A 
ATOM     69  C   UNL A   1      46.738  33.027  27.590  1.00  0.00     0.059 A 
ATOM     70  F   UNL A   1      47.223  31.731  29.476  1.00  0.00    -0.206 F 
ATOM     71  C   UNL A   1      45.855  33.389  26.579  1.00  0.00     0.060 A 
BRANCH  71  72
ATOM     72  S   UNL A   1      46.292  34.709  25.422  1.00  0.00     0.124 S 
ATOM     73  O   UNL A   1      45.511  34.361  24.240  1.00  0.00    -0.237 OA
ATOM     74  O   UNL A   1      45.858  35.906  26.137  1.00  0.00    -0.237 OA
ATOM     75  O   UNL A   1      47.740  34.571  25.273  1.00  0.00    -0.744 OA
ENDBRANCH  71  72
ENDBRANCH  39  64
ENDBRANCH  13  14
ENDBRANCH   6   8
ENDBRANCH   5   6
ENDBRANCH   4   5
ENDBRANCH   3   4
ENDBRANCH   2   3
ENDBRANCH   1   2
BRANCH   1  76
ATOM     76  C   UNL A   1      30.563  28.342  23.967  1.00  0.00     0.188 C 
BRANCH  76  77
ATOM     77  O   UNL A   1      30.389  26.974  23.605  1.00  0.00    -0.377 OA
BRANCH  77  78
ATOM     78  C   UNL A   1      30.133  26.052  24.660  1.00  0.00     0.188 C 
BRANCH  78  79
ATOM     79  C   UNL A   1      30.772  26.302  26.032  1.00  0.00     0.188 C 
BRANCH  79  80
ATOM     80  O   UNL A   1      30.785  25.186  26.916  1.00  0.00    -0.376 OA
BRANCH  80  81
ATOM     81  C   UNL A   1      30.181  23.998  26.409  1.00  0.00     0.202 C 
BRANCH  81  82
ATOM     82  C   UNL A   1      30.866  22.744  26.950  1.00  0.00     0.261 C 
BRANCH  82  83
ATOM     83  O   UNL A   1      32.033  23.075  27.729  1.00  0.00    -0.457 OA
BRANCH  83  84
ATOM     84  C   UNL A   1      33.222  22.627  27.257  1.00  0.00     0.374 C 
ATOM     85  O   UNL A   1      34.029  21.963  27.890  1.00  0.00    -0.243 OA
BRANCH  84  86
ATOM     86  C   UNL A   1      33.472  23.176  25.945  1.00  0.00     0.218 A 
ATOM     87  N   UNL A   1      33.780  24.431  25.646  1.00  0.00    -0.222 NA
ATOM     88  N   UNL A   1      33.274  22.440  24.807  1.00  0.00    -0.332 N 
ATOM     89  C   UNL A   1      33.625  24.529  24.276  1.00  0.00     0.093 A 
ATOM     90  C   UNL A   1      33.322  23.280  23.728  1.00  0.00     0.070 A 
ATOM     91  H   UNL A   1      33.122  21.468  24.771  1.00  0.00     0.168 HD
ATOM     92  C   UNL A   1      33.687  25.656  23.432  1.00  0.00     0.081 A 
ATOM     93  C   UNL A   1      33.078  23.049  22.373  1.00  0.00     0.079 A 
ATOM     94  C   UNL A   1      33.405  25.433  22.090  1.00  0.00     0.168 A 
ATOM     95  C   UNL A   1      33.115  24.184  21.588  1.00  0.00     0.168 A 
ATOM     96  O   UNL A   1      33.362  26.394  21.122  1.00  0.00    -0.454 OA
ATOM     97  O   UNL A   1      32.855  24.204  20.251  1.00  0.00    -0.454 OA
ATOM     98  C   UNL A   1      32.941  25.617  19.982  1.00  0.00     0.468 C 
ENDBRANCH  84  86
ENDBRANCH  83  84
ENDBRANCH  82  83
ENDBRANCH  81  82
ENDBRANCH  80  81
ENDBRANCH  79  80
ENDBRANCH  78  79
ENDBRANCH  77  78
ENDBRANCH  76  77
ENDBRANCH   1  76
TORSDOF 23
ENDMDL
MODEL 3
REMARK VINA RESULT:     -11.3      1.736      2.719
REMARK SMILES O=C(OCCOCCOCCOCCOC(=O)c1nc2cc3c(cc2[nH]1)OCO3)c1ccc(-c2c3nc(c(-c4c(F)cc(S(=O)(=O)[O-])cc4F)c4ccc([nH]4)c(-c4c(F)cc(S(=O)(=O)[O-])cc4F)c4nc(c(-c5c(F)cc(S(=O)(=O)[O-])cc5F)c5ccc2[nH]5)C=C4)C=C3)cc1
REMARK SMILES IDX 7 1 6 2 5 3 4 4 3 5 2 6 1 7 30 8 31 9 95 10 32 11 94 12
REMARK SMILES IDX 33 13 34 14 35 15 88 16 36 17 93 18 87 19 89 20 37 21 92 22
REMARK SMILES IDX 86 23 85 24 38 26 72 27 51 28 71 29 52 30 55 31 70 32 90 33
REMARK SMILES IDX 53 34 54 35 69 37 91 38 56 39 39 40 40 41 49 42 41 43 42 44
REMARK SMILES IDX 48 45 50 46 43 47 44 48 45 49 46 50 47 51 73 52 74 53 83 54
REMARK SMILES IDX 75 55 76 56 82 57 84 58 77 59 78 60 79 61 80 62 81 63 57 64
REMARK SMILES IDX 58 65 67 66 59 67 60 68 66 69 68 70 61 71 62 72 63 73 64 74
REMARK SMILES IDX 65 75 8 76 9 77 10 78 11 79 12 80 13 81 14 82 15 83 16 84
REMARK SMILES IDX 17 85 18 86 19 87 26 88 20 89 25 90 21 92 24 93 22 94 23 95
REMARK SMILES IDX 29 96 27 97 28 98
REMARK H PARENT 89 25 55 36 26 91
REMARK Flexibility Score: inf
ROOT
ATOM      1  C   UNL A   1      32.024  28.763  23.568  1.00  0.00     0.188 C 
ENDROOT
BRANCH   1   2
ATOM      2  O   UNL A   1      32.553  29.537  24.641  1.00  0.00    -0.376 OA
BRANCH   2   3
ATOM      3  C   UNL A   1      31.577  30.242  25.401  1.00  0.00     0.202 C 
BRANCH   3   4
ATOM      4  C   UNL A   1      32.132  30.714  26.748  1.00  0.00     0.261 C 
BRANCH   4   5
ATOM      5  O   UNL A   1      33.567  30.629  26.833  1.00  0.00    -0.460 OA
BRANCH   5   6
ATOM      6  C   UNL A   1      34.145  31.540  27.670  1.00  0.00     0.338 C 
ATOM      7  O   UNL A   1      33.641  32.586  27.998  1.00  0.00    -0.246 OA
BRANCH   6   8
ATOM      8  C   UNL A   1      35.502  31.053  28.058  1.00  0.00     0.060 A 
ATOM      9  C   UNL A   1      36.459  31.968  28.510  1.00  0.00     0.016 A 
ATOM     10  C   UNL A   1      35.861  29.716  27.831  1.00  0.00     0.016 A 
ATOM     11  C   UNL A   1      37.773  31.543  28.719  1.00  0.00     0.010 A 
ATOM     12  C   UNL A   1      37.179  29.315  27.957  1.00  0.00     0.010 A 
ATOM     13  C   UNL A   1      38.133  30.220  28.427  1.00  0.00    -0.014 A 
BRANCH  13  14
ATOM     14  C   UNL A   1      39.392  29.659  28.917  1.00  0.00     0.031 A 
ATOM     15  C   UNL A   1      39.521  29.759  30.375  1.00  0.00     0.074 A 
ATOM     16  C   UNL A   1      40.331  28.995  28.216  1.00  0.00     0.049 A 
ATOM     17  N   UNL A   1      40.332  30.553  30.988  1.00  0.00    -0.248 NA
ATOM     18  C   UNL A   1      38.599  29.019  31.249  1.00  0.00     0.031 C 
ATOM     19  C   UNL A   1      40.291  28.775  26.786  1.00  0.00     0.029 A 
ATOM     20  N   UNL A   1      41.472  28.328  28.599  1.00  0.00    -0.354 N 
ATOM     21  C   UNL A   1      40.250  30.165  32.305  1.00  0.00     0.074 A 
ATOM     22  C   UNL A   1      39.033  29.402  32.451  1.00  0.00     0.031 C 
ATOM     23  C   UNL A   1      41.249  27.918  26.406  1.00  0.00     0.029 A 
ATOM     24  C   UNL A   1      42.030  27.567  27.574  1.00  0.00     0.049 A 
ATOM     25  H   UNL A   1      41.854  28.383  29.504  1.00  0.00     0.167 HD
ATOM     26  C   UNL A   1      41.368  30.152  33.070  1.00  0.00     0.037 A 
ATOM     27  C   UNL A   1      43.109  26.750  27.573  1.00  0.00     0.037 A 
ATOM     28  C   UNL A   1      42.461  30.887  32.491  1.00  0.00     0.049 A 
ATOM     29  C   UNL A   1      44.111  27.376  28.466  1.00  0.00     0.074 A 
ATOM     30  C   UNL A   1      42.734  32.219  32.270  1.00  0.00     0.029 A 
ATOM     31  N   UNL A   1      43.303  30.162  31.686  1.00  0.00    -0.354 N 
ATOM     32  N   UNL A   1      44.680  28.526  28.208  1.00  0.00    -0.248 NA
ATOM     33  C   UNL A   1      44.273  26.902  29.837  1.00  0.00     0.031 C 
ATOM     34  C   UNL A   1      43.701  32.275  31.227  1.00  0.00     0.029 A 
ATOM     35  C   UNL A   1      44.009  30.977  30.830  1.00  0.00     0.049 A 
ATOM     36  H   UNL A   1      43.391  29.182  31.717  1.00  0.00     0.167 HD
ATOM     37  C   UNL A   1      44.838  29.107  29.450  1.00  0.00     0.074 A 
ATOM     38  C   UNL A   1      44.757  28.011  30.402  1.00  0.00     0.031 C 
ATOM     39  C   UNL A   1      44.657  30.444  29.642  1.00  0.00     0.037 A 
BRANCH  26  40
ATOM     40  C   UNL A   1      41.564  29.094  34.100  1.00  0.00     0.058 A 
ATOM     41  C   UNL A   1      41.675  29.427  35.452  1.00  0.00     0.135 A 
ATOM     42  C   UNL A   1      41.826  27.751  33.745  1.00  0.00     0.135 A 
ATOM     43  F   UNL A   1      41.510  30.698  35.853  1.00  0.00    -0.206 F 
ATOM     44  C   UNL A   1      41.987  28.468  36.411  1.00  0.00     0.059 A 
ATOM     45  C   UNL A   1      42.077  26.768  34.686  1.00  0.00     0.059 A 
ATOM     46  F   UNL A   1      41.906  27.373  32.459  1.00  0.00    -0.206 F 
ATOM     47  C   UNL A   1      42.176  27.141  36.018  1.00  0.00     0.060 A 
BRANCH  47  48
ATOM     48  S   UNL A   1      42.575  25.897  37.256  1.00  0.00     0.124 S 
ATOM     49  O   UNL A   1      43.406  24.980  36.484  1.00  0.00    -0.237 OA
ATOM     50  O   UNL A   1      43.264  26.683  38.275  1.00  0.00    -0.237 OA
ATOM     51  O   UNL A   1      41.264  25.389  37.649  1.00  0.00    -0.744 OA
ENDBRANCH  47  48
ENDBRANCH  26  40
BRANCH  27  52
ATOM     52  C   UNL A   1      43.298  25.503  26.784  1.00  0.00     0.058 A 
ATOM     53  C   UNL A   1      43.985  25.491  25.559  1.00  0.00     0.135 A 
ATOM     54  C   UNL A   1      43.018  24.231  27.341  1.00  0.00     0.135 A 
ATOM     55  F   UNL A   1      44.324  26.643  24.961  1.00  0.00    -0.206 F 
ATOM     56  C   UNL A   1      44.416  24.303  24.956  1.00  0.00     0.059 A 
ATOM     57  C   UNL A   1      43.416  23.036  26.748  1.00  0.00     0.059 A 
ATOM     58  F   UNL A   1      42.427  24.110  28.539  1.00  0.00    -0.206 F 
ATOM     59  C   UNL A   1      44.149  23.080  25.571  1.00  0.00     0.060 A 
BRANCH  59  60
ATOM     60  S   UNL A   1      44.907  21.569  24.927  1.00  0.00     0.124 S 
ATOM     61  O   UNL A   1      44.178  20.530  25.646  1.00  0.00    -0.237 OA
ATOM     62  O   UNL A   1      44.627  21.671  23.498  1.00  0.00    -0.237 OA
ATOM     63  O   UNL A   1      46.314  21.712  25.291  1.00  0.00    -0.744 OA
ENDBRANCH  59  60
ENDBRANCH  27  52
BRANCH  39  64
ATOM     64  C   UNL A   1      45.007  31.391  28.526  1.00  0.00     0.058 A 
ATOM     65  C   UNL A   1      44.224  31.638  27.387  1.00  0.00     0.135 A 
ATOM     66  C   UNL A   1      46.170  32.170  28.680  1.00  0.00     0.135 A 
ATOM     67  F   UNL A   1      43.062  30.998  27.194  1.00  0.00    -0.206 F 
ATOM     68  C   UNL A   1      44.592  32.604  26.442  1.00  0.00     0.059 A 
ATOM     69  C   UNL A   1      46.533  33.162  27.773  1.00  0.00     0.059 A 
ATOM     70  F   UNL A   1      46.952  32.002  29.761  1.00  0.00    -0.206 F 
ATOM     71  C   UNL A   1      45.738  33.372  26.652  1.00  0.00     0.060 A 
BRANCH  71  72
ATOM     72  S   UNL A   1      46.137  34.699  25.491  1.00  0.00     0.124 S 
ATOM     73  O   UNL A   1      45.733  35.892  26.227  1.00  0.00    -0.237 OA
ATOM     74  O   UNL A   1      47.577  34.527  25.307  1.00  0.00    -0.237 OA
ATOM     75  O   UNL A   1      45.325  34.386  24.318  1.00  0.00    -0.744 OA
ENDBRANCH  71  72
ENDBRANCH  39  64
ENDBRANCH  13  14
ENDBRANCH   6   8
ENDBRANCH   5   6
ENDBRANCH   4   5
ENDBRANCH   3   4
ENDBRANCH   2   3
ENDBRANCH   1   2
BRANCH   1  76
ATOM     76  C   UNL A   1      30.500  28.714  23.641  1.00  0.00     0.188 C 
BRANCH  76  77
ATOM     77  O   UNL A   1      29.972  27.477  24.115  1.00  0.00    -0.377 OA
BRANCH  77  78
ATOM     78  C   UNL A   1      30.822  26.683  24.937  1.00  0.00     0.188 C 
BRANCH  78  79
ATOM     79  C   UNL A   1      30.209  25.920  26.117  1.00  0.00     0.188 C 
BRANCH  79  80
ATOM     80  O   UNL A   1      30.078  24.514  25.940  1.00  0.00    -0.376 OA
BRANCH  80  81
ATOM     81  C   UNL A   1      31.265  23.756  26.164  1.00  0.00     0.202 C 
BRANCH  81  82
ATOM     82  C   UNL A   1      31.040  22.268  25.900  1.00  0.00     0.261 C 
BRANCH  82  83
ATOM     83  O   UNL A   1      31.666  21.848  24.672  1.00  0.00    -0.457 OA
BRANCH  83  84
ATOM     84  C   UNL A   1      32.475  20.764  24.744  1.00  0.00     0.374 C 
ATOM     85  O   UNL A   1      32.100  19.611  24.896  1.00  0.00    -0.243 OA
BRANCH  84  86
ATOM     86  C   UNL A   1      33.858  21.179  24.772  1.00  0.00     0.218 A 
ATOM     87  N   UNL A   1      34.929  20.399  24.818  1.00  0.00    -0.222 NA
ATOM     88  N   UNL A   1      34.212  22.497  24.892  1.00  0.00    -0.332 N 
ATOM     89  C   UNL A   1      35.981  21.239  25.130  1.00  0.00     0.093 A 
ATOM     90  C   UNL A   1      35.550  22.568  25.163  1.00  0.00     0.070 A 
ATOM     91  H   UNL A   1      33.603  23.265  24.799  1.00  0.00     0.168 HD
ATOM     92  C   UNL A   1      37.324  20.942  25.435  1.00  0.00     0.081 A 
ATOM     93  C   UNL A   1      36.367  23.657  25.476  1.00  0.00     0.079 A 
ATOM     94  C   UNL A   1      38.127  22.019  25.785  1.00  0.00     0.168 A 
ATOM     95  C   UNL A   1      37.666  23.317  25.802  1.00  0.00     0.168 A 
ATOM     96  O   UNL A   1      39.436  21.940  26.163  1.00  0.00    -0.454 OA
ATOM     97  O   UNL A   1      38.619  24.208  26.191  1.00  0.00    -0.454 OA
ATOM     98  C   UNL A   1      39.712  23.318  26.488  1.00  0.00     0.468 C 
ENDBRANCH  84  86
ENDBRANCH  83  84
ENDBRANCH  82  83
ENDBRANCH  81  82
ENDBRANCH  80  81
ENDBRANCH  79  80
ENDBRANCH  78  79
ENDBRANCH  77  78
ENDBRANCH  76  77
ENDBRANCH   1  76
TORSDOF 23
ENDMDL
