MODEL 1
REMARK VINA RESULT:      -9.5      0.000      0.000
REMARK SMILES CCc1cc2c(C)cc(=O)oc2cc1O[C@H](C)C(=O)OCCOCCOCCOCCOC(=O)c1ccc(-c2c3nc(c(-c4c(F)cc(S(=O)(=O)[O-])cc4F)c4ccc([nH]4)c(-c4c(F)cc(S(=O)(=O)[O-])cc4F)c4nc(c(-c5c(F)cc(S(=O)(=O)[O-])cc5F)c5ccc2[nH]5)C=C4)C=C3)cc1
REMARK SMILES IDX 26 1 25 2 24 3 23 4 22 5 21 6 20 7 18 8 19 9 16 10 17 11
REMARK SMILES IDX 15 12 14 13 3 14 4 15 5 16 13 17 6 18 12 19 7 20 8 21 11 22
REMARK SMILES IDX 9 23 10 24 2 25 1 26 27 27 28 28 29 29 30 30 31 31 32 32
REMARK SMILES IDX 33 33 34 34 35 35 36 36 100 37 37 38 99 39 38 40 39 41 40 42
REMARK SMILES IDX 93 43 41 44 98 45 92 46 94 47 42 48 97 49 91 50 90 51 43 53
REMARK SMILES IDX 77 54 56 55 76 56 57 57 60 58 75 59 95 60 58 61 59 62 74 64
REMARK SMILES IDX 96 65 61 66 44 67 45 68 54 69 46 70 47 71 53 72 55 73 48 74
REMARK SMILES IDX 49 75 50 76 51 77 52 78 78 79 79 80 88 81 80 82 81 83 87 84
REMARK SMILES IDX 89 85 82 86 83 87 84 88 85 89 86 90 62 91 63 92 72 93 64 94
REMARK SMILES IDX 65 95 71 96 73 97 66 98 67 99 68 100 69 101 70 102
REMARK H PARENT 94 52 60 63
REMARK Flexibility Score: inf
ROOT
ATOM      1  O   UNL A   1      34.651  25.154  25.770  1.00  0.00    -0.377 OA
ENDROOT
BRANCH   1   2
ATOM      2  C   UNL A   1      34.785  25.074  24.367  1.00  0.00     0.188 C 
BRANCH   2   3
ATOM      3  C   UNL A   1      35.833  24.080  23.845  1.00  0.00     0.188 C 
BRANCH   3   4
ATOM      4  O   UNL A   1      36.471  23.168  24.725  1.00  0.00    -0.376 OA
BRANCH   4   5
ATOM      5  C   UNL A   1      36.963  21.928  24.232  1.00  0.00     0.202 C 
BRANCH   5   6
ATOM      6  C   UNL A   1      36.981  20.676  25.123  1.00  0.00     0.261 C 
BRANCH   6   7
ATOM      7  O   UNL A   1      35.813  19.833  25.043  1.00  0.00    -0.461 OA
BRANCH   7   8
ATOM      8  C   UNL A   1      34.607  20.395  25.303  1.00  0.00     0.347 C 
ATOM      9  O   UNL A   1      34.379  21.093  26.288  1.00  0.00    -0.248 OA
BRANCH   8  10
ATOM     10  C   UNL A   1      33.499  20.037  24.270  1.00  0.00     0.279 C 
ATOM     11  C   UNL A   1      33.229  18.610  23.805  1.00  0.00     0.066 C 
BRANCH  10  12
ATOM     12  O   UNL A   1      32.237  20.661  24.451  1.00  0.00    -0.479 OA
BRANCH  12  13
ATOM     13  C   UNL A   1      32.052  21.923  23.985  1.00  0.00     0.127 A 
ATOM     14  C   UNL A   1      31.129  22.713  24.678  1.00  0.00    -0.005 A 
ATOM     15  C   UNL A   1      30.926  24.041  24.233  1.00  0.00     0.019 A 
ATOM     16  C   UNL A   1      31.580  24.556  23.103  1.00  0.00     0.021 A 
ATOM     17  C   UNL A   1      32.754  22.446  22.899  1.00  0.00     0.094 A 
ATOM     18  C   UNL A   1      31.384  25.909  22.573  1.00  0.00    -0.033 A 
ATOM     19  C   UNL A   1      32.471  23.724  22.443  1.00  0.00     0.142 A 
ATOM     20  C   UNL A   1      30.627  26.926  23.372  1.00  0.00     0.045 C 
ATOM     21  C   UNL A   1      31.900  26.206  21.370  1.00  0.00     0.098 A 
ATOM     22  O   UNL A   1      33.092  24.097  21.239  1.00  0.00    -0.423 OA
ATOM     23  C   UNL A   1      32.673  25.237  20.578  1.00  0.00     0.336 A 
ATOM     24  O   UNL A   1      32.953  25.441  19.405  1.00  0.00    -0.246 OA
BRANCH  14  25
ATOM     25  C   UNL A   1      30.317  22.245  25.875  1.00  0.00     0.036 C 
ATOM     26  C   UNL A   1      29.953  23.223  26.993  1.00  0.00     0.009 C 
ENDBRANCH  14  25
ENDBRANCH  12  13
ENDBRANCH  10  12
ENDBRANCH   8  10
ENDBRANCH   7   8
ENDBRANCH   6   7
ENDBRANCH   5   6
ENDBRANCH   4   5
ENDBRANCH   3   4
ENDBRANCH   2   3
ENDBRANCH   1   2
BRANCH   1  27
ATOM     27  C   UNL A   1      33.353  24.924  26.306  1.00  0.00     0.188 C 
BRANCH  27  28
ATOM     28  C   UNL A   1      32.453  26.153  26.553  1.00  0.00     0.188 C 
BRANCH  28  29
ATOM     29  O   UNL A   1      32.972  27.374  26.041  1.00  0.00    -0.376 OA
BRANCH  29  30
ATOM     30  C   UNL A   1      33.771  28.197  26.875  1.00  0.00     0.202 C 
BRANCH  30  31
ATOM     31  C   UNL A   1      33.241  29.581  27.291  1.00  0.00     0.261 C 
BRANCH  31  32
ATOM     32  O   UNL A   1      34.144  30.686  27.163  1.00  0.00    -0.460 OA
BRANCH  32  33
ATOM     33  C   UNL A   1      34.750  31.139  28.279  1.00  0.00     0.338 C 
ATOM     34  O   UNL A   1      34.266  31.870  29.129  1.00  0.00    -0.246 OA
BRANCH  33  35
ATOM     35  C   UNL A   1      36.042  30.435  28.408  1.00  0.00     0.060 A 
ATOM     36  C   UNL A   1      36.407  29.904  29.651  1.00  0.00     0.016 A 
ATOM     37  C   UNL A   1      36.890  30.301  27.306  1.00  0.00     0.016 A 
ATOM     38  C   UNL A   1      37.640  29.274  29.808  1.00  0.00     0.010 A 
ATOM     39  C   UNL A   1      38.136  29.692  27.470  1.00  0.00     0.010 A 
ATOM     40  C   UNL A   1      38.531  29.211  28.731  1.00  0.00    -0.014 A 
BRANCH  40  41
ATOM     41  C   UNL A   1      39.947  28.836  28.970  1.00  0.00     0.031 A 
ATOM     42  C   UNL A   1      40.868  29.875  29.549  1.00  0.00     0.074 A 
ATOM     43  C   UNL A   1      40.402  27.600  28.707  1.00  0.00     0.049 A 
ATOM     44  N   UNL A   1      42.152  29.805  29.788  1.00  0.00    -0.248 NA
ATOM     45  C   UNL A   1      40.259  31.169  29.900  1.00  0.00     0.031 C 
ATOM     46  C   UNL A   1      39.594  26.494  28.200  1.00  0.00     0.029 A 
ATOM     47  N   UNL A   1      41.664  27.072  28.822  1.00  0.00    -0.354 N 
ATOM     48  C   UNL A   1      42.504  31.044  30.308  1.00  0.00     0.074 A 
ATOM     49  C   UNL A   1      41.308  31.858  30.319  1.00  0.00     0.031 C 
ATOM     50  C   UNL A   1      40.386  25.421  28.033  1.00  0.00     0.029 A 
ATOM     51  C   UNL A   1      41.759  25.772  28.383  1.00  0.00     0.049 A 
ATOM     52  H   UNL A   1      42.428  27.575  29.186  1.00  0.00     0.167 HD
ATOM     53  C   UNL A   1      43.716  31.462  30.745  1.00  0.00     0.037 A 
ATOM     54  C   UNL A   1      42.832  24.967  28.253  1.00  0.00     0.037 A 
ATOM     55  C   UNL A   1      44.901  30.645  30.727  1.00  0.00     0.049 A 
ATOM     56  C   UNL A   1      44.186  25.477  28.671  1.00  0.00     0.074 A 
ATOM     57  C   UNL A   1      46.175  30.970  31.158  1.00  0.00     0.029 A 
ATOM     58  N   UNL A   1      44.962  29.345  30.244  1.00  0.00    -0.354 N 
ATOM     59  N   UNL A   1      44.507  26.645  29.175  1.00  0.00    -0.248 NA
ATOM     60  C   UNL A   1      45.323  24.562  28.508  1.00  0.00     0.031 C 
ATOM     61  C   UNL A   1      47.019  29.891  30.880  1.00  0.00     0.029 A 
ATOM     62  C   UNL A   1      46.258  28.866  30.340  1.00  0.00     0.049 A 
ATOM     63  H   UNL A   1      44.197  28.838  29.888  1.00  0.00     0.167 HD
ATOM     64  C   UNL A   1      45.875  26.592  29.422  1.00  0.00     0.074 A 
ATOM     65  C   UNL A   1      46.319  25.274  29.017  1.00  0.00     0.031 C 
ATOM     66  C   UNL A   1      46.687  27.546  29.941  1.00  0.00     0.037 A 
BRANCH  53  67
ATOM     67  C   UNL A   1      43.828  32.877  31.243  1.00  0.00     0.058 A 
ATOM     68  C   UNL A   1      44.111  33.949  30.382  1.00  0.00     0.135 A 
ATOM     69  C   UNL A   1      43.619  33.168  32.601  1.00  0.00     0.135 A 
ATOM     70  F   UNL A   1      44.342  33.728  29.077  1.00  0.00    -0.206 F 
ATOM     71  C   UNL A   1      44.207  35.254  30.853  1.00  0.00     0.059 A 
ATOM     72  C   UNL A   1      43.678  34.469  33.089  1.00  0.00     0.059 A 
ATOM     73  F   UNL A   1      43.352  32.180  33.470  1.00  0.00    -0.206 F 
ATOM     74  C   UNL A   1      43.986  35.505  32.209  1.00  0.00     0.060 A 
BRANCH  74  75
ATOM     75  S   UNL A   1      44.103  37.206  32.801  1.00  0.00     0.124 S 
ATOM     76  O   UNL A   1      45.489  37.261  33.255  1.00  0.00    -0.237 OA
ATOM     77  O   UNL A   1      43.799  37.975  31.598  1.00  0.00    -0.237 OA
ATOM     78  O   UNL A   1      43.096  37.271  33.855  1.00  0.00    -0.744 OA
ENDBRANCH  74  75
ENDBRANCH  53  67
BRANCH  54  79
ATOM     79  C   UNL A   1      42.670  23.599  27.686  1.00  0.00     0.058 A 
ATOM     80  C   UNL A   1      42.741  23.367  26.304  1.00  0.00     0.135 A 
ATOM     81  C   UNL A   1      42.442  22.492  28.520  1.00  0.00     0.135 A 
ATOM     82  F   UNL A   1      42.938  24.393  25.462  1.00  0.00    -0.206 F 
ATOM     83  C   UNL A   1      42.588  22.092  25.768  1.00  0.00     0.059 A 
ATOM     84  C   UNL A   1      42.314  21.203  28.010  1.00  0.00     0.059 A 
ATOM     85  F   UNL A   1      42.367  22.653  29.850  1.00  0.00    -0.206 F 
ATOM     86  C   UNL A   1      42.382  21.014  26.631  1.00  0.00     0.060 A 
BRANCH  86  87
ATOM     87  S   UNL A   1      42.256  19.352  25.936  1.00  0.00     0.124 S 
ATOM     88  O   UNL A   1      40.820  19.225  25.726  1.00  0.00    -0.237 OA
ATOM     89  O   UNL A   1      43.075  19.462  24.733  1.00  0.00    -0.237 OA
ATOM     90  O   UNL A   1      42.821  18.508  26.986  1.00  0.00    -0.744 OA
ENDBRANCH  86  87
ENDBRANCH  54  79
BRANCH  66  91
ATOM     91  C   UNL A   1      48.135  27.194  30.152  1.00  0.00     0.058 A 
ATOM     92  C   UNL A   1      49.131  27.558  29.233  1.00  0.00     0.135 A 
ATOM     93  C   UNL A   1      48.538  26.536  31.327  1.00  0.00     0.135 A 
ATOM     94  F   UNL A   1      48.802  28.181  28.091  1.00  0.00    -0.206 F 
ATOM     95  C   UNL A   1      50.472  27.265  29.461  1.00  0.00     0.059 A 
ATOM     96  C   UNL A   1      49.876  26.263  31.590  1.00  0.00     0.059 A 
ATOM     97  F   UNL A   1      47.629  26.174  32.245  1.00  0.00    -0.206 F 
ATOM     98  C   UNL A   1      50.836  26.622  30.645  1.00  0.00     0.060 A 
BRANCH  98  99
ATOM     99  S   UNL A   1      52.584  26.285  30.946  1.00  0.00     0.124 S 
ATOM    100  O   UNL A   1      52.514  25.108  31.805  1.00  0.00    -0.237 OA
ATOM    101  O   UNL A   1      53.093  26.056  29.597  1.00  0.00    -0.237 OA
ATOM    102  O   UNL A   1      53.060  27.505  31.591  1.00  0.00    -0.744 OA
ENDBRANCH  98  99
ENDBRANCH  66  91
ENDBRANCH  40  41
ENDBRANCH  33  35
ENDBRANCH  32  33
ENDBRANCH  31  32
ENDBRANCH  30  31
ENDBRANCH  29  30
ENDBRANCH  28  29
ENDBRANCH  27  28
ENDBRANCH   1  27
TORSDOF 26
ENDMDL
MODEL 2
REMARK VINA RESULT:      -9.2      3.160      7.915
REMARK SMILES CCc1cc2c(C)cc(=O)oc2cc1O[C@H](C)C(=O)OCCOCCOCCOCCOC(=O)c1ccc(-c2c3nc(c(-c4c(F)cc(S(=O)(=O)[O-])cc4F)c4ccc([nH]4)c(-c4c(F)cc(S(=O)(=O)[O-])cc4F)c4nc(c(-c5c(F)cc(S(=O)(=O)[O-])cc5F)c5ccc2[nH]5)C=C4)C=C3)cc1
REMARK SMILES IDX 26 1 25 2 24 3 23 4 22 5 21 6 20 7 18 8 19 9 16 10 17 11
REMARK SMILES IDX 15 12 14 13 3 14 4 15 5 16 13 17 6 18 12 19 7 20 8 21 11 22
REMARK SMILES IDX 9 23 10 24 2 25 1 26 27 27 28 28 29 29 30 30 31 31 32 32
REMARK SMILES IDX 33 33 34 34 35 35 36 36 100 37 37 38 99 39 38 40 39 41 40 42
REMARK SMILES IDX 93 43 41 44 98 45 92 46 94 47 42 48 97 49 91 50 90 51 43 53
REMARK SMILES IDX 77 54 56 55 76 56 57 57 60 58 75 59 95 60 58 61 59 62 74 64
REMARK SMILES IDX 96 65 61 66 44 67 45 68 54 69 46 70 47 71 53 72 55 73 48 74
REMARK SMILES IDX 49 75 50 76 51 77 52 78 78 79 79 80 88 81 80 82 81 83 87 84
REMARK SMILES IDX 89 85 82 86 83 87 84 88 85 89 86 90 62 91 63 92 72 93 64 94
REMARK SMILES IDX 65 95 71 96 73 97 66 98 67 99 68 100 69 101 70 102
REMARK H PARENT 94 52 60 63
REMARK Flexibility Score: inf
ROOT
ATOM      1  O   UNL A   1      34.087  21.373  25.425  1.00  0.00    -0.377 OA
ENDROOT
BRANCH   1   2
ATOM      2  C   UNL A   1      34.032  21.450  26.833  1.00  0.00     0.188 C 
BRANCH   2   3
ATOM      3  C   UNL A   1      33.412  22.730  27.415  1.00  0.00     0.188 C 
BRANCH   3   4
ATOM      4  O   UNL A   1      32.011  22.834  27.609  1.00  0.00    -0.376 OA
BRANCH   4   5
ATOM      5  C   UNL A   1      31.127  22.718  26.500  1.00  0.00     0.202 C 
BRANCH   5   6
ATOM      6  C   UNL A   1      31.187  23.717  25.334  1.00  0.00     0.261 C 
BRANCH   6   7
ATOM      7  O   UNL A   1      32.409  23.712  24.567  1.00  0.00    -0.461 OA
BRANCH   7   8
ATOM      8  C   UNL A   1      32.318  23.911  23.229  1.00  0.00     0.347 C 
ATOM      9  O   UNL A   1      32.331  23.003  22.402  1.00  0.00    -0.248 OA
BRANCH   8  10
ATOM     10  C   UNL A   1      32.251  25.409  22.810  1.00  0.00     0.279 C 
ATOM     11  C   UNL A   1      32.487  25.880  21.378  1.00  0.00     0.066 C 
BRANCH  10  12
ATOM     12  O   UNL A   1      31.165  26.164  23.323  1.00  0.00    -0.479 OA
BRANCH  12  13
ATOM     13  C   UNL A   1      31.424  27.245  24.103  1.00  0.00     0.127 A 
ATOM     14  C   UNL A   1      30.684  28.401  23.831  1.00  0.00    -0.005 A 
ATOM     15  C   UNL A   1      30.912  29.541  24.638  1.00  0.00     0.019 A 
ATOM     16  C   UNL A   1      31.881  29.552  25.653  1.00  0.00     0.021 A 
ATOM     17  C   UNL A   1      32.345  27.227  25.151  1.00  0.00     0.094 A 
ATOM     18  C   UNL A   1      32.188  30.712  26.497  1.00  0.00    -0.033 A 
ATOM     19  C   UNL A   1      32.598  28.386  25.869  1.00  0.00     0.142 A 
ATOM     20  C   UNL A   1      31.293  31.913  26.477  1.00  0.00     0.045 C 
ATOM     21  C   UNL A   1      33.277  30.663  27.280  1.00  0.00     0.098 A 
ATOM     22  O   UNL A   1      33.667  28.321  26.778  1.00  0.00    -0.423 OA
ATOM     23  C   UNL A   1      34.157  29.485  27.341  1.00  0.00     0.336 A 
ATOM     24  O   UNL A   1      35.252  29.527  27.886  1.00  0.00    -0.246 OA
BRANCH  14  25
ATOM     25  C   UNL A   1      29.654  28.526  22.720  1.00  0.00     0.036 C 
ATOM     26  C   UNL A   1      29.026  29.883  22.396  1.00  0.00     0.009 C 
ENDBRANCH  14  25
ENDBRANCH  12  13
ENDBRANCH  10  12
ENDBRANCH   8  10
ENDBRANCH   7   8
ENDBRANCH   6   7
ENDBRANCH   5   6
ENDBRANCH   4   5
ENDBRANCH   3   4
ENDBRANCH   2   3
ENDBRANCH   1   2
BRANCH   1  27
ATOM     27  C   UNL A   1      35.373  21.484  24.825  1.00  0.00     0.188 C 
BRANCH  27  28
ATOM     28  C   UNL A   1      36.337  20.288  24.970  1.00  0.00     0.188 C 
BRANCH  28  29
ATOM     29  O   UNL A   1      37.708  20.611  24.772  1.00  0.00    -0.376 OA
BRANCH  29  30
ATOM     30  C   UNL A   1      38.710  19.784  25.343  1.00  0.00     0.202 C 
BRANCH  30  31
ATOM     31  C   UNL A   1      39.881  20.438  26.097  1.00  0.00     0.261 C 
BRANCH  31  32
ATOM     32  O   UNL A   1      40.990  19.593  26.429  1.00  0.00    -0.460 OA
BRANCH  32  33
ATOM     33  C   UNL A   1      42.197  19.904  25.915  1.00  0.00     0.338 C 
ATOM     34  O   UNL A   1      42.848  19.240  25.124  1.00  0.00    -0.246 OA
BRANCH  33  35
ATOM     35  C   UNL A   1      42.514  21.290  26.316  1.00  0.00     0.060 A 
ATOM     36  C   UNL A   1      42.564  22.288  25.334  1.00  0.00     0.016 A 
ATOM     37  C   UNL A   1      42.763  21.602  27.654  1.00  0.00     0.016 A 
ATOM     38  C   UNL A   1      42.903  23.593  25.682  1.00  0.00     0.010 A 
ATOM     39  C   UNL A   1      43.128  22.906  27.997  1.00  0.00     0.010 A 
ATOM     40  C   UNL A   1      43.238  23.897  27.006  1.00  0.00    -0.014 A 
BRANCH  40  41
ATOM     41  C   UNL A   1      43.900  25.187  27.320  1.00  0.00     0.031 A 
ATOM     42  C   UNL A   1      43.073  26.276  27.948  1.00  0.00     0.074 A 
ATOM     43  C   UNL A   1      45.206  25.386  27.078  1.00  0.00     0.049 A 
ATOM     44  N   UNL A   1      43.408  27.501  28.255  1.00  0.00    -0.248 NA
ATOM     45  C   UNL A   1      41.677  25.935  28.270  1.00  0.00     0.031 C 
ATOM     46  C   UNL A   1      46.122  24.391  26.526  1.00  0.00     0.029 A 
ATOM     47  N   UNL A   1      45.987  26.501  27.258  1.00  0.00    -0.354 N 
ATOM     48  C   UNL A   1      42.267  28.079  28.796  1.00  0.00     0.074 A 
ATOM     49  C   UNL A   1      41.220  27.082  28.746  1.00  0.00     0.031 C 
ATOM     50  C   UNL A   1      47.339  24.947  26.399  1.00  0.00     0.029 A 
ATOM     51  C   UNL A   1      47.281  26.343  26.822  1.00  0.00     0.049 A 
ATOM     52  H   UNL A   1      45.652  27.333  27.663  1.00  0.00     0.167 HD
ATOM     53  C   UNL A   1      42.109  29.327  29.297  1.00  0.00     0.037 A 
ATOM     54  C   UNL A   1      48.295  27.228  26.747  1.00  0.00     0.037 A 
ATOM     55  C   UNL A   1      43.157  30.312  29.341  1.00  0.00     0.049 A 
ATOM     56  C   UNL A   1      48.077  28.635  27.237  1.00  0.00     0.074 A 
ATOM     57  C   UNL A   1      43.104  31.602  29.840  1.00  0.00     0.029 A 
ATOM     58  N   UNL A   1      44.445  30.124  28.859  1.00  0.00    -0.354 N 
ATOM     59  N   UNL A   1      46.999  29.168  27.761  1.00  0.00    -0.248 NA
ATOM     60  C   UNL A   1      49.213  29.561  27.132  1.00  0.00     0.031 C 
ATOM     61  C   UNL A   1      44.338  32.213  29.604  1.00  0.00     0.029 A 
ATOM     62  C   UNL A   1      45.185  31.283  29.022  1.00  0.00     0.049 A 
ATOM     63  H   UNL A   1      44.783  29.289  28.461  1.00  0.00     0.167 HD
ATOM     64  C   UNL A   1      47.336  30.479  28.079  1.00  0.00     0.074 A 
ATOM     65  C   UNL A   1      48.721  30.657  27.696  1.00  0.00     0.031 C 
ATOM     66  C   UNL A   1      46.569  31.445  28.643  1.00  0.00     0.037 A 
BRANCH  53  67
ATOM     67  C   UNL A   1      40.745  29.708  29.804  1.00  0.00     0.058 A 
ATOM     68  C   UNL A   1      40.472  29.849  31.174  1.00  0.00     0.135 A 
ATOM     69  C   UNL A   1      39.701  29.965  28.900  1.00  0.00     0.135 A 
ATOM     70  F   UNL A   1      41.426  29.594  32.084  1.00  0.00    -0.206 F 
ATOM     71  C   UNL A   1      39.208  30.206  31.631  1.00  0.00     0.059 A 
ATOM     72  C   UNL A   1      38.438  30.355  29.333  1.00  0.00     0.059 A 
ATOM     73  F   UNL A   1      39.904  29.839  27.579  1.00  0.00    -0.206 F 
ATOM     74  C   UNL A   1      38.197  30.460  30.701  1.00  0.00     0.060 A 
BRANCH  74  75
ATOM     75  S   UNL A   1      36.565  30.933  31.311  1.00  0.00     0.124 S 
ATOM     76  O   UNL A   1      35.901  29.637  31.402  1.00  0.00    -0.237 OA
ATOM     77  O   UNL A   1      36.883  31.573  32.584  1.00  0.00    -0.237 OA
ATOM     78  O   UNL A   1      36.059  31.825  30.273  1.00  0.00    -0.744 OA
ENDBRANCH  74  75
ENDBRANCH  53  67
BRANCH  54  79
ATOM     79  C   UNL A   1      49.603  26.811  26.169  1.00  0.00     0.058 A 
ATOM     80  C   UNL A   1      49.934  27.089  24.834  1.00  0.00     0.135 A 
ATOM     81  C   UNL A   1      50.553  26.126  26.945  1.00  0.00     0.135 A 
ATOM     82  F   UNL A   1      49.055  27.725  24.044  1.00  0.00    -0.206 F 
ATOM     83  C   UNL A   1      51.154  26.701  24.288  1.00  0.00     0.059 A 
ATOM     84  C   UNL A   1      51.790  25.753  26.430  1.00  0.00     0.059 A 
ATOM     85  F   UNL A   1      50.291  25.836  28.229  1.00  0.00    -0.206 F 
ATOM     86  C   UNL A   1      52.079  26.038  25.097  1.00  0.00     0.060 A 
BRANCH  86  87
ATOM     87  S   UNL A   1      53.688  25.601  24.404  1.00  0.00     0.124 S 
ATOM     88  O   UNL A   1      53.836  24.220  24.845  1.00  0.00    -0.237 OA
ATOM     89  O   UNL A   1      53.469  25.799  22.975  1.00  0.00    -0.237 OA
ATOM     90  O   UNL A   1      54.592  26.566  25.024  1.00  0.00    -0.744 OA
ENDBRANCH  86  87
ENDBRANCH  54  79
BRANCH  66  91
ATOM     91  C   UNL A   1      47.216  32.774  28.930  1.00  0.00     0.058 A 
ATOM     92  C   UNL A   1      47.994  32.991  30.078  1.00  0.00     0.135 A 
ATOM     93  C   UNL A   1      47.107  33.827  28.005  1.00  0.00     0.135 A 
ATOM     94  F   UNL A   1      48.126  32.023  30.998  1.00  0.00    -0.206 F 
ATOM     95  C   UNL A   1      48.622  34.211  30.310  1.00  0.00     0.059 A 
ATOM     96  C   UNL A   1      47.754  35.042  28.200  1.00  0.00     0.059 A 
ATOM     97  F   UNL A   1      46.385  33.670  26.885  1.00  0.00    -0.206 F 
ATOM     98  C   UNL A   1      48.501  35.229  29.362  1.00  0.00     0.060 A 
BRANCH  98  99
ATOM     99  S   UNL A   1      49.357  36.791  29.656  1.00  0.00     0.124 S 
ATOM    100  O   UNL A   1      48.556  37.368  30.731  1.00  0.00    -0.237 OA
ATOM    101  O   UNL A   1      50.695  36.346  30.033  1.00  0.00    -0.237 OA
ATOM    102  O   UNL A   1      49.268  37.476  28.370  1.00  0.00    -0.744 OA
ENDBRANCH  98  99
ENDBRANCH  66  91
ENDBRANCH  40  41
ENDBRANCH  33  35
ENDBRANCH  32  33
ENDBRANCH  31  32
ENDBRANCH  30  31
ENDBRANCH  29  30
ENDBRANCH  28  29
ENDBRANCH  27  28
ENDBRANCH   1  27
TORSDOF 26
ENDMDL
MODEL 3
REMARK VINA RESULT:      -9.1      1.625      8.166
REMARK SMILES CCc1cc2c(C)cc(=O)oc2cc1O[C@H](C)C(=O)OCCOCCOCCOCCOC(=O)c1ccc(-c2c3nc(c(-c4c(F)cc(S(=O)(=O)[O-])cc4F)c4ccc([nH]4)c(-c4c(F)cc(S(=O)(=O)[O-])cc4F)c4nc(c(-c5c(F)cc(S(=O)(=O)[O-])cc5F)c5ccc2[nH]5)C=C4)C=C3)cc1
REMARK SMILES IDX 26 1 25 2 24 3 23 4 22 5 21 6 20 7 18 8 19 9 16 10 17 11
REMARK SMILES IDX 15 12 14 13 3 14 4 15 5 16 13 17 6 18 12 19 7 20 8 21 11 22
REMARK SMILES IDX 9 23 10 24 2 25 1 26 27 27 28 28 29 29 30 30 31 31 32 32
REMARK SMILES IDX 33 33 34 34 35 35 36 36 100 37 37 38 99 39 38 40 39 41 40 42
REMARK SMILES IDX 93 43 41 44 98 45 92 46 94 47 42 48 97 49 91 50 90 51 43 53
REMARK SMILES IDX 77 54 56 55 76 56 57 57 60 58 75 59 95 60 58 61 59 62 74 64
REMARK SMILES IDX 96 65 61 66 44 67 45 68 54 69 46 70 47 71 53 72 55 73 48 74
REMARK SMILES IDX 49 75 50 76 51 77 52 78 78 79 79 80 88 81 80 82 81 83 87 84
REMARK SMILES IDX 89 85 82 86 83 87 84 88 85 89 86 90 62 91 63 92 72 93 64 94
REMARK SMILES IDX 65 95 71 96 73 97 66 98 67 99 68 100 69 101 70 102
REMARK H PARENT 94 52 60 63
REMARK Flexibility Score: inf
ROOT
ATOM      1  O   UNL A   1      36.056  24.339  25.471  1.00  0.00    -0.377 OA
ENDROOT
BRANCH   1   2
ATOM      2  C   UNL A   1      36.594  23.662  24.355  1.00  0.00     0.188 C 
BRANCH   2   3
ATOM      3  C   UNL A   1      36.080  22.234  24.121  1.00  0.00     0.188 C 
BRANCH   3   4
ATOM      4  O   UNL A   1      35.917  21.334  25.206  1.00  0.00    -0.376 OA
BRANCH   4   5
ATOM      5  C   UNL A   1      35.537  19.985  24.962  1.00  0.00     0.202 C 
BRANCH   5   6
ATOM      6  C   UNL A   1      34.056  19.580  24.902  1.00  0.00     0.261 C 
BRANCH   6   7
ATOM      7  O   UNL A   1      33.243  20.317  23.966  1.00  0.00    -0.461 OA
BRANCH   7   8
ATOM      8  C   UNL A   1      32.280  21.129  24.466  1.00  0.00     0.347 C 
ATOM      9  O   UNL A   1      31.506  20.798  25.360  1.00  0.00    -0.248 OA
BRANCH   8  10
ATOM     10  C   UNL A   1      32.190  22.519  23.768  1.00  0.00     0.279 C 
ATOM     11  C   UNL A   1      32.758  22.787  22.378  1.00  0.00     0.066 C 
BRANCH  10  12
ATOM     12  O   UNL A   1      30.941  23.188  23.844  1.00  0.00    -0.479 OA
BRANCH  12  13
ATOM     13  C   UNL A   1      30.923  24.536  24.008  1.00  0.00     0.127 A 
ATOM     14  C   UNL A   1      30.996  25.003  25.325  1.00  0.00    -0.005 A 
ATOM     15  C   UNL A   1      31.001  26.403  25.533  1.00  0.00     0.019 A 
ATOM     16  C   UNL A   1      30.885  27.314  24.471  1.00  0.00     0.021 A 
ATOM     17  C   UNL A   1      30.871  25.433  22.942  1.00  0.00     0.094 A 
ATOM     18  C   UNL A   1      30.847  28.772  24.627  1.00  0.00    -0.033 A 
ATOM     19  C   UNL A   1      30.797  26.796  23.188  1.00  0.00     0.142 A 
ATOM     20  C   UNL A   1      31.177  29.395  25.949  1.00  0.00     0.045 C 
ATOM     21  C   UNL A   1      30.518  29.520  23.562  1.00  0.00     0.098 A 
ATOM     22  O   UNL A   1      30.564  27.610  22.067  1.00  0.00    -0.423 OA
ATOM     23  C   UNL A   1      30.219  28.936  22.245  1.00  0.00     0.336 A 
ATOM     24  O   UNL A   1      29.716  29.598  21.346  1.00  0.00    -0.246 OA
BRANCH  14  25
ATOM     25  C   UNL A   1      31.062  24.113  26.556  1.00  0.00     0.036 C 
ATOM     26  C   UNL A   1      29.865  23.245  26.949  1.00  0.00     0.009 C 
ENDBRANCH  14  25
ENDBRANCH  12  13
ENDBRANCH  10  12
ENDBRANCH   8  10
ENDBRANCH   7   8
ENDBRANCH   6   7
ENDBRANCH   5   6
ENDBRANCH   4   5
ENDBRANCH   3   4
ENDBRANCH   2   3
ENDBRANCH   1   2
BRANCH   1  27
ATOM     27  C   UNL A   1      34.695  24.748  25.380  1.00  0.00     0.188 C 
BRANCH  27  28
ATOM     28  C   UNL A   1      34.413  26.223  25.030  1.00  0.00     0.188 C 
BRANCH  28  29
ATOM     29  O   UNL A   1      34.026  27.026  26.138  1.00  0.00    -0.376 OA
BRANCH  29  30
ATOM     30  C   UNL A   1      34.487  28.366  26.224  1.00  0.00     0.202 C 
BRANCH  30  31
ATOM     31  C   UNL A   1      34.420  29.095  27.579  1.00  0.00     0.261 C 
BRANCH  31  32
ATOM     32  O   UNL A   1      35.157  30.319  27.692  1.00  0.00    -0.460 OA
BRANCH  32  33
ATOM     33  C   UNL A   1      35.779  30.576  28.860  1.00  0.00     0.338 C 
ATOM     34  O   UNL A   1      35.274  31.041  29.870  1.00  0.00    -0.246 OA
BRANCH  33  35
ATOM     35  C   UNL A   1      37.141  30.011  28.780  1.00  0.00     0.060 A 
ATOM     36  C   UNL A   1      37.773  29.590  29.957  1.00  0.00     0.016 A 
ATOM     37  C   UNL A   1      37.791  29.899  27.549  1.00  0.00     0.016 A 
ATOM     38  C   UNL A   1      39.074  29.094  29.912  1.00  0.00     0.010 A 
ATOM     39  C   UNL A   1      39.105  29.425  27.509  1.00  0.00     0.010 A 
ATOM     40  C   UNL A   1      39.764  29.058  28.695  1.00  0.00    -0.014 A 
BRANCH  40  41
ATOM     41  C   UNL A   1      41.231  28.838  28.689  1.00  0.00     0.031 A 
ATOM     42  C   UNL A   1      41.744  27.478  28.301  1.00  0.00     0.074 A 
ATOM     43  C   UNL A   1      42.093  29.823  28.994  1.00  0.00     0.049 A 
ATOM     44  N   UNL A   1      42.971  27.028  28.280  1.00  0.00    -0.248 NA
ATOM     45  C   UNL A   1      40.733  26.491  27.884  1.00  0.00     0.031 C 
ATOM     46  C   UNL A   1      41.720  31.195  29.328  1.00  0.00     0.029 A 
ATOM     47  N   UNL A   1      43.463  29.814  29.080  1.00  0.00    -0.354 N 
ATOM     48  C   UNL A   1      42.880  25.707  27.859  1.00  0.00     0.074 A 
ATOM     49  C   UNL A   1      41.476  25.417  27.666  1.00  0.00     0.031 C 
ATOM     50  C   UNL A   1      42.837  31.892  29.600  1.00  0.00     0.029 A 
ATOM     51  C   UNL A   1      43.996  31.011  29.496  1.00  0.00     0.049 A 
ATOM     52  H   UNL A   1      44.011  29.025  28.864  1.00  0.00     0.167 HD
ATOM     53  C   UNL A   1      43.879  24.819  27.644  1.00  0.00     0.037 A 
ATOM     54  C   UNL A   1      45.268  31.351  29.785  1.00  0.00     0.037 A 
ATOM     55  C   UNL A   1      45.273  25.117  27.841  1.00  0.00     0.049 A 
ATOM     56  C   UNL A   1      46.357  30.325  29.615  1.00  0.00     0.074 A 
ATOM     57  C   UNL A   1      46.365  24.291  27.640  1.00  0.00     0.029 A 
ATOM     58  N   UNL A   1      45.770  26.331  28.294  1.00  0.00    -0.354 N 
ATOM     59  N   UNL A   1      46.263  29.083  29.202  1.00  0.00    -0.248 NA
ATOM     60  C   UNL A   1      47.726  30.744  29.945  1.00  0.00     0.031 C 
ATOM     61  C   UNL A   1      47.515  24.984  28.029  1.00  0.00     0.029 A 
ATOM     62  C   UNL A   1      47.149  26.266  28.407  1.00  0.00     0.049 A 
ATOM     63  H   UNL A   1      45.223  27.123  28.503  1.00  0.00     0.167 HD
ATOM     64  C   UNL A   1      47.561  28.585  29.189  1.00  0.00     0.074 A 
ATOM     65  C   UNL A   1      48.424  29.662  29.629  1.00  0.00     0.031 C 
ATOM     66  C   UNL A   1      47.999  27.350  28.838  1.00  0.00     0.037 A 
BRANCH  53  67
ATOM     67  C   UNL A   1      43.497  23.431  27.208  1.00  0.00     0.058 A 
ATOM     68  C   UNL A   1      43.568  23.027  25.866  1.00  0.00     0.135 A 
ATOM     69  C   UNL A   1      43.080  22.481  28.155  1.00  0.00     0.135 A 
ATOM     70  F   UNL A   1      43.937  23.898  24.914  1.00  0.00    -0.206 F 
ATOM     71  C   UNL A   1      43.216  21.739  25.475  1.00  0.00     0.059 A 
ATOM     72  C   UNL A   1      42.755  21.179  27.792  1.00  0.00     0.059 A 
ATOM     73  F   UNL A   1      42.988  22.815  29.453  1.00  0.00    -0.206 F 
ATOM     74  C   UNL A   1      42.813  20.820  26.446  1.00  0.00     0.060 A 
BRANCH  74  75
ATOM     75  S   UNL A   1      42.371  19.151  25.923  1.00  0.00     0.124 S 
ATOM     76  O   UNL A   1      40.937  19.289  25.690  1.00  0.00    -0.237 OA
ATOM     77  O   UNL A   1      43.192  18.971  24.731  1.00  0.00    -0.237 OA
ATOM     78  O   UNL A   1      42.743  18.325  27.067  1.00  0.00    -0.744 OA
ENDBRANCH  74  75
ENDBRANCH  53  67
BRANCH  54  79
ATOM     79  C   UNL A   1      45.576  32.721  30.282  1.00  0.00     0.058 A 
ATOM     80  C   UNL A   1      45.429  33.058  31.635  1.00  0.00     0.135 A 
ATOM     81  C   UNL A   1      46.028  33.724  29.408  1.00  0.00     0.135 A 
ATOM     82  F   UNL A   1      44.982  32.143  32.510  1.00  0.00    -0.206 F 
ATOM     83  C   UNL A   1      45.713  34.337  32.105  1.00  0.00     0.059 A 
ATOM     84  C   UNL A   1      46.346  35.001  29.858  1.00  0.00     0.059 A 
ATOM     85  F   UNL A   1      46.190  33.457  28.103  1.00  0.00    -0.206 F 
ATOM     86  C   UNL A   1      46.178  35.301  31.209  1.00  0.00     0.060 A 
BRANCH  86  87
ATOM     87  S   UNL A   1      46.614  36.937  31.836  1.00  0.00     0.124 S 
ATOM     88  O   UNL A   1      46.699  37.714  30.606  1.00  0.00    -0.237 OA
ATOM     89  O   UNL A   1      45.486  37.239  32.710  1.00  0.00    -0.237 OA
ATOM     90  O   UNL A   1      47.879  36.704  32.527  1.00  0.00    -0.744 OA
ENDBRANCH  86  87
ENDBRANCH  54  79
BRANCH  66  91
ATOM     91  C   UNL A   1      49.483  27.099  28.867  1.00  0.00     0.058 A 
ATOM     92  C   UNL A   1      50.309  27.394  27.771  1.00  0.00     0.135 A 
ATOM     93  C   UNL A   1      50.096  26.614  30.035  1.00  0.00     0.135 A 
ATOM     94  F   UNL A   1      49.776  27.852  26.627  1.00  0.00    -0.206 F 
ATOM     95  C   UNL A   1      51.685  27.198  27.825  1.00  0.00     0.059 A 
ATOM     96  C   UNL A   1      51.473  26.443  30.122  1.00  0.00     0.059 A 
ATOM     97  F   UNL A   1      49.355  26.326  31.117  1.00  0.00    -0.206 F 
ATOM     98  C   UNL A   1      52.259  26.728  29.007  1.00  0.00     0.060 A 
BRANCH  98  99
ATOM     99  S   UNL A   1      54.051  26.518  29.076  1.00  0.00     0.124 S 
ATOM    100  O   UNL A   1      54.517  27.876  28.813  1.00  0.00    -0.237 OA
ATOM    101  O   UNL A   1      54.255  26.031  30.437  1.00  0.00    -0.237 OA
ATOM    102  O   UNL A   1      54.322  25.547  28.021  1.00  0.00    -0.744 OA
ENDBRANCH  98  99
ENDBRANCH  66  91
ENDBRANCH  40  41
ENDBRANCH  33  35
ENDBRANCH  32  33
ENDBRANCH  31  32
ENDBRANCH  30  31
ENDBRANCH  29  30
ENDBRANCH  28  29
ENDBRANCH  27  28
ENDBRANCH   1  27
TORSDOF 26
ENDMDL
