MODEL 1
REMARK VINA RESULT:      -8.0      0.000      0.000
REMARK SMILES COCC[C@H]([NH3+])C(=O)N1CC(n2cc(C(=O)OCCOCCOCCOCCOC(=O)c3ccc(-c4c5nc(c(-c6c(F)cc(S(=O)(=O)[O-])cc6F)c6ccc([nH]6)c(-c6c(F)cc(S(=O)(=O)[O-])cc6F)c6nc(c(-c7c(F)cc(S(=O)(=O)[O-])cc7F)c7ccc4[nH]7)C=C6)C=C5)cc3)nn2)C1
REMARK SMILES IDX 22 1 21 2 20 3 19 4 18 5 17 6 15 7 16 8 14 9 12 10 13 11
REMARK SMILES IDX 99 12 98 13 11 14 7 15 8 16 9 17 10 18 100 19 5 20 4 21 3 22
REMARK SMILES IDX 2 23 1 24 6 25 23 29 24 30 25 31 26 32 27 33 28 34 29 35
REMARK SMILES IDX 30 36 31 37 32 38 33 39 97 40 34 41 96 42 35 43 36 44 37 45
REMARK SMILES IDX 90 46 38 47 95 48 89 49 91 50 39 51 94 52 88 53 87 54 40 56
REMARK SMILES IDX 74 57 53 58 73 59 54 60 57 61 72 62 92 63 55 64 56 65 71 67
REMARK SMILES IDX 93 68 58 69 41 70 42 71 51 72 43 73 44 74 50 75 52 76 45 77
REMARK SMILES IDX 46 78 47 79 48 80 49 81 75 82 76 83 85 84 77 85 78 86 84 87
REMARK SMILES IDX 86 88 79 89 80 90 81 91 82 92 83 93 59 94 60 95 69 96 61 97
REMARK SMILES IDX 62 98 68 99 70 100 63 101 64 102 65 103 66 104 67 105
REMARK H PARENT 6 26 6 27 6 28 91 55 57 66
REMARK Flexibility Score: inf
ROOT
ATOM      1  C   UNL A   1      34.300  31.603  27.469  1.00  0.00     0.188 C 
ENDROOT
BRANCH   1   2
ATOM      2  C   UNL A   1      34.053  30.088  27.300  1.00  0.00     0.188 C 
BRANCH   2   3
ATOM      3  O   UNL A   1      33.139  29.571  26.340  1.00  0.00    -0.376 OA
BRANCH   3   4
ATOM      4  C   UNL A   1      33.543  28.902  25.160  1.00  0.00     0.202 C 
BRANCH   4   5
ATOM      5  C   UNL A   1      32.790  29.003  23.825  1.00  0.00     0.261 C 
BRANCH   5   6
ATOM      6  O   UNL A   1      31.375  29.154  23.897  1.00  0.00    -0.458 OA
BRANCH   6   7
ATOM      7  C   UNL A   1      30.649  28.116  23.405  1.00  0.00     0.360 C 
ATOM      8  O   UNL A   1      30.125  28.100  22.291  1.00  0.00    -0.244 OA
BRANCH   7   9
ATOM      9  C   UNL A   1      30.650  26.980  24.308  1.00  0.00     0.190 A 
ATOM     10  N   UNL A   1      30.687  25.015  25.213  1.00  0.00    -0.245 N 
ATOM     11  C   UNL A   1      30.800  25.638  24.004  1.00  0.00     0.147 A 
ATOM     12  N   UNL A   1      30.437  25.891  26.196  1.00  0.00    -0.066 NA
ATOM     13  N   UNL A   1      30.414  27.101  25.656  1.00  0.00    -0.123 NA
BRANCH  10  14
ATOM     14  C   UNL A   1      30.906  23.619  25.405  1.00  0.00     0.148 C 
ATOM     15  C   UNL A   1      33.344  21.339  25.870  1.00  0.00     0.280 C 
ATOM     16  O   UNL A   1      33.490  20.839  26.988  1.00  0.00    -0.268 OA
ATOM     17  N   UNL A   1      32.494  22.380  25.657  1.00  0.00    -0.333 N 
ATOM     18  C   UNL A   1      31.770  23.210  26.607  1.00  0.00     0.149 C 
ATOM     19  C   UNL A   1      32.062  23.137  24.503  1.00  0.00     0.149 C 
BRANCH  15  20
ATOM     20  C   UNL A   1      34.209  20.861  24.683  1.00  0.00     0.273 C 
BRANCH  20  21
ATOM     21  C   UNL A   1      34.299  19.323  24.744  1.00  0.00     0.104 C 
BRANCH  21  22
ATOM     22  C   UNL A   1      33.142  18.579  24.076  1.00  0.00     0.166 C 
BRANCH  22  23
ATOM     23  O   UNL A   1      32.198  18.029  24.989  1.00  0.00    -0.384 OA
ATOM     24  C   UNL A   1      32.533  16.736  25.464  1.00  0.00     0.194 C 
ENDBRANCH  22  23
ENDBRANCH  21  22
ENDBRANCH  20  21
BRANCH  20  25
ATOM     25  N   UNL A   1      35.523  21.534  24.673  1.00  0.00    -0.347 N 
ATOM     26  H   UNL A   1      35.499  22.337  25.301  1.00  0.00     0.345 HD
ATOM     27  H   UNL A   1      35.735  21.850  23.726  1.00  0.00     0.345 HD
ATOM     28  H   UNL A   1      36.242  20.881  24.983  1.00  0.00     0.345 HD
ENDBRANCH  20  25
ENDBRANCH  15  20
ENDBRANCH  10  14
ENDBRANCH   7   9
ENDBRANCH   6   7
ENDBRANCH   5   6
ENDBRANCH   4   5
ENDBRANCH   3   4
ENDBRANCH   2   3
ENDBRANCH   1   2
BRANCH   1  29
ATOM     29  O   UNL A   1      34.105  32.083  28.787  1.00  0.00    -0.377 OA
BRANCH  29  30
ATOM     30  C   UNL A   1      34.887  33.216  29.171  1.00  0.00     0.188 C 
BRANCH  30  31
ATOM     31  C   UNL A   1      34.336  34.189  30.247  1.00  0.00     0.188 C 
BRANCH  31  32
ATOM     32  O   UNL A   1      34.905  34.025  31.538  1.00  0.00    -0.376 OA
BRANCH  32  33
ATOM     33  C   UNL A   1      35.993  33.146  31.763  1.00  0.00     0.202 C 
BRANCH  33  34
ATOM     34  C   UNL A   1      35.753  31.946  32.671  1.00  0.00     0.261 C 
BRANCH  34  35
ATOM     35  O   UNL A   1      36.925  31.223  32.989  1.00  0.00    -0.460 OA
BRANCH  35  36
ATOM     36  C   UNL A   1      37.366  30.409  32.017  1.00  0.00     0.338 C 
ATOM     37  O   UNL A   1      36.738  29.519  31.452  1.00  0.00    -0.246 OA
BRANCH  36  38
ATOM     38  C   UNL A   1      38.788  30.666  31.827  1.00  0.00     0.060 A 
ATOM     39  C   UNL A   1      39.191  31.085  30.561  1.00  0.00     0.016 A 
ATOM     40  C   UNL A   1      39.686  30.160  32.781  1.00  0.00     0.016 A 
ATOM     41  C   UNL A   1      40.464  30.763  30.160  1.00  0.00     0.010 A 
ATOM     42  C   UNL A   1      40.946  29.818  32.371  1.00  0.00     0.010 A 
ATOM     43  C   UNL A   1      41.278  30.038  31.040  1.00  0.00    -0.014 A 
BRANCH  43  44
ATOM     44  C   UNL A   1      42.561  29.589  30.559  1.00  0.00     0.031 A 
ATOM     45  C   UNL A   1      42.494  28.206  30.048  1.00  0.00     0.074 A 
ATOM     46  C   UNL A   1      43.628  30.407  30.502  1.00  0.00     0.049 A 
ATOM     47  N   UNL A   1      42.987  27.145  30.589  1.00  0.00    -0.248 NA
ATOM     48  C   UNL A   1      41.569  27.937  28.931  1.00  0.00     0.031 C 
ATOM     49  C   UNL A   1      43.674  31.855  30.733  1.00  0.00     0.029 A 
ATOM     50  N   UNL A   1      44.898  30.125  30.119  1.00  0.00    -0.354 N 
ATOM     51  C   UNL A   1      42.670  26.118  29.710  1.00  0.00     0.074 A 
ATOM     52  C   UNL A   1      41.606  26.607  28.876  1.00  0.00     0.031 C 
ATOM     53  C   UNL A   1      44.844  32.344  30.259  1.00  0.00     0.029 A 
ATOM     54  C   UNL A   1      45.673  31.239  29.811  1.00  0.00     0.049 A 
ATOM     55  H   UNL A   1      45.246  29.206  30.064  1.00  0.00     0.167 HD
ATOM     56  C   UNL A   1      43.535  25.087  29.516  1.00  0.00     0.037 A 
ATOM     57  C   UNL A   1      46.866  31.225  29.159  1.00  0.00     0.037 A 
ATOM     58  C   UNL A   1      44.464  24.973  30.613  1.00  0.00     0.049 A 
ATOM     59  C   UNL A   1      47.397  29.836  29.254  1.00  0.00     0.074 A 
ATOM     60  C   UNL A   1      44.328  24.819  31.980  1.00  0.00     0.029 A 
ATOM     61  N   UNL A   1      45.746  25.426  30.413  1.00  0.00    -0.354 N 
ATOM     62  N   UNL A   1      47.793  29.286  30.369  1.00  0.00    -0.248 NA
ATOM     63  C   UNL A   1      47.034  28.903  28.198  1.00  0.00     0.031 C 
ATOM     64  C   UNL A   1      45.350  25.631  32.550  1.00  0.00     0.029 A 
ATOM     65  C   UNL A   1      46.104  26.172  31.507  1.00  0.00     0.049 A 
ATOM     66  H   UNL A   1      46.309  25.245  29.625  1.00  0.00     0.167 HD
ATOM     67  C   UNL A   1      47.319  27.984  30.313  1.00  0.00     0.074 A 
ATOM     68  C   UNL A   1      46.929  27.782  28.919  1.00  0.00     0.031 C 
ATOM     69  C   UNL A   1      47.015  27.295  31.453  1.00  0.00     0.037 A 
BRANCH  56  70
ATOM     70  C   UNL A   1      43.782  24.480  28.156  1.00  0.00     0.058 A 
ATOM     71  C   UNL A   1      43.519  23.113  27.957  1.00  0.00     0.135 A 
ATOM     72  C   UNL A   1      44.509  25.118  27.124  1.00  0.00     0.135 A 
ATOM     73  F   UNL A   1      42.864  22.401  28.888  1.00  0.00    -0.206 F 
ATOM     74  C   UNL A   1      43.986  22.422  26.838  1.00  0.00     0.059 A 
ATOM     75  C   UNL A   1      44.928  24.466  25.974  1.00  0.00     0.059 A 
ATOM     76  F   UNL A   1      44.940  26.382  27.215  1.00  0.00    -0.206 F 
ATOM     77  C   UNL A   1      44.694  23.109  25.855  1.00  0.00     0.060 A 
BRANCH  77  78
ATOM     78  S   UNL A   1      45.358  22.214  24.443  1.00  0.00     0.124 S 
ATOM     79  O   UNL A   1      46.509  21.547  25.040  1.00  0.00    -0.237 OA
ATOM     80  O   UNL A   1      44.235  21.357  24.078  1.00  0.00    -0.237 OA
ATOM     81  O   UNL A   1      45.664  23.276  23.488  1.00  0.00    -0.744 OA
ENDBRANCH  77  78
ENDBRANCH  56  70
BRANCH  57  82
ATOM     82  C   UNL A   1      47.391  32.200  28.163  1.00  0.00     0.058 A 
ATOM     83  C   UNL A   1      46.564  32.715  27.146  1.00  0.00     0.135 A 
ATOM     84  C   UNL A   1      48.614  32.871  28.362  1.00  0.00     0.135 A 
ATOM     85  F   UNL A   1      45.373  32.151  26.897  1.00  0.00    -0.206 F 
ATOM     86  C   UNL A   1      46.901  33.861  26.415  1.00  0.00     0.059 A 
ATOM     87  C   UNL A   1      48.975  34.008  27.639  1.00  0.00     0.059 A 
ATOM     88  F   UNL A   1      49.457  32.501  29.337  1.00  0.00    -0.206 F 
ATOM     89  C   UNL A   1      48.100  34.517  26.687  1.00  0.00     0.060 A 
BRANCH  89  90
ATOM     90  S   UNL A   1      48.453  36.101  25.889  1.00  0.00     0.124 S 
ATOM     91  O   UNL A   1      49.238  36.786  26.910  1.00  0.00    -0.237 OA
ATOM     92  O   UNL A   1      49.180  35.690  24.693  1.00  0.00    -0.237 OA
ATOM     93  O   UNL A   1      47.124  36.659  25.645  1.00  0.00    -0.744 OA
ENDBRANCH  89  90
ENDBRANCH  57  82
BRANCH  69  94
ATOM     94  C   UNL A   1      47.509  27.847  32.768  1.00  0.00     0.058 A 
ATOM     95  C   UNL A   1      48.782  27.613  33.319  1.00  0.00     0.135 A 
ATOM     96  C   UNL A   1      46.677  28.746  33.453  1.00  0.00     0.135 A 
ATOM     97  F   UNL A   1      49.688  26.862  32.674  1.00  0.00    -0.206 F 
ATOM     98  C   UNL A   1      49.179  28.189  34.530  1.00  0.00     0.059 A 
ATOM     99  C   UNL A   1      47.063  29.359  34.639  1.00  0.00     0.059 A 
ATOM    100  F   UNL A   1      45.474  29.067  32.947  1.00  0.00    -0.206 F 
ATOM    101  C   UNL A   1      48.307  29.056  35.186  1.00  0.00     0.060 A 
BRANCH 101 102
ATOM    102  S   UNL A   1      48.818  29.817  36.742  1.00  0.00     0.124 S 
ATOM    103  O   UNL A   1      50.272  29.790  36.634  1.00  0.00    -0.237 OA
ATOM    104  O   UNL A   1      48.199  31.138  36.667  1.00  0.00    -0.237 OA
ATOM    105  O   UNL A   1      48.251  28.931  37.758  1.00  0.00    -0.744 OA
ENDBRANCH 101 102
ENDBRANCH  69  94
ENDBRANCH  43  44
ENDBRANCH  36  38
ENDBRANCH  35  36
ENDBRANCH  34  35
ENDBRANCH  33  34
ENDBRANCH  32  33
ENDBRANCH  31  32
ENDBRANCH  30  31
ENDBRANCH  29  30
ENDBRANCH   1  29
TORSDOF 29
ENDMDL
MODEL 2
REMARK VINA RESULT:      -8.0      2.350      6.923
REMARK SMILES COCC[C@H]([NH3+])C(=O)N1CC(n2cc(C(=O)OCCOCCOCCOCCOC(=O)c3ccc(-c4c5nc(c(-c6c(F)cc(S(=O)(=O)[O-])cc6F)c6ccc([nH]6)c(-c6c(F)cc(S(=O)(=O)[O-])cc6F)c6nc(c(-c7c(F)cc(S(=O)(=O)[O-])cc7F)c7ccc4[nH]7)C=C6)C=C5)cc3)nn2)C1
REMARK SMILES IDX 22 1 21 2 20 3 19 4 18 5 17 6 15 7 16 8 14 9 12 10 13 11
REMARK SMILES IDX 99 12 98 13 11 14 7 15 8 16 9 17 10 18 100 19 5 20 4 21 3 22
REMARK SMILES IDX 2 23 1 24 6 25 23 29 24 30 25 31 26 32 27 33 28 34 29 35
REMARK SMILES IDX 30 36 31 37 32 38 33 39 97 40 34 41 96 42 35 43 36 44 37 45
REMARK SMILES IDX 90 46 38 47 95 48 89 49 91 50 39 51 94 52 88 53 87 54 40 56
REMARK SMILES IDX 74 57 53 58 73 59 54 60 57 61 72 62 92 63 55 64 56 65 71 67
REMARK SMILES IDX 93 68 58 69 41 70 42 71 51 72 43 73 44 74 50 75 52 76 45 77
REMARK SMILES IDX 46 78 47 79 48 80 49 81 75 82 76 83 85 84 77 85 78 86 84 87
REMARK SMILES IDX 86 88 79 89 80 90 81 91 82 92 83 93 59 94 60 95 69 96 61 97
REMARK SMILES IDX 62 98 68 99 70 100 63 101 64 102 65 103 66 104 67 105
REMARK H PARENT 6 26 6 27 6 28 91 55 57 66
REMARK Flexibility Score: inf
ROOT
ATOM      1  C   UNL A   1      33.710  30.365  26.729  1.00  0.00     0.188 C 
ENDROOT
BRANCH   1   2
ATOM      2  C   UNL A   1      33.124  28.941  26.843  1.00  0.00     0.188 C 
BRANCH   2   3
ATOM      3  O   UNL A   1      32.574  28.256  25.725  1.00  0.00    -0.376 OA
BRANCH   3   4
ATOM      4  C   UNL A   1      33.350  27.798  24.632  1.00  0.00     0.202 C 
BRANCH   4   5
ATOM      5  C   UNL A   1      33.087  28.205  23.174  1.00  0.00     0.261 C 
BRANCH   5   6
ATOM      6  O   UNL A   1      32.158  27.410  22.444  1.00  0.00    -0.458 OA
BRANCH   6   7
ATOM      7  C   UNL A   1      32.638  26.226  21.979  1.00  0.00     0.360 C 
ATOM      8  O   UNL A   1      33.288  26.097  20.941  1.00  0.00    -0.244 OA
BRANCH   7   9
ATOM      9  C   UNL A   1      32.384  25.140  22.907  1.00  0.00     0.190 A 
ATOM     10  N   UNL A   1      32.486  23.375  24.155  1.00  0.00    -0.245 N 
ATOM     11  C   UNL A   1      33.244  24.134  23.312  1.00  0.00     0.147 A 
ATOM     12  N   UNL A   1      31.231  23.837  24.237  1.00  0.00    -0.066 NA
ATOM     13  N   UNL A   1      31.154  24.921  23.479  1.00  0.00    -0.123 NA
BRANCH  10  14
ATOM     14  C   UNL A   1      33.002  22.287  24.918  1.00  0.00     0.148 C 
ATOM     15  C   UNL A   1      34.058  19.097  24.644  1.00  0.00     0.280 C 
ATOM     16  O   UNL A   1      35.264  18.859  24.724  1.00  0.00    -0.268 OA
ATOM     17  N   UNL A   1      33.583  20.371  24.580  1.00  0.00    -0.333 N 
ATOM     18  C   UNL A   1      34.292  21.629  24.407  1.00  0.00     0.149 C 
ATOM     19  C   UNL A   1      32.273  20.981  24.536  1.00  0.00     0.149 C 
BRANCH  15  20
ATOM     20  C   UNL A   1      33.040  17.942  24.508  1.00  0.00     0.273 C 
BRANCH  20  21
ATOM     21  C   UNL A   1      33.458  16.820  25.479  1.00  0.00     0.104 C 
BRANCH  21  22
ATOM     22  C   UNL A   1      33.704  15.458  24.828  1.00  0.00     0.166 C 
BRANCH  22  23
ATOM     23  O   UNL A   1      32.836  14.427  25.288  1.00  0.00    -0.384 OA
ATOM     24  C   UNL A   1      31.881  14.854  26.244  1.00  0.00     0.194 C 
ENDBRANCH  22  23
ENDBRANCH  21  22
ENDBRANCH  20  21
BRANCH  20  25
ATOM     25  N   UNL A   1      32.917  17.501  23.105  1.00  0.00    -0.347 N 
ATOM     26  H   UNL A   1      32.367  16.642  23.065  1.00  0.00     0.345 HD
ATOM     27  H   UNL A   1      33.846  17.327  22.720  1.00  0.00     0.345 HD
ATOM     28  H   UNL A   1      32.453  18.227  22.559  1.00  0.00     0.345 HD
ENDBRANCH  20  25
ENDBRANCH  15  20
ENDBRANCH  10  14
ENDBRANCH   7   9
ENDBRANCH   6   7
ENDBRANCH   5   6
ENDBRANCH   4   5
ENDBRANCH   3   4
ENDBRANCH   2   3
ENDBRANCH   1   2
BRANCH   1  29
ATOM     29  O   UNL A   1      33.477  31.184  27.861  1.00  0.00    -0.377 OA
BRANCH  29  30
ATOM     30  C   UNL A   1      34.227  32.399  27.929  1.00  0.00     0.188 C 
BRANCH  30  31
ATOM     31  C   UNL A   1      33.525  33.698  28.406  1.00  0.00     0.188 C 
BRANCH  31  32
ATOM     32  O   UNL A   1      34.368  34.601  29.108  1.00  0.00    -0.376 OA
BRANCH  32  33
ATOM     33  C   UNL A   1      35.493  34.147  29.841  1.00  0.00     0.202 C 
BRANCH  33  34
ATOM     34  C   UNL A   1      35.416  34.211  31.361  1.00  0.00     0.261 C 
BRANCH  34  35
ATOM     35  O   UNL A   1      36.512  33.608  32.018  1.00  0.00    -0.460 OA
BRANCH  35  36
ATOM     36  C   UNL A   1      36.518  32.266  31.987  1.00  0.00     0.338 C 
ATOM     37  O   UNL A   1      35.807  31.504  32.635  1.00  0.00    -0.246 OA
BRANCH  36  38
ATOM     38  C   UNL A   1      37.625  31.842  31.138  1.00  0.00     0.060 A 
ATOM     39  C   UNL A   1      37.704  30.485  30.833  1.00  0.00     0.016 A 
ATOM     40  C   UNL A   1      38.708  32.721  30.971  1.00  0.00     0.016 A 
ATOM     41  C   UNL A   1      38.948  29.958  30.594  1.00  0.00     0.010 A 
ATOM     42  C   UNL A   1      39.950  32.190  30.757  1.00  0.00     0.010 A 
ATOM     43  C   UNL A   1      40.059  30.808  30.670  1.00  0.00    -0.014 A 
BRANCH  43  44
ATOM     44  C   UNL A   1      41.370  30.219  30.552  1.00  0.00     0.031 A 
ATOM     45  C   UNL A   1      41.991  30.010  31.873  1.00  0.00     0.074 A 
ATOM     46  C   UNL A   1      41.871  29.825  29.366  1.00  0.00     0.049 A 
ATOM     47  N   UNL A   1      42.978  30.661  32.389  1.00  0.00    -0.248 NA
ATOM     48  C   UNL A   1      41.282  29.138  32.828  1.00  0.00     0.031 C 
ATOM     49  C   UNL A   1      41.187  29.754  28.071  1.00  0.00     0.029 A 
ATOM     50  N   UNL A   1      43.091  29.300  29.089  1.00  0.00    -0.354 N 
ATOM     51  C   UNL A   1      43.187  30.067  33.626  1.00  0.00     0.074 A 
ATOM     52  C   UNL A   1      41.986  29.341  33.941  1.00  0.00     0.031 C 
ATOM     53  C   UNL A   1      41.924  29.005  27.218  1.00  0.00     0.029 A 
ATOM     54  C   UNL A   1      43.178  28.653  27.860  1.00  0.00     0.049 A 
ATOM     55  H   UNL A   1      43.853  29.371  29.707  1.00  0.00     0.167 HD
ATOM     56  C   UNL A   1      44.445  29.940  34.125  1.00  0.00     0.037 A 
ATOM     57  C   UNL A   1      44.184  27.828  27.463  1.00  0.00     0.037 A 
ATOM     58  C   UNL A   1      45.351  30.868  33.494  1.00  0.00     0.049 A 
ATOM     59  C   UNL A   1      45.350  28.106  28.348  1.00  0.00     0.074 A 
ATOM     60  C   UNL A   1      45.373  32.242  33.341  1.00  0.00     0.029 A 
ATOM     61  N   UNL A   1      46.217  30.372  32.548  1.00  0.00    -0.354 N 
ATOM     62  N   UNL A   1      46.018  29.226  28.336  1.00  0.00    -0.248 NA
ATOM     63  C   UNL A   1      45.464  27.331  29.575  1.00  0.00     0.031 C 
ATOM     64  C   UNL A   1      45.866  32.462  32.022  1.00  0.00     0.029 A 
ATOM     65  C   UNL A   1      46.194  31.223  31.471  1.00  0.00     0.049 A 
ATOM     66  H   UNL A   1      46.758  29.553  32.629  1.00  0.00     0.167 HD
ATOM     67  C   UNL A   1      46.269  29.509  29.670  1.00  0.00     0.074 A 
ATOM     68  C   UNL A   1      45.974  28.267  30.382  1.00  0.00     0.031 C 
ATOM     69  C   UNL A   1      46.407  30.797  30.105  1.00  0.00     0.037 A 
BRANCH  56  70
ATOM     70  C   UNL A   1      44.906  28.705  34.861  1.00  0.00     0.058 A 
ATOM     71  C   UNL A   1      44.783  27.450  34.240  1.00  0.00     0.135 A 
ATOM     72  C   UNL A   1      45.215  28.675  36.242  1.00  0.00     0.135 A 
ATOM     73  F   UNL A   1      44.461  27.361  32.940  1.00  0.00    -0.206 F 
ATOM     74  C   UNL A   1      44.911  26.255  34.948  1.00  0.00     0.059 A 
ATOM     75  C   UNL A   1      45.408  27.500  36.952  1.00  0.00     0.059 A 
ATOM     76  F   UNL A   1      45.249  29.776  37.002  1.00  0.00    -0.206 F 
ATOM     77  C   UNL A   1      45.219  26.293  36.306  1.00  0.00     0.060 A 
BRANCH  77  78
ATOM     78  S   UNL A   1      45.318  24.760  37.242  1.00  0.00     0.124 S 
ATOM     79  O   UNL A   1      43.912  24.384  37.330  1.00  0.00    -0.237 OA
ATOM     80  O   UNL A   1      46.152  23.935  36.375  1.00  0.00    -0.237 OA
ATOM     81  O   UNL A   1      45.944  25.173  38.495  1.00  0.00    -0.744 OA
ENDBRANCH  77  78
ENDBRANCH  56  70
BRANCH  57  82
ATOM     82  C   UNL A   1      44.098  26.586  26.646  1.00  0.00     0.058 A 
ATOM     83  C   UNL A   1      44.858  26.437  25.470  1.00  0.00     0.135 A 
ATOM     84  C   UNL A   1      43.505  25.411  27.150  1.00  0.00     0.135 A 
ATOM     85  F   UNL A   1      45.474  27.498  24.927  1.00  0.00    -0.206 F 
ATOM     86  C   UNL A   1      45.070  25.191  24.868  1.00  0.00     0.059 A 
ATOM     87  C   UNL A   1      43.694  24.160  26.561  1.00  0.00     0.059 A 
ATOM     88  F   UNL A   1      42.802  25.423  28.292  1.00  0.00    -0.206 F 
ATOM     89  C   UNL A   1      44.502  24.052  25.437  1.00  0.00     0.060 A 
BRANCH  89  90
ATOM     90  S   UNL A   1      44.928  22.420  24.782  1.00  0.00     0.124 S 
ATOM     91  O   UNL A   1      46.357  22.560  24.526  1.00  0.00    -0.237 OA
ATOM     92  O   UNL A   1      44.561  21.539  25.886  1.00  0.00    -0.237 OA
ATOM     93  O   UNL A   1      44.089  22.304  23.592  1.00  0.00    -0.744 OA
ENDBRANCH  89  90
ENDBRANCH  57  82
BRANCH  69  94
ATOM     94  C   UNL A   1      46.610  31.876  29.069  1.00  0.00     0.058 A 
ATOM     95  C   UNL A   1      45.580  32.518  28.355  1.00  0.00     0.135 A 
ATOM     96  C   UNL A   1      47.914  32.352  28.868  1.00  0.00     0.135 A 
ATOM     97  F   UNL A   1      44.293  32.210  28.572  1.00  0.00    -0.206 F 
ATOM     98  C   UNL A   1      45.846  33.534  27.433  1.00  0.00     0.059 A 
ATOM     99  C   UNL A   1      48.199  33.386  27.984  1.00  0.00     0.059 A 
ATOM    100  F   UNL A   1      48.936  31.829  29.567  1.00  0.00    -0.206 F 
ATOM    101  C   UNL A   1      47.162  33.956  27.249  1.00  0.00     0.060 A 
BRANCH 101 102
ATOM    102  S   UNL A   1      47.512  35.280  26.072  1.00  0.00     0.124 S 
ATOM    103  O   UNL A   1      46.247  36.004  26.039  1.00  0.00    -0.237 OA
ATOM    104  O   UNL A   1      48.628  35.979  26.703  1.00  0.00    -0.237 OA
ATOM    105  O   UNL A   1      47.854  34.564  24.844  1.00  0.00    -0.744 OA
ENDBRANCH 101 102
ENDBRANCH  69  94
ENDBRANCH  43  44
ENDBRANCH  36  38
ENDBRANCH  35  36
ENDBRANCH  34  35
ENDBRANCH  33  34
ENDBRANCH  32  33
ENDBRANCH  31  32
ENDBRANCH  30  31
ENDBRANCH  29  30
ENDBRANCH   1  29
TORSDOF 29
ENDMDL
MODEL 3
REMARK VINA RESULT:      -7.8      6.373     10.758
REMARK SMILES COCC[C@H]([NH3+])C(=O)N1CC(n2cc(C(=O)OCCOCCOCCOCCOC(=O)c3ccc(-c4c5nc(c(-c6c(F)cc(S(=O)(=O)[O-])cc6F)c6ccc([nH]6)c(-c6c(F)cc(S(=O)(=O)[O-])cc6F)c6nc(c(-c7c(F)cc(S(=O)(=O)[O-])cc7F)c7ccc4[nH]7)C=C6)C=C5)cc3)nn2)C1
REMARK SMILES IDX 22 1 21 2 20 3 19 4 18 5 17 6 15 7 16 8 14 9 12 10 13 11
REMARK SMILES IDX 99 12 98 13 11 14 7 15 8 16 9 17 10 18 100 19 5 20 4 21 3 22
REMARK SMILES IDX 2 23 1 24 6 25 23 29 24 30 25 31 26 32 27 33 28 34 29 35
REMARK SMILES IDX 30 36 31 37 32 38 33 39 97 40 34 41 96 42 35 43 36 44 37 45
REMARK SMILES IDX 90 46 38 47 95 48 89 49 91 50 39 51 94 52 88 53 87 54 40 56
REMARK SMILES IDX 74 57 53 58 73 59 54 60 57 61 72 62 92 63 55 64 56 65 71 67
REMARK SMILES IDX 93 68 58 69 41 70 42 71 51 72 43 73 44 74 50 75 52 76 45 77
REMARK SMILES IDX 46 78 47 79 48 80 49 81 75 82 76 83 85 84 77 85 78 86 84 87
REMARK SMILES IDX 86 88 79 89 80 90 81 91 82 92 83 93 59 94 60 95 69 96 61 97
REMARK SMILES IDX 62 98 68 99 70 100 63 101 64 102 65 103 66 104 67 105
REMARK H PARENT 6 26 6 27 6 28 91 55 57 66
REMARK Flexibility Score: inf
ROOT
ATOM      1  C   UNL A   1      33.721  30.343  26.998  1.00  0.00     0.188 C 
ENDROOT
BRANCH   1   2
ATOM      2  C   UNL A   1      33.361  28.883  27.353  1.00  0.00     0.188 C 
BRANCH   2   3
ATOM      3  O   UNL A   1      32.345  28.164  26.665  1.00  0.00    -0.376 OA
BRANCH   3   4
ATOM      4  C   UNL A   1      32.300  28.032  25.256  1.00  0.00     0.202 C 
BRANCH   4   5
ATOM      5  C   UNL A   1      31.121  28.509  24.395  1.00  0.00     0.261 C 
BRANCH   5   6
ATOM      6  O   UNL A   1      30.292  27.499  23.828  1.00  0.00    -0.458 OA
BRANCH   6   7
ATOM      7  C   UNL A   1      30.752  26.939  22.678  1.00  0.00     0.360 C 
ATOM      8  O   UNL A   1      30.827  27.529  21.599  1.00  0.00    -0.244 OA
BRANCH   7   9
ATOM      9  C   UNL A   1      31.244  25.592  22.892  1.00  0.00     0.190 A 
ATOM     10  N   UNL A   1      32.401  23.765  22.971  1.00  0.00    -0.245 N 
ATOM     11  C   UNL A   1      32.494  25.074  22.600  1.00  0.00     0.147 A 
ATOM     12  N   UNL A   1      31.173  23.467  23.418  1.00  0.00    -0.066 NA
ATOM     13  N   UNL A   1      30.452  24.579  23.378  1.00  0.00    -0.123 NA
BRANCH  10  14
ATOM     14  C   UNL A   1      33.505  22.863  22.969  1.00  0.00     0.148 C 
ATOM     15  C   UNL A   1      36.020  21.719  24.900  1.00  0.00     0.280 C 
ATOM     16  O   UNL A   1      35.945  20.580  25.366  1.00  0.00    -0.268 OA
ATOM     17  N   UNL A   1      34.971  22.298  24.255  1.00  0.00    -0.333 N 
ATOM     18  C   UNL A   1      33.588  21.864  24.133  1.00  0.00     0.149 C 
ATOM     19  C   UNL A   1      34.750  23.551  23.568  1.00  0.00     0.149 C 
BRANCH  15  20
ATOM     20  C   UNL A   1      37.287  22.574  25.127  1.00  0.00     0.273 C 
BRANCH  20  21
ATOM     21  C   UNL A   1      38.481  21.618  25.323  1.00  0.00     0.104 C 
BRANCH  21  22
ATOM     22  C   UNL A   1      39.312  21.867  26.581  1.00  0.00     0.166 C 
BRANCH  22  23
ATOM     23  O   UNL A   1      40.325  22.856  26.425  1.00  0.00    -0.384 OA
ATOM     24  C   UNL A   1      41.585  22.340  26.031  1.00  0.00     0.194 C 
ENDBRANCH  22  23
ENDBRANCH  21  22
ENDBRANCH  20  21
BRANCH  20  25
ATOM     25  N   UNL A   1      37.098  23.526  26.238  1.00  0.00    -0.347 N 
ATOM     26  H   UNL A   1      36.440  24.253  25.956  1.00  0.00     0.345 HD
ATOM     27  H   UNL A   1      37.994  23.953  26.475  1.00  0.00     0.345 HD
ATOM     28  H   UNL A   1      36.731  23.032  27.051  1.00  0.00     0.345 HD
ENDBRANCH  20  25
ENDBRANCH  15  20
ENDBRANCH  10  14
ENDBRANCH   7   9
ENDBRANCH   6   7
ENDBRANCH   5   6
ENDBRANCH   4   5
ENDBRANCH   3   4
ENDBRANCH   2   3
ENDBRANCH   1   2
BRANCH   1  29
ATOM     29  O   UNL A   1      33.573  31.257  28.070  1.00  0.00    -0.377 OA
BRANCH  29  30
ATOM     30  C   UNL A   1      34.221  32.522  27.917  1.00  0.00     0.188 C 
BRANCH  30  31
ATOM     31  C   UNL A   1      33.373  33.820  27.972  1.00  0.00     0.188 C 
BRANCH  31  32
ATOM     32  O   UNL A   1      33.960  34.878  28.717  1.00  0.00    -0.376 OA
BRANCH  32  33
ATOM     33  C   UNL A   1      34.508  34.662  30.005  1.00  0.00     0.202 C 
BRANCH  33  34
ATOM     34  C   UNL A   1      33.731  35.199  31.200  1.00  0.00     0.261 C 
BRANCH  34  35
ATOM     35  O   UNL A   1      34.430  35.114  32.426  1.00  0.00    -0.460 OA
BRANCH  35  36
ATOM     36  C   UNL A   1      34.548  33.873  32.922  1.00  0.00     0.338 C 
ATOM     37  O   UNL A   1      33.640  33.104  33.226  1.00  0.00    -0.246 OA
BRANCH  36  38
ATOM     38  C   UNL A   1      35.961  33.624  33.178  1.00  0.00     0.060 A 
ATOM     39  C   UNL A   1      36.298  32.384  33.717  1.00  0.00     0.016 A 
ATOM     40  C   UNL A   1      36.835  34.724  33.202  1.00  0.00     0.016 A 
ATOM     41  C   UNL A   1      37.420  32.317  34.505  1.00  0.00     0.010 A 
ATOM     42  C   UNL A   1      37.938  34.661  34.009  1.00  0.00     0.010 A 
ATOM     43  C   UNL A   1      38.155  33.488  34.721  1.00  0.00    -0.014 A 
BRANCH  43  44
ATOM     44  C   UNL A   1      39.251  33.436  35.658  1.00  0.00     0.031 A 
ATOM     45  C   UNL A   1      38.785  33.606  37.047  1.00  0.00     0.074 A 
ATOM     46  C   UNL A   1      40.508  33.152  35.269  1.00  0.00     0.049 A 
ATOM     47  N   UNL A   1      38.955  34.629  37.812  1.00  0.00    -0.248 NA
ATOM     48  C   UNL A   1      37.813  32.623  37.563  1.00  0.00     0.031 C 
ATOM     49  C   UNL A   1      40.971  32.704  33.952  1.00  0.00     0.029 A 
ATOM     50  N   UNL A   1      41.641  33.108  36.015  1.00  0.00    -0.354 N 
ATOM     51  C   UNL A   1      38.349  34.280  39.012  1.00  0.00     0.074 A 
ATOM     52  C   UNL A   1      37.464  33.185  38.720  1.00  0.00     0.031 C 
ATOM     53  C   UNL A   1      42.229  32.216  34.065  1.00  0.00     0.029 A 
ATOM     54  C   UNL A   1      42.701  32.431  35.421  1.00  0.00     0.049 A 
ATOM     55  H   UNL A   1      41.708  33.523  36.905  1.00  0.00     0.167 HD
ATOM     56  C   UNL A   1      38.878  34.691  40.195  1.00  0.00     0.037 A 
ATOM     57  C   UNL A   1      43.835  32.018  36.049  1.00  0.00     0.037 A 
ATOM     58  C   UNL A   1      39.743  35.830  40.012  1.00  0.00     0.049 A 
ATOM     59  C   UNL A   1      43.944  32.802  37.311  1.00  0.00     0.074 A 
ATOM     60  C   UNL A   1      39.578  37.087  39.460  1.00  0.00     0.029 A 
ATOM     61  N   UNL A   1      41.100  35.615  40.054  1.00  0.00    -0.354 N 
ATOM     62  N   UNL A   1      44.172  34.086  37.349  1.00  0.00    -0.248 NA
ATOM     63  C   UNL A   1      43.319  32.249  38.504  1.00  0.00     0.031 C 
ATOM     64  C   UNL A   1      40.796  37.352  38.769  1.00  0.00     0.029 A 
ATOM     65  C   UNL A   1      41.666  36.286  39.000  1.00  0.00     0.049 A 
ATOM     66  H   UNL A   1      41.580  35.076  40.724  1.00  0.00     0.167 HD
ATOM     67  C   UNL A   1      43.343  34.568  38.351  1.00  0.00     0.074 A 
ATOM     68  C   UNL A   1      42.901  33.380  39.079  1.00  0.00     0.031 C 
ATOM     69  C   UNL A   1      42.862  35.846  38.315  1.00  0.00     0.037 A 
BRANCH  56  70
ATOM     70  C   UNL A   1      38.929  33.801  41.413  1.00  0.00     0.058 A 
ATOM     71  C   UNL A   1      39.639  32.589  41.348  1.00  0.00     0.135 A 
ATOM     72  C   UNL A   1      38.097  33.961  42.547  1.00  0.00     0.135 A 
ATOM     73  F   UNL A   1      40.433  32.319  40.300  1.00  0.00    -0.206 F 
ATOM     74  C   UNL A   1      39.496  31.592  42.314  1.00  0.00     0.059 A 
ATOM     75  C   UNL A   1      37.989  33.010  43.550  1.00  0.00     0.059 A 
ATOM     76  F   UNL A   1      37.269  35.001  42.698  1.00  0.00    -0.206 F 
ATOM     77  C   UNL A   1      38.664  31.812  43.409  1.00  0.00     0.060 A 
BRANCH  77  78
ATOM     78  S   UNL A   1      38.420  30.507  44.621  1.00  0.00     0.124 S 
ATOM     79  O   UNL A   1      39.649  29.737  44.469  1.00  0.00    -0.237 OA
ATOM     80  O   UNL A   1      38.288  31.270  45.858  1.00  0.00    -0.237 OA
ATOM     81  O   UNL A   1      37.199  29.849  44.165  1.00  0.00    -0.744 OA
ENDBRANCH  77  78
ENDBRANCH  56  70
BRANCH  57  82
ATOM     82  C   UNL A   1      44.611  30.766  35.833  1.00  0.00     0.058 A 
ATOM     83  C   UNL A   1      45.988  30.807  35.540  1.00  0.00     0.135 A 
ATOM     84  C   UNL A   1      44.097  29.506  36.201  1.00  0.00     0.135 A 
ATOM     85  F   UNL A   1      46.569  31.967  35.197  1.00  0.00    -0.206 F 
ATOM     86  C   UNL A   1      46.815  29.684  35.665  1.00  0.00     0.059 A 
ATOM     87  C   UNL A   1      44.899  28.372  36.322  1.00  0.00     0.059 A 
ATOM     88  F   UNL A   1      42.811  29.358  36.553  1.00  0.00    -0.206 F 
ATOM     89  C   UNL A   1      46.264  28.473  36.082  1.00  0.00     0.060 A 
BRANCH  89  90
ATOM     90  S   UNL A   1      47.352  27.071  36.433  1.00  0.00     0.124 S 
ATOM     91  O   UNL A   1      48.023  26.881  35.152  1.00  0.00    -0.237 OA
ATOM     92  O   UNL A   1      48.180  27.587  37.518  1.00  0.00    -0.237 OA
ATOM     93  O   UNL A   1      46.422  26.010  36.814  1.00  0.00    -0.744 OA
ENDBRANCH  89  90
ENDBRANCH  57  82
BRANCH  69  94
ATOM     94  C   UNL A   1      43.503  36.817  37.354  1.00  0.00     0.058 A 
ATOM     95  C   UNL A   1      43.133  36.990  36.007  1.00  0.00     0.135 A 
ATOM     96  C   UNL A   1      44.478  37.690  37.861  1.00  0.00     0.135 A 
ATOM     97  F   UNL A   1      42.129  36.281  35.470  1.00  0.00    -0.206 F 
ATOM     98  C   UNL A   1      43.755  37.936  35.187  1.00  0.00     0.059 A 
ATOM     99  C   UNL A   1      45.084  38.664  37.075  1.00  0.00     0.059 A 
ATOM    100  F   UNL A   1      44.830  37.625  39.156  1.00  0.00    -0.206 F 
ATOM    101  C   UNL A   1      44.736  38.764  35.731  1.00  0.00     0.060 A 
BRANCH 101 102
ATOM    102  S   UNL A   1      45.533  40.000  34.682  1.00  0.00     0.124 S 
ATOM    103  O   UNL A   1      45.455  39.381  33.364  1.00  0.00    -0.237 OA
ATOM    104  O   UNL A   1      44.690  41.176  34.882  1.00  0.00    -0.237 OA
ATOM    105  O   UNL A   1      46.878  40.108  35.243  1.00  0.00    -0.744 OA
ENDBRANCH 101 102
ENDBRANCH  69  94
ENDBRANCH  43  44
ENDBRANCH  36  38
ENDBRANCH  35  36
ENDBRANCH  34  35
ENDBRANCH  33  34
ENDBRANCH  32  33
ENDBRANCH  31  32
ENDBRANCH  30  31
ENDBRANCH  29  30
ENDBRANCH   1  29
TORSDOF 29
ENDMDL
