MODEL 1
REMARK VINA RESULT:     -10.3      0.000      0.000
REMARK SMILES COc1ccc(NC(=O)N[C@@H]2C=C[C@H](C(=O)OCCOCCOCCOCCOC(=O)c3ccc(-c4c5nc(c(-c6c(F)cc(S(=O)(=O)[O-])cc6F)c6ccc([nH]6)c(-c6c(F)cc(S(=O)(=O)[O-])cc6F)c6nc(c(-c7c(F)cc(S(=O)(=O)[O-])cc7F)c7ccc4[nH]7)C=C6)C=C5)cc3)C2)c(C)c1
REMARK SMILES IDX 23 1 22 2 21 3 20 4 19 5 18 6 17 7 15 8 16 9 14 10 11 11
REMARK SMILES IDX 12 12 98 13 13 14 10 15 7 16 8 17 9 19 6 21 3 22 4 23 101 24
REMARK SMILES IDX 5 25 99 26 100 27 2 28 1 29 24 30 25 31 26 32 27 33 28 34
REMARK SMILES IDX 29 35 30 36 31 37 32 38 33 39 97 40 34 41 96 42 35 43 36 44
REMARK SMILES IDX 37 45 90 46 38 47 95 48 89 49 91 50 39 51 94 52 88 53 87 54
REMARK SMILES IDX 40 56 74 57 53 58 73 59 54 60 57 61 72 62 92 63 55 64 56 65
REMARK SMILES IDX 71 67 93 68 58 69 41 70 42 71 51 72 43 73 44 74 50 75 52 76
REMARK SMILES IDX 45 77 46 78 47 79 48 80 49 81 75 82 76 83 85 84 77 85 78 86
REMARK SMILES IDX 84 87 86 88 79 89 80 90 81 91 82 92 83 93 59 94 60 95 69 96
REMARK SMILES IDX 61 97 62 98 68 99 70 100 63 101 64 102 65 103 66 104 67 105
REMARK H PARENT 7 18 10 20 91 55 57 66
REMARK Flexibility Score: inf
ROOT
ATOM      1  O   UNL A   1      43.082  25.093  24.860  1.00  0.00    -0.377 OA
ENDROOT
BRANCH   1   2
ATOM      2  C   UNL A   1      42.256  25.189  25.991  1.00  0.00     0.188 C 
BRANCH   2   3
ATOM      3  C   UNL A   1      41.804  26.573  26.529  1.00  0.00     0.188 C 
BRANCH   3   4
ATOM      4  O   UNL A   1      40.511  26.656  27.043  1.00  0.00    -0.376 OA
BRANCH   4   5
ATOM      5  C   UNL A   1      39.815  25.685  27.813  1.00  0.00     0.202 C 
BRANCH   5   6
ATOM      6  C   UNL A   1      38.974  24.428  27.449  1.00  0.00     0.261 C 
BRANCH   6   7
ATOM      7  O   UNL A   1      38.605  24.318  26.118  1.00  0.00    -0.463 OA
BRANCH   7   8
ATOM      8  C   UNL A   1      38.042  23.110  25.976  1.00  0.00     0.312 C 
ATOM      9  O   UNL A   1      38.485  22.045  26.393  1.00  0.00    -0.252 OA
BRANCH   8  10
ATOM     10  C   UNL A   1      36.768  23.303  25.242  1.00  0.00     0.124 C 
ATOM     11  C   UNL A   1      35.039  21.625  25.491  1.00  0.00     0.107 C 
ATOM     12  C   UNL A   1      36.155  21.185  24.599  1.00  0.00    -0.006 C 
ATOM     13  C   UNL A   1      35.563  22.909  26.140  1.00  0.00     0.048 C 
ATOM     14  C   UNL A   1      36.926  22.210  24.248  1.00  0.00    -0.014 C 
BRANCH  11  15
ATOM     15  N   UNL A   1      34.393  20.431  25.889  1.00  0.00    -0.332 N 
ATOM     16  N   UNL A   1      32.316  20.589  24.639  1.00  0.00    -0.308 N 
ATOM     17  C   UNL A   1      33.211  19.943  25.445  1.00  0.00     0.319 C 
ATOM     18  H   UNL A   1      31.506  20.049  24.494  1.00  0.00     0.171 HD
ATOM     19  O   UNL A   1      32.919  18.799  25.818  1.00  0.00    -0.248 OA
ATOM     20  H   UNL A   1      34.858  19.893  26.570  1.00  0.00     0.165 HD
BRANCH  16  21
ATOM     21  C   UNL A   1      32.237  21.833  23.952  1.00  0.00     0.046 A 
ATOM     22  C   UNL A   1      32.701  24.203  22.452  1.00  0.00     0.119 A 
ATOM     23  C   UNL A   1      33.071  22.981  22.001  1.00  0.00     0.048 A 
ATOM     24  C   UNL A   1      31.972  24.227  23.659  1.00  0.00     0.052 A 
ATOM     25  C   UNL A   1      32.440  21.936  22.618  1.00  0.00     0.030 A 
ATOM     26  C   UNL A   1      31.763  23.030  24.441  1.00  0.00    -0.024 A 
ATOM     27  C   UNL A   1      30.777  23.020  25.568  1.00  0.00     0.047 C 
BRANCH  22  28
ATOM     28  O   UNL A   1      32.863  25.322  21.677  1.00  0.00    -0.497 OA
ATOM     29  C   UNL A   1      31.793  26.290  21.789  1.00  0.00     0.278 C 
ENDBRANCH  22  28
ENDBRANCH  16  21
ENDBRANCH  11  15
ENDBRANCH   8  10
ENDBRANCH   7   8
ENDBRANCH   6   7
ENDBRANCH   5   6
ENDBRANCH   4   5
ENDBRANCH   3   4
ENDBRANCH   2   3
ENDBRANCH   1   2
BRANCH   1  30
ATOM     30  C   UNL A   1      44.331  24.469  25.065  1.00  0.00     0.188 C 
BRANCH  30  31
ATOM     31  C   UNL A   1      45.505  25.485  25.402  1.00  0.00     0.188 C 
BRANCH  31  32
ATOM     32  O   UNL A   1      46.771  25.149  24.760  1.00  0.00    -0.376 OA
BRANCH  32  33
ATOM     33  C   UNL A   1      47.938  25.994  24.404  1.00  0.00     0.202 C 
BRANCH  33  34
ATOM     34  C   UNL A   1      48.218  27.827  24.826  1.00  0.00     0.261 C 
BRANCH  34  35
ATOM     35  O   UNL A   1      47.191  29.052  25.719  1.00  0.00    -0.460 OA
BRANCH  35  36
ATOM     36  C   UNL A   1      46.818  30.040  26.967  1.00  0.00     0.338 C 
ATOM     37  O   UNL A   1      47.150  31.218  26.781  1.00  0.00    -0.246 OA
BRANCH  36  38
ATOM     38  C   UNL A   1      46.357  29.614  28.704  1.00  0.00     0.060 A 
ATOM     39  C   UNL A   1      45.740  28.387  28.982  1.00  0.00     0.016 A 
ATOM     40  C   UNL A   1      46.310  30.413  29.907  1.00  0.00     0.016 A 
ATOM     41  C   UNL A   1      44.808  28.217  30.101  1.00  0.00     0.010 A 
ATOM     42  C   UNL A   1      45.389  30.280  31.003  1.00  0.00     0.010 A 
ATOM     43  C   UNL A   1      44.488  29.239  31.047  1.00  0.00    -0.014 A 
BRANCH  43  44
ATOM     44  C   UNL A   1      43.079  29.510  31.621  1.00  0.00     0.031 A 
ATOM     45  C   UNL A   1      41.935  30.370  31.121  1.00  0.00     0.074 A 
ATOM     46  C   UNL A   1      42.772  28.674  32.635  1.00  0.00     0.049 A 
ATOM     47  N   UNL A   1      41.266  31.233  31.857  1.00  0.00    -0.248 NA
ATOM     48  C   UNL A   1      41.405  30.285  29.766  1.00  0.00     0.031 C 
ATOM     49  C   UNL A   1      41.594  28.018  33.136  1.00  0.00     0.029 A 
ATOM     50  N   UNL A   1      43.703  28.125  33.459  1.00  0.00    -0.354 N 
ATOM     51  C   UNL A   1      40.102  31.628  31.158  1.00  0.00     0.074 A 
ATOM     52  C   UNL A   1      40.308  31.060  29.833  1.00  0.00     0.031 C 
ATOM     53  C   UNL A   1      41.756  27.311  34.242  1.00  0.00     0.029 A 
ATOM     54  C   UNL A   1      43.087  27.598  34.569  1.00  0.00     0.049 A 
ATOM     55  H   UNL A   1      44.671  28.110  33.287  1.00  0.00     0.167 HD
ATOM     56  C   UNL A   1      38.968  32.194  31.752  1.00  0.00     0.037 A 
ATOM     57  C   UNL A   1      43.568  27.121  35.707  1.00  0.00     0.037 A 
ATOM     58  C   UNL A   1      38.964  32.095  33.266  1.00  0.00     0.049 A 
ATOM     59  C   UNL A   1      43.143  28.664  36.252  1.00  0.00     0.074 A 
ATOM     60  C   UNL A   1      37.990  31.765  34.211  1.00  0.00     0.029 A 
ATOM     61  N   UNL A   1      40.163  32.020  34.008  1.00  0.00    -0.354 N 
ATOM     62  N   UNL A   1      42.027  29.365  35.924  1.00  0.00    -0.248 NA
ATOM     63  C   UNL A   1      43.863  29.421  37.278  1.00  0.00     0.031 C 
ATOM     64  C   UNL A   1      38.592  31.539  35.482  1.00  0.00     0.029 A 
ATOM     65  C   UNL A   1      39.969  31.578  35.321  1.00  0.00     0.049 A 
ATOM     66  H   UNL A   1      41.045  32.256  33.640  1.00  0.00     0.167 HD
ATOM     67  C   UNL A   1      41.972  30.627  36.523  1.00  0.00     0.074 A 
ATOM     68  C   UNL A   1      43.141  30.561  37.397  1.00  0.00     0.031 C 
ATOM     69  C   UNL A   1      41.046  31.659  36.319  1.00  0.00     0.037 A 
BRANCH  56  70
ATOM     70  C   UNL A   1      37.636  32.616  30.960  1.00  0.00     0.058 A 
ATOM     71  C   UNL A   1      37.581  33.665  29.993  1.00  0.00     0.135 A 
ATOM     72  C   UNL A   1      36.386  31.955  31.055  1.00  0.00     0.135 A 
ATOM     73  F   UNL A   1      38.680  34.244  29.507  1.00  0.00    -0.206 F 
ATOM     74  C   UNL A   1      36.416  34.117  29.342  1.00  0.00     0.059 A 
ATOM     75  C   UNL A   1      35.197  32.374  30.397  1.00  0.00     0.059 A 
ATOM     76  F   UNL A   1      36.271  30.789  31.703  1.00  0.00    -0.206 F 
ATOM     77  C   UNL A   1      35.215  33.472  29.551  1.00  0.00     0.060 A 
BRANCH  77  78
ATOM     78  S   UNL A   1      33.777  33.967  28.565  1.00  0.00     0.124 S 
ATOM     79  O   UNL A   1      34.362  34.896  27.601  1.00  0.00    -0.237 OA
ATOM     80  O   UNL A   1      33.319  32.695  28.012  1.00  0.00    -0.237 OA
ATOM     81  O   UNL A   1      32.880  34.572  29.546  1.00  0.00    -0.744 OA
ENDBRANCH  77  78
ENDBRANCH  56  70
BRANCH  57  82
ATOM     82  C   UNL A   1      44.475  26.082  34.890  1.00  0.00     0.058 A 
ATOM     83  C   UNL A   1      43.787  24.970  34.300  1.00  0.00     0.135 A 
ATOM     84  C   UNL A   1      45.562  26.317  34.088  1.00  0.00     0.135 A 
ATOM     85  F   UNL A   1      42.887  24.314  35.063  1.00  0.00    -0.206 F 
ATOM     86  C   UNL A   1      43.832  24.549  32.856  1.00  0.00     0.059 A 
ATOM     87  C   UNL A   1      45.682  25.757  32.708  1.00  0.00     0.059 A 
ATOM     88  F   UNL A   1      46.477  27.233  34.450  1.00  0.00    -0.206 F 
ATOM     89  C   UNL A   1      44.720  25.034  31.843  1.00  0.00     0.060 A 
BRANCH  89  90
ATOM     90  S   UNL A   1      44.908  24.369  29.614  1.00  0.00     0.124 S 
ATOM     91  O   UNL A   1      46.177  24.786  28.990  1.00  0.00    -0.237 OA
ATOM     92  O   UNL A   1      44.675  22.975  29.612  1.00  0.00    -0.237 OA
ATOM     93  O   UNL A   1      43.933  25.018  28.730  1.00  0.00    -0.744 OA
ENDBRANCH  89  90
ENDBRANCH  57  82
BRANCH  69  94
ATOM     94  C   UNL A   1      40.949  33.013  37.077  1.00  0.00     0.058 A 
ATOM     95  C   UNL A   1      40.178  33.234  38.222  1.00  0.00     0.135 A 
ATOM     96  C   UNL A   1      41.535  34.209  36.536  1.00  0.00     0.135 A 
ATOM     97  F   UNL A   1      39.389  32.270  38.716  1.00  0.00    -0.206 F 
ATOM     98  C   UNL A   1      40.148  34.478  38.877  1.00  0.00     0.059 A 
ATOM     99  C   UNL A   1      41.456  35.463  37.125  1.00  0.00     0.059 A 
ATOM    100  F   UNL A   1      42.226  34.230  35.390  1.00  0.00    -0.206 F 
ATOM    101  C   UNL A   1      40.821  35.575  38.339  1.00  0.00     0.060 A 
BRANCH 101 102
ATOM    102  S   UNL A   1      40.903  37.136  39.230  1.00  0.00     0.124 S 
ATOM    103  O   UNL A   1      39.653  37.783  38.845  1.00  0.00    -0.237 OA
ATOM    104  O   UNL A   1      40.978  36.671  40.612  1.00  0.00    -0.237 OA
ATOM    105  O   UNL A   1      42.114  37.769  38.717  1.00  0.00    -0.744 OA
ENDBRANCH 101 102
ENDBRANCH  69  94
ENDBRANCH  43  44
ENDBRANCH  36  38
ENDBRANCH  35  36
ENDBRANCH  34  35
ENDBRANCH  33  34
ENDBRANCH  32  33
ENDBRANCH  31  32
ENDBRANCH  30  31
ENDBRANCH   1  30
TORSDOF 26
ENDMDL
MODEL 2
REMARK VINA RESULT:     -10.3      5.254     11.580
REMARK SMILES COc1ccc(NC(=O)N[C@@H]2C=C[C@H](C(=O)OCCOCCOCCOCCOC(=O)c3ccc(-c4c5nc(c(-c6c(F)cc(S(=O)(=O)[O-])cc6F)c6ccc([nH]6)c(-c6c(F)cc(S(=O)(=O)[O-])cc6F)c6nc(c(-c7c(F)cc(S(=O)(=O)[O-])cc7F)c7ccc4[nH]7)C=C6)C=C5)cc3)C2)c(C)c1
REMARK SMILES IDX 23 1 22 2 21 3 20 4 19 5 18 6 17 7 15 8 16 9 14 10 11 11
REMARK SMILES IDX 12 12 98 13 13 14 10 15 7 16 8 17 9 19 6 21 3 22 4 23 101 24
REMARK SMILES IDX 5 25 99 26 100 27 2 28 1 29 24 30 25 31 26 32 27 33 28 34
REMARK SMILES IDX 29 35 30 36 31 37 32 38 33 39 97 40 34 41 96 42 35 43 36 44
REMARK SMILES IDX 37 45 90 46 38 47 95 48 89 49 91 50 39 51 94 52 88 53 87 54
REMARK SMILES IDX 40 56 74 57 53 58 73 59 54 60 57 61 72 62 92 63 55 64 56 65
REMARK SMILES IDX 71 67 93 68 58 69 41 70 42 71 51 72 43 73 44 74 50 75 52 76
REMARK SMILES IDX 45 77 46 78 47 79 48 80 49 81 75 82 76 83 85 84 77 85 78 86
REMARK SMILES IDX 84 87 86 88 79 89 80 90 81 91 82 92 83 93 59 94 60 95 69 96
REMARK SMILES IDX 61 97 62 98 68 99 70 100 63 101 64 102 65 103 66 104 67 105
REMARK H PARENT 7 18 10 20 91 55 57 66
REMARK Flexibility Score: inf
ROOT
ATOM      1  O   UNL A   1      35.335  32.478  27.616  1.00  0.00    -0.377 OA
ENDROOT
BRANCH   1   2
ATOM      2  C   UNL A   1      34.119  31.822  27.864  1.00  0.00     0.188 C 
BRANCH   2   3
ATOM      3  C   UNL A   1      33.687  30.600  27.009  1.00  0.00     0.188 C 
BRANCH   3   4
ATOM      4  O   UNL A   1      32.348  30.545  26.624  1.00  0.00    -0.376 OA
BRANCH   4   5
ATOM      5  C   UNL A   1      31.699  29.531  25.869  1.00  0.00     0.202 C 
BRANCH   5   6
ATOM      6  C   UNL A   1      31.786  29.078  24.384  1.00  0.00     0.261 C 
BRANCH   6   7
ATOM      7  O   UNL A   1      31.986  27.723  24.179  1.00  0.00    -0.463 OA
BRANCH   7   8
ATOM      8  C   UNL A   1      33.280  27.569  23.869  1.00  0.00     0.312 C 
ATOM      9  O   UNL A   1      34.087  28.464  23.638  1.00  0.00    -0.252 OA
BRANCH   8  10
ATOM     10  C   UNL A   1      33.567  26.114  23.884  1.00  0.00     0.124 C 
ATOM     11  C   UNL A   1      32.073  24.666  25.124  1.00  0.00     0.107 C 
ATOM     12  C   UNL A   1      32.998  25.443  26.005  1.00  0.00    -0.006 C 
ATOM     13  C   UNL A   1      32.250  25.302  23.743  1.00  0.00     0.048 C 
ATOM     14  C   UNL A   1      33.985  25.993  25.304  1.00  0.00    -0.014 C 
BRANCH  11  15
ATOM     15  N   UNL A   1      31.014  24.259  25.969  1.00  0.00    -0.332 N 
ATOM     16  N   UNL A   1      31.891  22.166  26.835  1.00  0.00    -0.308 N 
ATOM     17  C   UNL A   1      30.975  23.179  26.785  1.00  0.00     0.319 C 
ATOM     18  H   UNL A   1      31.620  21.467  27.473  1.00  0.00     0.171 HD
ATOM     19  O   UNL A   1      30.007  23.111  27.552  1.00  0.00    -0.248 OA
ATOM     20  H   UNL A   1      30.210  24.828  25.962  1.00  0.00     0.165 HD
BRANCH  16  21
ATOM     21  C   UNL A   1      33.131  21.846  26.215  1.00  0.00     0.046 A 
ATOM     22  C   UNL A   1      35.750  21.821  25.109  1.00  0.00     0.119 A 
ATOM     23  C   UNL A   1      35.496  22.306  26.348  1.00  0.00     0.048 A 
ATOM     24  C   UNL A   1      34.662  21.226  24.437  1.00  0.00     0.052 A 
ATOM     25  C   UNL A   1      34.307  21.892  26.882  1.00  0.00     0.030 A 
ATOM     26  C   UNL A   1      33.324  21.266  24.980  1.00  0.00    -0.024 A 
ATOM     27  C   UNL A   1      32.240  20.414  24.396  1.00  0.00     0.047 C 
BRANCH  22  28
ATOM     28  O   UNL A   1      37.031  21.746  24.629  1.00  0.00    -0.497 OA
ATOM     29  C   UNL A   1      37.718  20.511  24.940  1.00  0.00     0.278 C 
ENDBRANCH  22  28
ENDBRANCH  16  21
ENDBRANCH  11  15
ENDBRANCH   8  10
ENDBRANCH   7   8
ENDBRANCH   6   7
ENDBRANCH   5   6
ENDBRANCH   4   5
ENDBRANCH   3   4
ENDBRANCH   2   3
ENDBRANCH   1   2
BRANCH   1  30
ATOM     30  C   UNL A   1      36.410  32.111  28.454  1.00  0.00     0.188 C 
BRANCH  30  31
ATOM     31  C   UNL A   1      35.958  31.363  29.781  1.00  0.00     0.188 C 
BRANCH  31  32
ATOM     32  O   UNL A   1      36.421  29.982  29.860  1.00  0.00    -0.376 OA
BRANCH  32  33
ATOM     33  C   UNL A   1      37.086  29.238  30.959  1.00  0.00     0.202 C 
BRANCH  33  34
ATOM     34  C   UNL A   1      38.528  28.006  30.823  1.00  0.00     0.261 C 
BRANCH  34  35
ATOM     35  O   UNL A   1      40.101  28.056  29.886  1.00  0.00    -0.460 OA
BRANCH  35  36
ATOM     36  C   UNL A   1      41.609  28.594  29.554  1.00  0.00     0.338 C 
ATOM     37  O   UNL A   1      41.630  29.720  29.040  1.00  0.00    -0.246 OA
BRANCH  36  38
ATOM     38  C   UNL A   1      43.196  27.655  29.467  1.00  0.00     0.060 A 
ATOM     39  C   UNL A   1      43.243  26.320  29.890  1.00  0.00     0.016 A 
ATOM     40  C   UNL A   1      44.553  28.088  29.223  1.00  0.00     0.016 A 
ATOM     41  C   UNL A   1      44.459  25.719  30.448  1.00  0.00     0.010 A 
ATOM     42  C   UNL A   1      45.757  27.530  29.779  1.00  0.00     0.010 A 
ATOM     43  C   UNL A   1      45.715  26.391  30.554  1.00  0.00    -0.014 A 
BRANCH  43  44
ATOM     44  C   UNL A   1      46.682  26.285  31.755  1.00  0.00     0.031 A 
ATOM     45  C   UNL A   1      48.049  25.644  31.895  1.00  0.00     0.074 A 
ATOM     46  C   UNL A   1      46.307  27.074  32.784  1.00  0.00     0.049 A 
ATOM     47  N   UNL A   1      48.402  24.833  32.870  1.00  0.00    -0.248 NA
ATOM     48  C   UNL A   1      49.155  25.913  30.984  1.00  0.00     0.031 C 
ATOM     49  C   UNL A   1      46.958  27.854  33.802  1.00  0.00     0.029 A 
ATOM     50  N   UNL A   1      45.015  27.413  33.032  1.00  0.00    -0.354 N 
ATOM     51  C   UNL A   1      49.807  24.669  32.846  1.00  0.00     0.074 A 
ATOM     52  C   UNL A   1      50.189  25.305  31.593  1.00  0.00     0.031 C 
ATOM     53  C   UNL A   1      46.158  28.439  34.677  1.00  0.00     0.029 A 
ATOM     54  C   UNL A   1      44.907  27.935  34.298  1.00  0.00     0.049 A 
ATOM     55  H   UNL A   1      44.269  27.300  32.400  1.00  0.00     0.167 HD
ATOM     56  C   UNL A   1      50.578  24.231  33.928  1.00  0.00     0.037 A 
ATOM     57  C   UNL A   1      43.857  28.245  35.043  1.00  0.00     0.037 A 
ATOM     58  C   UNL A   1      49.820  24.208  35.243  1.00  0.00     0.049 A 
ATOM     59  C   UNL A   1      44.209  26.742  35.734  1.00  0.00     0.074 A 
ATOM     60  C   UNL A   1      50.133  24.602  36.546  1.00  0.00     0.029 A 
ATOM     61  N   UNL A   1      48.418  24.048  35.288  1.00  0.00    -0.354 N 
ATOM     62  N   UNL A   1      45.441  26.241  36.009  1.00  0.00    -0.248 NA
ATOM     63  C   UNL A   1      43.215  25.809  36.269  1.00  0.00     0.031 C 
ATOM     64  C   UNL A   1      48.956  24.636  37.347  1.00  0.00     0.029 A 
ATOM     65  C   UNL A   1      47.864  24.408  36.521  1.00  0.00     0.049 A 
ATOM     66  H   UNL A   1      47.885  23.715  34.531  1.00  0.00     0.167 HD
ATOM     67  C   UNL A   1      45.403  24.957  36.561  1.00  0.00     0.074 A 
ATOM     68  C   UNL A   1      43.963  24.781  36.737  1.00  0.00     0.031 C 
ATOM     69  C   UNL A   1      46.467  24.092  36.850  1.00  0.00     0.037 A 
BRANCH  56  70
ATOM     70  C   UNL A   1      52.177  24.072  33.907  1.00  0.00     0.058 A 
ATOM     71  C   UNL A   1      53.088  25.162  34.047  1.00  0.00     0.135 A 
ATOM     72  C   UNL A   1      52.874  22.840  33.838  1.00  0.00     0.135 A 
ATOM     73  F   UNL A   1      52.692  26.380  34.420  1.00  0.00    -0.206 F 
ATOM     74  C   UNL A   1      54.492  25.071  33.949  1.00  0.00     0.059 A 
ATOM     75  C   UNL A   1      54.288  22.714  33.758  1.00  0.00     0.059 A 
ATOM     76  F   UNL A   1      52.227  21.675  33.961  1.00  0.00    -0.206 F 
ATOM     77  C   UNL A   1      55.095  23.840  33.797  1.00  0.00     0.060 A 
BRANCH  77  78
ATOM     78  S   UNL A   1      56.904  23.744  33.854  1.00  0.00     0.124 S 
ATOM     79  O   UNL A   1      57.282  25.121  34.159  1.00  0.00    -0.237 OA
ATOM     80  O   UNL A   1      57.135  22.778  34.924  1.00  0.00    -0.237 OA
ATOM     81  O   UNL A   1      57.264  23.281  32.517  1.00  0.00    -0.744 OA
ENDBRANCH  77  78
ENDBRANCH  56  70
BRANCH  57  82
ATOM     82  C   UNL A   1      43.311  29.201  33.879  1.00  0.00     0.058 A 
ATOM     83  C   UNL A   1      42.063  28.820  33.281  1.00  0.00     0.135 A 
ATOM     84  C   UNL A   1      43.377  30.566  33.768  1.00  0.00     0.135 A 
ATOM     85  F   UNL A   1      41.900  27.523  32.944  1.00  0.00    -0.206 F 
ATOM     86  C   UNL A   1      40.837  29.680  33.138  1.00  0.00     0.059 A 
ATOM     87  C   UNL A   1      42.183  31.408  33.459  1.00  0.00     0.059 A 
ATOM     88  F   UNL A   1      44.496  31.215  34.134  1.00  0.00    -0.206 F 
ATOM     89  C   UNL A   1      40.738  31.089  33.371  1.00  0.00     0.060 A 
BRANCH  89  90
ATOM     90  S   UNL A   1      38.900  32.499  33.088  1.00  0.00     0.124 S 
ATOM     91  O   UNL A   1      38.621  32.809  31.673  1.00  0.00    -0.237 OA
ATOM     92  O   UNL A   1      37.836  31.880  33.781  1.00  0.00    -0.237 OA
ATOM     93  O   UNL A   1      39.110  33.844  33.635  1.00  0.00    -0.744 OA
ENDBRANCH  89  90
ENDBRANCH  57  82
BRANCH  69  94
ATOM     94  C   UNL A   1      46.402  22.710  37.562  1.00  0.00     0.058 A 
ATOM     95  C   UNL A   1      46.586  22.509  38.933  1.00  0.00     0.135 A 
ATOM     96  C   UNL A   1      46.312  21.491  36.806  1.00  0.00     0.135 A 
ATOM     97  F   UNL A   1      46.909  23.528  39.740  1.00  0.00    -0.206 F 
ATOM     98  C   UNL A   1      46.494  21.235  39.522  1.00  0.00     0.059 A 
ATOM     99  C   UNL A   1      46.295  20.219  37.360  1.00  0.00     0.059 A 
ATOM    100  F   UNL A   1      46.235  21.463  35.470  1.00  0.00    -0.206 F 
ATOM    101  C   UNL A   1      46.311  20.102  38.729  1.00  0.00     0.060 A 
BRANCH 101 102
ATOM    102  S   UNL A   1      46.059  18.485  39.475  1.00  0.00     0.124 S 
ATOM    103  O   UNL A   1      45.258  17.796  38.468  1.00  0.00    -0.237 OA
ATOM    104  O   UNL A   1      47.435  18.020  39.619  1.00  0.00    -0.237 OA
ATOM    105  O   UNL A   1      45.365  18.779  40.725  1.00  0.00    -0.744 OA
ENDBRANCH 101 102
ENDBRANCH  69  94
ENDBRANCH  43  44
ENDBRANCH  36  38
ENDBRANCH  35  36
ENDBRANCH  34  35
ENDBRANCH  33  34
ENDBRANCH  32  33
ENDBRANCH  31  32
ENDBRANCH  30  31
ENDBRANCH   1  30
TORSDOF 26
ENDMDL
MODEL 3
REMARK VINA RESULT:     -10.1      6.654     11.308
REMARK SMILES COc1ccc(NC(=O)N[C@@H]2C=C[C@H](C(=O)OCCOCCOCCOCCOC(=O)c3ccc(-c4c5nc(c(-c6c(F)cc(S(=O)(=O)[O-])cc6F)c6ccc([nH]6)c(-c6c(F)cc(S(=O)(=O)[O-])cc6F)c6nc(c(-c7c(F)cc(S(=O)(=O)[O-])cc7F)c7ccc4[nH]7)C=C6)C=C5)cc3)C2)c(C)c1
REMARK SMILES IDX 23 1 22 2 21 3 20 4 19 5 18 6 17 7 15 8 16 9 14 10 11 11
REMARK SMILES IDX 12 12 98 13 13 14 10 15 7 16 8 17 9 19 6 21 3 22 4 23 101 24
REMARK SMILES IDX 5 25 99 26 100 27 2 28 1 29 24 30 25 31 26 32 27 33 28 34
REMARK SMILES IDX 29 35 30 36 31 37 32 38 33 39 97 40 34 41 96 42 35 43 36 44
REMARK SMILES IDX 37 45 90 46 38 47 95 48 89 49 91 50 39 51 94 52 88 53 87 54
REMARK SMILES IDX 40 56 74 57 53 58 73 59 54 60 57 61 72 62 92 63 55 64 56 65
REMARK SMILES IDX 71 67 93 68 58 69 41 70 42 71 51 72 43 73 44 74 50 75 52 76
REMARK SMILES IDX 45 77 46 78 47 79 48 80 49 81 75 82 76 83 85 84 77 85 78 86
REMARK SMILES IDX 84 87 86 88 79 89 80 90 81 91 82 92 83 93 59 94 60 95 69 96
REMARK SMILES IDX 61 97 62 98 68 99 70 100 63 101 64 102 65 103 66 104 67 105
REMARK H PARENT 7 18 10 20 91 55 57 66
REMARK Flexibility Score: inf
ROOT
ATOM      1  O   UNL A   1      34.612  31.575  27.758  1.00  0.00    -0.377 OA
ENDROOT
BRANCH   1   2
ATOM      2  C   UNL A   1      33.322  31.177  27.372  1.00  0.00     0.188 C 
BRANCH   2   3
ATOM      3  C   UNL A   1      33.119  30.112  26.260  1.00  0.00     0.188 C 
BRANCH   3   4
ATOM      4  O   UNL A   1      31.951  29.353  26.322  1.00  0.00    -0.376 OA
BRANCH   4   5
ATOM      5  C   UNL A   1      31.362  28.574  25.291  1.00  0.00     0.202 C 
BRANCH   5   6
ATOM      6  C   UNL A   1      31.525  28.542  23.745  1.00  0.00     0.261 C 
BRANCH   6   7
ATOM      7  O   UNL A   1      31.946  27.335  23.211  1.00  0.00    -0.463 OA
BRANCH   7   8
ATOM      8  C   UNL A   1      33.269  27.268  23.408  1.00  0.00     0.312 C 
ATOM      9  O   UNL A   1      34.050  28.214  23.446  1.00  0.00    -0.252 OA
BRANCH   8  10
ATOM     10  C   UNL A   1      33.614  25.839  23.600  1.00  0.00     0.124 C 
ATOM     11  C   UNL A   1      32.158  24.485  24.983  1.00  0.00     0.107 C 
ATOM     12  C   UNL A   1      33.033  25.401  25.778  1.00  0.00    -0.006 C 
ATOM     13  C   UNL A   1      32.335  24.960  23.539  1.00  0.00     0.048 C 
ATOM     14  C   UNL A   1      34.010  25.905  25.031  1.00  0.00    -0.014 C 
BRANCH  11  15
ATOM     15  N   UNL A   1      31.101  24.137  25.856  1.00  0.00    -0.332 N 
ATOM     16  N   UNL A   1      32.026  22.171  26.943  1.00  0.00    -0.308 N 
ATOM     17  C   UNL A   1      31.082  23.147  26.779  1.00  0.00     0.319 C 
ATOM     18  H   UNL A   1      31.767  21.534  27.647  1.00  0.00     0.171 HD
ATOM     19  O   UNL A   1      30.107  23.129  27.540  1.00  0.00    -0.248 OA
ATOM     20  H   UNL A   1      30.281  24.678  25.782  1.00  0.00     0.165 HD
BRANCH  16  21
ATOM     21  C   UNL A   1      33.282  21.826  26.370  1.00  0.00     0.046 A 
ATOM     22  C   UNL A   1      35.865  21.775  25.184  1.00  0.00     0.119 A 
ATOM     23  C   UNL A   1      35.581  22.550  26.258  1.00  0.00     0.048 A 
ATOM     24  C   UNL A   1      34.840  20.909  24.751  1.00  0.00     0.052 A 
ATOM     25  C   UNL A   1      34.458  22.175  26.942  1.00  0.00     0.030 A 
ATOM     26  C   UNL A   1      33.516  20.955  25.329  1.00  0.00    -0.024 A 
ATOM     27  C   UNL A   1      32.526  19.868  25.049  1.00  0.00     0.047 C 
BRANCH  22  28
ATOM     28  O   UNL A   1      37.137  21.707  24.678  1.00  0.00    -0.497 OA
ATOM     29  C   UNL A   1      38.184  21.905  25.658  1.00  0.00     0.278 C 
ENDBRANCH  22  28
ENDBRANCH  16  21
ENDBRANCH  11  15
ENDBRANCH   8  10
ENDBRANCH   7   8
ENDBRANCH   6   7
ENDBRANCH   5   6
ENDBRANCH   4   5
ENDBRANCH   3   4
ENDBRANCH   2   3
ENDBRANCH   1   2
BRANCH   1  30
ATOM     30  C   UNL A   1      34.800  31.786  29.140  1.00  0.00     0.188 C 
BRANCH  30  31
ATOM     31  C   UNL A   1      34.477  33.269  29.610  1.00  0.00     0.188 C 
BRANCH  31  32
ATOM     32  O   UNL A   1      34.140  33.373  31.025  1.00  0.00    -0.376 OA
BRANCH  32  33
ATOM     33  C   UNL A   1      34.648  34.281  32.084  1.00  0.00     0.202 C 
BRANCH  33  34
ATOM     34  C   UNL A   1      36.460  34.681  32.501  1.00  0.00     0.261 C 
BRANCH  34  35
ATOM     35  O   UNL A   1      37.414  34.569  34.060  1.00  0.00    -0.460 OA
BRANCH  35  36
ATOM     36  C   UNL A   1      38.656  34.074  35.002  1.00  0.00     0.338 C 
ATOM     37  O   UNL A   1      38.387  33.083  35.694  1.00  0.00    -0.246 OA
BRANCH  36  38
ATOM     38  C   UNL A   1      40.202  34.968  35.469  1.00  0.00     0.060 A 
ATOM     39  C   UNL A   1      40.380  36.304  35.085  1.00  0.00     0.016 A 
ATOM     40  C   UNL A   1      41.453  34.496  36.018  1.00  0.00     0.016 A 
ATOM     41  C   UNL A   1      41.708  36.874  34.835  1.00  0.00     0.010 A 
ATOM     42  C   UNL A   1      42.767  35.024  35.766  1.00  0.00     0.010 A 
ATOM     43  C   UNL A   1      42.937  36.168  35.017  1.00  0.00    -0.014 A 
BRANCH  43  44
ATOM     44  C   UNL A   1      44.160  36.255  34.077  1.00  0.00     0.031 A 
ATOM     45  C   UNL A   1      45.446  37.054  34.166  1.00  0.00     0.074 A 
ATOM     46  C   UNL A   1      44.139  35.300  33.123  1.00  0.00     0.049 A 
ATOM     47  N   UNL A   1      45.950  37.778  33.188  1.00  0.00    -0.248 NA
ATOM     48  C   UNL A   1      46.306  37.054  35.342  1.00  0.00     0.031 C 
ATOM     49  C   UNL A   1      45.102  34.496  32.420  1.00  0.00     0.029 A 
ATOM     50  N   UNL A   1      42.994  34.760  32.632  1.00  0.00    -0.354 N 
ATOM     51  C   UNL A   1      47.279  38.134  33.518  1.00  0.00     0.074 A 
ATOM     52  C   UNL A   1      47.393  37.717  34.909  1.00  0.00     0.031 C 
ATOM     53  C   UNL A   1      44.614  33.702  31.482  1.00  0.00     0.029 A 
ATOM     54  C   UNL A   1      43.264  34.074  31.472  1.00  0.00     0.049 A 
ATOM     55  H   UNL A   1      42.105  34.848  33.045  1.00  0.00     0.167 HD
ATOM     56  C   UNL A   1      48.250  38.535  32.594  1.00  0.00     0.037 A 
ATOM     57  C   UNL A   1      42.473  33.534  30.557  1.00  0.00     0.037 A 
ATOM     58  C   UNL A   1      47.851  38.290  31.151  1.00  0.00     0.049 A 
ATOM     59  C   UNL A   1      42.834  34.973  29.745  1.00  0.00     0.074 A 
ATOM     60  C   UNL A   1      48.522  37.784  30.035  1.00  0.00     0.029 A 
ATOM     61  N   UNL A   1      46.498  38.251  30.751  1.00  0.00    -0.354 N 
ATOM     62  N   UNL A   1      44.038  35.599  29.695  1.00  0.00    -0.248 NA
ATOM     63  C   UNL A   1      41.919  35.687  28.854  1.00  0.00     0.031 C 
ATOM     64  C   UNL A   1      47.596  37.490  28.994  1.00  0.00     0.029 A 
ATOM     65  C   UNL A   1      46.313  37.667  29.493  1.00  0.00     0.049 A 
ATOM     66  H   UNL A   1      45.759  38.599  31.301  1.00  0.00     0.167 HD
ATOM     67  C   UNL A   1      44.011  36.787  28.959  1.00  0.00     0.074 A 
ATOM     68  C   UNL A   1      42.653  36.741  28.423  1.00  0.00     0.031 C 
ATOM     69  C   UNL A   1      45.020  37.747  28.799  1.00  0.00     0.037 A 
BRANCH  56  70
ATOM     70  C   UNL A   1      49.766  38.912  32.967  1.00  0.00     0.058 A 
ATOM     71  C   UNL A   1      50.808  37.950  33.140  1.00  0.00     0.135 A 
ATOM     72  C   UNL A   1      50.276  40.229  33.083  1.00  0.00     0.135 A 
ATOM     73  F   UNL A   1      50.660  36.670  32.798  1.00  0.00    -0.206 F 
ATOM     74  C   UNL A   1      52.126  38.238  33.549  1.00  0.00     0.059 A 
ATOM     75  C   UNL A   1      51.604  40.552  33.474  1.00  0.00     0.059 A 
ATOM     76  F   UNL A   1      49.543  41.286  32.710  1.00  0.00    -0.206 F 
ATOM     77  C   UNL A   1      52.525  39.547  33.723  1.00  0.00     0.060 A 
BRANCH  77  78
ATOM     78  S   UNL A   1      54.270  39.886  34.075  1.00  0.00     0.124 S 
ATOM     79  O   UNL A   1      54.505  39.101  35.284  1.00  0.00    -0.237 OA
ATOM     80  O   UNL A   1      54.935  39.397  32.870  1.00  0.00    -0.237 OA
ATOM     81  O   UNL A   1      54.307  41.334  34.256  1.00  0.00    -0.744 OA
ENDBRANCH  77  78
ENDBRANCH  56  70
BRANCH  57  82
ATOM     82  C   UNL A   1      41.750  32.665  31.693  1.00  0.00     0.058 A 
ATOM     83  C   UNL A   1      40.359  32.942  31.912  1.00  0.00     0.135 A 
ATOM     84  C   UNL A   1      41.926  31.346  32.027  1.00  0.00     0.135 A 
ATOM     85  F   UNL A   1      39.984  34.236  31.995  1.00  0.00    -0.206 F 
ATOM     86  C   UNL A   1      39.232  31.947  31.892  1.00  0.00     0.059 A 
ATOM     87  C   UNL A   1      40.784  30.393  32.171  1.00  0.00     0.059 A 
ATOM     88  F   UNL A   1      43.161  30.817  32.041  1.00  0.00    -0.206 F 
ATOM     89  C   UNL A   1      39.340  30.519  31.864  1.00  0.00     0.060 A 
BRANCH  89  90
ATOM     90  S   UNL A   1      37.644  28.917  31.919  1.00  0.00     0.124 S 
ATOM     91  O   UNL A   1      37.880  27.792  30.994  1.00  0.00    -0.237 OA
ATOM     92  O   UNL A   1      37.513  28.550  33.278  1.00  0.00    -0.237 OA
ATOM     93  O   UNL A   1      36.355  29.418  31.432  1.00  0.00    -0.744 OA
ENDBRANCH  89  90
ENDBRANCH  57  82
BRANCH  69  94
ATOM     94  C   UNL A   1      44.998  39.007  27.888  1.00  0.00     0.058 A 
ATOM     95  C   UNL A   1      44.291  40.181  28.165  1.00  0.00     0.135 A 
ATOM     96  C   UNL A   1      45.587  38.984  26.577  1.00  0.00     0.135 A 
ATOM     97  F   UNL A   1      43.504  40.270  29.245  1.00  0.00    -0.206 F 
ATOM     98  C   UNL A   1      44.327  41.297  27.310  1.00  0.00     0.059 A 
ATOM     99  C   UNL A   1      45.571  40.047  25.685  1.00  0.00     0.059 A 
ATOM    100  F   UNL A   1      46.219  37.914  26.079  1.00  0.00    -0.206 F 
ATOM    101  C   UNL A   1      45.002  41.230  26.091  1.00  0.00     0.060 A 
BRANCH 101 102
ATOM    102  S   UNL A   1      45.170  42.687  25.048  1.00  0.00     0.124 S 
ATOM    103  O   UNL A   1      45.358  42.105  23.723  1.00  0.00    -0.237 OA
ATOM    104  O   UNL A   1      43.888  43.348  25.274  1.00  0.00    -0.237 OA
ATOM    105  O   UNL A   1      46.334  43.377  25.595  1.00  0.00    -0.744 OA
ENDBRANCH 101 102
ENDBRANCH  69  94
ENDBRANCH  43  44
ENDBRANCH  36  38
ENDBRANCH  35  36
ENDBRANCH  34  35
ENDBRANCH  33  34
ENDBRANCH  32  33
ENDBRANCH  31  32
ENDBRANCH  30  31
ENDBRANCH   1  30
TORSDOF 26
ENDMDL
