MODEL 1
REMARK VINA RESULT:      -9.5      0.000      0.000
REMARK SMILES Cc1cccc(CC(=O)N2CCCC[C@@H]2C(=O)OCCOCCOCCOCCOC(=O)c2ccc(-c3c4nc(c(-c5c(F)cc(S(=O)(=O)[O-])cc5F)c5ccc([nH]5)c(-c5c(F)cc(S(=O)(=O)[O-])cc5F)c5nc(c(-c6c(F)cc(S(=O)(=O)[O-])cc6F)c6ccc3[nH]6)C=C5)C=C4)cc2)c1
REMARK SMILES IDX 24 1 23 2 22 3 21 4 20 5 19 6 18 7 16 8 17 9 15 10 10 11
REMARK SMILES IDX 11 12 12 13 14 14 13 15 8 16 9 17 7 18 6 19 1 20 2 21 3 22
REMARK SMILES IDX 99 23 4 24 5 25 25 26 26 27 27 28 28 29 29 30 30 31 31 32
REMARK SMILES IDX 32 33 33 34 34 35 98 36 35 37 97 38 36 39 37 40 38 41 91 42
REMARK SMILES IDX 39 43 96 44 90 45 92 46 40 47 95 48 89 49 88 50 41 52 75 53
REMARK SMILES IDX 54 54 74 55 55 56 58 57 73 58 93 59 56 60 57 61 72 63 94 64
REMARK SMILES IDX 59 65 42 66 43 67 52 68 44 69 45 70 51 71 53 72 46 73 47 74
REMARK SMILES IDX 48 75 49 76 50 77 76 78 77 79 86 80 78 81 79 82 85 83 87 84
REMARK SMILES IDX 80 85 81 86 82 87 83 88 84 89 60 90 61 91 70 92 62 93 63 94
REMARK SMILES IDX 69 95 71 96 64 97 65 98 66 99 67 100 68 101
REMARK H PARENT 92 51 58 62
REMARK Flexibility Score: inf
ROOT
ATOM      1  O   UNL A   1      34.212  29.246  26.893  1.00  0.00    -0.377 OA
ENDROOT
BRANCH   1   2
ATOM      2  C   UNL A   1      32.896  28.861  27.247  1.00  0.00     0.188 C 
BRANCH   2   3
ATOM      3  C   UNL A   1      32.330  27.581  26.569  1.00  0.00     0.188 C 
BRANCH   3   4
ATOM      4  O   UNL A   1      31.033  27.123  26.897  1.00  0.00    -0.376 OA
BRANCH   4   5
ATOM      5  C   UNL A   1      30.409  26.248  25.991  1.00  0.00     0.202 C 
BRANCH   5   6
ATOM      6  C   UNL A   1      30.477  24.749  26.138  1.00  0.00     0.261 C 
BRANCH   6   7
ATOM      7  O   UNL A   1      30.998  24.007  27.214  1.00  0.00    -0.462 OA
BRANCH   7   8
ATOM      8  C   UNL A   1      32.163  23.325  27.159  1.00  0.00     0.328 C 
ATOM      9  O   UNL A   1      32.595  22.581  28.006  1.00  0.00    -0.250 OA
BRANCH   8  10
ATOM     10  C   UNL A   1      32.772  23.553  25.757  1.00  0.00     0.195 C 
ATOM     11  N   UNL A   1      32.961  22.504  24.730  1.00  0.00    -0.329 N 
ATOM     12  C   UNL A   1      33.405  23.008  23.437  1.00  0.00     0.120 C 
ATOM     13  C   UNL A   1      34.595  23.971  23.522  1.00  0.00     0.022 C 
ATOM     14  C   UNL A   1      34.023  24.443  25.877  1.00  0.00     0.037 C 
ATOM     15  C   UNL A   1      34.349  25.070  24.542  1.00  0.00     0.005 C 
BRANCH  11  16
ATOM     16  C   UNL A   1      33.466  21.246  25.048  1.00  0.00     0.227 C 
ATOM     17  O   UNL A   1      34.674  21.007  25.067  1.00  0.00    -0.275 OA
BRANCH  16  18
ATOM     18  C   UNL A   1      32.405  20.145  25.080  1.00  0.00     0.135 C 
BRANCH  18  19
ATOM     19  C   UNL A   1      32.920  18.849  24.561  1.00  0.00    -0.038 A 
ATOM     20  C   UNL A   1      35.098  15.742  25.244  1.00  0.00     0.044 C 
ATOM     21  C   UNL A   1      34.128  16.713  24.653  1.00  0.00    -0.051 A 
ATOM     22  C   UNL A   1      33.910  16.589  23.307  1.00  0.00     0.003 A 
ATOM     23  C   UNL A   1      33.555  17.823  25.298  1.00  0.00     0.007 A 
ATOM     24  C   UNL A   1      33.119  17.510  22.650  1.00  0.00     0.001 A 
ATOM     25  C   UNL A   1      32.726  18.687  23.216  1.00  0.00     0.004 A 
ENDBRANCH  18  19
ENDBRANCH  16  18
ENDBRANCH  11  16
ENDBRANCH   8  10
ENDBRANCH   7   8
ENDBRANCH   6   7
ENDBRANCH   5   6
ENDBRANCH   4   5
ENDBRANCH   3   4
ENDBRANCH   2   3
ENDBRANCH   1   2
BRANCH   1  26
ATOM     26  C   UNL A   1      34.912  30.260  27.621  1.00  0.00     0.188 C 
BRANCH  26  27
ATOM     27  C   UNL A   1      34.198  31.566  27.957  1.00  0.00     0.188 C 
BRANCH  27  28
ATOM     28  O   UNL A   1      35.022  32.686  27.673  1.00  0.00    -0.376 OA
BRANCH  28  29
ATOM     29  C   UNL A   1      34.430  33.978  27.687  1.00  0.00     0.202 C 
BRANCH  29  30
ATOM     30  C   UNL A   1      34.535  34.685  29.025  1.00  0.00     0.261 C 
BRANCH  30  31
ATOM     31  O   UNL A   1      33.459  34.231  29.876  1.00  0.00    -0.460 OA
BRANCH  31  32
ATOM     32  C   UNL A   1      33.448  34.684  31.162  1.00  0.00     0.338 C 
ATOM     33  O   UNL A   1      32.509  35.313  31.623  1.00  0.00    -0.246 OA
BRANCH  32  34
ATOM     34  C   UNL A   1      34.595  34.183  31.991  1.00  0.00     0.060 A 
ATOM     35  C   UNL A   1      35.502  35.091  32.551  1.00  0.00     0.016 A 
ATOM     36  C   UNL A   1      34.852  32.826  32.154  1.00  0.00     0.016 A 
ATOM     37  C   UNL A   1      36.721  34.658  33.123  1.00  0.00     0.010 A 
ATOM     38  C   UNL A   1      36.080  32.403  32.681  1.00  0.00     0.010 A 
ATOM     39  C   UNL A   1      37.057  33.301  33.151  1.00  0.00    -0.014 A 
BRANCH  39  40
ATOM     40  C   UNL A   1      38.434  32.768  33.452  1.00  0.00     0.031 A 
ATOM     41  C   UNL A   1      39.360  33.529  34.506  1.00  0.00     0.074 A 
ATOM     42  C   UNL A   1      38.583  31.455  33.089  1.00  0.00     0.049 A 
ATOM     43  N   UNL A   1      40.600  33.301  34.887  1.00  0.00    -0.248 NA
ATOM     44  C   UNL A   1      38.890  34.768  35.157  1.00  0.00     0.031 C 
ATOM     45  C   UNL A   1      38.789  30.374  34.015  1.00  0.00     0.029 A 
ATOM     46  N   UNL A   1      38.251  30.695  31.967  1.00  0.00    -0.354 N 
ATOM     47  C   UNL A   1      40.865  34.036  36.090  1.00  0.00     0.074 A 
ATOM     48  C   UNL A   1      39.824  35.033  36.082  1.00  0.00     0.031 C 
ATOM     49  C   UNL A   1      38.930  29.166  33.484  1.00  0.00     0.029 A 
ATOM     50  C   UNL A   1      38.834  29.395  32.097  1.00  0.00     0.049 A 
ATOM     51  H   UNL A   1      37.706  31.003  31.208  1.00  0.00     0.167 HD
ATOM     52  C   UNL A   1      41.741  33.620  37.100  1.00  0.00     0.037 A 
ATOM     53  C   UNL A   1      39.800  28.926  31.275  1.00  0.00     0.037 A 
ATOM     54  C   UNL A   1      42.548  32.417  36.731  1.00  0.00     0.049 A 
ATOM     55  C   UNL A   1      41.250  29.039  31.844  1.00  0.00     0.074 A 
ATOM     56  C   UNL A   1      42.894  31.267  37.441  1.00  0.00     0.029 A 
ATOM     57  N   UNL A   1      42.908  32.137  35.405  1.00  0.00    -0.354 N 
ATOM     58  N   UNL A   1      41.630  29.677  32.950  1.00  0.00    -0.248 NA
ATOM     59  C   UNL A   1      42.394  28.396  31.195  1.00  0.00     0.031 C 
ATOM     60  C   UNL A   1      43.314  30.268  36.529  1.00  0.00     0.029 A 
ATOM     61  C   UNL A   1      43.256  30.800  35.248  1.00  0.00     0.049 A 
ATOM     62  H   UNL A   1      42.915  32.801  34.679  1.00  0.00     0.167 HD
ATOM     63  C   UNL A   1      43.024  29.634  33.084  1.00  0.00     0.074 A 
ATOM     64  C   UNL A   1      43.420  28.758  31.988  1.00  0.00     0.031 C 
ATOM     65  C   UNL A   1      43.821  30.290  34.014  1.00  0.00     0.037 A 
BRANCH  52  66
ATOM     66  C   UNL A   1      41.707  34.032  38.671  1.00  0.00     0.058 A 
ATOM     67  C   UNL A   1      40.472  34.038  39.394  1.00  0.00     0.135 A 
ATOM     68  C   UNL A   1      42.759  34.554  39.465  1.00  0.00     0.135 A 
ATOM     69  F   UNL A   1      39.394  33.390  38.933  1.00  0.00    -0.206 F 
ATOM     70  C   UNL A   1      40.263  34.635  40.656  1.00  0.00     0.059 A 
ATOM     71  C   UNL A   1      42.595  35.055  40.791  1.00  0.00     0.059 A 
ATOM     72  F   UNL A   1      44.017  34.613  39.016  1.00  0.00    -0.206 F 
ATOM     73  C   UNL A   1      41.335  35.133  41.367  1.00  0.00     0.060 A 
BRANCH  73  74
ATOM     74  S   UNL A   1      41.075  35.691  43.077  1.00  0.00     0.124 S 
ATOM     75  O   UNL A   1      41.899  36.894  43.149  1.00  0.00    -0.237 OA
ATOM     76  O   UNL A   1      39.632  35.916  43.126  1.00  0.00    -0.237 OA
ATOM     77  O   UNL A   1      41.545  34.564  43.877  1.00  0.00    -0.744 OA
ENDBRANCH  73  74
ENDBRANCH  52  66
BRANCH  53  78
ATOM     78  C   UNL A   1      39.120  28.719  29.933  1.00  0.00     0.058 A 
ATOM     79  C   UNL A   1      39.588  29.608  28.914  1.00  0.00     0.135 A 
ATOM     80  C   UNL A   1      38.980  27.376  29.533  1.00  0.00     0.135 A 
ATOM     81  F   UNL A   1      39.688  30.923  29.174  1.00  0.00    -0.206 F 
ATOM     82  C   UNL A   1      40.211  29.147  27.741  1.00  0.00     0.059 A 
ATOM     83  C   UNL A   1      39.620  26.891  28.376  1.00  0.00     0.059 A 
ATOM     84  F   UNL A   1      38.522  26.475  30.416  1.00  0.00    -0.206 F 
ATOM     85  C   UNL A   1      40.296  27.775  27.526  1.00  0.00     0.060 A 
BRANCH  85  86
ATOM     86  S   UNL A   1      41.524  27.127  26.346  1.00  0.00     0.124 S 
ATOM     87  O   UNL A   1      40.997  25.804  26.045  1.00  0.00    -0.237 OA
ATOM     88  O   UNL A   1      41.487  28.095  25.252  1.00  0.00    -0.237 OA
ATOM     89  O   UNL A   1      42.750  27.166  27.131  1.00  0.00    -0.744 OA
ENDBRANCH  85  86
ENDBRANCH  53  78
BRANCH  65  90
ATOM     90  C   UNL A   1      45.348  30.530  33.968  1.00  0.00     0.058 A 
ATOM     91  C   UNL A   1      46.291  29.584  34.373  1.00  0.00     0.135 A 
ATOM     92  C   UNL A   1      45.912  31.651  33.268  1.00  0.00     0.135 A 
ATOM     93  F   UNL A   1      45.925  28.426  34.936  1.00  0.00    -0.206 F 
ATOM     94  C   UNL A   1      47.665  29.758  34.157  1.00  0.00     0.059 A 
ATOM     95  C   UNL A   1      47.255  31.803  32.977  1.00  0.00     0.059 A 
ATOM     96  F   UNL A   1      45.198  32.673  32.788  1.00  0.00    -0.206 F 
ATOM     97  C   UNL A   1      48.135  30.865  33.453  1.00  0.00     0.060 A 
BRANCH  97  98
ATOM     98  S   UNL A   1      49.884  31.069  33.122  1.00  0.00     0.124 S 
ATOM     99  O   UNL A   1      50.415  29.802  33.616  1.00  0.00    -0.237 OA
ATOM    100  O   UNL A   1      49.908  31.250  31.675  1.00  0.00    -0.237 OA
ATOM    101  O   UNL A   1      50.250  32.249  33.900  1.00  0.00    -0.744 OA
ENDBRANCH  97  98
ENDBRANCH  65  90
ENDBRANCH  39  40
ENDBRANCH  32  34
ENDBRANCH  31  32
ENDBRANCH  30  31
ENDBRANCH  29  30
ENDBRANCH  28  29
ENDBRANCH  27  28
ENDBRANCH  26  27
ENDBRANCH   1  26
TORSDOF 26
ENDMDL
MODEL 2
REMARK VINA RESULT:      -9.3      2.418      8.455
REMARK SMILES Cc1cccc(CC(=O)N2CCCC[C@@H]2C(=O)OCCOCCOCCOCCOC(=O)c2ccc(-c3c4nc(c(-c5c(F)cc(S(=O)(=O)[O-])cc5F)c5ccc([nH]5)c(-c5c(F)cc(S(=O)(=O)[O-])cc5F)c5nc(c(-c6c(F)cc(S(=O)(=O)[O-])cc6F)c6ccc3[nH]6)C=C5)C=C4)cc2)c1
REMARK SMILES IDX 24 1 23 2 22 3 21 4 20 5 19 6 18 7 16 8 17 9 15 10 10 11
REMARK SMILES IDX 11 12 12 13 14 14 13 15 8 16 9 17 7 18 6 19 1 20 2 21 3 22
REMARK SMILES IDX 99 23 4 24 5 25 25 26 26 27 27 28 28 29 29 30 30 31 31 32
REMARK SMILES IDX 32 33 33 34 34 35 98 36 35 37 97 38 36 39 37 40 38 41 91 42
REMARK SMILES IDX 39 43 96 44 90 45 92 46 40 47 95 48 89 49 88 50 41 52 75 53
REMARK SMILES IDX 54 54 74 55 55 56 58 57 73 58 93 59 56 60 57 61 72 63 94 64
REMARK SMILES IDX 59 65 42 66 43 67 52 68 44 69 45 70 51 71 53 72 46 73 47 74
REMARK SMILES IDX 48 75 49 76 50 77 76 78 77 79 86 80 78 81 79 82 85 83 87 84
REMARK SMILES IDX 80 85 81 86 82 87 83 88 84 89 60 90 61 91 70 92 62 93 63 94
REMARK SMILES IDX 69 95 71 96 64 97 65 98 66 99 67 100 68 101
REMARK H PARENT 92 51 58 62
REMARK Flexibility Score: inf
ROOT
ATOM      1  O   UNL A   1      34.498  29.185  26.597  1.00  0.00    -0.377 OA
ENDROOT
BRANCH   1   2
ATOM      2  C   UNL A   1      33.239  28.755  26.112  1.00  0.00     0.188 C 
BRANCH   2   3
ATOM      3  C   UNL A   1      33.247  27.763  24.914  1.00  0.00     0.188 C 
BRANCH   3   4
ATOM      4  O   UNL A   1      32.203  27.797  23.962  1.00  0.00    -0.376 OA
BRANCH   4   5
ATOM      5  C   UNL A   1      31.869  26.589  23.324  1.00  0.00     0.202 C 
BRANCH   5   6
ATOM      6  C   UNL A   1      31.750  25.286  24.072  1.00  0.00     0.261 C 
BRANCH   6   7
ATOM      7  O   UNL A   1      31.425  25.092  25.427  1.00  0.00    -0.462 OA
BRANCH   7   8
ATOM      8  C   UNL A   1      32.088  24.242  26.242  1.00  0.00     0.328 C 
ATOM      9  O   UNL A   1      31.718  23.859  27.326  1.00  0.00    -0.250 OA
BRANCH   8  10
ATOM     10  C   UNL A   1      33.331  23.736  25.478  1.00  0.00     0.195 C 
ATOM     11  N   UNL A   1      33.697  22.313  25.294  1.00  0.00    -0.329 N 
ATOM     12  C   UNL A   1      34.826  22.099  24.398  1.00  0.00     0.120 C 
ATOM     13  C   UNL A   1      36.039  22.984  24.706  1.00  0.00     0.022 C 
ATOM     14  C   UNL A   1      34.559  24.577  25.875  1.00  0.00     0.037 C 
ATOM     15  C   UNL A   1      35.644  24.445  24.832  1.00  0.00     0.005 C 
BRANCH  11  16
ATOM     16  C   UNL A   1      33.622  21.395  26.337  1.00  0.00     0.227 C 
ATOM     17  O   UNL A   1      34.555  21.209  27.119  1.00  0.00    -0.275 OA
BRANCH  16  18
ATOM     18  C   UNL A   1      32.423  20.450  26.243  1.00  0.00     0.135 C 
BRANCH  18  19
ATOM     19  C   UNL A   1      32.585  19.434  25.169  1.00  0.00    -0.038 A 
ATOM     20  C   UNL A   1      32.250  18.637  21.412  1.00  0.00     0.044 C 
ATOM     21  C   UNL A   1      32.587  18.580  22.867  1.00  0.00    -0.051 A 
ATOM     22  C   UNL A   1      32.769  17.326  23.385  1.00  0.00     0.003 A 
ATOM     23  C   UNL A   1      32.574  19.655  23.772  1.00  0.00     0.007 A 
ATOM     24  C   UNL A   1      32.971  17.164  24.741  1.00  0.00     0.001 A 
ATOM     25  C   UNL A   1      32.765  18.164  25.646  1.00  0.00     0.004 A 
ENDBRANCH  18  19
ENDBRANCH  16  18
ENDBRANCH  11  16
ENDBRANCH   8  10
ENDBRANCH   7   8
ENDBRANCH   6   7
ENDBRANCH   5   6
ENDBRANCH   4   5
ENDBRANCH   3   4
ENDBRANCH   2   3
ENDBRANCH   1   2
BRANCH   1  26
ATOM     26  C   UNL A   1      34.602  30.209  27.591  1.00  0.00     0.188 C 
BRANCH  26  27
ATOM     27  C   UNL A   1      33.638  31.391  27.548  1.00  0.00     0.188 C 
BRANCH  27  28
ATOM     28  O   UNL A   1      34.337  32.623  27.633  1.00  0.00    -0.376 OA
BRANCH  28  29
ATOM     29  C   UNL A   1      33.631  33.767  28.096  1.00  0.00     0.202 C 
BRANCH  29  30
ATOM     30  C   UNL A   1      34.235  34.399  29.336  1.00  0.00     0.261 C 
BRANCH  30  31
ATOM     31  O   UNL A   1      33.278  34.312  30.415  1.00  0.00    -0.460 OA
BRANCH  31  32
ATOM     32  C   UNL A   1      33.543  35.032  31.542  1.00  0.00     0.338 C 
ATOM     33  O   UNL A   1      32.813  35.933  31.926  1.00  0.00    -0.246 OA
BRANCH  32  34
ATOM     34  C   UNL A   1      34.691  34.497  32.347  1.00  0.00     0.060 A 
ATOM     35  C   UNL A   1      35.894  35.211  32.410  1.00  0.00     0.016 A 
ATOM     36  C   UNL A   1      34.642  33.255  32.970  1.00  0.00     0.016 A 
ATOM     37  C   UNL A   1      37.068  34.632  32.944  1.00  0.00     0.010 A 
ATOM     38  C   UNL A   1      35.817  32.667  33.459  1.00  0.00     0.010 A 
ATOM     39  C   UNL A   1      37.062  33.322  33.433  1.00  0.00    -0.014 A 
BRANCH  39  40
ATOM     40  C   UNL A   1      38.301  32.518  33.736  1.00  0.00     0.031 A 
ATOM     41  C   UNL A   1      38.651  31.244  32.841  1.00  0.00     0.074 A 
ATOM     42  C   UNL A   1      39.208  33.212  34.493  1.00  0.00     0.049 A 
ATOM     43  N   UNL A   1      39.624  30.361  32.940  1.00  0.00    -0.248 NA
ATOM     44  C   UNL A   1      37.751  30.829  31.745  1.00  0.00     0.031 C 
ATOM     45  C   UNL A   1      40.507  33.623  34.032  1.00  0.00     0.029 A 
ATOM     46  N   UNL A   1      39.138  34.016  35.632  1.00  0.00    -0.354 N 
ATOM     47  C   UNL A   1      39.711  29.619  31.716  1.00  0.00     0.074 A 
ATOM     48  C   UNL A   1      38.423  29.855  31.115  1.00  0.00     0.031 C 
ATOM     49  C   UNL A   1      41.262  34.272  34.909  1.00  0.00     0.029 A 
ATOM     50  C   UNL A   1      40.465  34.318  36.070  1.00  0.00     0.049 A 
ATOM     51  H   UNL A   1      38.309  34.325  36.063  1.00  0.00     0.167 HD
ATOM     52  C   UNL A   1      40.896  29.090  31.189  1.00  0.00     0.037 A 
ATOM     53  C   UNL A   1      40.976  33.890  37.247  1.00  0.00     0.037 A 
ATOM     54  C   UNL A   1      42.061  29.194  32.121  1.00  0.00     0.049 A 
ATOM     55  C   UNL A   1      41.881  32.622  37.141  1.00  0.00     0.074 A 
ATOM     56  C   UNL A   1      43.395  29.551  31.918  1.00  0.00     0.029 A 
ATOM     57  N   UNL A   1      41.907  29.175  33.514  1.00  0.00    -0.354 N 
ATOM     58  N   UNL A   1      42.061  31.852  36.068  1.00  0.00    -0.248 NA
ATOM     59  C   UNL A   1      42.687  32.142  38.266  1.00  0.00     0.031 C 
ATOM     60  C   UNL A   1      43.981  29.882  33.165  1.00  0.00     0.029 A 
ATOM     61  C   UNL A   1      43.021  29.708  34.153  1.00  0.00     0.049 A 
ATOM     62  H   UNL A   1      41.113  28.828  33.981  1.00  0.00     0.167 HD
ATOM     63  C   UNL A   1      42.873  30.755  36.384  1.00  0.00     0.074 A 
ATOM     64  C   UNL A   1      43.278  31.046  37.754  1.00  0.00     0.031 C 
ATOM     65  C   UNL A   1      43.183  29.656  35.593  1.00  0.00     0.037 A 
BRANCH  52  66
ATOM     66  C   UNL A   1      41.223  28.752  29.634  1.00  0.00     0.058 A 
ATOM     67  C   UNL A   1      40.846  27.492  29.069  1.00  0.00     0.135 A 
ATOM     68  C   UNL A   1      41.997  29.506  28.716  1.00  0.00     0.135 A 
ATOM     69  F   UNL A   1      39.933  26.712  29.661  1.00  0.00    -0.206 F 
ATOM     70  C   UNL A   1      41.312  26.971  27.843  1.00  0.00     0.059 A 
ATOM     71  C   UNL A   1      42.380  29.048  27.420  1.00  0.00     0.059 A 
ATOM     72  F   UNL A   1      42.431  30.736  29.005  1.00  0.00    -0.206 F 
ATOM     73  C   UNL A   1      42.071  27.760  27.004  1.00  0.00     0.060 A 
BRANCH  73  74
ATOM     74  S   UNL A   1      42.468  27.148  25.339  1.00  0.00     0.124 S 
ATOM     75  O   UNL A   1      42.373  28.356  24.525  1.00  0.00    -0.237 OA
ATOM     76  O   UNL A   1      43.815  26.609  25.507  1.00  0.00    -0.237 OA
ATOM     77  O   UNL A   1      41.435  26.146  25.092  1.00  0.00    -0.744 OA
ENDBRANCH  73  74
ENDBRANCH  52  66
BRANCH  53  78
ATOM     78  C   UNL A   1      40.220  34.659  38.316  1.00  0.00     0.058 A 
ATOM     79  C   UNL A   1      39.600  33.816  39.293  1.00  0.00     0.135 A 
ATOM     80  C   UNL A   1      40.896  35.779  38.839  1.00  0.00     0.135 A 
ATOM     81  F   UNL A   1      38.872  32.760  38.893  1.00  0.00    -0.206 F 
ATOM     82  C   UNL A   1      39.939  33.871  40.657  1.00  0.00     0.059 A 
ATOM     83  C   UNL A   1      41.266  35.838  40.196  1.00  0.00     0.059 A 
ATOM     84  F   UNL A   1      41.485  36.639  37.994  1.00  0.00    -0.206 F 
ATOM     85  C   UNL A   1      40.843  34.839  41.082  1.00  0.00     0.060 A 
BRANCH  85  86
ATOM     86  S   UNL A   1      41.705  34.622  42.672  1.00  0.00     0.124 S 
ATOM     87  O   UNL A   1      42.167  35.972  42.962  1.00  0.00    -0.237 OA
ATOM     88  O   UNL A   1      40.665  34.098  43.554  1.00  0.00    -0.237 OA
ATOM     89  O   UNL A   1      42.736  33.652  42.329  1.00  0.00    -0.744 OA
ENDBRANCH  85  86
ENDBRANCH  53  78
BRANCH  65  90
ATOM     90  C   UNL A   1      43.778  28.298  36.030  1.00  0.00     0.058 A 
ATOM     91  C   UNL A   1      45.148  28.032  36.073  1.00  0.00     0.135 A 
ATOM     92  C   UNL A   1      42.970  27.293  36.665  1.00  0.00     0.135 A 
ATOM     93  F   UNL A   1      46.047  28.918  35.630  1.00  0.00    -0.206 F 
ATOM     94  C   UNL A   1      45.664  26.858  36.639  1.00  0.00     0.059 A 
ATOM     95  C   UNL A   1      43.466  26.166  37.296  1.00  0.00     0.059 A 
ATOM     96  F   UNL A   1      41.637  27.341  36.745  1.00  0.00    -0.206 F 
ATOM     97  C   UNL A   1      44.817  25.938  37.253  1.00  0.00     0.060 A 
BRANCH  97  98
ATOM     98  S   UNL A   1      45.472  24.461  38.029  1.00  0.00     0.124 S 
ATOM     99  O   UNL A   1      46.873  24.832  38.206  1.00  0.00    -0.237 OA
ATOM    100  O   UNL A   1      44.677  24.371  39.249  1.00  0.00    -0.237 OA
ATOM    101  O   UNL A   1      45.221  23.411  37.046  1.00  0.00    -0.744 OA
ENDBRANCH  97  98
ENDBRANCH  65  90
ENDBRANCH  39  40
ENDBRANCH  32  34
ENDBRANCH  31  32
ENDBRANCH  30  31
ENDBRANCH  29  30
ENDBRANCH  28  29
ENDBRANCH  27  28
ENDBRANCH  26  27
ENDBRANCH   1  26
TORSDOF 26
ENDMDL
MODEL 3
REMARK VINA RESULT:      -9.2      4.820      8.082
REMARK SMILES Cc1cccc(CC(=O)N2CCCC[C@@H]2C(=O)OCCOCCOCCOCCOC(=O)c2ccc(-c3c4nc(c(-c5c(F)cc(S(=O)(=O)[O-])cc5F)c5ccc([nH]5)c(-c5c(F)cc(S(=O)(=O)[O-])cc5F)c5nc(c(-c6c(F)cc(S(=O)(=O)[O-])cc6F)c6ccc3[nH]6)C=C5)C=C4)cc2)c1
REMARK SMILES IDX 24 1 23 2 22 3 21 4 20 5 19 6 18 7 16 8 17 9 15 10 10 11
REMARK SMILES IDX 11 12 12 13 14 14 13 15 8 16 9 17 7 18 6 19 1 20 2 21 3 22
REMARK SMILES IDX 99 23 4 24 5 25 25 26 26 27 27 28 28 29 29 30 30 31 31 32
REMARK SMILES IDX 32 33 33 34 34 35 98 36 35 37 97 38 36 39 37 40 38 41 91 42
REMARK SMILES IDX 39 43 96 44 90 45 92 46 40 47 95 48 89 49 88 50 41 52 75 53
REMARK SMILES IDX 54 54 74 55 55 56 58 57 73 58 93 59 56 60 57 61 72 63 94 64
REMARK SMILES IDX 59 65 42 66 43 67 52 68 44 69 45 70 51 71 53 72 46 73 47 74
REMARK SMILES IDX 48 75 49 76 50 77 76 78 77 79 86 80 78 81 79 82 85 83 87 84
REMARK SMILES IDX 80 85 81 86 82 87 83 88 84 89 60 90 61 91 70 92 62 93 63 94
REMARK SMILES IDX 69 95 71 96 64 97 65 98 66 99 67 100 68 101
REMARK H PARENT 92 51 58 62
REMARK Flexibility Score: inf
ROOT
ATOM      1  O   UNL A   1      33.973  24.201  26.162  1.00  0.00    -0.377 OA
ENDROOT
BRANCH   1   2
ATOM      2  C   UNL A   1      35.024  23.255  26.088  1.00  0.00     0.188 C 
BRANCH   2   3
ATOM      3  C   UNL A   1      36.031  23.410  24.912  1.00  0.00     0.188 C 
BRANCH   3   4
ATOM      4  O   UNL A   1      36.436  22.274  24.175  1.00  0.00    -0.376 OA
BRANCH   4   5
ATOM      5  C   UNL A   1      37.387  21.424  24.767  1.00  0.00     0.202 C 
BRANCH   5   6
ATOM      6  C   UNL A   1      38.304  21.882  25.873  1.00  0.00     0.261 C 
BRANCH   6   7
ATOM      7  O   UNL A   1      39.701  22.043  25.828  1.00  0.00    -0.462 OA
BRANCH   7   8
ATOM      8  C   UNL A   1      40.547  21.493  26.727  1.00  0.00     0.328 C 
ATOM      9  O   UNL A   1      40.426  20.410  27.250  1.00  0.00    -0.250 OA
BRANCH   8  10
ATOM     10  C   UNL A   1      41.767  22.430  26.856  1.00  0.00     0.195 C 
ATOM     11  N   UNL A   1      41.769  23.735  27.557  1.00  0.00    -0.329 N 
ATOM     12  C   UNL A   1      43.086  24.347  27.675  1.00  0.00     0.120 C 
ATOM     13  C   UNL A   1      43.872  24.383  26.360  1.00  0.00     0.022 C 
ATOM     14  C   UNL A   1      42.487  22.530  25.498  1.00  0.00     0.037 C 
ATOM     15  C   UNL A   1      43.904  23.019  25.692  1.00  0.00     0.005 C 
BRANCH  11  16
ATOM     16  C   UNL A   1      40.732  24.651  27.406  1.00  0.00     0.227 C 
ATOM     17  O   UNL A   1      39.672  24.554  28.026  1.00  0.00    -0.275 OA
BRANCH  16  18
ATOM     18  C   UNL A   1      40.908  25.593  26.215  1.00  0.00     0.135 C 
BRANCH  18  19
ATOM     19  C   UNL A   1      41.365  26.948  26.626  1.00  0.00    -0.038 A 
ATOM     20  C   UNL A   1      41.273  29.695  29.329  1.00  0.00     0.044 C 
ATOM     21  C   UNL A   1      41.617  28.873  28.130  1.00  0.00    -0.051 A 
ATOM     22  C   UNL A   1      42.171  29.557  27.080  1.00  0.00     0.003 A 
ATOM     23  C   UNL A   1      41.283  27.524  27.915  1.00  0.00     0.007 A 
ATOM     24  C   UNL A   1      42.416  28.906  25.888  1.00  0.00     0.001 A 
ATOM     25  C   UNL A   1      41.922  27.667  25.604  1.00  0.00     0.004 A 
ENDBRANCH  18  19
ENDBRANCH  16  18
ENDBRANCH  11  16
ENDBRANCH   8  10
ENDBRANCH   7   8
ENDBRANCH   6   7
ENDBRANCH   5   6
ENDBRANCH   4   5
ENDBRANCH   3   4
ENDBRANCH   2   3
ENDBRANCH   1   2
BRANCH   1  26
ATOM     26  C   UNL A   1      33.554  24.939  25.010  1.00  0.00     0.188 C 
BRANCH  26  27
ATOM     27  C   UNL A   1      33.979  26.397  24.862  1.00  0.00     0.188 C 
BRANCH  27  28
ATOM     28  O   UNL A   1      33.732  27.125  26.055  1.00  0.00    -0.376 OA
BRANCH  28  29
ATOM     29  C   UNL A   1      33.958  28.529  26.046  1.00  0.00     0.202 C 
BRANCH  29  30
ATOM     30  C   UNL A   1      34.276  29.106  27.412  1.00  0.00     0.261 C 
BRANCH  30  31
ATOM     31  O   UNL A   1      35.330  30.085  27.268  1.00  0.00    -0.460 OA
BRANCH  31  32
ATOM     32  C   UNL A   1      35.168  31.274  27.915  1.00  0.00     0.338 C 
ATOM     33  O   UNL A   1      34.065  31.723  28.185  1.00  0.00    -0.246 OA
BRANCH  32  34
ATOM     34  C   UNL A   1      36.451  31.872  28.415  1.00  0.00     0.060 A 
ATOM     35  C   UNL A   1      37.402  31.060  29.044  1.00  0.00     0.016 A 
ATOM     36  C   UNL A   1      36.701  33.239  28.360  1.00  0.00     0.016 A 
ATOM     37  C   UNL A   1      38.500  31.615  29.742  1.00  0.00     0.010 A 
ATOM     38  C   UNL A   1      37.764  33.788  29.090  1.00  0.00     0.010 A 
ATOM     39  C   UNL A   1      38.671  33.000  29.822  1.00  0.00    -0.014 A 
BRANCH  39  40
ATOM     40  C   UNL A   1      39.612  33.690  30.777  1.00  0.00     0.031 A 
ATOM     41  C   UNL A   1      39.094  34.112  32.226  1.00  0.00     0.074 A 
ATOM     42  C   UNL A   1      40.928  33.513  30.441  1.00  0.00     0.049 A 
ATOM     43  N   UNL A   1      39.693  34.767  33.199  1.00  0.00    -0.248 NA
ATOM     44  C   UNL A   1      37.693  33.863  32.621  1.00  0.00     0.031 C 
ATOM     45  C   UNL A   1      41.878  32.776  31.231  1.00  0.00     0.029 A 
ATOM     46  N   UNL A   1      41.666  33.580  29.258  1.00  0.00    -0.354 N 
ATOM     47  C   UNL A   1      38.944  34.598  34.411  1.00  0.00     0.074 A 
ATOM     48  C   UNL A   1      37.654  34.178  33.924  1.00  0.00     0.031 C 
ATOM     49  C   UNL A   1      43.117  32.722  30.760  1.00  0.00     0.029 A 
ATOM     50  C   UNL A   1      43.057  33.474  29.570  1.00  0.00     0.049 A 
ATOM     51  H   UNL A   1      41.289  33.684  28.354  1.00  0.00     0.167 HD
ATOM     52  C   UNL A   1      39.504  34.571  35.694  1.00  0.00     0.037 A 
ATOM     53  C   UNL A   1      43.944  34.475  29.369  1.00  0.00     0.037 A 
ATOM     54  C   UNL A   1      40.953  34.938  35.720  1.00  0.00     0.049 A 
ATOM     55  C   UNL A   1      44.277  35.316  30.642  1.00  0.00     0.074 A 
ATOM     56  C   UNL A   1      42.044  34.398  36.401  1.00  0.00     0.029 A 
ATOM     57  N   UNL A   1      41.518  35.817  34.786  1.00  0.00    -0.354 N 
ATOM     58  N   UNL A   1      43.672  35.249  31.828  1.00  0.00    -0.248 NA
ATOM     59  C   UNL A   1      45.365  36.296  30.667  1.00  0.00     0.031 C 
ATOM     60  C   UNL A   1      43.240  34.836  35.782  1.00  0.00     0.029 A 
ATOM     61  C   UNL A   1      42.899  35.672  34.728  1.00  0.00     0.049 A 
ATOM     62  H   UNL A   1      41.003  36.455  34.241  1.00  0.00     0.167 HD
ATOM     63  C   UNL A   1      44.188  36.222  32.695  1.00  0.00     0.074 A 
ATOM     64  C   UNL A   1      45.286  36.785  31.919  1.00  0.00     0.031 C 
ATOM     65  C   UNL A   1      43.738  36.574  33.961  1.00  0.00     0.037 A 
BRANCH  52  66
ATOM     66  C   UNL A   1      38.899  33.858  37.023  1.00  0.00     0.058 A 
ATOM     67  C   UNL A   1      38.410  32.514  36.967  1.00  0.00     0.135 A 
ATOM     68  C   UNL A   1      38.636  34.439  38.289  1.00  0.00     0.135 A 
ATOM     69  F   UNL A   1      38.740  31.696  35.959  1.00  0.00    -0.206 F 
ATOM     70  C   UNL A   1      37.616  31.889  37.953  1.00  0.00     0.059 A 
ATOM     71  C   UNL A   1      37.939  33.783  39.347  1.00  0.00     0.059 A 
ATOM     72  F   UNL A   1      39.036  35.678  38.591  1.00  0.00    -0.206 F 
ATOM     73  C   UNL A   1      37.392  32.521  39.158  1.00  0.00     0.060 A 
BRANCH  73  74
ATOM     74  S   UNL A   1      36.560  31.607  40.491  1.00  0.00     0.124 S 
ATOM     75  O   UNL A   1      37.430  30.449  40.675  1.00  0.00    -0.237 OA
ATOM     76  O   UNL A   1      36.558  32.570  41.590  1.00  0.00    -0.237 OA
ATOM     77  O   UNL A   1      35.244  31.316  39.931  1.00  0.00    -0.744 OA
ENDBRANCH  73  74
ENDBRANCH  52  66
BRANCH  53  78
ATOM     78  C   UNL A   1      44.075  34.598  27.861  1.00  0.00     0.058 A 
ATOM     79  C   UNL A   1      44.144  35.953  27.404  1.00  0.00     0.135 A 
ATOM     80  C   UNL A   1      45.004  33.722  27.267  1.00  0.00     0.135 A 
ATOM     81  F   UNL A   1      43.254  36.853  27.858  1.00  0.00    -0.206 F 
ATOM     82  C   UNL A   1      45.261  36.459  26.717  1.00  0.00     0.059 A 
ATOM     83  C   UNL A   1      46.143  34.212  26.599  1.00  0.00     0.059 A 
ATOM     84  F   UNL A   1      44.996  32.426  27.616  1.00  0.00    -0.206 F 
ATOM     85  C   UNL A   1      46.297  35.589  26.394  1.00  0.00     0.060 A 
BRANCH  85  86
ATOM     86  S   UNL A   1      47.945  36.262  26.008  1.00  0.00     0.124 S 
ATOM     87  O   UNL A   1      47.627  37.584  25.488  1.00  0.00    -0.237 OA
ATOM     88  O   UNL A   1      48.636  36.229  27.295  1.00  0.00    -0.237 OA
ATOM     89  O   UNL A   1      48.449  35.296  25.041  1.00  0.00    -0.744 OA
ENDBRANCH  85  86
ENDBRANCH  53  78
BRANCH  65  90
ATOM     90  C   UNL A   1      44.063  37.848  34.774  1.00  0.00     0.058 A 
ATOM     91  C   UNL A   1      44.950  37.872  35.852  1.00  0.00     0.135 A 
ATOM     92  C   UNL A   1      43.665  39.152  34.318  1.00  0.00     0.135 A 
ATOM     93  F   UNL A   1      45.507  36.751  36.325  1.00  0.00    -0.206 F 
ATOM     94  C   UNL A   1      45.360  39.068  36.456  1.00  0.00     0.059 A 
ATOM     95  C   UNL A   1      44.119  40.344  34.852  1.00  0.00     0.059 A 
ATOM     96  F   UNL A   1      42.826  39.369  33.302  1.00  0.00    -0.206 F 
ATOM     97  C   UNL A   1      44.946  40.296  35.945  1.00  0.00     0.060 A 
BRANCH  97  98
ATOM     98  S   UNL A   1      45.508  41.832  36.676  1.00  0.00     0.124 S 
ATOM     99  O   UNL A   1      45.668  41.440  38.073  1.00  0.00    -0.237 OA
ATOM    100  O   UNL A   1      46.742  42.093  35.942  1.00  0.00    -0.237 OA
ATOM    101  O   UNL A   1      44.418  42.765  36.407  1.00  0.00    -0.744 OA
ENDBRANCH  97  98
ENDBRANCH  65  90
ENDBRANCH  39  40
ENDBRANCH  32  34
ENDBRANCH  31  32
ENDBRANCH  30  31
ENDBRANCH  29  30
ENDBRANCH  28  29
ENDBRANCH  27  28
ENDBRANCH  26  27
ENDBRANCH   1  26
TORSDOF 26
ENDMDL
