MODEL 1
REMARK VINA RESULT:     -10.4      0.000      0.000
REMARK SMILES C[C@@H](C(=O)OCCOCCOCCOCCOC(=O)c1ccc(-c2c3nc(c(-c4c(F)cc(S(=O)(=O)[O-])cc4F)c4ccc([nH]4)c(-c4c(F)cc(S(=O)(=O)[O-])cc4F)c4nc(c(-c5c(F)cc(S(=O)(=O)[O-])cc5F)c5ccc2[nH]5)C=C4)C=C3)cc1)c1ccc(C[C@H]2CCC[C@H]2O)cc1-c1ccc(O)cc1
REMARK SMILES IDX 10 1 9 2 8 3 7 4 6 5 5 6 3 7 4 8 2 9 1 10 86 11 87 12 98 13
REMARK SMILES IDX 88 14 97 15 89 16 99 17 100 18 105 19 101 20 104 21 102 22
REMARK SMILES IDX 103 23 90 25 91 26 92 27 95 28 93 29 94 30 96 31 11 33 12 34
REMARK SMILES IDX 13 35 14 36 15 37 16 38 17 39 18 40 19 41 20 42 21 43 85 44
REMARK SMILES IDX 22 45 84 46 23 47 24 48 25 49 78 50 26 51 83 52 77 53 79 54
REMARK SMILES IDX 27 55 82 56 76 57 75 58 28 60 62 61 41 62 61 63 42 64 45 65
REMARK SMILES IDX 60 66 80 67 43 68 44 69 59 71 81 72 46 73 29 74 30 75 39 76
REMARK SMILES IDX 31 77 32 78 38 79 40 80 33 81 34 82 35 83 36 84 37 85 63 86
REMARK SMILES IDX 64 87 73 88 65 89 66 90 72 91 74 92 67 93 68 94 69 95 70 96
REMARK SMILES IDX 71 97 47 98 48 99 57 100 49 101 50 102 56 103 58 104 51 105
REMARK SMILES IDX 52 106 53 107 54 108 55 109
REMARK H PARENT 103 24 96 32 79 59 45 70
REMARK Flexibility Score: inf
ROOT
ATOM      1  C   UNL A   1      40.680  20.357  27.100  1.00  0.00     0.188 C 
ENDROOT
BRANCH   1   2
ATOM      2  C   UNL A   1      40.208  21.210  25.935  1.00  0.00     0.188 C 
BRANCH   2   3
ATOM      3  O   UNL A   1      39.126  22.085  26.206  1.00  0.00    -0.376 OA
BRANCH   3   4
ATOM      4  C   UNL A   1      38.077  22.132  25.234  1.00  0.00     0.202 C 
BRANCH   4   5
ATOM      5  C   UNL A   1      36.634  21.942  25.732  1.00  0.00     0.261 C 
BRANCH   5   6
ATOM      6  O   UNL A   1      36.158  23.061  26.511  1.00  0.00    -0.463 OA
BRANCH   6   7
ATOM      7  C   UNL A   1      35.076  23.738  26.035  1.00  0.00     0.313 C 
ATOM      8  O   UNL A   1      35.161  24.778  25.397  1.00  0.00    -0.252 OA
BRANCH   7   9
ATOM      9  C   UNL A   1      33.776  23.091  26.509  1.00  0.00     0.127 C 
ATOM     10  C   UNL A   1      33.661  22.657  27.987  1.00  0.00     0.025 C 
BRANCH   9  11
ATOM     11  C   UNL A   1      33.204  21.964  25.643  1.00  0.00    -0.026 A 
ATOM     12  C   UNL A   1      33.238  20.703  26.283  1.00  0.00     0.005 A 
ATOM     13  C   UNL A   1      32.792  22.019  24.286  1.00  0.00    -0.014 A 
ATOM     14  C   UNL A   1      32.910  19.530  25.620  1.00  0.00     0.004 A 
ATOM     15  C   UNL A   1      32.526  20.792  23.625  1.00  0.00     0.012 A 
ATOM     16  C   UNL A   1      32.611  19.551  24.266  1.00  0.00    -0.047 A 
BRANCH  13  17
ATOM     17  C   UNL A   1      32.543  23.222  23.464  1.00  0.00    -0.018 A 
ATOM     18  C   UNL A   1      31.356  23.957  23.632  1.00  0.00     0.012 A 
ATOM     19  C   UNL A   1      33.326  23.521  22.335  1.00  0.00     0.012 A 
ATOM     20  C   UNL A   1      30.999  24.992  22.760  1.00  0.00     0.047 A 
ATOM     21  C   UNL A   1      32.963  24.546  21.450  1.00  0.00     0.047 A 
ATOM     22  C   UNL A   1      31.818  25.295  21.685  1.00  0.00     0.115 A 
BRANCH  22  23
ATOM     23  O   UNL A   1      31.465  26.332  20.876  1.00  0.00    -0.508 OA
ATOM     24  H   UNL A   1      30.780  26.917  21.134  1.00  0.00     0.293 HD
ENDBRANCH  22  23
ENDBRANCH  13  17
BRANCH  16  25
ATOM     25  C   UNL A   1      32.375  18.269  23.518  1.00  0.00     0.041 C 
BRANCH  25  26
ATOM     26  C   UNL A   1      33.308  17.085  23.818  1.00  0.00     0.022 C 
ATOM     27  C   UNL A   1      34.740  17.445  24.244  1.00  0.00     0.007 C 
ATOM     28  C   UNL A   1      32.866  16.031  24.845  1.00  0.00     0.117 C 
ATOM     29  C   UNL A   1      35.251  16.235  25.037  1.00  0.00     0.003 C 
ATOM     30  C   UNL A   1      34.131  15.196  25.003  1.00  0.00     0.032 C 
BRANCH  28  31
ATOM     31  O   UNL A   1      32.515  16.533  26.123  1.00  0.00    -0.393 OA
ATOM     32  H   UNL A   1      33.116  17.256  26.361  1.00  0.00     0.210 HD
ENDBRANCH  28  31
ENDBRANCH  25  26
ENDBRANCH  16  25
ENDBRANCH   9  11
ENDBRANCH   7   9
ENDBRANCH   6   7
ENDBRANCH   5   6
ENDBRANCH   4   5
ENDBRANCH   3   4
ENDBRANCH   2   3
ENDBRANCH   1   2
BRANCH   1  33
ATOM     33  O   UNL A   1      42.073  20.263  27.312  1.00  0.00    -0.377 OA
BRANCH  33  34
ATOM     34  C   UNL A   1      42.687  19.026  26.976  1.00  0.00     0.188 C 
BRANCH  34  35
ATOM     35  C   UNL A   1      43.034  18.783  25.495  1.00  0.00     0.188 C 
BRANCH  35  36
ATOM     36  O   UNL A   1      43.741  19.811  24.794  1.00  0.00    -0.376 OA
BRANCH  36  37
ATOM     37  C   UNL A   1      44.994  20.200  25.344  1.00  0.00     0.202 C 
BRANCH  37  38
ATOM     38  C   UNL A   1      45.204  21.716  25.377  1.00  0.00     0.261 C 
BRANCH  38  39
ATOM     39  O   UNL A   1      44.194  22.387  26.129  1.00  0.00    -0.460 OA
BRANCH  39  40
ATOM     40  C   UNL A   1      43.386  23.194  25.387  1.00  0.00     0.338 C 
ATOM     41  O   UNL A   1      43.005  23.018  24.250  1.00  0.00    -0.246 OA
BRANCH  40  42
ATOM     42  C   UNL A   1      42.893  24.261  26.281  1.00  0.00     0.060 A 
ATOM     43  C   UNL A   1      43.290  25.584  26.025  1.00  0.00     0.016 A 
ATOM     44  C   UNL A   1      41.955  23.974  27.279  1.00  0.00     0.016 A 
ATOM     45  C   UNL A   1      42.773  26.621  26.798  1.00  0.00     0.010 A 
ATOM     46  C   UNL A   1      41.465  25.004  28.073  1.00  0.00     0.010 A 
ATOM     47  C   UNL A   1      41.911  26.319  27.863  1.00  0.00    -0.014 A 
BRANCH  47  48
ATOM     48  C   UNL A   1      41.767  27.289  28.967  1.00  0.00     0.031 A 
ATOM     49  C   UNL A   1      42.734  27.139  30.109  1.00  0.00     0.074 A 
ATOM     50  C   UNL A   1      40.812  28.233  28.965  1.00  0.00     0.049 A 
ATOM     51  N   UNL A   1      42.808  27.802  31.228  1.00  0.00    -0.248 NA
ATOM     52  C   UNL A   1      43.755  26.083  29.967  1.00  0.00     0.031 C 
ATOM     53  C   UNL A   1      39.849  28.465  27.890  1.00  0.00     0.029 A 
ATOM     54  N   UNL A   1      40.492  29.167  29.915  1.00  0.00    -0.354 N 
ATOM     55  C   UNL A   1      43.879  27.246  31.919  1.00  0.00     0.074 A 
ATOM     56  C   UNL A   1      44.408  26.173  31.113  1.00  0.00     0.031 C 
ATOM     57  C   UNL A   1      39.031  29.473  28.249  1.00  0.00     0.029 A 
ATOM     58  C   UNL A   1      39.398  29.933  29.589  1.00  0.00     0.049 A 
ATOM     59  H   UNL A   1      40.997  29.279  30.753  1.00  0.00     0.167 HD
ATOM     60  C   UNL A   1      44.378  27.602  33.123  1.00  0.00     0.037 A 
ATOM     61  C   UNL A   1      38.766  30.881  30.309  1.00  0.00     0.037 A 
ATOM     62  C   UNL A   1      43.818  28.654  33.922  1.00  0.00     0.049 A 
ATOM     63  C   UNL A   1      39.301  31.219  31.680  1.00  0.00     0.074 A 
ATOM     64  C   UNL A   1      44.235  29.115  35.155  1.00  0.00     0.029 A 
ATOM     65  N   UNL A   1      42.702  29.399  33.566  1.00  0.00    -0.354 N 
ATOM     66  N   UNL A   1      40.339  30.714  32.310  1.00  0.00    -0.248 NA
ATOM     67  C   UNL A   1      38.586  32.255  32.436  1.00  0.00     0.031 C 
ATOM     68  C   UNL A   1      43.339  30.105  35.570  1.00  0.00     0.029 A 
ATOM     69  C   UNL A   1      42.398  30.302  34.568  1.00  0.00     0.049 A 
ATOM     70  H   UNL A   1      42.201  29.299  32.725  1.00  0.00     0.167 HD
ATOM     71  C   UNL A   1      40.418  31.391  33.522  1.00  0.00     0.074 A 
ATOM     72  C   UNL A   1      39.328  32.347  33.532  1.00  0.00     0.031 C 
ATOM     73  C   UNL A   1      41.309  31.244  34.535  1.00  0.00     0.037 A 
BRANCH  60  74
ATOM     74  C   UNL A   1      45.549  26.819  33.645  1.00  0.00     0.058 A 
ATOM     75  C   UNL A   1      46.875  27.208  33.389  1.00  0.00     0.135 A 
ATOM     76  C   UNL A   1      45.343  25.658  34.407  1.00  0.00     0.135 A 
ATOM     77  F   UNL A   1      47.129  28.291  32.636  1.00  0.00    -0.206 F 
ATOM     78  C   UNL A   1      47.954  26.462  33.852  1.00  0.00     0.059 A 
ATOM     79  C   UNL A   1      46.408  24.913  34.904  1.00  0.00     0.059 A 
ATOM     80  F   UNL A   1      44.097  25.232  34.666  1.00  0.00    -0.206 F 
ATOM     81  C   UNL A   1      47.710  25.317  34.612  1.00  0.00     0.060 A 
BRANCH  81  82
ATOM     82  S   UNL A   1      49.120  24.369  35.220  1.00  0.00     0.124 S 
ATOM     83  O   UNL A   1      48.459  23.340  36.017  1.00  0.00    -0.237 OA
ATOM     84  O   UNL A   1      49.743  23.909  33.983  1.00  0.00    -0.237 OA
ATOM     85  O   UNL A   1      49.888  25.352  35.978  1.00  0.00    -0.744 OA
ENDBRANCH  81  82
ENDBRANCH  60  74
BRANCH  61  86
ATOM     86  C   UNL A   1      37.568  31.571  29.758  1.00  0.00     0.058 A 
ATOM     87  C   UNL A   1      37.649  32.883  29.265  1.00  0.00     0.135 A 
ATOM     88  C   UNL A   1      36.318  30.935  29.710  1.00  0.00     0.135 A 
ATOM     89  F   UNL A   1      38.817  33.541  29.297  1.00  0.00    -0.206 F 
ATOM     90  C   UNL A   1      36.533  33.542  28.756  1.00  0.00     0.059 A 
ATOM     91  C   UNL A   1      35.193  31.565  29.182  1.00  0.00     0.059 A 
ATOM     92  F   UNL A   1      36.185  29.677  30.160  1.00  0.00    -0.206 F 
ATOM     93  C   UNL A   1      35.309  32.873  28.715  1.00  0.00     0.060 A 
BRANCH  93  94
ATOM     94  S   UNL A   1      33.881  33.720  28.003  1.00  0.00     0.124 S 
ATOM     95  O   UNL A   1      34.511  34.571  27.003  1.00  0.00    -0.237 OA
ATOM     96  O   UNL A   1      33.090  32.606  27.490  1.00  0.00    -0.237 OA
ATOM     97  O   UNL A   1      33.299  34.414  29.148  1.00  0.00    -0.744 OA
ENDBRANCH  93  94
ENDBRANCH  61  86
BRANCH  73  98
ATOM     98  C   UNL A   1      41.167  32.162  35.717  1.00  0.00     0.058 A 
ATOM     99  C   UNL A   1      41.977  33.296  35.873  1.00  0.00     0.135 A 
ATOM    100  C   UNL A   1      40.154  31.940  36.664  1.00  0.00     0.135 A 
ATOM    101  F   UNL A   1      42.961  33.551  34.995  1.00  0.00    -0.206 F 
ATOM    102  C   UNL A   1      41.805  34.167  36.944  1.00  0.00     0.059 A 
ATOM    103  C   UNL A   1      39.943  32.814  37.724  1.00  0.00     0.059 A 
ATOM    104  F   UNL A   1      39.341  30.877  36.549  1.00  0.00    -0.206 F 
ATOM    105  C   UNL A   1      40.783  33.917  37.862  1.00  0.00     0.060 A 
BRANCH 105 106
ATOM    106  S   UNL A   1      40.547  35.074  39.227  1.00  0.00     0.124 S 
ATOM    107  O   UNL A   1      39.456  35.901  38.722  1.00  0.00    -0.237 OA
ATOM    108  O   UNL A   1      40.210  34.187  40.335  1.00  0.00    -0.237 OA
ATOM    109  O   UNL A   1      41.841  35.740  39.336  1.00  0.00    -0.744 OA
ENDBRANCH 105 106
ENDBRANCH  73  98
ENDBRANCH  47  48
ENDBRANCH  40  42
ENDBRANCH  39  40
ENDBRANCH  38  39
ENDBRANCH  37  38
ENDBRANCH  36  37
ENDBRANCH  35  36
ENDBRANCH  34  35
ENDBRANCH  33  34
ENDBRANCH   1  33
TORSDOF 29
ENDMDL
MODEL 2
REMARK VINA RESULT:     -10.4      1.253      1.965
REMARK SMILES C[C@@H](C(=O)OCCOCCOCCOCCOC(=O)c1ccc(-c2c3nc(c(-c4c(F)cc(S(=O)(=O)[O-])cc4F)c4ccc([nH]4)c(-c4c(F)cc(S(=O)(=O)[O-])cc4F)c4nc(c(-c5c(F)cc(S(=O)(=O)[O-])cc5F)c5ccc2[nH]5)C=C4)C=C3)cc1)c1ccc(C[C@H]2CCC[C@H]2O)cc1-c1ccc(O)cc1
REMARK SMILES IDX 10 1 9 2 8 3 7 4 6 5 5 6 3 7 4 8 2 9 1 10 86 11 87 12 98 13
REMARK SMILES IDX 88 14 97 15 89 16 99 17 100 18 105 19 101 20 104 21 102 22
REMARK SMILES IDX 103 23 90 25 91 26 92 27 95 28 93 29 94 30 96 31 11 33 12 34
REMARK SMILES IDX 13 35 14 36 15 37 16 38 17 39 18 40 19 41 20 42 21 43 85 44
REMARK SMILES IDX 22 45 84 46 23 47 24 48 25 49 78 50 26 51 83 52 77 53 79 54
REMARK SMILES IDX 27 55 82 56 76 57 75 58 28 60 62 61 41 62 61 63 42 64 45 65
REMARK SMILES IDX 60 66 80 67 43 68 44 69 59 71 81 72 46 73 29 74 30 75 39 76
REMARK SMILES IDX 31 77 32 78 38 79 40 80 33 81 34 82 35 83 36 84 37 85 63 86
REMARK SMILES IDX 64 87 73 88 65 89 66 90 72 91 74 92 67 93 68 94 69 95 70 96
REMARK SMILES IDX 71 97 47 98 48 99 57 100 49 101 50 102 56 103 58 104 51 105
REMARK SMILES IDX 52 106 53 107 54 108 55 109
REMARK H PARENT 103 24 96 32 79 59 45 70
REMARK Flexibility Score: inf
ROOT
ATOM      1  C   UNL A   1      40.082  20.829  26.700  1.00  0.00     0.188 C 
ENDROOT
BRANCH   1   2
ATOM      2  C   UNL A   1      39.636  22.270  26.515  1.00  0.00     0.188 C 
BRANCH   2   3
ATOM      3  O   UNL A   1      38.414  22.456  25.822  1.00  0.00    -0.376 OA
BRANCH   3   4
ATOM      4  C   UNL A   1      37.737  23.700  26.031  1.00  0.00     0.202 C 
BRANCH   4   5
ATOM      5  C   UNL A   1      36.233  23.754  25.717  1.00  0.00     0.261 C 
BRANCH   5   6
ATOM      6  O   UNL A   1      35.503  22.641  26.277  1.00  0.00    -0.463 OA
BRANCH   6   7
ATOM      7  C   UNL A   1      34.458  22.931  27.102  1.00  0.00     0.313 C 
ATOM      8  O   UNL A   1      34.558  22.988  28.319  1.00  0.00    -0.252 OA
BRANCH   7   9
ATOM      9  C   UNL A   1      33.156  23.050  26.311  1.00  0.00     0.127 C 
ATOM     10  C   UNL A   1      31.878  23.498  27.052  1.00  0.00     0.025 C 
BRANCH   9  11
ATOM     11  C   UNL A   1      32.784  21.874  25.403  1.00  0.00    -0.026 A 
ATOM     12  C   UNL A   1      32.915  20.619  26.041  1.00  0.00     0.005 A 
ATOM     13  C   UNL A   1      32.473  21.895  24.018  1.00  0.00    -0.014 A 
ATOM     14  C   UNL A   1      32.775  19.422  25.354  1.00  0.00     0.004 A 
ATOM     15  C   UNL A   1      32.400  20.653  23.337  1.00  0.00     0.012 A 
ATOM     16  C   UNL A   1      32.579  19.424  23.980  1.00  0.00    -0.047 A 
BRANCH  13  17
ATOM     17  C   UNL A   1      32.150  23.071  23.181  1.00  0.00    -0.018 A 
ATOM     18  C   UNL A   1      33.100  23.569  22.271  1.00  0.00     0.012 A 
ATOM     19  C   UNL A   1      31.026  23.875  23.438  1.00  0.00     0.012 A 
ATOM     20  C   UNL A   1      32.906  24.778  21.591  1.00  0.00     0.047 A 
ATOM     21  C   UNL A   1      30.837  25.094  22.771  1.00  0.00     0.047 A 
ATOM     22  C   UNL A   1      31.764  25.522  21.830  1.00  0.00     0.115 A 
BRANCH  22  23
ATOM     23  O   UNL A   1      31.584  26.674  21.125  1.00  0.00    -0.508 OA
ATOM     24  H   UNL A   1      31.140  26.654  20.300  1.00  0.00     0.293 HD
ENDBRANCH  22  23
ENDBRANCH  13  17
BRANCH  16  25
ATOM     25  C   UNL A   1      32.548  18.130  23.215  1.00  0.00     0.041 C 
BRANCH  25  26
ATOM     26  C   UNL A   1      33.478  17.000  23.687  1.00  0.00     0.022 C 
ATOM     27  C   UNL A   1      34.823  17.437  24.286  1.00  0.00     0.007 C 
ATOM     28  C   UNL A   1      32.941  15.964  24.686  1.00  0.00     0.117 C 
ATOM     29  C   UNL A   1      35.268  16.280  25.190  1.00  0.00     0.003 C 
ATOM     30  C   UNL A   1      34.204  15.192  25.047  1.00  0.00     0.032 C 
BRANCH  28  31
ATOM     31  O   UNL A   1      32.400  16.495  25.884  1.00  0.00    -0.393 OA
ATOM     32  H   UNL A   1      32.110  17.407  25.730  1.00  0.00     0.210 HD
ENDBRANCH  28  31
ENDBRANCH  25  26
ENDBRANCH  16  25
ENDBRANCH   9  11
ENDBRANCH   7   9
ENDBRANCH   6   7
ENDBRANCH   5   6
ENDBRANCH   4   5
ENDBRANCH   3   4
ENDBRANCH   2   3
ENDBRANCH   1   2
BRANCH   1  33
ATOM     33  O   UNL A   1      41.127  20.587  27.619  1.00  0.00    -0.377 OA
BRANCH  33  34
ATOM     34  C   UNL A   1      42.141  19.681  27.206  1.00  0.00     0.188 C 
BRANCH  34  35
ATOM     35  C   UNL A   1      42.622  19.768  25.745  1.00  0.00     0.188 C 
BRANCH  35  36
ATOM     36  O   UNL A   1      43.279  20.968  25.326  1.00  0.00    -0.376 OA
BRANCH  36  37
ATOM     37  C   UNL A   1      44.338  21.428  26.157  1.00  0.00     0.202 C 
BRANCH  37  38
ATOM     38  C   UNL A   1      44.549  22.944  26.096  1.00  0.00     0.261 C 
BRANCH  38  39
ATOM     39  O   UNL A   1      43.603  23.654  26.894  1.00  0.00    -0.460 OA
BRANCH  39  40
ATOM     40  C   UNL A   1      42.725  24.412  26.179  1.00  0.00     0.338 C 
ATOM     41  O   UNL A   1      42.304  24.202  25.062  1.00  0.00    -0.246 OA
BRANCH  40  42
ATOM     42  C   UNL A   1      42.219  25.465  27.082  1.00  0.00     0.060 A 
ATOM     43  C   UNL A   1      42.743  26.763  26.955  1.00  0.00     0.016 A 
ATOM     44  C   UNL A   1      41.158  25.203  27.955  1.00  0.00     0.016 A 
ATOM     45  C   UNL A   1      42.225  27.795  27.734  1.00  0.00     0.010 A 
ATOM     46  C   UNL A   1      40.663  26.224  28.757  1.00  0.00     0.010 A 
ATOM     47  C   UNL A   1      41.230  27.508  28.680  1.00  0.00    -0.014 A 
BRANCH  47  48
ATOM     48  C   UNL A   1      41.039  28.424  29.822  1.00  0.00     0.031 A 
ATOM     49  C   UNL A   1      41.940  28.201  31.006  1.00  0.00     0.074 A 
ATOM     50  C   UNL A   1      40.100  29.382  29.817  1.00  0.00     0.049 A 
ATOM     51  N   UNL A   1      41.963  28.806  32.159  1.00  0.00    -0.248 NA
ATOM     52  C   UNL A   1      42.953  27.136  30.865  1.00  0.00     0.031 C 
ATOM     53  C   UNL A   1      39.199  29.684  28.705  1.00  0.00     0.029 A 
ATOM     54  N   UNL A   1      39.741  30.274  30.793  1.00  0.00    -0.354 N 
ATOM     55  C   UNL A   1      42.987  28.198  32.877  1.00  0.00     0.074 A 
ATOM     56  C   UNL A   1      43.543  27.158  32.047  1.00  0.00     0.031 C 
ATOM     57  C   UNL A   1      38.378  30.687  29.070  1.00  0.00     0.029 A 
ATOM     58  C   UNL A   1      38.678  31.073  30.449  1.00  0.00     0.049 A 
ATOM     59  H   UNL A   1      40.201  30.335  31.662  1.00  0.00     0.167 HD
ATOM     60  C   UNL A   1      43.425  28.486  34.123  1.00  0.00     0.037 A 
ATOM     61  C   UNL A   1      38.022  31.995  31.180  1.00  0.00     0.037 A 
ATOM     62  C   UNL A   1      42.836  29.506  34.942  1.00  0.00     0.049 A 
ATOM     63  C   UNL A   1      38.486  32.256  32.593  1.00  0.00     0.074 A 
ATOM     64  C   UNL A   1      43.193  29.898  36.218  1.00  0.00     0.029 A 
ATOM     65  N   UNL A   1      41.752  30.286  34.565  1.00  0.00    -0.354 N 
ATOM     66  N   UNL A   1      39.480  31.702  33.252  1.00  0.00    -0.248 NA
ATOM     67  C   UNL A   1      37.745  33.264  33.362  1.00  0.00     0.031 C 
ATOM     68  C   UNL A   1      42.289  30.881  36.634  1.00  0.00     0.029 A 
ATOM     69  C   UNL A   1      41.407  31.144  35.594  1.00  0.00     0.049 A 
ATOM     70  H   UNL A   1      41.296  30.237  33.694  1.00  0.00     0.167 HD
ATOM     71  C   UNL A   1      39.502  32.317  34.499  1.00  0.00     0.074 A 
ATOM     72  C   UNL A   1      38.428  33.290  34.499  1.00  0.00     0.031 C 
ATOM     73  C   UNL A   1      40.335  32.105  35.550  1.00  0.00     0.037 A 
BRANCH  60  74
ATOM     74  C   UNL A   1      44.554  27.659  34.667  1.00  0.00     0.058 A 
ATOM     75  C   UNL A   1      45.896  28.045  34.516  1.00  0.00     0.135 A 
ATOM     76  C   UNL A   1      44.291  26.457  35.344  1.00  0.00     0.135 A 
ATOM     77  F   UNL A   1      46.206  29.167  33.847  1.00  0.00    -0.206 F 
ATOM     78  C   UNL A   1      46.938  27.259  34.997  1.00  0.00     0.059 A 
ATOM     79  C   UNL A   1      45.316  25.669  35.858  1.00  0.00     0.059 A 
ATOM     80  F   UNL A   1      43.028  26.031  35.499  1.00  0.00    -0.206 F 
ATOM     81  C   UNL A   1      46.637  26.074  35.671  1.00  0.00     0.060 A 
BRANCH  81  82
ATOM     82  S   UNL A   1      47.999  25.073  36.305  1.00  0.00     0.124 S 
ATOM     83  O   UNL A   1      48.654  24.653  35.070  1.00  0.00    -0.237 OA
ATOM     84  O   UNL A   1      48.738  26.033  37.119  1.00  0.00    -0.237 OA
ATOM     85  O   UNL A   1      47.325  24.014  37.048  1.00  0.00    -0.744 OA
ENDBRANCH  81  82
ENDBRANCH  60  74
BRANCH  61  86
ATOM     86  C   UNL A   1      36.865  32.732  30.602  1.00  0.00     0.058 A 
ATOM     87  C   UNL A   1      35.545  32.344  30.876  1.00  0.00     0.135 A 
ATOM     88  C   UNL A   1      37.054  33.842  29.763  1.00  0.00     0.135 A 
ATOM     89  F   UNL A   1      35.308  31.283  31.662  1.00  0.00    -0.206 F 
ATOM     90  C   UNL A   1      34.456  33.020  30.333  1.00  0.00     0.059 A 
ATOM     91  C   UNL A   1      35.981  34.550  29.229  1.00  0.00     0.059 A 
ATOM     92  F   UNL A   1      38.296  34.264  29.474  1.00  0.00    -0.206 F 
ATOM     93  C   UNL A   1      34.684  34.125  29.513  1.00  0.00     0.060 A 
BRANCH  93  94
ATOM     94  S   UNL A   1      33.262  35.027  28.857  1.00  0.00     0.124 S 
ATOM     95  O   UNL A   1      33.910  36.104  28.120  1.00  0.00    -0.237 OA
ATOM     96  O   UNL A   1      32.599  34.007  28.050  1.00  0.00    -0.237 OA
ATOM     97  O   UNL A   1      32.538  35.430  30.059  1.00  0.00    -0.744 OA
ENDBRANCH  93  94
ENDBRANCH  61  86
BRANCH  73  98
ATOM     98  C   UNL A   1      40.142  32.965  36.767  1.00  0.00     0.058 A 
ATOM     99  C   UNL A   1      39.170  32.671  37.734  1.00  0.00     0.135 A 
ATOM    100  C   UNL A   1      40.996  34.056  37.001  1.00  0.00     0.135 A 
ATOM    101  F   UNL A   1      38.329  31.639  37.556  1.00  0.00    -0.206 F 
ATOM    102  C   UNL A   1      39.034  33.444  38.882  1.00  0.00     0.059 A 
ATOM    103  C   UNL A   1      40.898  34.824  38.155  1.00  0.00     0.059 A 
ATOM    104  F   UNL A   1      41.954  34.369  36.113  1.00  0.00    -0.206 F 
ATOM    105  C   UNL A   1      39.905  34.517  39.084  1.00  0.00     0.060 A 
BRANCH 105 106
ATOM    106  S   UNL A   1      39.740  35.491  40.594  1.00  0.00     0.124 S 
ATOM    107  O   UNL A   1      39.165  36.730  40.081  1.00  0.00    -0.237 OA
ATOM    108  O   UNL A   1      38.850  34.665  41.403  1.00  0.00    -0.237 OA
ATOM    109  O   UNL A   1      41.111  35.592  41.085  1.00  0.00    -0.744 OA
ENDBRANCH 105 106
ENDBRANCH  73  98
ENDBRANCH  47  48
ENDBRANCH  40  42
ENDBRANCH  39  40
ENDBRANCH  38  39
ENDBRANCH  37  38
ENDBRANCH  36  37
ENDBRANCH  35  36
ENDBRANCH  34  35
ENDBRANCH  33  34
ENDBRANCH   1  33
TORSDOF 29
ENDMDL
MODEL 3
REMARK VINA RESULT:      -9.4      5.470     10.842
REMARK SMILES C[C@@H](C(=O)OCCOCCOCCOCCOC(=O)c1ccc(-c2c3nc(c(-c4c(F)cc(S(=O)(=O)[O-])cc4F)c4ccc([nH]4)c(-c4c(F)cc(S(=O)(=O)[O-])cc4F)c4nc(c(-c5c(F)cc(S(=O)(=O)[O-])cc5F)c5ccc2[nH]5)C=C4)C=C3)cc1)c1ccc(C[C@H]2CCC[C@H]2O)cc1-c1ccc(O)cc1
REMARK SMILES IDX 10 1 9 2 8 3 7 4 6 5 5 6 3 7 4 8 2 9 1 10 86 11 87 12 98 13
REMARK SMILES IDX 88 14 97 15 89 16 99 17 100 18 105 19 101 20 104 21 102 22
REMARK SMILES IDX 103 23 90 25 91 26 92 27 95 28 93 29 94 30 96 31 11 33 12 34
REMARK SMILES IDX 13 35 14 36 15 37 16 38 17 39 18 40 19 41 20 42 21 43 85 44
REMARK SMILES IDX 22 45 84 46 23 47 24 48 25 49 78 50 26 51 83 52 77 53 79 54
REMARK SMILES IDX 27 55 82 56 76 57 75 58 28 60 62 61 41 62 61 63 42 64 45 65
REMARK SMILES IDX 60 66 80 67 43 68 44 69 59 71 81 72 46 73 29 74 30 75 39 76
REMARK SMILES IDX 31 77 32 78 38 79 40 80 33 81 34 82 35 83 36 84 37 85 63 86
REMARK SMILES IDX 64 87 73 88 65 89 66 90 72 91 74 92 67 93 68 94 69 95 70 96
REMARK SMILES IDX 71 97 47 98 48 99 57 100 49 101 50 102 56 103 58 104 51 105
REMARK SMILES IDX 52 106 53 107 54 108 55 109
REMARK H PARENT 103 24 96 32 79 59 45 70
REMARK Flexibility Score: inf
ROOT
ATOM      1  C   UNL A   1      33.202  27.536  25.888  1.00  0.00     0.188 C 
ENDROOT
BRANCH   1   2
ATOM      2  C   UNL A   1      32.357  26.369  26.371  1.00  0.00     0.188 C 
BRANCH   2   3
ATOM      3  O   UNL A   1      32.836  25.077  26.037  1.00  0.00    -0.376 OA
BRANCH   3   4
ATOM      4  C   UNL A   1      33.193  24.221  27.127  1.00  0.00     0.202 C 
BRANCH   4   5
ATOM      5  C   UNL A   1      33.989  22.946  26.800  1.00  0.00     0.261 C 
BRANCH   5   6
ATOM      6  O   UNL A   1      35.217  23.217  26.091  1.00  0.00    -0.463 OA
BRANCH   6   7
ATOM      7  C   UNL A   1      35.815  22.171  25.455  1.00  0.00     0.313 C 
ATOM      8  O   UNL A   1      36.550  21.373  26.018  1.00  0.00    -0.252 OA
BRANCH   7   9
ATOM      9  C   UNL A   1      35.535  22.215  23.954  1.00  0.00     0.127 C 
ATOM     10  C   UNL A   1      36.610  22.806  23.017  1.00  0.00     0.025 C 
BRANCH   9  11
ATOM     11  C   UNL A   1      34.175  22.768  23.515  1.00  0.00    -0.026 A 
ATOM     12  C   UNL A   1      34.234  24.120  23.104  1.00  0.00     0.005 A 
ATOM     13  C   UNL A   1      32.902  22.146  23.603  1.00  0.00    -0.014 A 
ATOM     14  C   UNL A   1      33.093  24.854  22.814  1.00  0.00     0.004 A 
ATOM     15  C   UNL A   1      31.756  22.948  23.360  1.00  0.00     0.012 A 
ATOM     16  C   UNL A   1      31.837  24.297  23.000  1.00  0.00    -0.047 A 
BRANCH  13  17
ATOM     17  C   UNL A   1      32.606  20.722  23.867  1.00  0.00    -0.018 A 
ATOM     18  C   UNL A   1      32.831  20.181  25.146  1.00  0.00     0.012 A 
ATOM     19  C   UNL A   1      32.352  19.815  22.823  1.00  0.00     0.012 A 
ATOM     20  C   UNL A   1      32.735  18.806  25.392  1.00  0.00     0.047 A 
ATOM     21  C   UNL A   1      32.271  18.435  23.064  1.00  0.00     0.047 A 
ATOM     22  C   UNL A   1      32.433  17.944  24.352  1.00  0.00     0.115 A 
BRANCH  22  23
ATOM     23  O   UNL A   1      32.308  16.616  24.629  1.00  0.00    -0.508 OA
ATOM     24  H   UNL A   1      33.028  16.035  24.478  1.00  0.00     0.293 HD
ENDBRANCH  22  23
ENDBRANCH  13  17
BRANCH  16  25
ATOM     25  C   UNL A   1      30.599  25.128  22.803  1.00  0.00     0.041 C 
BRANCH  25  26
ATOM     26  C   UNL A   1      30.671  26.615  23.183  1.00  0.00     0.022 C 
ATOM     27  C   UNL A   1      30.978  27.592  22.037  1.00  0.00     0.007 C 
ATOM     28  C   UNL A   1      29.480  27.255  23.912  1.00  0.00     0.117 C 
ATOM     29  C   UNL A   1      30.418  28.947  22.488  1.00  0.00     0.003 C 
ATOM     30  C   UNL A   1      29.856  28.732  23.894  1.00  0.00     0.032 C 
BRANCH  28  31
ATOM     31  O   UNL A   1      28.225  27.119  23.267  1.00  0.00    -0.393 OA
ATOM     32  H   UNL A   1      28.088  27.869  22.667  1.00  0.00     0.210 HD
ENDBRANCH  28  31
ENDBRANCH  25  26
ENDBRANCH  16  25
ENDBRANCH   9  11
ENDBRANCH   7   9
ENDBRANCH   6   7
ENDBRANCH   5   6
ENDBRANCH   4   5
ENDBRANCH   3   4
ENDBRANCH   2   3
ENDBRANCH   1   2
BRANCH   1  33
ATOM     33  O   UNL A   1      34.389  27.815  26.600  1.00  0.00    -0.377 OA
BRANCH  33  34
ATOM     34  C   UNL A   1      34.556  29.148  27.063  1.00  0.00     0.188 C 
BRANCH  34  35
ATOM     35  C   UNL A   1      35.893  29.502  27.744  1.00  0.00     0.188 C 
BRANCH  35  36
ATOM     36  O   UNL A   1      35.845  30.236  28.971  1.00  0.00    -0.376 OA
BRANCH  36  37
ATOM     37  C   UNL A   1      36.275  29.542  30.136  1.00  0.00     0.202 C 
BRANCH  37  38
ATOM     38  C   UNL A   1      36.313  30.419  31.391  1.00  0.00     0.261 C 
BRANCH  38  39
ATOM     39  O   UNL A   1      36.760  31.744  31.112  1.00  0.00    -0.460 OA
BRANCH  39  40
ATOM     40  C   UNL A   1      37.898  32.101  31.773  1.00  0.00     0.338 C 
ATOM     41  O   UNL A   1      37.990  32.741  32.797  1.00  0.00    -0.246 OA
BRANCH  40  42
ATOM     42  C   UNL A   1      39.023  31.408  31.112  1.00  0.00     0.060 A 
ATOM     43  C   UNL A   1      39.961  30.739  31.917  1.00  0.00     0.016 A 
ATOM     44  C   UNL A   1      39.079  31.316  29.717  1.00  0.00     0.016 A 
ATOM     45  C   UNL A   1      40.983  30.006  31.319  1.00  0.00     0.010 A 
ATOM     46  C   UNL A   1      40.118  30.613  29.120  1.00  0.00     0.010 A 
ATOM     47  C   UNL A   1      41.096  29.999  29.921  1.00  0.00    -0.014 A 
BRANCH  47  48
ATOM     48  C   UNL A   1      42.401  29.681  29.307  1.00  0.00     0.031 A 
ATOM     49  C   UNL A   1      42.569  28.272  28.807  1.00  0.00     0.074 A 
ATOM     50  C   UNL A   1      43.389  30.585  29.224  1.00  0.00     0.049 A 
ATOM     51  N   UNL A   1      43.612  27.695  28.281  1.00  0.00    -0.248 NA
ATOM     52  C   UNL A   1      41.391  27.390  28.928  1.00  0.00     0.031 C 
ATOM     53  C   UNL A   1      43.305  31.978  29.661  1.00  0.00     0.029 A 
ATOM     54  N   UNL A   1      44.668  30.456  28.750  1.00  0.00    -0.354 N 
ATOM     55  C   UNL A   1      43.217  26.389  28.010  1.00  0.00     0.074 A 
ATOM     56  C   UNL A   1      41.852  26.246  28.454  1.00  0.00     0.031 C 
ATOM     57  C   UNL A   1      44.494  32.573  29.447  1.00  0.00     0.029 A 
ATOM     58  C   UNL A   1      45.425  31.594  28.886  1.00  0.00     0.049 A 
ATOM     59  H   UNL A   1      45.013  29.624  28.351  1.00  0.00     0.167 HD
ATOM     60  C   UNL A   1      43.933  25.397  27.438  1.00  0.00     0.037 A 
ATOM     61  C   UNL A   1      46.726  31.801  28.602  1.00  0.00     0.037 A 
ATOM     62  C   UNL A   1      45.300  25.554  27.030  1.00  0.00     0.049 A 
ATOM     63  C   UNL A   1      47.526  30.659  28.023  1.00  0.00     0.074 A 
ATOM     64  C   UNL A   1      46.133  24.628  26.433  1.00  0.00     0.029 A 
ATOM     65  N   UNL A   1      46.039  26.717  27.195  1.00  0.00    -0.354 N 
ATOM     66  N   UNL A   1      47.135  29.438  27.734  1.00  0.00    -0.248 NA
ATOM     67  C   UNL A   1      48.941  30.920  27.729  1.00  0.00     0.031 C 
ATOM     68  C   UNL A   1      47.393  25.215  26.285  1.00  0.00     0.029 A 
ATOM     69  C   UNL A   1      47.328  26.527  26.735  1.00  0.00     0.049 A 
ATOM     70  H   UNL A   1      45.696  27.555  27.583  1.00  0.00     0.167 HD
ATOM     71  C   UNL A   1      48.245  28.797  27.196  1.00  0.00     0.074 A 
ATOM     72  C   UNL A   1      49.321  29.768  27.192  1.00  0.00     0.031 C 
ATOM     73  C   UNL A   1      48.369  27.524  26.741  1.00  0.00     0.037 A 
BRANCH  60  74
ATOM     74  C   UNL A   1      43.258  24.067  27.267  1.00  0.00     0.058 A 
ATOM     75  C   UNL A   1      43.281  23.088  28.275  1.00  0.00     0.135 A 
ATOM     76  C   UNL A   1      42.582  23.762  26.074  1.00  0.00     0.135 A 
ATOM     77  F   UNL A   1      43.942  23.313  29.421  1.00  0.00    -0.206 F 
ATOM     78  C   UNL A   1      42.677  21.847  28.098  1.00  0.00     0.059 A 
ATOM     79  C   UNL A   1      41.947  22.539  25.887  1.00  0.00     0.059 A 
ATOM     80  F   UNL A   1      42.545  24.654  25.072  1.00  0.00    -0.206 F 
ATOM     81  C   UNL A   1      42.009  21.584  26.901  1.00  0.00     0.060 A 
BRANCH  81  82
ATOM     82  S   UNL A   1      41.216  19.976  26.693  1.00  0.00     0.124 S 
ATOM     83  O   UNL A   1      42.269  19.213  26.031  1.00  0.00    -0.237 OA
ATOM     84  O   UNL A   1      40.925  19.591  28.070  1.00  0.00    -0.237 OA
ATOM     85  O   UNL A   1      40.048  20.277  25.870  1.00  0.00    -0.744 OA
ENDBRANCH  81  82
ENDBRANCH  60  74
BRANCH  61  86
ATOM     86  C   UNL A   1      47.351  33.127  28.859  1.00  0.00     0.058 A 
ATOM     87  C   UNL A   1      47.403  34.111  27.859  1.00  0.00     0.135 A 
ATOM     88  C   UNL A   1      47.908  33.441  30.109  1.00  0.00     0.135 A 
ATOM     89  F   UNL A   1      46.895  33.860  26.644  1.00  0.00    -0.206 F 
ATOM     90  C   UNL A   1      47.993  35.352  28.085  1.00  0.00     0.059 A 
ATOM     91  C   UNL A   1      48.481  34.684  30.366  1.00  0.00     0.059 A 
ATOM     92  F   UNL A   1      47.879  32.541  31.104  1.00  0.00    -0.206 F 
ATOM     93  C   UNL A   1      48.527  35.631  29.344  1.00  0.00     0.060 A 
BRANCH  93  94
ATOM     94  S   UNL A   1      49.242  37.263  29.640  1.00  0.00     0.124 S 
ATOM     95  O   UNL A   1      49.989  37.039  30.872  1.00  0.00    -0.237 OA
ATOM     96  O   UNL A   1      50.041  37.470  28.436  1.00  0.00    -0.237 OA
ATOM     97  O   UNL A   1      48.071  38.126  29.760  1.00  0.00    -0.744 OA
ENDBRANCH  93  94
ENDBRANCH  61  86
BRANCH  73  98
ATOM     98  C   UNL A   1      49.698  27.123  26.166  1.00  0.00     0.058 A 
ATOM     99  C   UNL A   1      50.008  27.317  24.812  1.00  0.00     0.135 A 
ATOM    100  C   UNL A   1      50.701  26.607  27.004  1.00  0.00     0.135 A 
ATOM    101  F   UNL A   1      49.082  27.807  23.971  1.00  0.00    -0.206 F 
ATOM    102  C   UNL A   1      51.258  26.990  24.301  1.00  0.00     0.059 A 
ATOM    103  C   UNL A   1      51.968  26.302  26.521  1.00  0.00     0.059 A 
ATOM    104  F   UNL A   1      50.460  26.418  28.312  1.00  0.00    -0.206 F 
ATOM    105  C   UNL A   1      52.233  26.485  25.165  1.00  0.00     0.060 A 
BRANCH 105 106
ATOM    106  S   UNL A   1      53.863  26.097  24.496  1.00  0.00     0.124 S 
ATOM    107  O   UNL A   1      54.453  27.426  24.378  1.00  0.00    -0.237 OA
ATOM    108  O   UNL A   1      54.430  25.241  25.532  1.00  0.00    -0.237 OA
ATOM    109  O   UNL A   1      53.563  25.430  23.234  1.00  0.00    -0.744 OA
ENDBRANCH 105 106
ENDBRANCH  73  98
ENDBRANCH  47  48
ENDBRANCH  40  42
ENDBRANCH  39  40
ENDBRANCH  38  39
ENDBRANCH  37  38
ENDBRANCH  36  37
ENDBRANCH  35  36
ENDBRANCH  34  35
ENDBRANCH  33  34
ENDBRANCH   1  33
TORSDOF 29
ENDMDL
