MODEL 1
REMARK VINA RESULT:     -10.0      0.000      0.000
REMARK SMILES O=C(OCCOCCOCCOCCOC(=O)c1ccccc1-c1ccc(/C=C2/SC(=S)N(Cc3ccccc3)C2=O)o1)c1ccc(-c2c3nc(c(-c4c(F)cc(S(=O)(=O)[O-])cc4F)c4ccc([nH]4)c(-c4c(F)cc(S(=O)(=O)[O-])cc4F)c4nc(c(-c5c(F)cc(S(=O)(=O)[O-])cc5F)c5ccc2[nH]5)C=C4)C=C3)cc1
REMARK SMILES IDX 10 1 9 2 8 3 7 4 6 5 5 6 4 7 3 8 2 9 1 10 44 11 45 12 109 13
REMARK SMILES IDX 46 14 108 15 47 16 48 17 49 18 102 19 50 20 107 21 101 22
REMARK SMILES IDX 103 23 51 24 106 25 100 26 99 27 52 29 86 30 65 31 85 32
REMARK SMILES IDX 66 33 69 34 84 35 104 36 67 37 68 38 83 40 105 41 70 42
REMARK SMILES IDX 53 43 54 44 63 45 55 46 56 47 62 48 64 49 57 50 58 51 59 52
REMARK SMILES IDX 60 53 61 54 87 55 88 56 97 57 89 58 90 59 96 60 98 61 91 62
REMARK SMILES IDX 92 63 93 64 94 65 95 66 71 67 72 68 81 69 73 70 74 71 80 72
REMARK SMILES IDX 82 73 75 74 76 75 77 76 78 77 79 78 11 79 12 80 13 81 14 82
REMARK SMILES IDX 15 83 16 84 17 85 18 86 19 87 23 88 20 89 22 90 21 91 24 92
REMARK SMILES IDX 25 93 43 94 26 95 27 96 28 97 29 98 30 99 41 100 31 101
REMARK SMILES IDX 33 102 42 103 32 104 34 105 35 106 36 107 40 108 37 109
REMARK SMILES IDX 39 110 38 111
REMARK H PARENT 103 28 69 39
REMARK Flexibility Score: inf
ROOT
ATOM      1  C   UNL A   1      37.252  22.197  24.936  1.00  0.00     0.188 C 
ENDROOT
BRANCH   1   2
ATOM      2  O   UNL A   1      37.865  21.146  25.673  1.00  0.00    -0.377 OA
BRANCH   2   3
ATOM      3  C   UNL A   1      39.286  21.177  25.778  1.00  0.00     0.188 C 
BRANCH   3   4
ATOM      4  C   UNL A   1      39.838  22.268  26.695  1.00  0.00     0.188 C 
BRANCH   4   5
ATOM      5  O   UNL A   1      40.920  21.758  27.477  1.00  0.00    -0.376 OA
BRANCH   5   6
ATOM      6  C   UNL A   1      42.225  21.980  26.947  1.00  0.00     0.202 C 
BRANCH   6   7
ATOM      7  C   UNL A   1      42.243  22.911  25.736  1.00  0.00     0.261 C 
BRANCH   7   8
ATOM      8  O   UNL A   1      42.746  24.212  26.070  1.00  0.00    -0.460 OA
BRANCH   8   9
ATOM      9  C   UNL A   1      42.043  25.370  26.158  1.00  0.00     0.338 C 
ATOM     10  O   UNL A   1      41.447  25.757  25.153  1.00  0.00    -0.246 OA
BRANCH   9  11
ATOM     11  C   UNL A   1      41.925  26.200  27.402  1.00  0.00     0.060 A 
ATOM     12  C   UNL A   1      41.021  25.995  28.448  1.00  0.00     0.016 A 
ATOM     13  C   UNL A   1      42.855  27.246  27.544  1.00  0.00     0.016 A 
ATOM     14  C   UNL A   1      40.982  26.826  29.558  1.00  0.00     0.010 A 
ATOM     15  C   UNL A   1      42.837  28.082  28.666  1.00  0.00     0.010 A 
ATOM     16  C   UNL A   1      41.871  27.889  29.659  1.00  0.00    -0.014 A 
BRANCH  16  17
ATOM     17  C   UNL A   1      41.616  28.896  30.702  1.00  0.00     0.031 A 
ATOM     18  C   UNL A   1      42.605  28.987  31.826  1.00  0.00     0.074 A 
ATOM     19  C   UNL A   1      40.618  29.784  30.559  1.00  0.00     0.049 A 
ATOM     20  N   UNL A   1      42.586  29.738  32.890  1.00  0.00    -0.248 NA
ATOM     21  C   UNL A   1      43.791  28.115  31.725  1.00  0.00     0.031 C 
ATOM     22  C   UNL A   1      39.703  29.847  29.416  1.00  0.00     0.029 A 
ATOM     23  N   UNL A   1      40.220  30.816  31.364  1.00  0.00    -0.354 N 
ATOM     24  C   UNL A   1      43.733  29.406  33.602  1.00  0.00     0.074 A 
ATOM     25  C   UNL A   1      44.429  28.387  32.852  1.00  0.00     0.031 C 
ATOM     26  C   UNL A   1      38.851  30.871  29.595  1.00  0.00     0.029 A 
ATOM     27  C   UNL A   1      39.120  31.490  30.889  1.00  0.00     0.049 A 
ATOM     28  H   UNL A   1      40.678  31.055  32.202  1.00  0.00     0.167 HD
ATOM     29  C   UNL A   1      44.152  29.907  34.785  1.00  0.00     0.037 A 
ATOM     30  C   UNL A   1      38.394  32.467  31.467  1.00  0.00     0.037 A 
ATOM     31  C   UNL A   1      43.428  30.922  35.499  1.00  0.00     0.049 A 
ATOM     32  C   UNL A   1      38.827  32.945  32.829  1.00  0.00     0.074 A 
ATOM     33  C   UNL A   1      43.698  31.472  36.736  1.00  0.00     0.029 A 
ATOM     34  N   UNL A   1      42.277  31.540  35.022  1.00  0.00    -0.354 N 
ATOM     35  N   UNL A   1      39.867  32.572  33.540  1.00  0.00    -0.248 NA
ATOM     36  C   UNL A   1      37.986  33.958  33.478  1.00  0.00     0.031 C 
ATOM     37  C   UNL A   1      42.684  32.393  37.027  1.00  0.00     0.029 A 
ATOM     38  C   UNL A   1      41.813  32.455  35.947  1.00  0.00     0.049 A 
ATOM     39  H   UNL A   1      41.855  31.353  34.153  1.00  0.00     0.167 HD
ATOM     40  C   UNL A   1      39.815  33.313  34.714  1.00  0.00     0.074 A 
ATOM     41  C   UNL A   1      38.649  34.169  34.607  1.00  0.00     0.031 C 
ATOM     42  C   UNL A   1      40.646  33.290  35.786  1.00  0.00     0.037 A 
BRANCH  29  43
ATOM     43  C   UNL A   1      45.386  29.298  35.389  1.00  0.00     0.058 A 
ATOM     44  C   UNL A   1      46.672  29.804  35.139  1.00  0.00     0.135 A 
ATOM     45  C   UNL A   1      45.281  28.150  36.190  1.00  0.00     0.135 A 
ATOM     46  F   UNL A   1      46.834  30.879  34.350  1.00  0.00    -0.206 F 
ATOM     47  C   UNL A   1      47.810  29.173  35.633  1.00  0.00     0.059 A 
ATOM     48  C   UNL A   1      46.403  27.516  36.715  1.00  0.00     0.059 A 
ATOM     49  F   UNL A   1      44.077  27.613  36.447  1.00  0.00    -0.206 F 
ATOM     50  C   UNL A   1      47.666  28.025  36.415  1.00  0.00     0.060 A 
BRANCH  50  51
ATOM     51  S   UNL A   1      49.152  27.199  37.024  1.00  0.00     0.124 S 
ATOM     52  O   UNL A   1      49.961  28.337  37.454  1.00  0.00    -0.237 OA
ATOM     53  O   UNL A   1      48.625  26.358  38.093  1.00  0.00    -0.237 OA
ATOM     54  O   UNL A   1      49.648  26.485  35.853  1.00  0.00    -0.744 OA
ENDBRANCH  50  51
ENDBRANCH  29  43
BRANCH  30  55
ATOM     55  C   UNL A   1      37.172  32.994  30.798  1.00  0.00     0.058 A 
ATOM     56  C   UNL A   1      35.887  32.578  31.177  1.00  0.00     0.135 A 
ATOM     57  C   UNL A   1      37.267  33.938  29.761  1.00  0.00     0.135 A 
ATOM     58  F   UNL A   1      35.736  31.672  32.154  1.00  0.00    -0.206 F 
ATOM     59  C   UNL A   1      34.743  33.070  30.549  1.00  0.00     0.059 A 
ATOM     60  C   UNL A   1      36.140  34.464  29.138  1.00  0.00     0.059 A 
ATOM     61  F   UNL A   1      38.470  34.377  29.359  1.00  0.00    -0.206 F 
ATOM     62  C   UNL A   1      34.881  34.016  29.531  1.00  0.00     0.060 A 
BRANCH  62  63
ATOM     63  S   UNL A   1      33.393  34.680  28.749  1.00  0.00     0.124 S 
ATOM     64  O   UNL A   1      32.515  34.866  29.899  1.00  0.00    -0.237 OA
ATOM     65  O   UNL A   1      33.893  35.900  28.123  1.00  0.00    -0.237 OA
ATOM     66  O   UNL A   1      33.002  33.624  27.820  1.00  0.00    -0.744 OA
ENDBRANCH  62  63
ENDBRANCH  30  55
BRANCH  42  67
ATOM     67  C   UNL A   1      40.336  34.239  36.907  1.00  0.00     0.058 A 
ATOM     68  C   UNL A   1      40.910  35.516  36.966  1.00  0.00     0.135 A 
ATOM     69  C   UNL A   1      39.393  33.888  37.886  1.00  0.00     0.135 A 
ATOM     70  F   UNL A   1      41.820  35.893  36.053  1.00  0.00    -0.206 F 
ATOM     71  C   UNL A   1      40.573  36.412  37.972  1.00  0.00     0.059 A 
ATOM     72  C   UNL A   1      39.021  34.778  38.884  1.00  0.00     0.059 A 
ATOM     73  F   UNL A   1      38.809  32.680  37.861  1.00  0.00    -0.206 F 
ATOM     74  C   UNL A   1      39.623  36.035  38.924  1.00  0.00     0.060 A 
BRANCH  74  75
ATOM     75  S   UNL A   1      39.154  37.226  40.196  1.00  0.00     0.124 S 
ATOM     76  O   UNL A   1      40.458  37.679  40.667  1.00  0.00    -0.237 OA
ATOM     77  O   UNL A   1      38.378  38.203  39.440  1.00  0.00    -0.237 OA
ATOM     78  O   UNL A   1      38.387  36.424  41.145  1.00  0.00    -0.744 OA
ENDBRANCH  74  75
ENDBRANCH  42  67
ENDBRANCH  16  17
ENDBRANCH   9  11
ENDBRANCH   8   9
ENDBRANCH   7   8
ENDBRANCH   6   7
ENDBRANCH   5   6
ENDBRANCH   4   5
ENDBRANCH   3   4
ENDBRANCH   2   3
ENDBRANCH   1   2
BRANCH   1  79
ATOM     79  C   UNL A   1      36.699  23.436  25.683  1.00  0.00     0.188 C 
BRANCH  79  80
ATOM     80  O   UNL A   1      35.295  23.643  25.575  1.00  0.00    -0.376 OA
BRANCH  80  81
ATOM     81  C   UNL A   1      34.886  25.012  25.539  1.00  0.00     0.202 C 
BRANCH  81  82
ATOM     82  C   UNL A   1      34.276  25.429  24.205  1.00  0.00     0.261 C 
BRANCH  82  83
ATOM     83  O   UNL A   1      34.208  24.349  23.265  1.00  0.00    -0.460 OA
BRANCH  83  84
ATOM     84  C   UNL A   1      33.021  23.960  22.753  1.00  0.00     0.338 C 
ATOM     85  O   UNL A   1      32.445  24.420  21.786  1.00  0.00    -0.246 OA
BRANCH  84  86
ATOM     86  C   UNL A   1      32.609  22.750  23.513  1.00  0.00     0.071 A 
ATOM     87  C   UNL A   1      33.297  21.558  23.238  1.00  0.00     0.016 A 
ATOM     88  C   UNL A   1      31.708  22.833  24.597  1.00  0.00     0.032 A 
ATOM     89  C   UNL A   1      33.128  20.453  24.073  1.00  0.00     0.001 A 
ATOM     90  C   UNL A   1      31.544  21.706  25.416  1.00  0.00     0.013 A 
ATOM     91  C   UNL A   1      32.258  20.530  25.161  1.00  0.00     0.001 A 
BRANCH  88  92
ATOM     92  C   UNL A   1      30.990  24.072  24.875  1.00  0.00     0.135 A 
ATOM     93  C   UNL A   1      31.009  24.932  25.952  1.00  0.00     0.051 A 
ATOM     94  O   UNL A   1      30.028  24.457  23.986  1.00  0.00    -0.457 OA
ATOM     95  C   UNL A   1      29.913  25.791  25.782  1.00  0.00     0.051 A 
ATOM     96  C   UNL A   1      29.392  25.552  24.516  1.00  0.00     0.128 A 
BRANCH  96  97
ATOM     97  C   UNL A   1      28.438  26.361  23.844  1.00  0.00     0.068 C 
ATOM     98  C   UNL A   1      28.848  27.549  23.380  1.00  0.00     0.084 C 
ATOM     99  S   UNL A   1      27.841  28.904  23.068  1.00  0.00    -0.054 SA
ATOM    100  C   UNL A   1      30.271  27.978  23.301  1.00  0.00     0.266 C 
ATOM    101  C   UNL A   1      29.179  30.034  23.370  1.00  0.00     0.148 C 
ATOM    102  N   UNL A   1      30.360  29.338  23.495  1.00  0.00    -0.288 N 
ATOM    103  O   UNL A   1      31.205  27.236  23.034  1.00  0.00    -0.268 OA
ATOM    104  S   UNL A   1      28.940  31.683  23.447  1.00  0.00    -0.052 S 
BRANCH 102 105
ATOM    105  C   UNL A   1      31.688  29.910  23.711  1.00  0.00     0.163 C 
BRANCH 105 106
ATOM    106  C   UNL A   1      32.339  29.437  25.000  1.00  0.00    -0.028 A 
ATOM    107  C   UNL A   1      33.687  29.055  25.018  1.00  0.00     0.005 A 
ATOM    108  C   UNL A   1      31.599  29.320  26.188  1.00  0.00     0.005 A 
ATOM    109  C   UNL A   1      34.276  28.568  26.190  1.00  0.00     0.000 A 
ATOM    110  C   UNL A   1      32.192  28.854  27.365  1.00  0.00     0.000 A 
ATOM    111  C   UNL A   1      33.530  28.472  27.363  1.00  0.00     0.000 A 
ENDBRANCH 105 106
ENDBRANCH 102 105
ENDBRANCH  96  97
ENDBRANCH  88  92
ENDBRANCH  84  86
ENDBRANCH  83  84
ENDBRANCH  82  83
ENDBRANCH  81  82
ENDBRANCH  80  81
ENDBRANCH  79  80
ENDBRANCH   1  79
TORSDOF 27
ENDMDL
MODEL 2
REMARK VINA RESULT:      -9.7      1.407      7.876
REMARK SMILES O=C(OCCOCCOCCOCCOC(=O)c1ccccc1-c1ccc(/C=C2/SC(=S)N(Cc3ccccc3)C2=O)o1)c1ccc(-c2c3nc(c(-c4c(F)cc(S(=O)(=O)[O-])cc4F)c4ccc([nH]4)c(-c4c(F)cc(S(=O)(=O)[O-])cc4F)c4nc(c(-c5c(F)cc(S(=O)(=O)[O-])cc5F)c5ccc2[nH]5)C=C4)C=C3)cc1
REMARK SMILES IDX 10 1 9 2 8 3 7 4 6 5 5 6 4 7 3 8 2 9 1 10 44 11 45 12 109 13
REMARK SMILES IDX 46 14 108 15 47 16 48 17 49 18 102 19 50 20 107 21 101 22
REMARK SMILES IDX 103 23 51 24 106 25 100 26 99 27 52 29 86 30 65 31 85 32
REMARK SMILES IDX 66 33 69 34 84 35 104 36 67 37 68 38 83 40 105 41 70 42
REMARK SMILES IDX 53 43 54 44 63 45 55 46 56 47 62 48 64 49 57 50 58 51 59 52
REMARK SMILES IDX 60 53 61 54 87 55 88 56 97 57 89 58 90 59 96 60 98 61 91 62
REMARK SMILES IDX 92 63 93 64 94 65 95 66 71 67 72 68 81 69 73 70 74 71 80 72
REMARK SMILES IDX 82 73 75 74 76 75 77 76 78 77 79 78 11 79 12 80 13 81 14 82
REMARK SMILES IDX 15 83 16 84 17 85 18 86 19 87 23 88 20 89 22 90 21 91 24 92
REMARK SMILES IDX 25 93 43 94 26 95 27 96 28 97 29 98 30 99 41 100 31 101
REMARK SMILES IDX 33 102 42 103 32 104 34 105 35 106 36 107 40 108 37 109
REMARK SMILES IDX 39 110 38 111
REMARK H PARENT 103 28 69 39
REMARK Flexibility Score: inf
ROOT
ATOM      1  C   UNL A   1      38.121  23.508  26.162  1.00  0.00     0.188 C 
ENDROOT
BRANCH   1   2
ATOM      2  O   UNL A   1      39.033  22.418  26.249  1.00  0.00    -0.377 OA
BRANCH   2   3
ATOM      3  C   UNL A   1      40.183  22.605  27.070  1.00  0.00     0.188 C 
BRANCH   3   4
ATOM      4  C   UNL A   1      41.458  21.943  26.548  1.00  0.00     0.188 C 
BRANCH   4   5
ATOM      5  O   UNL A   1      42.609  22.579  27.106  1.00  0.00    -0.376 OA
BRANCH   5   6
ATOM      6  C   UNL A   1      43.635  22.927  26.178  1.00  0.00     0.202 C 
BRANCH   6   7
ATOM      7  C   UNL A   1      43.171  23.894  25.089  1.00  0.00     0.261 C 
BRANCH   7   8
ATOM      8  O   UNL A   1      43.042  25.233  25.585  1.00  0.00    -0.460 OA
BRANCH   8   9
ATOM      9  C   UNL A   1      41.918  25.835  26.052  1.00  0.00     0.338 C 
ATOM     10  O   UNL A   1      40.921  25.827  25.330  1.00  0.00    -0.246 OA
BRANCH   9  11
ATOM     11  C   UNL A   1      41.800  26.488  27.397  1.00  0.00     0.060 A 
ATOM     12  C   UNL A   1      40.872  26.167  28.391  1.00  0.00     0.016 A 
ATOM     13  C   UNL A   1      42.755  27.477  27.696  1.00  0.00     0.016 A 
ATOM     14  C   UNL A   1      40.835  26.838  29.605  1.00  0.00     0.010 A 
ATOM     15  C   UNL A   1      42.739  28.150  28.922  1.00  0.00     0.010 A 
ATOM     16  C   UNL A   1      41.750  27.850  29.865  1.00  0.00    -0.014 A 
BRANCH  16  17
ATOM     17  C   UNL A   1      41.504  28.710  31.034  1.00  0.00     0.031 A 
ATOM     18  C   UNL A   1      40.341  29.653  30.961  1.00  0.00     0.074 A 
ATOM     19  C   UNL A   1      42.212  28.539  32.164  1.00  0.00     0.049 A 
ATOM     20  N   UNL A   1      39.944  30.550  31.819  1.00  0.00    -0.248 NA
ATOM     21  C   UNL A   1      39.497  29.559  29.755  1.00  0.00     0.031 C 
ATOM     22  C   UNL A   1      43.266  27.539  32.355  1.00  0.00     0.029 A 
ATOM     23  N   UNL A   1      42.139  29.182  33.369  1.00  0.00    -0.354 N 
ATOM     24  C   UNL A   1      38.830  31.150  31.242  1.00  0.00     0.074 A 
ATOM     25  C   UNL A   1      38.610  30.517  29.964  1.00  0.00     0.031 C 
ATOM     26  C   UNL A   1      43.737  27.636  33.610  1.00  0.00     0.029 A 
ATOM     27  C   UNL A   1      43.066  28.743  34.284  1.00  0.00     0.049 A 
ATOM     28  H   UNL A   1      41.484  29.891  33.563  1.00  0.00     0.167 HD
ATOM     29  C   UNL A   1      38.072  32.151  31.743  1.00  0.00     0.037 A 
ATOM     30  C   UNL A   1      43.358  29.220  35.509  1.00  0.00     0.037 A 
ATOM     31  C   UNL A   1      38.327  32.753  33.023  1.00  0.00     0.049 A 
ATOM     32  C   UNL A   1      42.560  30.397  36.009  1.00  0.00     0.074 A 
ATOM     33  C   UNL A   1      37.684  33.817  33.624  1.00  0.00     0.029 A 
ATOM     34  N   UNL A   1      39.318  32.329  33.901  1.00  0.00    -0.354 N 
ATOM     35  N   UNL A   1      41.558  31.018  35.427  1.00  0.00    -0.248 NA
ATOM     36  C   UNL A   1      42.937  30.952  37.314  1.00  0.00     0.031 C 
ATOM     37  C   UNL A   1      38.317  34.064  34.848  1.00  0.00     0.029 A 
ATOM     38  C   UNL A   1      39.318  33.120  35.033  1.00  0.00     0.049 A 
ATOM     39  H   UNL A   1      39.929  31.575  33.739  1.00  0.00     0.167 HD
ATOM     40  C   UNL A   1      41.175  32.028  36.300  1.00  0.00     0.074 A 
ATOM     41  C   UNL A   1      42.043  31.922  37.457  1.00  0.00     0.031 C 
ATOM     42  C   UNL A   1      40.202  32.964  36.163  1.00  0.00     0.037 A 
BRANCH  29  43
ATOM     43  C   UNL A   1      36.977  32.687  30.865  1.00  0.00     0.058 A 
ATOM     44  C   UNL A   1      37.181  33.757  29.980  1.00  0.00     0.135 A 
ATOM     45  C   UNL A   1      35.681  32.153  30.955  1.00  0.00     0.135 A 
ATOM     46  F   UNL A   1      38.391  34.330  29.880  1.00  0.00    -0.206 F 
ATOM     47  C   UNL A   1      36.133  34.300  29.240  1.00  0.00     0.059 A 
ATOM     48  C   UNL A   1      34.624  32.662  30.208  1.00  0.00     0.059 A 
ATOM     49  F   UNL A   1      35.425  31.140  31.799  1.00  0.00    -0.206 F 
ATOM     50  C   UNL A   1      34.856  33.750  29.366  1.00  0.00     0.060 A 
BRANCH  50  51
ATOM     51  S   UNL A   1      33.500  34.482  28.426  1.00  0.00     0.124 S 
ATOM     52  O   UNL A   1      34.198  35.517  27.667  1.00  0.00    -0.237 OA
ATOM     53  O   UNL A   1      33.012  33.349  27.648  1.00  0.00    -0.237 OA
ATOM     54  O   UNL A   1      32.593  34.969  29.459  1.00  0.00    -0.744 OA
ENDBRANCH  50  51
ENDBRANCH  29  43
BRANCH  30  55
ATOM     55  C   UNL A   1      44.478  28.635  36.298  1.00  0.00     0.058 A 
ATOM     56  C   UNL A   1      45.789  29.122  36.189  1.00  0.00     0.135 A 
ATOM     57  C   UNL A   1      44.255  27.572  37.190  1.00  0.00     0.135 A 
ATOM     58  F   UNL A   1      46.063  30.129  35.347  1.00  0.00    -0.206 F 
ATOM     59  C   UNL A   1      46.838  28.573  36.926  1.00  0.00     0.059 A 
ATOM     60  C   UNL A   1      45.279  27.025  37.957  1.00  0.00     0.059 A 
ATOM     61  F   UNL A   1      43.020  27.068  37.340  1.00  0.00    -0.206 F 
ATOM     62  C   UNL A   1      46.571  27.525  37.810  1.00  0.00     0.060 A 
BRANCH  62  63
ATOM     63  S   UNL A   1      47.927  26.845  38.793  1.00  0.00     0.124 S 
ATOM     64  O   UNL A   1      48.409  28.033  39.489  1.00  0.00    -0.237 OA
ATOM     65  O   UNL A   1      47.242  25.854  39.617  1.00  0.00    -0.237 OA
ATOM     66  O   UNL A   1      48.829  26.295  37.785  1.00  0.00    -0.744 OA
ENDBRANCH  62  63
ENDBRANCH  30  55
BRANCH  42  67
ATOM     67  C   UNL A   1      40.012  33.918  37.306  1.00  0.00     0.058 A 
ATOM     68  C   UNL A   1      40.572  35.204  37.289  1.00  0.00     0.135 A 
ATOM     69  C   UNL A   1      39.194  33.564  38.391  1.00  0.00     0.135 A 
ATOM     70  F   UNL A   1      41.365  35.583  36.273  1.00  0.00    -0.206 F 
ATOM     71  C   UNL A   1      40.342  36.104  38.321  1.00  0.00     0.059 A 
ATOM     72  C   UNL A   1      38.929  34.459  39.419  1.00  0.00     0.059 A 
ATOM     73  F   UNL A   1      38.627  32.349  38.442  1.00  0.00    -0.206 F 
ATOM     74  C   UNL A   1      39.515  35.722  39.380  1.00  0.00     0.060 A 
BRANCH  74  75
ATOM     75  S   UNL A   1      39.182  36.918  40.690  1.00  0.00     0.124 S 
ATOM     76  O   UNL A   1      40.475  36.985  41.360  1.00  0.00    -0.237 OA
ATOM     77  O   UNL A   1      38.795  38.107  39.937  1.00  0.00    -0.237 OA
ATOM     78  O   UNL A   1      38.108  36.291  41.455  1.00  0.00    -0.744 OA
ENDBRANCH  74  75
ENDBRANCH  42  67
ENDBRANCH  16  17
ENDBRANCH   9  11
ENDBRANCH   8   9
ENDBRANCH   7   8
ENDBRANCH   6   7
ENDBRANCH   5   6
ENDBRANCH   4   5
ENDBRANCH   3   4
ENDBRANCH   2   3
ENDBRANCH   1   2
BRANCH   1  79
ATOM     79  C   UNL A   1      37.229  23.662  24.905  1.00  0.00     0.188 C 
BRANCH  79  80
ATOM     80  O   UNL A   1      35.830  23.527  25.124  1.00  0.00    -0.376 OA
BRANCH  80  81
ATOM     81  C   UNL A   1      35.448  23.310  26.483  1.00  0.00     0.202 C 
BRANCH  81  82
ATOM     82  C   UNL A   1      35.346  21.835  26.857  1.00  0.00     0.261 C 
BRANCH  82  83
ATOM     83  O   UNL A   1      34.660  21.059  25.867  1.00  0.00    -0.460 OA
BRANCH  83  84
ATOM     84  C   UNL A   1      35.352  20.326  24.969  1.00  0.00     0.338 C 
ATOM     85  O   UNL A   1      36.512  20.466  24.634  1.00  0.00    -0.246 OA
BRANCH  84  86
ATOM     86  C   UNL A   1      34.461  19.206  24.562  1.00  0.00     0.071 A 
ATOM     87  C   UNL A   1      34.992  17.909  24.634  1.00  0.00     0.016 A 
ATOM     88  C   UNL A   1      33.088  19.414  24.305  1.00  0.00     0.032 A 
ATOM     89  C   UNL A   1      34.148  16.807  24.498  1.00  0.00     0.001 A 
ATOM     90  C   UNL A   1      32.260  18.291  24.158  1.00  0.00     0.013 A 
ATOM     91  C   UNL A   1      32.786  16.999  24.266  1.00  0.00     0.001 A 
BRANCH  88  92
ATOM     92  C   UNL A   1      32.542  20.764  24.224  1.00  0.00     0.135 A 
ATOM     93  C   UNL A   1      31.732  21.487  25.073  1.00  0.00     0.051 A 
ATOM     94  O   UNL A   1      32.751  21.461  23.069  1.00  0.00    -0.457 OA
ATOM     95  C   UNL A   1      31.310  22.609  24.344  1.00  0.00     0.051 A 
ATOM     96  C   UNL A   1      32.034  22.629  23.157  1.00  0.00     0.128 A 
BRANCH  96  97
ATOM     97  C   UNL A   1      32.100  23.713  22.243  1.00  0.00     0.068 C 
ATOM     98  C   UNL A   1      32.101  24.954  22.748  1.00  0.00     0.084 C 
ATOM     99  S   UNL A   1      31.611  26.374  21.918  1.00  0.00    -0.054 SA
ATOM    100  C   UNL A   1      32.281  25.276  24.190  1.00  0.00     0.266 C 
ATOM    101  C   UNL A   1      31.143  27.165  23.439  1.00  0.00     0.148 C 
ATOM    102  N   UNL A   1      31.561  26.406  24.508  1.00  0.00    -0.288 N 
ATOM    103  O   UNL A   1      33.015  24.663  24.952  1.00  0.00    -0.268 OA
ATOM    104  S   UNL A   1      30.341  28.627  23.462  1.00  0.00    -0.052 S 
BRANCH 102 105
ATOM    105  C   UNL A   1      31.400  26.735  25.924  1.00  0.00     0.163 C 
BRANCH 105 106
ATOM    106  C   UNL A   1      32.302  27.869  26.380  1.00  0.00    -0.028 A 
ATOM    107  C   UNL A   1      33.696  27.739  26.316  1.00  0.00     0.005 A 
ATOM    108  C   UNL A   1      31.768  29.050  26.923  1.00  0.00     0.005 A 
ATOM    109  C   UNL A   1      34.530  28.760  26.784  1.00  0.00     0.000 A 
ATOM    110  C   UNL A   1      32.601  30.078  27.370  1.00  0.00     0.000 A 
ATOM    111  C   UNL A   1      33.983  29.930  27.306  1.00  0.00     0.000 A 
ENDBRANCH 105 106
ENDBRANCH 102 105
ENDBRANCH  96  97
ENDBRANCH  88  92
ENDBRANCH  84  86
ENDBRANCH  83  84
ENDBRANCH  82  83
ENDBRANCH  81  82
ENDBRANCH  80  81
ENDBRANCH  79  80
ENDBRANCH   1  79
TORSDOF 27
ENDMDL
MODEL 3
REMARK VINA RESULT:      -8.3      3.821      5.344
REMARK SMILES O=C(OCCOCCOCCOCCOC(=O)c1ccccc1-c1ccc(/C=C2/SC(=S)N(Cc3ccccc3)C2=O)o1)c1ccc(-c2c3nc(c(-c4c(F)cc(S(=O)(=O)[O-])cc4F)c4ccc([nH]4)c(-c4c(F)cc(S(=O)(=O)[O-])cc4F)c4nc(c(-c5c(F)cc(S(=O)(=O)[O-])cc5F)c5ccc2[nH]5)C=C4)C=C3)cc1
REMARK SMILES IDX 10 1 9 2 8 3 7 4 6 5 5 6 4 7 3 8 2 9 1 10 44 11 45 12 109 13
REMARK SMILES IDX 46 14 108 15 47 16 48 17 49 18 102 19 50 20 107 21 101 22
REMARK SMILES IDX 103 23 51 24 106 25 100 26 99 27 52 29 86 30 65 31 85 32
REMARK SMILES IDX 66 33 69 34 84 35 104 36 67 37 68 38 83 40 105 41 70 42
REMARK SMILES IDX 53 43 54 44 63 45 55 46 56 47 62 48 64 49 57 50 58 51 59 52
REMARK SMILES IDX 60 53 61 54 87 55 88 56 97 57 89 58 90 59 96 60 98 61 91 62
REMARK SMILES IDX 92 63 93 64 94 65 95 66 71 67 72 68 81 69 73 70 74 71 80 72
REMARK SMILES IDX 82 73 75 74 76 75 77 76 78 77 79 78 11 79 12 80 13 81 14 82
REMARK SMILES IDX 15 83 16 84 17 85 18 86 19 87 23 88 20 89 22 90 21 91 24 92
REMARK SMILES IDX 25 93 43 94 26 95 27 96 28 97 29 98 30 99 41 100 31 101
REMARK SMILES IDX 33 102 42 103 32 104 34 105 35 106 36 107 40 108 37 109
REMARK SMILES IDX 39 110 38 111
REMARK H PARENT 103 28 69 39
REMARK Flexibility Score: inf
ROOT
ATOM      1  C   UNL A   1      41.049  23.632  27.070  1.00  0.00     0.188 C 
ENDROOT
BRANCH   1   2
ATOM      2  O   UNL A   1      41.597  22.360  27.394  1.00  0.00    -0.377 OA
BRANCH   2   3
ATOM      3  C   UNL A   1      42.363  21.712  26.381  1.00  0.00     0.188 C 
BRANCH   3   4
ATOM      4  C   UNL A   1      43.619  22.466  25.945  1.00  0.00     0.188 C 
BRANCH   4   5
ATOM      5  O   UNL A   1      43.661  22.576  24.522  1.00  0.00    -0.376 OA
BRANCH   5   6
ATOM      6  C   UNL A   1      44.953  22.461  23.929  1.00  0.00     0.202 C 
BRANCH   6   7
ATOM      7  C   UNL A   1      46.056  23.152  24.729  1.00  0.00     0.261 C 
BRANCH   7   8
ATOM      8  O   UNL A   1      46.573  24.299  24.043  1.00  0.00    -0.460 OA
BRANCH   8   9
ATOM      9  C   UNL A   1      46.985  25.472  24.590  1.00  0.00     0.338 C 
ATOM     10  O   UNL A   1      47.737  26.182  23.923  1.00  0.00    -0.246 OA
BRANCH   9  11
ATOM     11  C   UNL A   1      46.569  25.972  25.941  1.00  0.00     0.060 A 
ATOM     12  C   UNL A   1      45.263  26.020  26.437  1.00  0.00     0.016 A 
ATOM     13  C   UNL A   1      47.606  26.372  26.804  1.00  0.00     0.016 A 
ATOM     14  C   UNL A   1      44.976  26.510  27.702  1.00  0.00     0.010 A 
ATOM     15  C   UNL A   1      47.331  26.854  28.089  1.00  0.00     0.010 A 
ATOM     16  C   UNL A   1      46.005  26.954  28.523  1.00  0.00    -0.014 A 
BRANCH  16  17
ATOM     17  C   UNL A   1      45.638  27.713  29.730  1.00  0.00     0.031 A 
ATOM     18  C   UNL A   1      45.707  26.991  31.043  1.00  0.00     0.074 A 
ATOM     19  C   UNL A   1      45.397  29.033  29.655  1.00  0.00     0.049 A 
ATOM     20  N   UNL A   1      45.385  27.405  32.235  1.00  0.00    -0.248 NA
ATOM     21  C   UNL A   1      46.228  25.611  31.004  1.00  0.00     0.031 C 
ATOM     22  C   UNL A   1      45.455  29.832  28.428  1.00  0.00     0.029 A 
ATOM     23  N   UNL A   1      45.080  29.939  30.630  1.00  0.00    -0.354 N 
ATOM     24  C   UNL A   1      45.628  26.329  33.081  1.00  0.00     0.074 A 
ATOM     25  C   UNL A   1      46.127  25.244  32.271  1.00  0.00     0.031 C 
ATOM     26  C   UNL A   1      45.184  31.114  28.730  1.00  0.00     0.029 A 
ATOM     27  C   UNL A   1      44.873  31.211  30.152  1.00  0.00     0.049 A 
ATOM     28  H   UNL A   1      45.008  29.703  31.583  1.00  0.00     0.167 HD
ATOM     29  C   UNL A   1      45.437  26.262  34.418  1.00  0.00     0.037 A 
ATOM     30  C   UNL A   1      44.437  32.311  30.795  1.00  0.00     0.037 A 
ATOM     31  C   UNL A   1      44.939  27.368  35.188  1.00  0.00     0.049 A 
ATOM     32  C   UNL A   1      44.142  32.188  32.268  1.00  0.00     0.074 A 
ATOM     33  C   UNL A   1      44.633  27.421  36.533  1.00  0.00     0.029 A 
ATOM     34  N   UNL A   1      44.675  28.628  34.662  1.00  0.00    -0.354 N 
ATOM     35  N   UNL A   1      44.295  31.145  33.053  1.00  0.00    -0.248 NA
ATOM     36  C   UNL A   1      43.600  33.374  32.940  1.00  0.00     0.031 C 
ATOM     37  C   UNL A   1      44.141  28.702  36.812  1.00  0.00     0.029 A 
ATOM     38  C   UNL A   1      44.192  29.462  35.652  1.00  0.00     0.049 A 
ATOM     39  H   UNL A   1      44.812  28.887  33.722  1.00  0.00     0.167 HD
ATOM     40  C   UNL A   1      43.881  31.552  34.315  1.00  0.00     0.074 A 
ATOM     41  C   UNL A   1      43.489  32.942  34.190  1.00  0.00     0.031 C 
ATOM     42  C   UNL A   1      43.823  30.846  35.473  1.00  0.00     0.037 A 
BRANCH  29  43
ATOM     43  C   UNL A   1      45.689  24.938  35.081  1.00  0.00     0.058 A 
ATOM     44  C   UNL A   1      44.698  23.947  35.177  1.00  0.00     0.135 A 
ATOM     45  C   UNL A   1      46.930  24.679  35.684  1.00  0.00     0.135 A 
ATOM     46  F   UNL A   1      43.481  24.155  34.651  1.00  0.00    -0.206 F 
ATOM     47  C   UNL A   1      44.920  22.762  35.874  1.00  0.00     0.059 A 
ATOM     48  C   UNL A   1      47.183  23.492  36.364  1.00  0.00     0.059 A 
ATOM     49  F   UNL A   1      47.908  25.599  35.638  1.00  0.00    -0.206 F 
ATOM     50  C   UNL A   1      46.164  22.546  36.470  1.00  0.00     0.060 A 
BRANCH  50  51
ATOM     51  S   UNL A   1      46.428  21.019  37.397  1.00  0.00     0.124 S 
ATOM     52  O   UNL A   1      45.713  20.050  36.571  1.00  0.00    -0.237 OA
ATOM     53  O   UNL A   1      47.882  20.901  37.397  1.00  0.00    -0.237 OA
ATOM     54  O   UNL A   1      45.824  21.301  38.695  1.00  0.00    -0.744 OA
ENDBRANCH  50  51
ENDBRANCH  29  43
BRANCH  30  55
ATOM     55  C   UNL A   1      44.198  33.577  30.047  1.00  0.00     0.058 A 
ATOM     56  C   UNL A   1      45.194  34.554  29.916  1.00  0.00     0.135 A 
ATOM     57  C   UNL A   1      42.957  33.831  29.437  1.00  0.00     0.135 A 
ATOM     58  F   UNL A   1      46.394  34.370  30.485  1.00  0.00    -0.206 F 
ATOM     59  C   UNL A   1      44.970  35.740  29.217  1.00  0.00     0.059 A 
ATOM     60  C   UNL A   1      42.717  34.994  28.711  1.00  0.00     0.059 A 
ATOM     61  F   UNL A   1      41.966  32.930  29.524  1.00  0.00    -0.206 F 
ATOM     62  C   UNL A   1      43.727  35.949  28.615  1.00  0.00     0.060 A 
BRANCH  62  63
ATOM     63  S   UNL A   1      43.456  37.469  27.676  1.00  0.00     0.124 S 
ATOM     64  O   UNL A   1      43.363  38.460  28.742  1.00  0.00    -0.237 OA
ATOM     65  O   UNL A   1      44.653  37.534  26.844  1.00  0.00    -0.237 OA
ATOM     66  O   UNL A   1      42.215  37.201  26.954  1.00  0.00    -0.744 OA
ENDBRANCH  62  63
ENDBRANCH  30  55
BRANCH  42  67
ATOM     67  C   UNL A   1      43.347  31.581  36.693  1.00  0.00     0.058 A 
ATOM     68  C   UNL A   1      44.242  32.240  37.547  1.00  0.00     0.135 A 
ATOM     69  C   UNL A   1      41.973  31.687  36.960  1.00  0.00     0.135 A 
ATOM     70  F   UNL A   1      45.565  32.162  37.332  1.00  0.00    -0.206 F 
ATOM     71  C   UNL A   1      43.791  32.969  38.640  1.00  0.00     0.059 A 
ATOM     72  C   UNL A   1      41.499  32.433  38.031  1.00  0.00     0.059 A 
ATOM     73  F   UNL A   1      41.080  31.082  36.161  1.00  0.00    -0.206 F 
ATOM     74  C   UNL A   1      42.417  33.062  38.870  1.00  0.00     0.060 A 
BRANCH  74  75
ATOM     75  S   UNL A   1      41.840  34.054  40.263  1.00  0.00     0.124 S 
ATOM     76  O   UNL A   1      40.682  34.726  39.684  1.00  0.00    -0.237 OA
ATOM     77  O   UNL A   1      41.547  33.039  41.270  1.00  0.00    -0.237 OA
ATOM     78  O   UNL A   1      42.981  34.913  40.563  1.00  0.00    -0.744 OA
ENDBRANCH  74  75
ENDBRANCH  42  67
ENDBRANCH  16  17
ENDBRANCH   9  11
ENDBRANCH   8   9
ENDBRANCH   7   8
ENDBRANCH   6   7
ENDBRANCH   5   6
ENDBRANCH   4   5
ENDBRANCH   3   4
ENDBRANCH   2   3
ENDBRANCH   1   2
BRANCH   1  79
ATOM     79  C   UNL A   1      39.549  23.750  26.699  1.00  0.00     0.188 C 
BRANCH  79  80
ATOM     80  O   UNL A   1      38.899  22.526  26.375  1.00  0.00    -0.376 OA
BRANCH  80  81
ATOM     81  C   UNL A   1      37.812  22.644  25.456  1.00  0.00     0.202 C 
BRANCH  81  82
ATOM     82  C   UNL A   1      36.741  21.574  25.642  1.00  0.00     0.261 C 
BRANCH  82  83
ATOM     83  O   UNL A   1      35.438  22.127  25.866  1.00  0.00    -0.460 OA
BRANCH  83  84
ATOM     84  C   UNL A   1      34.399  21.328  26.188  1.00  0.00     0.338 C 
ATOM     85  O   UNL A   1      34.010  21.030  27.302  1.00  0.00    -0.246 OA
BRANCH  84  86
ATOM     86  C   UNL A   1      33.716  20.988  24.912  1.00  0.00     0.071 A 
ATOM     87  C   UNL A   1      33.630  19.629  24.575  1.00  0.00     0.016 A 
ATOM     88  C   UNL A   1      33.016  21.964  24.169  1.00  0.00     0.032 A 
ATOM     89  C   UNL A   1      32.805  19.226  23.525  1.00  0.00     0.001 A 
ATOM     90  C   UNL A   1      32.202  21.538  23.109  1.00  0.00     0.013 A 
ATOM     91  C   UNL A   1      32.090  20.178  22.798  1.00  0.00     0.001 A 
BRANCH  88  92
ATOM     92  C   UNL A   1      33.114  23.377  24.518  1.00  0.00     0.135 A 
ATOM     93  C   UNL A   1      33.715  24.446  23.890  1.00  0.00     0.051 A 
ATOM     94  O   UNL A   1      32.628  23.762  25.734  1.00  0.00    -0.457 OA
ATOM     95  C   UNL A   1      33.725  25.491  24.825  1.00  0.00     0.051 A 
ATOM     96  C   UNL A   1      32.956  25.084  25.909  1.00  0.00     0.128 A 
BRANCH  96  97
ATOM     97  C   UNL A   1      32.501  25.917  26.965  1.00  0.00     0.068 C 
ATOM     98  C   UNL A   1      31.888  27.062  26.634  1.00  0.00     0.084 C 
ATOM     99  S   UNL A   1      31.766  28.457  27.627  1.00  0.00    -0.054 SA
ATOM    100  C   UNL A   1      31.435  27.408  25.259  1.00  0.00     0.266 C 
ATOM    101  C   UNL A   1      31.667  29.523  26.208  1.00  0.00     0.148 C 
ATOM    102  N   UNL A   1      31.530  28.768  25.065  1.00  0.00    -0.288 N 
ATOM    103  O   UNL A   1      30.983  26.605  24.455  1.00  0.00    -0.268 OA
ATOM    104  S   UNL A   1      31.715  31.184  26.349  1.00  0.00    -0.052 S 
BRANCH 102 105
ATOM    105  C   UNL A   1      31.378  29.274  23.702  1.00  0.00     0.163 C 
BRANCH 105 106
ATOM    106  C   UNL A   1      29.964  29.732  23.389  1.00  0.00    -0.028 A 
ATOM    107  C   UNL A   1      29.150  28.989  22.524  1.00  0.00     0.005 A 
ATOM    108  C   UNL A   1      29.456  30.933  23.913  1.00  0.00     0.005 A 
ATOM    109  C   UNL A   1      27.867  29.435  22.192  1.00  0.00     0.000 A 
ATOM    110  C   UNL A   1      28.166  31.368  23.598  1.00  0.00     0.000 A 
ATOM    111  C   UNL A   1      27.374  30.621  22.732  1.00  0.00     0.000 A 
ENDBRANCH 105 106
ENDBRANCH 102 105
ENDBRANCH  96  97
ENDBRANCH  88  92
ENDBRANCH  84  86
ENDBRANCH  83  84
ENDBRANCH  82  83
ENDBRANCH  81  82
ENDBRANCH  80  81
ENDBRANCH  79  80
ENDBRANCH   1  79
TORSDOF 27
ENDMDL
