MODEL 1
REMARK VINA RESULT:      -9.6      0.000      0.000
REMARK SMILES CC[C@H](C)[C@@H](NC(=O)c1csc(NC(C)=O)n1)C(=O)OCCOCCOCCOCCOC(=O)c1ccc(-c2c3nc(c(-c4c(F)cc(S(=O)(=O)[O-])cc4F)c4ccc([nH]4)c(-c4c(F)cc(S(=O)(=O)[O-])cc4F)c4nc(c(-c5c(F)cc(S(=O)(=O)[O-])cc5F)c5ccc2[nH]5)C=C4)C=C3)cc1
REMARK SMILES IDX 26 1 25 2 24 3 23 4 22 5 21 6 20 7 18 8 19 9 5 10 3 11 4 12
REMARK SMILES IDX 2 13 1 14 6 15 7 16 8 18 9 19 10 20 17 21 11 22 12 23 13 24
REMARK SMILES IDX 14 25 15 27 16 28 27 29 28 30 29 31 30 32 31 33 32 34 33 35
REMARK SMILES IDX 34 36 35 37 36 38 100 39 37 40 99 41 38 42 39 43 40 44 93 45
REMARK SMILES IDX 41 46 98 47 92 48 94 49 42 50 97 51 91 52 90 53 43 55 77 56
REMARK SMILES IDX 56 57 76 58 57 59 60 60 75 61 95 62 58 63 59 64 74 66 96 67
REMARK SMILES IDX 61 68 44 69 45 70 54 71 46 72 47 73 53 74 55 75 48 76 49 77
REMARK SMILES IDX 50 78 51 79 52 80 78 81 79 82 88 83 80 84 81 85 87 86 89 87
REMARK SMILES IDX 82 88 83 89 84 90 85 91 86 92 62 93 63 94 72 95 64 96 65 97
REMARK SMILES IDX 71 98 73 99 66 100 67 101 68 102 69 103 70 104
REMARK H PARENT 6 17 13 26 94 54 60 65
REMARK Flexibility Score: inf
ROOT
ATOM      1  O   UNL A   1      40.300  21.062  27.532  1.00  0.00    -0.377 OA
ENDROOT
BRANCH   1   2
ATOM      2  C   UNL A   1      39.582  21.517  26.396  1.00  0.00     0.188 C 
BRANCH   2   3
ATOM      3  C   UNL A   1      38.933  22.898  26.537  1.00  0.00     0.188 C 
BRANCH   3   4
ATOM      4  O   UNL A   1      37.831  23.189  25.666  1.00  0.00    -0.376 OA
BRANCH   4   5
ATOM      5  C   UNL A   1      37.435  22.145  24.793  1.00  0.00     0.202 C 
BRANCH   5   6
ATOM      6  C   UNL A   1      36.449  22.498  23.662  1.00  0.00     0.261 C 
BRANCH   6   7
ATOM      7  O   UNL A   1      35.034  22.206  23.697  1.00  0.00    -0.462 OA
BRANCH   7   8
ATOM      8  C   UNL A   1      34.304  22.115  24.835  1.00  0.00     0.329 C 
ATOM      9  O   UNL A   1      34.584  22.544  25.949  1.00  0.00    -0.250 OA
BRANCH   8  10
ATOM     10  C   UNL A   1      33.004  21.346  24.606  1.00  0.00     0.195 C 
BRANCH  10  11
ATOM     11  C   UNL A   1      33.236  19.784  24.577  1.00  0.00     0.019 C 
ATOM     12  C   UNL A   1      32.914  19.105  25.920  1.00  0.00     0.010 C 
BRANCH  11  13
ATOM     13  C   UNL A   1      32.514  18.955  23.478  1.00  0.00     0.002 C 
ATOM     14  C   UNL A   1      32.128  19.686  22.200  1.00  0.00     0.004 C 
ENDBRANCH  11  13
ENDBRANCH  10  11
BRANCH  10  15
ATOM     15  N   UNL A   1      31.986  21.703  25.628  1.00  0.00    -0.337 N 
ATOM     16  C   UNL A   1      30.964  22.623  25.712  1.00  0.00     0.271 C 
ATOM     17  H   UNL A   1      32.060  21.149  26.439  1.00  0.00     0.164 HD
ATOM     18  O   UNL A   1      30.112  22.393  26.573  1.00  0.00    -0.267 OA
BRANCH  16  19
ATOM     19  C   UNL A   1      30.941  23.885  24.960  1.00  0.00     0.141 A 
ATOM     20  C   UNL A   1      30.975  25.115  25.601  1.00  0.00     0.102 A 
ATOM     21  N   UNL A   1      30.875  23.995  23.576  1.00  0.00    -0.215 NA
ATOM     22  S   UNL A   1      30.998  26.392  24.458  1.00  0.00    -0.104 S 
ATOM     23  C   UNL A   1      31.063  25.244  23.203  1.00  0.00     0.190 A 
BRANCH  23  24
ATOM     24  N   UNL A   1      31.423  25.557  21.911  1.00  0.00    -0.302 N 
ATOM     25  C   UNL A   1      32.615  25.264  21.284  1.00  0.00     0.223 C 
ATOM     26  H   UNL A   1      30.755  26.044  21.377  1.00  0.00     0.172 HD
ATOM     27  C   UNL A   1      32.587  25.517  19.790  1.00  0.00     0.114 C 
ATOM     28  O   UNL A   1      33.625  24.785  21.791  1.00  0.00    -0.275 OA
ENDBRANCH  23  24
ENDBRANCH  16  19
ENDBRANCH  10  15
ENDBRANCH   8  10
ENDBRANCH   7   8
ENDBRANCH   6   7
ENDBRANCH   5   6
ENDBRANCH   4   5
ENDBRANCH   3   4
ENDBRANCH   2   3
ENDBRANCH   1   2
BRANCH   1  29
ATOM     29  C   UNL A   1      41.689  20.788  27.421  1.00  0.00     0.188 C 
BRANCH  29  30
ATOM     30  C   UNL A   1      42.225  20.299  26.071  1.00  0.00     0.188 C 
BRANCH  30  31
ATOM     31  O   UNL A   1      42.905  21.318  25.350  1.00  0.00    -0.376 OA
BRANCH  31  32
ATOM     32  C   UNL A   1      43.380  22.444  26.079  1.00  0.00     0.202 C 
BRANCH  32  33
ATOM     33  C   UNL A   1      43.057  23.847  25.534  1.00  0.00     0.261 C 
BRANCH  33  34
ATOM     34  O   UNL A   1      41.926  24.551  26.091  1.00  0.00    -0.460 OA
BRANCH  34  35
ATOM     35  C   UNL A   1      41.834  25.894  25.989  1.00  0.00     0.338 C 
ATOM     36  O   UNL A   1      41.549  26.535  24.993  1.00  0.00    -0.246 OA
BRANCH  35  37
ATOM     37  C   UNL A   1      41.877  26.456  27.361  1.00  0.00     0.060 A 
ATOM     38  C   UNL A   1      40.878  26.089  28.277  1.00  0.00     0.016 A 
ATOM     39  C   UNL A   1      42.901  27.321  27.754  1.00  0.00     0.016 A 
ATOM     40  C   UNL A   1      40.874  26.622  29.568  1.00  0.00     0.010 A 
ATOM     41  C   UNL A   1      42.877  27.881  29.035  1.00  0.00     0.010 A 
ATOM     42  C   UNL A   1      41.840  27.567  29.932  1.00  0.00    -0.014 A 
BRANCH  42  43
ATOM     43  C   UNL A   1      41.601  28.436  31.111  1.00  0.00     0.031 A 
ATOM     44  C   UNL A   1      40.466  29.425  31.024  1.00  0.00     0.074 A 
ATOM     45  C   UNL A   1      42.342  28.357  32.230  1.00  0.00     0.049 A 
ATOM     46  N   UNL A   1      40.087  30.337  31.879  1.00  0.00    -0.248 NA
ATOM     47  C   UNL A   1      39.650  29.372  29.799  1.00  0.00     0.031 C 
ATOM     48  C   UNL A   1      43.434  27.412  32.461  1.00  0.00     0.029 A 
ATOM     49  N   UNL A   1      42.290  29.100  33.384  1.00  0.00    -0.354 N 
ATOM     50  C   UNL A   1      38.996  30.970  31.294  1.00  0.00     0.074 A 
ATOM     51  C   UNL A   1      38.789  30.357  30.002  1.00  0.00     0.031 C 
ATOM     52  C   UNL A   1      43.962  27.649  33.677  1.00  0.00     0.029 A 
ATOM     53  C   UNL A   1      43.268  28.778  34.295  1.00  0.00     0.049 A 
ATOM     54  H   UNL A   1      41.616  29.800  33.543  1.00  0.00     0.167 HD
ATOM     55  C   UNL A   1      38.229  31.968  31.790  1.00  0.00     0.037 A 
ATOM     56  C   UNL A   1      43.578  29.348  35.478  1.00  0.00     0.037 A 
ATOM     57  C   UNL A   1      38.441  32.585  33.070  1.00  0.00     0.049 A 
ATOM     58  C   UNL A   1      42.759  30.514  35.978  1.00  0.00     0.074 A 
ATOM     59  C   UNL A   1      37.718  33.603  33.664  1.00  0.00     0.029 A 
ATOM     60  N   UNL A   1      39.458  32.249  33.951  1.00  0.00    -0.354 N 
ATOM     61  N   UNL A   1      41.721  31.094  35.423  1.00  0.00    -0.248 NA
ATOM     62  C   UNL A   1      43.155  31.105  37.266  1.00  0.00     0.031 C 
ATOM     63  C   UNL A   1      38.327  33.916  34.884  1.00  0.00     0.029 A 
ATOM     64  C   UNL A   1      39.397  33.054  35.074  1.00  0.00     0.049 A 
ATOM     65  H   UNL A   1      40.126  31.541  33.799  1.00  0.00     0.167 HD
ATOM     66  C   UNL A   1      41.322  32.094  36.307  1.00  0.00     0.074 A 
ATOM     67  C   UNL A   1      42.225  32.035  37.437  1.00  0.00     0.031 C 
ATOM     68  C   UNL A   1      40.298  32.977  36.197  1.00  0.00     0.037 A 
BRANCH  55  69
ATOM     69  C   UNL A   1      37.111  32.475  30.924  1.00  0.00     0.058 A 
ATOM     70  C   UNL A   1      35.784  32.056  31.110  1.00  0.00     0.135 A 
ATOM     71  C   UNL A   1      37.369  33.401  29.900  1.00  0.00     0.135 A 
ATOM     72  F   UNL A   1      35.486  31.151  32.056  1.00  0.00    -0.206 F 
ATOM     73  C   UNL A   1      34.756  32.518  30.294  1.00  0.00     0.059 A 
ATOM     74  C   UNL A   1      36.352  33.898  29.092  1.00  0.00     0.059 A 
ATOM     75  F   UNL A   1      38.622  33.826  29.674  1.00  0.00    -0.206 F 
ATOM     76  C   UNL A   1      35.050  33.440  29.288  1.00  0.00     0.060 A 
BRANCH  76  77
ATOM     77  S   UNL A   1      33.706  34.031  28.239  1.00  0.00     0.124 S 
ATOM     78  O   UNL A   1      32.806  34.621  29.225  1.00  0.00    -0.237 OA
ATOM     79  O   UNL A   1      34.389  34.975  27.360  1.00  0.00    -0.237 OA
ATOM     80  O   UNL A   1      33.219  32.816  27.594  1.00  0.00    -0.744 OA
ENDBRANCH  76  77
ENDBRANCH  55  69
BRANCH  56  81
ATOM     81  C   UNL A   1      44.732  28.842  36.273  1.00  0.00     0.058 A 
ATOM     82  C   UNL A   1      46.011  29.401  36.135  1.00  0.00     0.135 A 
ATOM     83  C   UNL A   1      44.580  27.775  37.172  1.00  0.00     0.135 A 
ATOM     84  F   UNL A   1      46.213  30.411  35.276  1.00  0.00    -0.206 F 
ATOM     85  C   UNL A   1      47.102  28.913  36.849  1.00  0.00     0.059 A 
ATOM     86  C   UNL A   1      45.650  27.286  37.916  1.00  0.00     0.059 A 
ATOM     87  F   UNL A   1      43.377  27.206  37.344  1.00  0.00    -0.206 F 
ATOM     88  C   UNL A   1      46.910  27.856  37.740  1.00  0.00     0.060 A 
BRANCH  88  89
ATOM     89  S   UNL A   1      48.322  27.258  38.696  1.00  0.00     0.124 S 
ATOM     90  O   UNL A   1      49.274  28.350  38.527  1.00  0.00    -0.237 OA
ATOM     91  O   UNL A   1      47.747  27.110  40.029  1.00  0.00    -0.237 OA
ATOM     92  O   UNL A   1      48.671  26.007  38.028  1.00  0.00    -0.744 OA
ENDBRANCH  88  89
ENDBRANCH  56  81
BRANCH  68  93
ATOM     93  C   UNL A   1      40.065  33.929  37.341  1.00  0.00     0.058 A 
ATOM     94  C   UNL A   1      40.717  35.167  37.418  1.00  0.00     0.135 A 
ATOM     95  C   UNL A   1      39.120  33.622  38.335  1.00  0.00     0.135 A 
ATOM     96  F   UNL A   1      41.630  35.510  36.496  1.00  0.00    -0.206 F 
ATOM     97  C   UNL A   1      40.459  36.061  38.454  1.00  0.00     0.059 A 
ATOM     98  C   UNL A   1      38.826  34.511  39.364  1.00  0.00     0.059 A 
ATOM     99  F   UNL A   1      38.457  32.455  38.300  1.00  0.00    -0.206 F 
ATOM    100  C   UNL A   1      39.509  35.725  39.421  1.00  0.00     0.060 A 
BRANCH 100 101
ATOM    101  S   UNL A   1      39.154  36.909  40.736  1.00  0.00     0.124 S 
ATOM    102  O   UNL A   1      40.488  37.412  41.046  1.00  0.00    -0.237 OA
ATOM    103  O   UNL A   1      38.257  37.853  40.075  1.00  0.00    -0.237 OA
ATOM    104  O   UNL A   1      38.535  36.091  41.774  1.00  0.00    -0.744 OA
ENDBRANCH 100 101
ENDBRANCH  68  93
ENDBRANCH  42  43
ENDBRANCH  35  37
ENDBRANCH  34  35
ENDBRANCH  33  34
ENDBRANCH  32  33
ENDBRANCH  31  32
ENDBRANCH  30  31
ENDBRANCH  29  30
ENDBRANCH   1  29
TORSDOF 28
ENDMDL
MODEL 2
REMARK VINA RESULT:      -9.4      1.464      2.677
REMARK SMILES CC[C@H](C)[C@@H](NC(=O)c1csc(NC(C)=O)n1)C(=O)OCCOCCOCCOCCOC(=O)c1ccc(-c2c3nc(c(-c4c(F)cc(S(=O)(=O)[O-])cc4F)c4ccc([nH]4)c(-c4c(F)cc(S(=O)(=O)[O-])cc4F)c4nc(c(-c5c(F)cc(S(=O)(=O)[O-])cc5F)c5ccc2[nH]5)C=C4)C=C3)cc1
REMARK SMILES IDX 26 1 25 2 24 3 23 4 22 5 21 6 20 7 18 8 19 9 5 10 3 11 4 12
REMARK SMILES IDX 2 13 1 14 6 15 7 16 8 18 9 19 10 20 17 21 11 22 12 23 13 24
REMARK SMILES IDX 14 25 15 27 16 28 27 29 28 30 29 31 30 32 31 33 32 34 33 35
REMARK SMILES IDX 34 36 35 37 36 38 100 39 37 40 99 41 38 42 39 43 40 44 93 45
REMARK SMILES IDX 41 46 98 47 92 48 94 49 42 50 97 51 91 52 90 53 43 55 77 56
REMARK SMILES IDX 56 57 76 58 57 59 60 60 75 61 95 62 58 63 59 64 74 66 96 67
REMARK SMILES IDX 61 68 44 69 45 70 54 71 46 72 47 73 53 74 55 75 48 76 49 77
REMARK SMILES IDX 50 78 51 79 52 80 78 81 79 82 88 83 80 84 81 85 87 86 89 87
REMARK SMILES IDX 82 88 83 89 84 90 85 91 86 92 62 93 63 94 72 95 64 96 65 97
REMARK SMILES IDX 71 98 73 99 66 100 67 101 68 102 69 103 70 104
REMARK H PARENT 6 17 13 26 94 54 60 65
REMARK Flexibility Score: inf
ROOT
ATOM      1  O   UNL A   1      41.304  22.394  27.321  1.00  0.00    -0.377 OA
ENDROOT
BRANCH   1   2
ATOM      2  C   UNL A   1      39.964  22.362  26.854  1.00  0.00     0.188 C 
BRANCH   2   3
ATOM      3  C   UNL A   1      39.277  23.727  26.732  1.00  0.00     0.188 C 
BRANCH   3   4
ATOM      4  O   UNL A   1      38.052  23.772  25.988  1.00  0.00    -0.376 OA
BRANCH   4   5
ATOM      5  C   UNL A   1      37.601  22.538  25.457  1.00  0.00     0.202 C 
BRANCH   5   6
ATOM      6  C   UNL A   1      36.355  22.566  24.549  1.00  0.00     0.261 C 
BRANCH   6   7
ATOM      7  O   UNL A   1      35.782  23.770  23.992  1.00  0.00    -0.462 OA
BRANCH   7   8
ATOM      8  C   UNL A   1      34.665  24.372  24.469  1.00  0.00     0.329 C 
ATOM      9  O   UNL A   1      34.579  25.198  25.372  1.00  0.00    -0.250 OA
BRANCH   8  10
ATOM     10  C   UNL A   1      33.413  23.878  23.748  1.00  0.00     0.195 C 
BRANCH  10  11
ATOM     11  C   UNL A   1      32.120  24.009  24.646  1.00  0.00     0.019 C 
ATOM     12  C   UNL A   1      30.816  23.854  23.845  1.00  0.00     0.010 C 
BRANCH  11  13
ATOM     13  C   UNL A   1      31.991  23.082  25.886  1.00  0.00     0.002 C 
ATOM     14  C   UNL A   1      32.292  21.604  25.681  1.00  0.00     0.004 C 
ENDBRANCH  11  13
ENDBRANCH  10  11
BRANCH  10  15
ATOM     15  N   UNL A   1      33.225  24.591  22.457  1.00  0.00    -0.337 N 
ATOM     16  C   UNL A   1      33.228  25.910  22.059  1.00  0.00     0.271 C 
ATOM     17  H   UNL A   1      33.056  23.974  21.709  1.00  0.00     0.164 HD
ATOM     18  O   UNL A   1      33.380  26.099  20.849  1.00  0.00    -0.267 OA
BRANCH  16  19
ATOM     19  C   UNL A   1      32.914  27.033  22.954  1.00  0.00     0.141 A 
ATOM     20  C   UNL A   1      31.606  27.370  23.267  1.00  0.00     0.102 A 
ATOM     21  N   UNL A   1      33.850  27.863  23.559  1.00  0.00    -0.215 NA
ATOM     22  S   UNL A   1      31.567  28.677  24.376  1.00  0.00    -0.104 S 
ATOM     23  C   UNL A   1      33.268  28.645  24.445  1.00  0.00     0.190 A 
BRANCH  23  24
ATOM     24  N   UNL A   1      33.995  29.271  25.433  1.00  0.00    -0.302 N 
ATOM     25  C   UNL A   1      34.000  28.973  26.779  1.00  0.00     0.223 C 
ATOM     26  H   UNL A   1      34.575  30.013  25.146  1.00  0.00     0.172 HD
ATOM     27  C   UNL A   1      35.101  29.676  27.547  1.00  0.00     0.114 C 
ATOM     28  O   UNL A   1      33.267  28.186  27.369  1.00  0.00    -0.275 OA
ENDBRANCH  23  24
ENDBRANCH  16  19
ENDBRANCH  10  15
ENDBRANCH   8  10
ENDBRANCH   7   8
ENDBRANCH   6   7
ENDBRANCH   5   6
ENDBRANCH   4   5
ENDBRANCH   3   4
ENDBRANCH   2   3
ENDBRANCH   1   2
BRANCH   1  29
ATOM     29  C   UNL A   1      42.197  21.349  26.966  1.00  0.00     0.188 C 
BRANCH  29  30
ATOM     30  C   UNL A   1      43.342  21.673  25.999  1.00  0.00     0.188 C 
BRANCH  30  31
ATOM     31  O   UNL A   1      44.407  22.375  26.628  1.00  0.00    -0.376 OA
BRANCH  31  32
ATOM     32  C   UNL A   1      44.449  23.790  26.481  1.00  0.00     0.202 C 
BRANCH  32  33
ATOM     33  C   UNL A   1      43.649  24.421  25.326  1.00  0.00     0.261 C 
BRANCH  33  34
ATOM     34  O   UNL A   1      43.411  25.845  25.360  1.00  0.00    -0.460 OA
BRANCH  34  35
ATOM     35  C   UNL A   1      42.191  26.330  25.674  1.00  0.00     0.338 C 
ATOM     36  O   UNL A   1      41.155  26.167  25.054  1.00  0.00    -0.246 OA
BRANCH  35  37
ATOM     37  C   UNL A   1      42.264  26.881  27.050  1.00  0.00     0.060 A 
ATOM     38  C   UNL A   1      41.558  26.237  28.078  1.00  0.00     0.016 A 
ATOM     39  C   UNL A   1      43.037  28.010  27.334  1.00  0.00     0.016 A 
ATOM     40  C   UNL A   1      41.583  26.745  29.378  1.00  0.00     0.010 A 
ATOM     41  C   UNL A   1      43.034  28.539  28.629  1.00  0.00     0.010 A 
ATOM     42  C   UNL A   1      42.273  27.934  29.646  1.00  0.00    -0.014 A 
BRANCH  42  43
ATOM     43  C   UNL A   1      41.962  28.694  30.882  1.00  0.00     0.031 A 
ATOM     44  C   UNL A   1      40.771  29.618  30.846  1.00  0.00     0.074 A 
ATOM     45  C   UNL A   1      42.689  28.574  32.007  1.00  0.00     0.049 A 
ATOM     46  N   UNL A   1      40.324  30.438  31.758  1.00  0.00    -0.248 NA
ATOM     47  C   UNL A   1      39.980  29.611  29.602  1.00  0.00     0.031 C 
ATOM     48  C   UNL A   1      43.831  27.681  32.189  1.00  0.00     0.029 A 
ATOM     49  N   UNL A   1      42.572  29.223  33.212  1.00  0.00    -0.354 N 
ATOM     50  C   UNL A   1      39.206  31.048  31.200  1.00  0.00     0.074 A 
ATOM     51  C   UNL A   1      39.058  30.524  29.861  1.00  0.00     0.031 C 
ATOM     52  C   UNL A   1      44.324  27.854  33.430  1.00  0.00     0.029 A 
ATOM     53  C   UNL A   1      43.553  28.890  34.117  1.00  0.00     0.049 A 
ATOM     54  H   UNL A   1      41.854  29.867  33.409  1.00  0.00     0.167 HD
ATOM     55  C   UNL A   1      38.372  31.958  31.753  1.00  0.00     0.037 A 
ATOM     56  C   UNL A   1      43.808  29.386  35.345  1.00  0.00     0.037 A 
ATOM     57  C   UNL A   1      38.525  32.487  33.080  1.00  0.00     0.049 A 
ATOM     58  C   UNL A   1      42.912  30.460  35.915  1.00  0.00     0.074 A 
ATOM     59  C   UNL A   1      37.732  33.413  33.734  1.00  0.00     0.029 A 
ATOM     60  N   UNL A   1      39.546  32.146  33.954  1.00  0.00    -0.354 N 
ATOM     61  N   UNL A   1      41.850  31.018  35.383  1.00  0.00    -0.248 NA
ATOM     62  C   UNL A   1      43.249  30.972  37.252  1.00  0.00     0.031 C 
ATOM     63  C   UNL A   1      38.301  33.667  34.986  1.00  0.00     0.029 A 
ATOM     64  C   UNL A   1      39.417  32.858  35.133  1.00  0.00     0.049 A 
ATOM     65  H   UNL A   1      40.258  31.492  33.764  1.00  0.00     0.167 HD
ATOM     66  C   UNL A   1      41.376  31.922  36.331  1.00  0.00     0.074 A 
ATOM     67  C   UNL A   1      42.262  31.831  37.472  1.00  0.00     0.031 C 
ATOM     68  C   UNL A   1      40.302  32.749  36.266  1.00  0.00     0.037 A 
BRANCH  55  69
ATOM     69  C   UNL A   1      37.240  32.463  30.904  1.00  0.00     0.058 A 
ATOM     70  C   UNL A   1      37.447  33.395  29.875  1.00  0.00     0.135 A 
ATOM     71  C   UNL A   1      35.932  31.998  31.114  1.00  0.00     0.135 A 
ATOM     72  F   UNL A   1      38.673  33.893  29.649  1.00  0.00    -0.206 F 
ATOM     73  C   UNL A   1      36.391  33.869  29.102  1.00  0.00     0.059 A 
ATOM     74  C   UNL A   1      34.867  32.436  30.334  1.00  0.00     0.059 A 
ATOM     75  F   UNL A   1      35.678  31.113  32.091  1.00  0.00    -0.206 F 
ATOM     76  C   UNL A   1      35.105  33.383  29.339  1.00  0.00     0.060 A 
BRANCH  76  77
ATOM     77  S   UNL A   1      33.747  34.007  28.327  1.00  0.00     0.124 S 
ATOM     78  O   UNL A   1      32.823  34.491  29.348  1.00  0.00    -0.237 OA
ATOM     79  O   UNL A   1      34.402  35.036  27.526  1.00  0.00    -0.237 OA
ATOM     80  O   UNL A   1      33.304  32.829  27.589  1.00  0.00    -0.744 OA
ENDBRANCH  76  77
ENDBRANCH  55  69
BRANCH  56  81
ATOM     81  C   UNL A   1      44.977  28.890  36.124  1.00  0.00     0.058 A 
ATOM     82  C   UNL A   1      44.877  27.758  36.946  1.00  0.00     0.135 A 
ATOM     83  C   UNL A   1      46.214  29.554  36.077  1.00  0.00     0.135 A 
ATOM     84  F   UNL A   1      43.712  27.098  37.040  1.00  0.00    -0.206 F 
ATOM     85  C   UNL A   1      45.954  27.307  37.703  1.00  0.00     0.059 A 
ATOM     86  C   UNL A   1      47.312  29.108  36.804  1.00  0.00     0.059 A 
ATOM     87  F   UNL A   1      46.364  30.640  35.304  1.00  0.00    -0.206 F 
ATOM     88  C   UNL A   1      47.170  27.988  37.623  1.00  0.00     0.060 A 
BRANCH  88  89
ATOM     89  S   UNL A   1      48.576  27.370  38.575  1.00  0.00     0.124 S 
ATOM     90  O   UNL A   1      47.938  26.994  39.831  1.00  0.00    -0.237 OA
ATOM     91  O   UNL A   1      49.047  26.268  37.741  1.00  0.00    -0.237 OA
ATOM     92  O   UNL A   1      49.469  28.524  38.639  1.00  0.00    -0.744 OA
ENDBRANCH  88  89
ENDBRANCH  56  81
BRANCH  68  93
ATOM     93  C   UNL A   1      39.993  33.595  37.473  1.00  0.00     0.058 A 
ATOM     94  C   UNL A   1      40.476  34.905  37.602  1.00  0.00     0.135 A 
ATOM     95  C   UNL A   1      39.143  33.107  38.479  1.00  0.00     0.135 A 
ATOM     96  F   UNL A   1      41.294  35.420  36.671  1.00  0.00    -0.206 F 
ATOM     97  C   UNL A   1      40.145  35.696  38.699  1.00  0.00     0.059 A 
ATOM     98  C   UNL A   1      38.776  33.890  39.570  1.00  0.00     0.059 A 
ATOM     99  F   UNL A   1      38.641  31.864  38.397  1.00  0.00    -0.206 F 
ATOM    100  C   UNL A   1      39.291  35.180  39.676  1.00  0.00     0.060 A 
BRANCH 100 101
ATOM    101  S   UNL A   1      38.837  36.230  41.073  1.00  0.00     0.124 S 
ATOM    102  O   UNL A   1      37.629  35.569  41.556  1.00  0.00    -0.237 OA
ATOM    103  O   UNL A   1      40.008  36.122  41.940  1.00  0.00    -0.237 OA
ATOM    104  O   UNL A   1      38.635  37.540  40.465  1.00  0.00    -0.744 OA
ENDBRANCH 100 101
ENDBRANCH  68  93
ENDBRANCH  42  43
ENDBRANCH  35  37
ENDBRANCH  34  35
ENDBRANCH  33  34
ENDBRANCH  32  33
ENDBRANCH  31  32
ENDBRANCH  30  31
ENDBRANCH  29  30
ENDBRANCH   1  29
TORSDOF 28
ENDMDL
MODEL 3
REMARK VINA RESULT:      -9.2      1.339      3.112
REMARK SMILES CC[C@H](C)[C@@H](NC(=O)c1csc(NC(C)=O)n1)C(=O)OCCOCCOCCOCCOC(=O)c1ccc(-c2c3nc(c(-c4c(F)cc(S(=O)(=O)[O-])cc4F)c4ccc([nH]4)c(-c4c(F)cc(S(=O)(=O)[O-])cc4F)c4nc(c(-c5c(F)cc(S(=O)(=O)[O-])cc5F)c5ccc2[nH]5)C=C4)C=C3)cc1
REMARK SMILES IDX 26 1 25 2 24 3 23 4 22 5 21 6 20 7 18 8 19 9 5 10 3 11 4 12
REMARK SMILES IDX 2 13 1 14 6 15 7 16 8 18 9 19 10 20 17 21 11 22 12 23 13 24
REMARK SMILES IDX 14 25 15 27 16 28 27 29 28 30 29 31 30 32 31 33 32 34 33 35
REMARK SMILES IDX 34 36 35 37 36 38 100 39 37 40 99 41 38 42 39 43 40 44 93 45
REMARK SMILES IDX 41 46 98 47 92 48 94 49 42 50 97 51 91 52 90 53 43 55 77 56
REMARK SMILES IDX 56 57 76 58 57 59 60 60 75 61 95 62 58 63 59 64 74 66 96 67
REMARK SMILES IDX 61 68 44 69 45 70 54 71 46 72 47 73 53 74 55 75 48 76 49 77
REMARK SMILES IDX 50 78 51 79 52 80 78 81 79 82 88 83 80 84 81 85 87 86 89 87
REMARK SMILES IDX 82 88 83 89 84 90 85 91 86 92 62 93 63 94 72 95 64 96 65 97
REMARK SMILES IDX 71 98 73 99 66 100 67 101 68 102 69 103 70 104
REMARK H PARENT 6 17 13 26 94 54 60 65
REMARK Flexibility Score: inf
ROOT
ATOM      1  O   UNL A   1      40.882  20.412  26.985  1.00  0.00    -0.377 OA
ENDROOT
BRANCH   1   2
ATOM      2  C   UNL A   1      39.900  21.176  26.303  1.00  0.00     0.188 C 
BRANCH   2   3
ATOM      3  C   UNL A   1      39.655  22.582  26.860  1.00  0.00     0.188 C 
BRANCH   3   4
ATOM      4  O   UNL A   1      38.839  23.459  26.072  1.00  0.00    -0.376 OA
BRANCH   4   5
ATOM      5  C   UNL A   1      37.532  22.996  25.778  1.00  0.00     0.202 C 
BRANCH   5   6
ATOM      6  C   UNL A   1      36.709  23.796  24.748  1.00  0.00     0.261 C 
BRANCH   6   7
ATOM      7  O   UNL A   1      35.274  23.698  24.604  1.00  0.00    -0.462 OA
BRANCH   7   8
ATOM      8  C   UNL A   1      34.608  23.934  23.446  1.00  0.00     0.329 C 
ATOM      9  O   UNL A   1      34.744  23.368  22.367  1.00  0.00    -0.250 OA
BRANCH   8  10
ATOM     10  C   UNL A   1      33.607  25.076  23.601  1.00  0.00     0.195 C 
BRANCH  10  11
ATOM     11  C   UNL A   1      33.759  26.158  22.460  1.00  0.00     0.019 C 
ATOM     12  C   UNL A   1      32.860  25.877  21.243  1.00  0.00     0.010 C 
BRANCH  11  13
ATOM     13  C   UNL A   1      33.548  27.652  22.831  1.00  0.00     0.002 C 
ATOM     14  C   UNL A   1      33.813  28.052  24.276  1.00  0.00     0.004 C 
ENDBRANCH  11  13
ENDBRANCH  10  11
BRANCH  10  15
ATOM     15  N   UNL A   1      32.213  24.562  23.647  1.00  0.00    -0.337 N 
ATOM     16  C   UNL A   1      31.580  23.508  24.269  1.00  0.00     0.271 C 
ATOM     17  H   UNL A   1      31.596  25.102  23.103  1.00  0.00     0.164 HD
ATOM     18  O   UNL A   1      30.352  23.600  24.352  1.00  0.00    -0.267 OA
BRANCH  16  19
ATOM     19  C   UNL A   1      32.262  22.271  24.673  1.00  0.00     0.141 A 
ATOM     20  C   UNL A   1      32.717  22.080  25.970  1.00  0.00     0.102 A 
ATOM     21  N   UNL A   1      32.532  21.194  23.838  1.00  0.00    -0.215 NA
ATOM     22  S   UNL A   1      33.410  20.522  26.144  1.00  0.00    -0.104 S 
ATOM     23  C   UNL A   1      32.977  20.169  24.536  1.00  0.00     0.190 A 
BRANCH  23  24
ATOM     24  N   UNL A   1      32.953  18.890  24.024  1.00  0.00    -0.302 N 
ATOM     25  C   UNL A   1      33.959  17.950  24.086  1.00  0.00     0.223 C 
ATOM     26  H   UNL A   1      32.126  18.619  23.565  1.00  0.00     0.172 HD
ATOM     27  C   UNL A   1      33.515  16.566  23.658  1.00  0.00     0.114 C 
ATOM     28  O   UNL A   1      35.106  18.113  24.491  1.00  0.00    -0.275 OA
ENDBRANCH  23  24
ENDBRANCH  16  19
ENDBRANCH  10  15
ENDBRANCH   8  10
ENDBRANCH   7   8
ENDBRANCH   6   7
ENDBRANCH   5   6
ENDBRANCH   4   5
ENDBRANCH   3   4
ENDBRANCH   2   3
ENDBRANCH   1   2
BRANCH   1  29
ATOM     29  C   UNL A   1      42.217  20.889  27.059  1.00  0.00     0.188 C 
BRANCH  29  30
ATOM     30  C   UNL A   1      43.109  20.738  25.820  1.00  0.00     0.188 C 
BRANCH  30  31
ATOM     31  O   UNL A   1      43.342  21.974  25.159  1.00  0.00    -0.376 OA
BRANCH  31  32
ATOM     32  C   UNL A   1      43.221  23.169  25.922  1.00  0.00     0.202 C 
BRANCH  32  33
ATOM     33  C   UNL A   1      43.042  24.497  25.163  1.00  0.00     0.261 C 
BRANCH  33  34
ATOM     34  O   UNL A   1      42.049  25.429  25.644  1.00  0.00    -0.460 OA
BRANCH  34  35
ATOM     35  C   UNL A   1      42.282  26.757  25.616  1.00  0.00     0.338 C 
ATOM     36  O   UNL A   1      42.280  27.482  24.637  1.00  0.00    -0.246 OA
BRANCH  35  37
ATOM     37  C   UNL A   1      42.283  27.245  27.018  1.00  0.00     0.060 A 
ATOM     38  C   UNL A   1      41.385  26.679  27.935  1.00  0.00     0.016 A 
ATOM     39  C   UNL A   1      43.173  28.238  27.435  1.00  0.00     0.016 A 
ATOM     40  C   UNL A   1      41.340  27.134  29.254  1.00  0.00     0.010 A 
ATOM     41  C   UNL A   1      43.105  28.718  28.746  1.00  0.00     0.010 A 
ATOM     42  C   UNL A   1      42.160  28.199  29.648  1.00  0.00    -0.014 A 
BRANCH  42  43
ATOM     43  C   UNL A   1      41.828  28.955  30.882  1.00  0.00     0.031 A 
ATOM     44  C   UNL A   1      40.623  29.859  30.836  1.00  0.00     0.074 A 
ATOM     45  C   UNL A   1      42.548  28.847  32.012  1.00  0.00     0.049 A 
ATOM     46  N   UNL A   1      40.156  30.674  31.745  1.00  0.00    -0.248 NA
ATOM     47  C   UNL A   1      39.841  29.839  29.587  1.00  0.00     0.031 C 
ATOM     48  C   UNL A   1      43.704  27.972  32.203  1.00  0.00     0.029 A 
ATOM     49  N   UNL A   1      42.413  29.495  33.216  1.00  0.00    -0.354 N 
ATOM     50  C   UNL A   1      39.033  31.265  31.178  1.00  0.00     0.074 A 
ATOM     51  C   UNL A   1      38.903  30.738  29.838  1.00  0.00     0.031 C 
ATOM     52  C   UNL A   1      44.184  28.154  33.447  1.00  0.00     0.029 A 
ATOM     53  C   UNL A   1      43.392  29.178  34.128  1.00  0.00     0.049 A 
ATOM     54  H   UNL A   1      41.684  30.127  33.407  1.00  0.00     0.167 HD
ATOM     55  C   UNL A   1      38.181  32.162  31.725  1.00  0.00     0.037 A 
ATOM     56  C   UNL A   1      43.631  29.679  35.358  1.00  0.00     0.037 A 
ATOM     57  C   UNL A   1      38.316  32.695  33.052  1.00  0.00     0.049 A 
ATOM     58  C   UNL A   1      42.714  30.739  35.920  1.00  0.00     0.074 A 
ATOM     59  C   UNL A   1      37.503  33.608  33.699  1.00  0.00     0.029 A 
ATOM     60  N   UNL A   1      39.336  32.370  33.934  1.00  0.00    -0.354 N 
ATOM     61  N   UNL A   1      41.647  31.280  35.380  1.00  0.00    -0.248 NA
ATOM     62  C   UNL A   1      43.034  31.258  37.259  1.00  0.00     0.031 C 
ATOM     63  C   UNL A   1      38.059  33.872  34.955  1.00  0.00     0.029 A 
ATOM     64  C   UNL A   1      39.187  33.081  35.112  1.00  0.00     0.049 A 
ATOM     65  H   UNL A   1      40.059  31.728  33.749  1.00  0.00     0.167 HD
ATOM     66  C   UNL A   1      41.152  32.177  36.324  1.00  0.00     0.074 A 
ATOM     67  C   UNL A   1      42.032  32.101  37.471  1.00  0.00     0.031 C 
ATOM     68  C   UNL A   1      40.066  32.987  36.251  1.00  0.00     0.037 A 
BRANCH  55  69
ATOM     69  C   UNL A   1      37.047  32.648  30.867  1.00  0.00     0.058 A 
ATOM     70  C   UNL A   1      37.219  33.680  29.930  1.00  0.00     0.135 A 
ATOM     71  C   UNL A   1      35.774  32.067  30.975  1.00  0.00     0.135 A 
ATOM     72  F   UNL A   1      38.409  34.289  29.804  1.00  0.00    -0.206 F 
ATOM     73  C   UNL A   1      36.161  34.135  29.149  1.00  0.00     0.059 A 
ATOM     74  C   UNL A   1      34.709  32.486  30.184  1.00  0.00     0.059 A 
ATOM     75  F   UNL A   1      35.554  31.083  31.862  1.00  0.00    -0.206 F 
ATOM     76  C   UNL A   1      34.910  33.531  29.283  1.00  0.00     0.060 A 
BRANCH  76  77
ATOM     77  S   UNL A   1      33.548  34.132  28.263  1.00  0.00     0.124 S 
ATOM     78  O   UNL A   1      34.230  35.099  27.408  1.00  0.00    -0.237 OA
ATOM     79  O   UNL A   1      33.093  32.912  27.602  1.00  0.00    -0.237 OA
ATOM     80  O   UNL A   1      32.619  34.699  29.235  1.00  0.00    -0.744 OA
ENDBRANCH  76  77
ENDBRANCH  55  69
BRANCH  56  81
ATOM     81  C   UNL A   1      44.802  29.202  36.146  1.00  0.00     0.058 A 
ATOM     82  C   UNL A   1      44.688  28.131  37.045  1.00  0.00     0.135 A 
ATOM     83  C   UNL A   1      46.056  29.824  36.029  1.00  0.00     0.135 A 
ATOM     84  F   UNL A   1      43.507  27.515  37.207  1.00  0.00    -0.206 F 
ATOM     85  C   UNL A   1      45.768  27.701  37.809  1.00  0.00     0.059 A 
ATOM     86  C   UNL A   1      47.157  29.395  36.763  1.00  0.00     0.059 A 
ATOM     87  F   UNL A   1      46.220  30.850  35.180  1.00  0.00    -0.206 F 
ATOM     88  C   UNL A   1      47.001  28.339  37.659  1.00  0.00     0.060 A 
BRANCH  88  89
ATOM     89  S   UNL A   1      48.409  27.744  38.622  1.00  0.00     0.124 S 
ATOM     90  O   UNL A   1      48.418  26.325  38.284  1.00  0.00    -0.237 OA
ATOM     91  O   UNL A   1      49.506  28.539  38.080  1.00  0.00    -0.237 OA
ATOM     92  O   UNL A   1      48.032  28.064  39.996  1.00  0.00    -0.744 OA
ENDBRANCH  88  89
ENDBRANCH  56  81
BRANCH  68  93
ATOM     93  C   UNL A   1      39.735  33.829  37.454  1.00  0.00     0.058 A 
ATOM     94  C   UNL A   1      38.794  33.417  38.409  1.00  0.00     0.135 A 
ATOM     95  C   UNL A   1      40.424  35.030  37.688  1.00  0.00     0.135 A 
ATOM     96  F   UNL A   1      38.106  32.278  38.234  1.00  0.00    -0.206 F 
ATOM     97  C   UNL A   1      38.530  34.179  39.544  1.00  0.00     0.059 A 
ATOM     98  C   UNL A   1      40.196  35.794  38.829  1.00  0.00     0.059 A 
ATOM     99  F   UNL A   1      41.346  35.463  36.813  1.00  0.00    -0.206 F 
ATOM    100  C   UNL A   1      39.239  35.365  39.747  1.00  0.00     0.060 A 
BRANCH 100 101
ATOM    101  S   UNL A   1      38.917  36.324  41.242  1.00  0.00     0.124 S 
ATOM    102  O   UNL A   1      40.238  36.357  41.860  1.00  0.00    -0.237 OA
ATOM    103  O   UNL A   1      38.438  37.594  40.702  1.00  0.00    -0.237 OA
ATOM    104  O   UNL A   1      37.914  35.532  41.946  1.00  0.00    -0.744 OA
ENDBRANCH 100 101
ENDBRANCH  68  93
ENDBRANCH  42  43
ENDBRANCH  35  37
ENDBRANCH  34  35
ENDBRANCH  33  34
ENDBRANCH  32  33
ENDBRANCH  31  32
ENDBRANCH  30  31
ENDBRANCH  29  30
ENDBRANCH   1  29
TORSDOF 28
ENDMDL
