MODEL 1
REMARK VINA RESULT:      -9.2      0.000      0.000
REMARK SMILES Cc1nsc(N[C@H](C)c2cccs2)c1C(=O)OCCOCCOCCOCCOC(=O)c1ccc(-c2c3nc(c(-c4c(F)cc(S(=O)(=O)[O-])cc4F)c4ccc([nH]4)c(-c4c(F)cc(S(=O)(=O)[O-])cc4F)c4nc(c(-c5c(F)cc(S(=O)(=O)[O-])cc5F)c5ccc2[nH]5)C=C4)C=C3)cc1
REMARK SMILES IDX 23 1 22 2 21 3 20 4 19 5 18 6 17 7 15 8 16 9 14 10 1 11 2 12
REMARK SMILES IDX 3 13 4 14 5 15 6 16 7 18 8 19 9 20 10 21 13 22 11 23 12 24
REMARK SMILES IDX 24 25 25 26 26 27 27 28 28 29 29 30 30 31 31 32 32 33 33 34
REMARK SMILES IDX 97 35 34 36 96 37 35 38 36 39 37 40 90 41 38 42 95 43 89 44
REMARK SMILES IDX 91 45 39 46 94 47 88 48 87 49 40 51 74 52 53 53 73 54 54 55
REMARK SMILES IDX 57 56 72 57 92 58 55 59 56 60 71 62 93 63 58 64 41 65 42 66
REMARK SMILES IDX 51 67 43 68 44 69 50 70 52 71 45 72 46 73 47 74 48 75 49 76
REMARK SMILES IDX 75 77 76 78 85 79 77 80 78 81 84 82 86 83 79 84 80 85 81 86
REMARK SMILES IDX 82 87 83 88 59 89 60 90 69 91 61 92 62 93 68 94 70 95 63 96
REMARK SMILES IDX 64 97 65 98 66 99 67 100
REMARK H PARENT 6 17 91 50 57 61
REMARK Flexibility Score: inf
ROOT
ATOM      1  O   UNL A   1      33.927  30.370  27.589  1.00  0.00    -0.377 OA
ENDROOT
BRANCH   1   2
ATOM      2  C   UNL A   1      32.740  30.109  26.860  1.00  0.00     0.188 C 
BRANCH   2   3
ATOM      3  C   UNL A   1      32.148  28.701  27.099  1.00  0.00     0.188 C 
BRANCH   3   4
ATOM      4  O   UNL A   1      31.556  27.922  26.062  1.00  0.00    -0.376 OA
BRANCH   4   5
ATOM      5  C   UNL A   1      31.234  26.555  26.250  1.00  0.00     0.202 C 
BRANCH   5   6
ATOM      6  C   UNL A   1      32.268  25.478  25.897  1.00  0.00     0.261 C 
BRANCH   6   7
ATOM      7  O   UNL A   1      33.522  25.961  25.405  1.00  0.00    -0.460 OA
BRANCH   7   8
ATOM      8  C   UNL A   1      34.294  25.050  24.739  1.00  0.00     0.343 C 
ATOM      9  O   UNL A   1      35.153  24.366  25.263  1.00  0.00    -0.246 OA
BRANCH   8  10
ATOM     10  C   UNL A   1      33.880  24.888  23.345  1.00  0.00     0.117 A 
ATOM     11  C   UNL A   1      33.491  27.414  22.655  1.00  0.00     0.069 C 
ATOM     12  C   UNL A   1      33.567  25.944  22.404  1.00  0.00     0.068 A 
ATOM     13  N   UNL A   1      33.278  25.544  21.170  1.00  0.00    -0.195 NA
ATOM     14  S   UNL A   1      33.268  23.907  21.124  1.00  0.00    -0.018 S 
ATOM     15  C   UNL A   1      33.602  23.628  22.785  1.00  0.00     0.124 A 
BRANCH  15  16
ATOM     16  N   UNL A   1      33.565  22.436  23.463  1.00  0.00    -0.368 N 
ATOM     17  H   UNL A   1      34.438  21.984  23.518  1.00  0.00     0.162 HD
BRANCH  16  18
ATOM     18  C   UNL A   1      32.480  21.703  24.124  1.00  0.00     0.117 C 
ATOM     19  C   UNL A   1      32.335  21.868  25.635  1.00  0.00     0.037 C 
BRANCH  18  20
ATOM     20  C   UNL A   1      32.478  20.206  23.822  1.00  0.00     0.027 A 
ATOM     21  C   UNL A   1      32.119  19.550  22.655  1.00  0.00     0.017 A 
ATOM     22  S   UNL A   1      33.092  19.095  24.983  1.00  0.00    -0.147 S 
ATOM     23  C   UNL A   1      32.429  18.157  22.689  1.00  0.00     0.012 A 
ATOM     24  C   UNL A   1      32.973  17.781  23.897  1.00  0.00     0.065 A 
ENDBRANCH  18  20
ENDBRANCH  16  18
ENDBRANCH  15  16
ENDBRANCH   8  10
ENDBRANCH   7   8
ENDBRANCH   6   7
ENDBRANCH   5   6
ENDBRANCH   4   5
ENDBRANCH   3   4
ENDBRANCH   2   3
ENDBRANCH   1   2
BRANCH   1  25
ATOM     25  C   UNL A   1      34.406  31.706  27.467  1.00  0.00     0.188 C 
BRANCH  25  26
ATOM     26  C   UNL A   1      34.731  32.468  28.775  1.00  0.00     0.188 C 
BRANCH  26  27
ATOM     27  O   UNL A   1      33.715  33.383  29.183  1.00  0.00    -0.376 OA
BRANCH  27  28
ATOM     28  C   UNL A   1      34.031  34.752  29.391  1.00  0.00     0.202 C 
BRANCH  28  29
ATOM     29  C   UNL A   1      33.344  35.356  30.615  1.00  0.00     0.261 C 
BRANCH  29  30
ATOM     30  O   UNL A   1      33.610  34.624  31.799  1.00  0.00    -0.460 OA
BRANCH  30  31
ATOM     31  C   UNL A   1      34.539  35.169  32.608  1.00  0.00     0.338 C 
ATOM     32  O   UNL A   1      34.841  36.345  32.700  1.00  0.00    -0.246 OA
BRANCH  31  33
ATOM     33  C   UNL A   1      35.187  34.092  33.361  1.00  0.00     0.060 A 
ATOM     34  C   UNL A   1      36.230  34.499  34.192  1.00  0.00     0.016 A 
ATOM     35  C   UNL A   1      35.034  32.772  32.909  1.00  0.00     0.016 A 
ATOM     36  C   UNL A   1      37.331  33.688  34.237  1.00  0.00     0.010 A 
ATOM     37  C   UNL A   1      36.137  31.971  32.939  1.00  0.00     0.010 A 
ATOM     38  C   UNL A   1      37.298  32.519  33.474  1.00  0.00    -0.014 A 
BRANCH  38  39
ATOM     39  C   UNL A   1      38.568  31.986  33.056  1.00  0.00     0.031 A 
ATOM     40  C   UNL A   1      39.487  31.706  34.163  1.00  0.00     0.074 A 
ATOM     41  C   UNL A   1      38.780  31.699  31.759  1.00  0.00     0.049 A 
ATOM     42  N   UNL A   1      40.574  32.328  34.468  1.00  0.00    -0.248 NA
ATOM     43  C   UNL A   1      39.033  30.734  35.170  1.00  0.00     0.031 C 
ATOM     44  C   UNL A   1      37.799  31.626  30.667  1.00  0.00     0.029 A 
ATOM     45  N   UNL A   1      39.921  31.274  31.169  1.00  0.00    -0.354 N 
ATOM     46  C   UNL A   1      41.055  31.675  35.595  1.00  0.00     0.074 A 
ATOM     47  C   UNL A   1      39.968  30.883  36.105  1.00  0.00     0.031 C 
ATOM     48  C   UNL A   1      38.346  30.947  29.633  1.00  0.00     0.029 A 
ATOM     49  C   UNL A   1      39.730  30.644  29.952  1.00  0.00     0.049 A 
ATOM     50  H   UNL A   1      40.811  31.402  31.571  1.00  0.00     0.167 HD
ATOM     51  C   UNL A   1      42.383  31.631  35.881  1.00  0.00     0.037 A 
ATOM     52  C   UNL A   1      40.625  29.809  29.368  1.00  0.00     0.037 A 
ATOM     53  C   UNL A   1      43.120  32.601  35.115  1.00  0.00     0.049 A 
ATOM     54  C   UNL A   1      41.951  30.075  30.007  1.00  0.00     0.074 A 
ATOM     55  C   UNL A   1      43.079  33.979  35.014  1.00  0.00     0.029 A 
ATOM     56  N   UNL A   1      43.811  32.160  34.009  1.00  0.00    -0.354 N 
ATOM     57  N   UNL A   1      42.608  31.202  29.894  1.00  0.00    -0.248 NA
ATOM     58  C   UNL A   1      42.321  29.265  31.163  1.00  0.00     0.031 C 
ATOM     59  C   UNL A   1      43.343  34.261  33.643  1.00  0.00     0.029 A 
ATOM     60  C   UNL A   1      43.564  33.047  32.991  1.00  0.00     0.049 A 
ATOM     61  H   UNL A   1      44.378  31.357  33.959  1.00  0.00     0.167 HD
ATOM     62  C   UNL A   1      43.184  31.422  31.142  1.00  0.00     0.074 A 
ATOM     63  C   UNL A   1      43.034  30.157  31.855  1.00  0.00     0.031 C 
ATOM     64  C   UNL A   1      43.468  32.681  31.592  1.00  0.00     0.037 A 
BRANCH  51  65
ATOM     65  C   UNL A   1      43.043  30.482  36.593  1.00  0.00     0.058 A 
ATOM     66  C   UNL A   1      43.986  30.755  37.601  1.00  0.00     0.135 A 
ATOM     67  C   UNL A   1      42.986  29.140  36.154  1.00  0.00     0.135 A 
ATOM     68  F   UNL A   1      44.125  31.999  38.088  1.00  0.00    -0.206 F 
ATOM     69  C   UNL A   1      44.865  29.784  38.078  1.00  0.00     0.059 A 
ATOM     70  C   UNL A   1      43.804  28.143  36.664  1.00  0.00     0.059 A 
ATOM     71  F   UNL A   1      42.216  28.745  35.133  1.00  0.00    -0.206 F 
ATOM     72  C   UNL A   1      44.778  28.486  37.584  1.00  0.00     0.060 A 
BRANCH  72  73
ATOM     73  S   UNL A   1      46.005  27.266  38.072  1.00  0.00     0.124 S 
ATOM     74  O   UNL A   1      45.389  26.707  39.271  1.00  0.00    -0.237 OA
ATOM     75  O   UNL A   1      46.048  26.391  36.906  1.00  0.00    -0.237 OA
ATOM     76  O   UNL A   1      47.206  28.068  38.292  1.00  0.00    -0.744 OA
ENDBRANCH  72  73
ENDBRANCH  51  65
BRANCH  52  77
ATOM     77  C   UNL A   1      40.296  28.550  28.641  1.00  0.00     0.058 A 
ATOM     78  C   UNL A   1      40.832  28.279  27.372  1.00  0.00     0.135 A 
ATOM     79  C   UNL A   1      39.628  27.476  29.270  1.00  0.00     0.135 A 
ATOM     80  F   UNL A   1      41.517  29.228  26.715  1.00  0.00    -0.206 F 
ATOM     81  C   UNL A   1      40.729  27.017  26.772  1.00  0.00     0.059 A 
ATOM     82  C   UNL A   1      39.494  26.219  28.685  1.00  0.00     0.059 A 
ATOM     83  F   UNL A   1      39.155  27.581  30.520  1.00  0.00    -0.206 F 
ATOM     84  C   UNL A   1      40.066  25.990  27.443  1.00  0.00     0.060 A 
BRANCH  84  85
ATOM     85  S   UNL A   1      40.045  24.325  26.739  1.00  0.00     0.124 S 
ATOM     86  O   UNL A   1      40.176  23.493  27.929  1.00  0.00    -0.237 OA
ATOM     87  O   UNL A   1      38.747  24.290  26.074  1.00  0.00    -0.237 OA
ATOM     88  O   UNL A   1      41.200  24.319  25.844  1.00  0.00    -0.744 OA
ENDBRANCH  84  85
ENDBRANCH  52  77
BRANCH  64  89
ATOM     89  C   UNL A   1      43.404  33.831  30.620  1.00  0.00     0.058 A 
ATOM     90  C   UNL A   1      44.486  34.220  29.810  1.00  0.00     0.135 A 
ATOM     91  C   UNL A   1      42.151  34.391  30.329  1.00  0.00     0.135 A 
ATOM     92  F   UNL A   1      45.691  33.653  29.956  1.00  0.00    -0.206 F 
ATOM     93  C   UNL A   1      44.332  35.133  28.767  1.00  0.00     0.059 A 
ATOM     94  C   UNL A   1      41.968  35.282  29.273  1.00  0.00     0.059 A 
ATOM     95  F   UNL A   1      41.067  34.010  31.025  1.00  0.00    -0.206 F 
ATOM     96  C   UNL A   1      43.065  35.649  28.496  1.00  0.00     0.060 A 
BRANCH  96  97
ATOM     97  S   UNL A   1      42.840  36.708  27.049  1.00  0.00     0.124 S 
ATOM     98  O   UNL A   1      44.159  37.318  26.908  1.00  0.00    -0.237 OA
ATOM     99  O   UNL A   1      42.469  35.753  26.009  1.00  0.00    -0.237 OA
ATOM    100  O   UNL A   1      41.771  37.618  27.455  1.00  0.00    -0.744 OA
ENDBRANCH  96  97
ENDBRANCH  64  89
ENDBRANCH  38  39
ENDBRANCH  31  33
ENDBRANCH  30  31
ENDBRANCH  29  30
ENDBRANCH  28  29
ENDBRANCH  27  28
ENDBRANCH  26  27
ENDBRANCH  25  26
ENDBRANCH   1  25
TORSDOF 26
ENDMDL
MODEL 2
REMARK VINA RESULT:      -8.6      4.118      8.725
REMARK SMILES Cc1nsc(N[C@H](C)c2cccs2)c1C(=O)OCCOCCOCCOCCOC(=O)c1ccc(-c2c3nc(c(-c4c(F)cc(S(=O)(=O)[O-])cc4F)c4ccc([nH]4)c(-c4c(F)cc(S(=O)(=O)[O-])cc4F)c4nc(c(-c5c(F)cc(S(=O)(=O)[O-])cc5F)c5ccc2[nH]5)C=C4)C=C3)cc1
REMARK SMILES IDX 23 1 22 2 21 3 20 4 19 5 18 6 17 7 15 8 16 9 14 10 1 11 2 12
REMARK SMILES IDX 3 13 4 14 5 15 6 16 7 18 8 19 9 20 10 21 13 22 11 23 12 24
REMARK SMILES IDX 24 25 25 26 26 27 27 28 28 29 29 30 30 31 31 32 32 33 33 34
REMARK SMILES IDX 97 35 34 36 96 37 35 38 36 39 37 40 90 41 38 42 95 43 89 44
REMARK SMILES IDX 91 45 39 46 94 47 88 48 87 49 40 51 74 52 53 53 73 54 54 55
REMARK SMILES IDX 57 56 72 57 92 58 55 59 56 60 71 62 93 63 58 64 41 65 42 66
REMARK SMILES IDX 51 67 43 68 44 69 50 70 52 71 45 72 46 73 47 74 48 75 49 76
REMARK SMILES IDX 75 77 76 78 85 79 77 80 78 81 84 82 86 83 79 84 80 85 81 86
REMARK SMILES IDX 82 87 83 88 59 89 60 90 69 91 61 92 62 93 68 94 70 95 63 96
REMARK SMILES IDX 64 97 65 98 66 99 67 100
REMARK H PARENT 6 17 91 50 57 61
REMARK Flexibility Score: inf
ROOT
ATOM      1  O   UNL A   1      43.233  18.330  25.312  1.00  0.00    -0.377 OA
ENDROOT
BRANCH   1   2
ATOM      2  C   UNL A   1      42.722  18.570  26.612  1.00  0.00     0.188 C 
BRANCH   2   3
ATOM      3  C   UNL A   1      41.326  19.231  26.631  1.00  0.00     0.188 C 
BRANCH   3   4
ATOM      4  O   UNL A   1      40.460  19.250  25.498  1.00  0.00    -0.376 OA
BRANCH   4   5
ATOM      5  C   UNL A   1      39.052  19.183  25.637  1.00  0.00     0.202 C 
BRANCH   5   6
ATOM      6  C   UNL A   1      38.168  20.196  24.898  1.00  0.00     0.261 C 
BRANCH   6   7
ATOM      7  O   UNL A   1      36.803  19.806  24.713  1.00  0.00    -0.460 OA
BRANCH   7   8
ATOM      8  C   UNL A   1      35.866  20.634  25.266  1.00  0.00     0.343 C 
ATOM      9  O   UNL A   1      36.124  21.564  26.007  1.00  0.00    -0.246 OA
BRANCH   8  10
ATOM     10  C   UNL A   1      34.520  20.363  24.760  1.00  0.00     0.117 A 
ATOM     11  C   UNL A   1      34.589  17.721  24.585  1.00  0.00     0.069 C 
ATOM     12  C   UNL A   1      33.937  19.062  24.501  1.00  0.00     0.068 A 
ATOM     13  N   UNL A   1      32.668  19.073  24.106  1.00  0.00    -0.195 NA
ATOM     14  S   UNL A   1      32.172  20.624  23.931  1.00  0.00    -0.018 S 
ATOM     15  C   UNL A   1      33.658  21.386  24.329  1.00  0.00     0.124 A 
BRANCH  15  16
ATOM     16  N   UNL A   1      33.981  22.715  24.212  1.00  0.00    -0.368 N 
ATOM     17  H   UNL A   1      34.881  22.935  24.548  1.00  0.00     0.162 HD
BRANCH  16  18
ATOM     18  C   UNL A   1      33.251  23.872  23.684  1.00  0.00     0.117 C 
ATOM     19  C   UNL A   1      34.061  24.951  22.970  1.00  0.00     0.037 C 
BRANCH  18  20
ATOM     20  C   UNL A   1      32.370  24.566  24.720  1.00  0.00     0.027 A 
ATOM     21  C   UNL A   1      32.705  25.028  25.984  1.00  0.00     0.017 A 
ATOM     22  S   UNL A   1      30.747  24.982  24.328  1.00  0.00    -0.147 S 
ATOM     23  C   UNL A   1      31.660  25.792  26.584  1.00  0.00     0.012 A 
ATOM     24  C   UNL A   1      30.541  25.853  25.784  1.00  0.00     0.065 A 
ENDBRANCH  18  20
ENDBRANCH  16  18
ENDBRANCH  15  16
ENDBRANCH   8  10
ENDBRANCH   7   8
ENDBRANCH   6   7
ENDBRANCH   5   6
ENDBRANCH   4   5
ENDBRANCH   3   4
ENDBRANCH   2   3
ENDBRANCH   1   2
BRANCH   1  25
ATOM     25  C   UNL A   1      43.688  19.499  24.637  1.00  0.00     0.188 C 
BRANCH  25  26
ATOM     26  C   UNL A   1      44.702  20.402  25.383  1.00  0.00     0.188 C 
BRANCH  26  27
ATOM     27  O   UNL A   1      44.988  21.631  24.715  1.00  0.00    -0.376 OA
BRANCH  27  28
ATOM     28  C   UNL A   1      43.949  22.569  24.473  1.00  0.00     0.202 C 
BRANCH  28  29
ATOM     29  C   UNL A   1      43.218  23.009  25.740  1.00  0.00     0.261 C 
BRANCH  29  30
ATOM     30  O   UNL A   1      42.147  23.895  25.464  1.00  0.00    -0.460 OA
BRANCH  30  31
ATOM     31  C   UNL A   1      40.977  23.573  26.050  1.00  0.00     0.338 C 
ATOM     32  O   UNL A   1      40.444  22.479  26.084  1.00  0.00    -0.246 OA
BRANCH  31  33
ATOM     33  C   UNL A   1      40.397  24.790  26.625  1.00  0.00     0.060 A 
ATOM     34  C   UNL A   1      41.017  25.977  26.238  1.00  0.00     0.016 A 
ATOM     35  C   UNL A   1      39.607  24.675  27.779  1.00  0.00     0.016 A 
ATOM     36  C   UNL A   1      41.178  26.929  27.207  1.00  0.00     0.010 A 
ATOM     37  C   UNL A   1      39.782  25.615  28.751  1.00  0.00     0.010 A 
ATOM     38  C   UNL A   1      40.687  26.637  28.480  1.00  0.00    -0.014 A 
BRANCH  38  39
ATOM     39  C   UNL A   1      41.320  27.307  29.585  1.00  0.00     0.031 A 
ATOM     40  C   UNL A   1      40.443  28.244  30.293  1.00  0.00     0.074 A 
ATOM     41  C   UNL A   1      42.574  26.974  29.943  1.00  0.00     0.049 A 
ATOM     42  N   UNL A   1      40.507  29.532  30.310  1.00  0.00    -0.248 NA
ATOM     43  C   UNL A   1      39.225  27.683  30.898  1.00  0.00     0.031 C 
ATOM     44  C   UNL A   1      43.370  25.818  29.507  1.00  0.00     0.029 A 
ATOM     45  N   UNL A   1      43.356  27.540  30.889  1.00  0.00    -0.354 N 
ATOM     46  C   UNL A   1      39.449  29.931  31.115  1.00  0.00     0.074 A 
ATOM     47  C   UNL A   1      38.579  28.793  31.244  1.00  0.00     0.031 C 
ATOM     48  C   UNL A   1      44.396  25.644  30.371  1.00  0.00     0.029 A 
ATOM     49  C   UNL A   1      44.385  26.730  31.336  1.00  0.00     0.049 A 
ATOM     50  H   UNL A   1      43.207  28.452  31.230  1.00  0.00     0.167 HD
ATOM     51  C   UNL A   1      39.492  31.088  31.828  1.00  0.00     0.037 A 
ATOM     52  C   UNL A   1      45.041  26.895  32.510  1.00  0.00     0.037 A 
ATOM     53  C   UNL A   1      40.549  31.951  31.368  1.00  0.00     0.049 A 
ATOM     54  C   UNL A   1      44.792  28.302  32.954  1.00  0.00     0.074 A 
ATOM     55  C   UNL A   1      40.836  32.560  30.161  1.00  0.00     0.029 A 
ATOM     56  N   UNL A   1      41.713  31.993  32.101  1.00  0.00    -0.354 N 
ATOM     57  N   UNL A   1      45.225  29.361  32.318  1.00  0.00    -0.248 NA
ATOM     58  C   UNL A   1      43.656  28.541  33.839  1.00  0.00     0.031 C 
ATOM     59  C   UNL A   1      42.255  32.525  30.054  1.00  0.00     0.029 A 
ATOM     60  C   UNL A   1      42.758  31.930  31.213  1.00  0.00     0.049 A 
ATOM     61  H   UNL A   1      41.784  32.055  33.081  1.00  0.00     0.167 HD
ATOM     62  C   UNL A   1      44.201  30.299  32.420  1.00  0.00     0.074 A 
ATOM     63  C   UNL A   1      43.297  29.762  33.433  1.00  0.00     0.031 C 
ATOM     64  C   UNL A   1      44.023  31.275  31.480  1.00  0.00     0.037 A 
BRANCH  51  65
ATOM     65  C   UNL A   1      38.804  31.276  33.153  1.00  0.00     0.058 A 
ATOM     66  C   UNL A   1      37.949  32.379  33.326  1.00  0.00     0.135 A 
ATOM     67  C   UNL A   1      39.149  30.575  34.331  1.00  0.00     0.135 A 
ATOM     68  F   UNL A   1      37.562  33.117  32.273  1.00  0.00    -0.206 F 
ATOM     69  C   UNL A   1      37.533  32.805  34.586  1.00  0.00     0.059 A 
ATOM     70  C   UNL A   1      38.690  30.940  35.588  1.00  0.00     0.059 A 
ATOM     71  F   UNL A   1      40.032  29.570  34.342  1.00  0.00    -0.206 F 
ATOM     72  C   UNL A   1      37.929  32.089  35.712  1.00  0.00     0.060 A 
BRANCH  72  73
ATOM     73  S   UNL A   1      37.533  32.716  37.350  1.00  0.00     0.124 S 
ATOM     74  O   UNL A   1      36.286  33.427  37.088  1.00  0.00    -0.237 OA
ATOM     75  O   UNL A   1      37.421  31.488  38.129  1.00  0.00    -0.237 OA
ATOM     76  O   UNL A   1      38.684  33.555  37.674  1.00  0.00    -0.744 OA
ENDBRANCH  72  73
ENDBRANCH  51  65
BRANCH  52  77
ATOM     77  C   UNL A   1      45.475  25.804  33.427  1.00  0.00     0.058 A 
ATOM     78  C   UNL A   1      44.539  24.997  34.095  1.00  0.00     0.135 A 
ATOM     79  C   UNL A   1      46.819  25.373  33.495  1.00  0.00     0.135 A 
ATOM     80  F   UNL A   1      43.234  25.307  34.054  1.00  0.00    -0.206 F 
ATOM     81  C   UNL A   1      44.910  23.828  34.773  1.00  0.00     0.059 A 
ATOM     82  C   UNL A   1      47.214  24.227  34.180  1.00  0.00     0.059 A 
ATOM     83  F   UNL A   1      47.790  26.005  32.821  1.00  0.00    -0.206 F 
ATOM     84  C   UNL A   1      46.251  23.446  34.800  1.00  0.00     0.060 A 
BRANCH  84  85
ATOM     85  S   UNL A   1      46.721  21.872  35.554  1.00  0.00     0.124 S 
ATOM     86  O   UNL A   1      46.969  21.039  34.384  1.00  0.00    -0.237 OA
ATOM     87  O   UNL A   1      47.895  22.246  36.335  1.00  0.00    -0.237 OA
ATOM     88  O   UNL A   1      45.545  21.507  36.341  1.00  0.00    -0.744 OA
ENDBRANCH  84  85
ENDBRANCH  52  77
BRANCH  64  89
ATOM     89  C   UNL A   1      45.107  31.506  30.458  1.00  0.00     0.058 A 
ATOM     90  C   UNL A   1      46.227  32.323  30.691  1.00  0.00     0.135 A 
ATOM     91  C   UNL A   1      45.132  30.693  29.316  1.00  0.00     0.135 A 
ATOM     92  F   UNL A   1      46.326  33.049  31.812  1.00  0.00    -0.206 F 
ATOM     93  C   UNL A   1      47.318  32.339  29.821  1.00  0.00     0.059 A 
ATOM     94  C   UNL A   1      46.223  30.670  28.449  1.00  0.00     0.059 A 
ATOM     95  F   UNL A   1      44.119  29.843  29.074  1.00  0.00    -0.206 F 
ATOM     96  C   UNL A   1      47.313  31.498  28.709  1.00  0.00     0.060 A 
BRANCH  96  97
ATOM     97  S   UNL A   1      48.791  31.406  27.673  1.00  0.00     0.124 S 
ATOM     98  O   UNL A   1      48.441  32.286  26.562  1.00  0.00    -0.237 OA
ATOM     99  O   UNL A   1      49.838  31.897  28.565  1.00  0.00    -0.237 OA
ATOM    100  O   UNL A   1      48.886  29.986  27.340  1.00  0.00    -0.744 OA
ENDBRANCH  96  97
ENDBRANCH  64  89
ENDBRANCH  38  39
ENDBRANCH  31  33
ENDBRANCH  30  31
ENDBRANCH  29  30
ENDBRANCH  28  29
ENDBRANCH  27  28
ENDBRANCH  26  27
ENDBRANCH  25  26
ENDBRANCH   1  25
TORSDOF 26
ENDMDL
MODEL 3
REMARK VINA RESULT:      -8.4      4.293      5.619
REMARK SMILES Cc1nsc(N[C@H](C)c2cccs2)c1C(=O)OCCOCCOCCOCCOC(=O)c1ccc(-c2c3nc(c(-c4c(F)cc(S(=O)(=O)[O-])cc4F)c4ccc([nH]4)c(-c4c(F)cc(S(=O)(=O)[O-])cc4F)c4nc(c(-c5c(F)cc(S(=O)(=O)[O-])cc5F)c5ccc2[nH]5)C=C4)C=C3)cc1
REMARK SMILES IDX 23 1 22 2 21 3 20 4 19 5 18 6 17 7 15 8 16 9 14 10 1 11 2 12
REMARK SMILES IDX 3 13 4 14 5 15 6 16 7 18 8 19 9 20 10 21 13 22 11 23 12 24
REMARK SMILES IDX 24 25 25 26 26 27 27 28 28 29 29 30 30 31 31 32 32 33 33 34
REMARK SMILES IDX 97 35 34 36 96 37 35 38 36 39 37 40 90 41 38 42 95 43 89 44
REMARK SMILES IDX 91 45 39 46 94 47 88 48 87 49 40 51 74 52 53 53 73 54 54 55
REMARK SMILES IDX 57 56 72 57 92 58 55 59 56 60 71 62 93 63 58 64 41 65 42 66
REMARK SMILES IDX 51 67 43 68 44 69 50 70 52 71 45 72 46 73 47 74 48 75 49 76
REMARK SMILES IDX 75 77 76 78 85 79 77 80 78 81 84 82 86 83 79 84 80 85 81 86
REMARK SMILES IDX 82 87 83 88 59 89 60 90 69 91 61 92 62 93 68 94 70 95 63 96
REMARK SMILES IDX 64 97 65 98 66 99 67 100
REMARK H PARENT 6 17 91 50 57 61
REMARK Flexibility Score: inf
ROOT
ATOM      1  O   UNL A   1      34.304  29.657  27.081  1.00  0.00    -0.377 OA
ENDROOT
BRANCH   1   2
ATOM      2  C   UNL A   1      33.626  29.580  25.839  1.00  0.00     0.188 C 
BRANCH   2   3
ATOM      3  C   UNL A   1      33.816  28.239  25.096  1.00  0.00     0.188 C 
BRANCH   3   4
ATOM      4  O   UNL A   1      33.961  28.148  23.681  1.00  0.00    -0.376 OA
BRANCH   4   5
ATOM      5  C   UNL A   1      32.971  27.544  22.868  1.00  0.00     0.202 C 
BRANCH   5   6
ATOM      6  C   UNL A   1      33.024  26.034  22.603  1.00  0.00     0.261 C 
BRANCH   6   7
ATOM      7  O   UNL A   1      31.778  25.340  22.726  1.00  0.00    -0.460 OA
BRANCH   7   8
ATOM      8  C   UNL A   1      31.849  24.067  23.217  1.00  0.00     0.343 C 
ATOM      9  O   UNL A   1      32.425  23.149  22.662  1.00  0.00    -0.246 OA
BRANCH   8  10
ATOM     10  C   UNL A   1      31.270  23.956  24.556  1.00  0.00     0.117 A 
ATOM     11  C   UNL A   1      30.045  26.296  24.752  1.00  0.00     0.069 C 
ATOM     12  C   UNL A   1      30.428  24.930  25.221  1.00  0.00     0.068 A 
ATOM     13  N   UNL A   1      29.969  24.570  26.415  1.00  0.00    -0.195 NA
ATOM     14  S   UNL A   1      30.609  23.118  26.821  1.00  0.00    -0.018 S 
ATOM     15  C   UNL A   1      31.592  22.903  25.430  1.00  0.00     0.124 A 
BRANCH  15  16
ATOM     16  N   UNL A   1      32.542  21.937  25.211  1.00  0.00    -0.368 N 
ATOM     17  H   UNL A   1      32.420  21.446  24.365  1.00  0.00     0.162 HD
BRANCH  16  18
ATOM     18  C   UNL A   1      33.702  21.491  25.989  1.00  0.00     0.117 C 
ATOM     19  C   UNL A   1      33.760  21.892  27.462  1.00  0.00     0.037 C 
BRANCH  18  20
ATOM     20  C   UNL A   1      35.043  21.861  25.357  1.00  0.00     0.027 A 
ATOM     21  C   UNL A   1      36.125  21.047  25.063  1.00  0.00     0.017 A 
ATOM     22  S   UNL A   1      35.313  23.464  24.794  1.00  0.00    -0.147 S 
ATOM     23  C   UNL A   1      37.128  21.719  24.303  1.00  0.00     0.012 A 
ATOM     24  C   UNL A   1      36.806  23.039  24.079  1.00  0.00     0.065 A 
ENDBRANCH  18  20
ENDBRANCH  16  18
ENDBRANCH  15  16
ENDBRANCH   8  10
ENDBRANCH   7   8
ENDBRANCH   6   7
ENDBRANCH   5   6
ENDBRANCH   4   5
ENDBRANCH   3   4
ENDBRANCH   2   3
ENDBRANCH   1   2
BRANCH   1  25
ATOM     25  C   UNL A   1      34.299  30.954  27.671  1.00  0.00     0.188 C 
BRANCH  25  26
ATOM     26  C   UNL A   1      35.592  31.414  28.388  1.00  0.00     0.188 C 
BRANCH  26  27
ATOM     27  O   UNL A   1      35.622  31.115  29.783  1.00  0.00    -0.376 OA
BRANCH  27  28
ATOM     28  C   UNL A   1      35.714  32.165  30.735  1.00  0.00     0.202 C 
BRANCH  28  29
ATOM     29  C   UNL A   1      36.036  31.680  32.147  1.00  0.00     0.261 C 
BRANCH  29  30
ATOM     30  O   UNL A   1      37.148  30.802  32.175  1.00  0.00    -0.460 OA
BRANCH  30  31
ATOM     31  C   UNL A   1      38.346  31.406  32.311  1.00  0.00     0.338 C 
ATOM     32  O   UNL A   1      38.700  32.151  33.205  1.00  0.00    -0.246 OA
BRANCH  31  33
ATOM     33  C   UNL A   1      39.176  31.052  31.156  1.00  0.00     0.060 A 
ATOM     34  C   UNL A   1      38.823  29.863  30.519  1.00  0.00     0.016 A 
ATOM     35  C   UNL A   1      40.443  31.644  31.035  1.00  0.00     0.016 A 
ATOM     36  C   UNL A   1      39.850  29.065  30.097  1.00  0.00     0.010 A 
ATOM     37  C   UNL A   1      41.468  30.842  30.630  1.00  0.00     0.010 A 
ATOM     38  C   UNL A   1      41.151  29.524  30.317  1.00  0.00    -0.014 A 
BRANCH  38  39
ATOM     39  C   UNL A   1      42.179  28.523  30.424  1.00  0.00     0.031 A 
ATOM     40  C   UNL A   1      42.610  28.261  31.800  1.00  0.00     0.074 A 
ATOM     41  C   UNL A   1      42.582  27.855  29.328  1.00  0.00     0.049 A 
ATOM     42  N   UNL A   1      43.739  28.558  32.348  1.00  0.00    -0.248 NA
ATOM     43  C   UNL A   1      41.582  27.783  32.737  1.00  0.00     0.031 C 
ATOM     44  C   UNL A   1      41.956  27.820  27.999  1.00  0.00     0.029 A 
ATOM     45  N   UNL A   1      43.580  26.950  29.216  1.00  0.00    -0.354 N 
ATOM     46  C   UNL A   1      43.633  28.103  33.655  1.00  0.00     0.074 A 
ATOM     47  C   UNL A   1      42.235  27.862  33.893  1.00  0.00     0.031 C 
ATOM     48  C   UNL A   1      42.440  26.758  27.316  1.00  0.00     0.029 A 
ATOM     49  C   UNL A   1      43.474  26.120  28.113  1.00  0.00     0.049 A 
ATOM     50  H   UNL A   1      44.319  26.886  29.864  1.00  0.00     0.167 HD
ATOM     51  C   UNL A   1      44.724  27.711  34.364  1.00  0.00     0.037 A 
ATOM     52  C   UNL A   1      44.094  24.921  27.988  1.00  0.00     0.037 A 
ATOM     53  C   UNL A   1      45.944  28.159  33.745  1.00  0.00     0.049 A 
ATOM     54  C   UNL A   1      45.214  24.905  28.979  1.00  0.00     0.074 A 
ATOM     55  C   UNL A   1      46.462  29.401  33.430  1.00  0.00     0.029 A 
ATOM     56  N   UNL A   1      46.666  27.248  33.008  1.00  0.00    -0.354 N 
ATOM     57  N   UNL A   1      46.260  25.691  28.920  1.00  0.00    -0.248 NA
ATOM     58  C   UNL A   1      44.942  24.349  30.301  1.00  0.00     0.031 C 
ATOM     59  C   UNL A   1      47.149  29.217  32.196  1.00  0.00     0.029 A 
ATOM     60  C   UNL A   1      47.042  27.871  31.843  1.00  0.00     0.049 A 
ATOM     61  H   UNL A   1      46.874  26.322  33.268  1.00  0.00     0.167 HD
ATOM     62  C   UNL A   1      46.543  26.032  30.239  1.00  0.00     0.074 A 
ATOM     63  C   UNL A   1      45.746  25.113  31.046  1.00  0.00     0.031 C 
ATOM     64  C   UNL A   1      47.167  27.204  30.562  1.00  0.00     0.037 A 
BRANCH  51  65
ATOM     65  C   UNL A   1      44.691  26.638  35.418  1.00  0.00     0.058 A 
ATOM     66  C   UNL A   1      44.931  26.991  36.759  1.00  0.00     0.135 A 
ATOM     67  C   UNL A   1      44.695  25.253  35.138  1.00  0.00     0.135 A 
ATOM     68  F   UNL A   1      44.953  28.281  37.133  1.00  0.00    -0.206 F 
ATOM     69  C   UNL A   1      45.234  26.042  37.733  1.00  0.00     0.059 A 
ATOM     70  C   UNL A   1      44.926  24.287  36.106  1.00  0.00     0.059 A 
ATOM     71  F   UNL A   1      44.585  24.766  33.896  1.00  0.00    -0.206 F 
ATOM     72  C   UNL A   1      45.251  24.694  37.389  1.00  0.00     0.060 A 
BRANCH  72  73
ATOM     73  S   UNL A   1      45.794  23.475  38.593  1.00  0.00     0.124 S 
ATOM     74  O   UNL A   1      47.205  23.820  38.730  1.00  0.00    -0.237 OA
ATOM     75  O   UNL A   1      44.945  23.777  39.740  1.00  0.00    -0.237 OA
ATOM     76  O   UNL A   1      45.515  22.203  37.931  1.00  0.00    -0.744 OA
ENDBRANCH  72  73
ENDBRANCH  51  65
BRANCH  52  77
ATOM     77  C   UNL A   1      43.500  23.692  27.392  1.00  0.00     0.058 A 
ATOM     78  C   UNL A   1      43.983  23.159  26.186  1.00  0.00     0.135 A 
ATOM     79  C   UNL A   1      42.595  22.876  28.107  1.00  0.00     0.135 A 
ATOM     80  F   UNL A   1      44.876  23.846  25.457  1.00  0.00    -0.206 F 
ATOM     81  C   UNL A   1      43.606  21.890  25.726  1.00  0.00     0.059 A 
ATOM     82  C   UNL A   1      42.189  21.621  27.660  1.00  0.00     0.059 A 
ATOM     83  F   UNL A   1      42.137  23.232  29.315  1.00  0.00    -0.206 F 
ATOM     84  C   UNL A   1      42.715  21.124  26.477  1.00  0.00     0.060 A 
BRANCH  84  85
ATOM     85  S   UNL A   1      42.329  19.435  25.963  1.00  0.00     0.124 S 
ATOM     86  O   UNL A   1      40.905  19.528  25.666  1.00  0.00    -0.237 OA
ATOM     87  O   UNL A   1      43.211  19.255  24.815  1.00  0.00    -0.237 OA
ATOM     88  O   UNL A   1      42.670  18.635  27.137  1.00  0.00    -0.744 OA
ENDBRANCH  84  85
ENDBRANCH  52  77
BRANCH  64  89
ATOM     89  C   UNL A   1      47.796  28.020  29.461  1.00  0.00     0.058 A 
ATOM     90  C   UNL A   1      47.124  29.050  28.780  1.00  0.00     0.135 A 
ATOM     91  C   UNL A   1      49.181  27.917  29.263  1.00  0.00     0.135 A 
ATOM     92  F   UNL A   1      45.821  29.279  28.997  1.00  0.00    -0.206 F 
ATOM     93  C   UNL A   1      47.795  29.930  27.932  1.00  0.00     0.059 A 
ATOM     94  C   UNL A   1      49.877  28.804  28.443  1.00  0.00     0.059 A 
ATOM     95  F   UNL A   1      49.890  26.995  29.936  1.00  0.00    -0.206 F 
ATOM     96  C   UNL A   1      49.176  29.809  27.780  1.00  0.00     0.060 A 
BRANCH  96  97
ATOM     97  S   UNL A   1      50.063  31.045  26.806  1.00  0.00     0.124 S 
ATOM     98  O   UNL A   1      50.915  31.672  27.811  1.00  0.00    -0.237 OA
ATOM     99  O   UNL A   1      50.753  30.231  25.809  1.00  0.00    -0.237 OA
ATOM    100  O   UNL A   1      48.996  31.890  26.274  1.00  0.00    -0.744 OA
ENDBRANCH  96  97
ENDBRANCH  64  89
ENDBRANCH  38  39
ENDBRANCH  31  33
ENDBRANCH  30  31
ENDBRANCH  29  30
ENDBRANCH  28  29
ENDBRANCH  27  28
ENDBRANCH  26  27
ENDBRANCH  25  26
ENDBRANCH   1  25
TORSDOF 26
ENDMDL
