MODEL 1
REMARK VINA RESULT:      -8.7      0.000      0.000
REMARK SMILES CCCc1cc(OC(F)(F)F)cc2c1O[C@@H](C(F)(F)F)C(C(=O)OCCOCCOCCOCCOC(=O)c1ccc(-c3c4nc(c(-c5c(F)cc(S(=O)(=O)[O-])cc5F)c5ccc([nH]5)c(-c5c(F)cc(S(=O)(=O)[O-])cc5F)c5nc(c(-c6c(F)cc(S(=O)(=O)[O-])cc6F)c6ccc3[nH]6)C=C5)C=C4)cc1)=C2
REMARK SMILES IDX 31 1 30 2 29 3 28 4 27 5 26 6 25 7 24 8 22 9 23 10 21 11
REMARK SMILES IDX 4 12 5 13 14 14 6 15 13 16 15 17 12 18 105 19 16 20 3 21
REMARK SMILES IDX 2 22 1 23 7 24 8 25 9 26 10 27 11 28 17 29 18 30 19 31 20 32
REMARK SMILES IDX 32 33 33 34 34 35 35 36 36 37 37 38 38 39 39 40 40 41 104 42
REMARK SMILES IDX 41 43 103 44 42 45 43 46 44 47 97 48 45 49 102 50 96 51
REMARK SMILES IDX 98 52 46 53 101 54 95 55 94 56 47 58 81 59 60 60 80 61 61 62
REMARK SMILES IDX 64 63 79 64 99 65 62 66 63 67 78 69 100 70 65 71 48 72 49 73
REMARK SMILES IDX 58 74 50 75 51 76 57 77 59 78 52 79 53 80 54 81 55 82 56 83
REMARK SMILES IDX 82 84 83 85 92 86 84 87 85 88 91 89 93 90 86 91 87 92 88 93
REMARK SMILES IDX 89 94 90 95 66 96 67 97 76 98 68 99 69 100 75 101 77 102
REMARK SMILES IDX 70 103 71 104 72 105 73 106 74 107
REMARK H PARENT 98 57 64 68
REMARK Flexibility Score: inf
ROOT
ATOM      1  C   UNL A   1      33.356  27.804  25.478  1.00  0.00     0.188 C 
ENDROOT
BRANCH   1   2
ATOM      2  O   UNL A   1      34.394  27.099  24.810  1.00  0.00    -0.377 OA
BRANCH   2   3
ATOM      3  C   UNL A   1      34.275  25.705  24.607  1.00  0.00     0.188 C 
BRANCH   3   4
ATOM      4  C   UNL A   1      34.829  24.741  25.671  1.00  0.00     0.188 C 
BRANCH   4   5
ATOM      5  O   UNL A   1      33.885  24.294  26.635  1.00  0.00    -0.376 OA
BRANCH   5   6
ATOM      6  C   UNL A   1      33.977  22.924  27.008  1.00  0.00     0.202 C 
BRANCH   6   7
ATOM      7  C   UNL A   1      32.651  22.347  27.512  1.00  0.00     0.261 C 
BRANCH   7   8
ATOM      8  O   UNL A   1      31.525  23.196  27.236  1.00  0.00    -0.460 OA
BRANCH   8   9
ATOM      9  C   UNL A   1      30.720  22.815  26.221  1.00  0.00     0.338 C 
ATOM     10  O   UNL A   1      29.948  21.872  26.222  1.00  0.00    -0.246 OA
BRANCH   9  11
ATOM     11  C   UNL A   1      30.777  23.824  25.152  1.00  0.00     0.087 C 
ATOM     12  C   UNL A   1      31.403  26.639  22.126  1.00  0.00    -0.002 A 
ATOM     13  C   UNL A   1      30.765  27.892  22.238  1.00  0.00     0.054 A 
ATOM     14  C   UNL A   1      31.227  25.726  23.174  1.00  0.00     0.131 A 
ATOM     15  C   UNL A   1      29.967  28.213  23.343  1.00  0.00     0.130 A 
ATOM     16  C   UNL A   1      30.409  26.026  24.278  1.00  0.00     0.021 A 
ATOM     17  O   UNL A   1      31.940  24.557  23.146  1.00  0.00    -0.475 OA
ATOM     18  C   UNL A   1      29.768  27.263  24.346  1.00  0.00     0.058 A 
ATOM     19  C   UNL A   1      30.315  25.065  25.378  1.00  0.00     0.027 C 
ATOM     20  C   UNL A   1      31.283  23.435  23.787  1.00  0.00     0.316 C 
BRANCH  12  21
ATOM     21  C   UNL A   1      32.303  26.423  20.923  1.00  0.00     0.039 C 
BRANCH  21  22
ATOM     22  C   UNL A   1      32.152  25.169  20.050  1.00  0.00     0.001 C 
ATOM     23  C   UNL A   1      32.195  25.448  18.554  1.00  0.00     0.004 C 
ENDBRANCH  21  22
ENDBRANCH  12  21
BRANCH  15  24
ATOM     24  O   UNL A   1      29.336  29.408  23.550  1.00  0.00    -0.406 OA
BRANCH  24  25
ATOM     25  C   UNL A   1      28.227  29.704  22.718  1.00  0.00     0.573 C 
ATOM     26  F   UNL A   1      28.617  30.183  21.516  1.00  0.00    -0.132 F 
ATOM     27  F   UNL A   1      27.461  28.605  22.528  1.00  0.00    -0.132 F 
ATOM     28  F   UNL A   1      27.462  30.643  23.317  1.00  0.00    -0.132 F 
ENDBRANCH  24  25
ENDBRANCH  15  24
BRANCH  20  29
ATOM     29  C   UNL A   1      32.203  22.212  23.643  1.00  0.00     0.430 C 
ATOM     30  F   UNL A   1      32.260  21.766  22.367  1.00  0.00    -0.167 F 
ATOM     31  F   UNL A   1      33.483  22.559  23.960  1.00  0.00    -0.167 F 
ATOM     32  F   UNL A   1      31.865  21.186  24.448  1.00  0.00    -0.167 F 
ENDBRANCH  20  29
ENDBRANCH   9  11
ENDBRANCH   8   9
ENDBRANCH   7   8
ENDBRANCH   6   7
ENDBRANCH   5   6
ENDBRANCH   4   5
ENDBRANCH   3   4
ENDBRANCH   2   3
ENDBRANCH   1   2
BRANCH   1  33
ATOM     33  C   UNL A   1      33.049  29.275  25.130  1.00  0.00     0.188 C 
BRANCH  33  34
ATOM     34  O   UNL A   1      31.958  29.844  25.847  1.00  0.00    -0.376 OA
BRANCH  34  35
ATOM     35  C   UNL A   1      32.273  30.369  27.129  1.00  0.00     0.202 C 
BRANCH  35  36
ATOM     36  C   UNL A   1      33.704  30.902  27.236  1.00  0.00     0.261 C 
BRANCH  36  37
ATOM     37  O   UNL A   1      34.053  31.448  28.517  1.00  0.00    -0.460 OA
BRANCH  37  38
ATOM     38  C   UNL A   1      34.370  32.761  28.577  1.00  0.00     0.338 C 
ATOM     39  O   UNL A   1      33.627  33.710  28.410  1.00  0.00    -0.246 OA
BRANCH  38  40
ATOM     40  C   UNL A   1      35.756  32.845  29.078  1.00  0.00     0.060 A 
ATOM     41  C   UNL A   1      36.741  32.030  28.507  1.00  0.00     0.016 A 
ATOM     42  C   UNL A   1      36.085  33.779  30.062  1.00  0.00     0.016 A 
ATOM     43  C   UNL A   1      38.069  32.154  28.922  1.00  0.00     0.010 A 
ATOM     44  C   UNL A   1      37.407  33.884  30.492  1.00  0.00     0.010 A 
ATOM     45  C   UNL A   1      38.403  33.067  29.932  1.00  0.00    -0.014 A 
BRANCH  45  46
ATOM     46  C   UNL A   1      39.764  33.090  30.514  1.00  0.00     0.031 A 
ATOM     47  C   UNL A   1      40.734  34.129  30.026  1.00  0.00     0.074 A 
ATOM     48  C   UNL A   1      40.146  32.175  31.422  1.00  0.00     0.049 A 
ATOM     49  N   UNL A   1      42.003  34.272  30.304  1.00  0.00    -0.248 NA
ATOM     50  C   UNL A   1      40.198  35.138  29.097  1.00  0.00     0.031 C 
ATOM     51  C   UNL A   1      39.287  31.135  31.989  1.00  0.00     0.029 A 
ATOM     52  N   UNL A   1      41.369  31.958  32.007  1.00  0.00    -0.354 N 
ATOM     53  C   UNL A   1      42.420  35.384  29.585  1.00  0.00     0.074 A 
ATOM     54  C   UNL A   1      41.275  35.866  28.842  1.00  0.00     0.031 C 
ATOM     55  C   UNL A   1      40.019  30.375  32.823  1.00  0.00     0.029 A 
ATOM     56  C   UNL A   1      41.401  30.852  32.821  1.00  0.00     0.049 A 
ATOM     57  H   UNL A   1      42.148  32.541  31.858  1.00  0.00     0.167 HD
ATOM     58  C   UNL A   1      43.647  35.953  29.550  1.00  0.00     0.037 A 
ATOM     59  C   UNL A   1      42.437  30.271  33.461  1.00  0.00     0.037 A 
ATOM     60  C   UNL A   1      44.787  35.460  30.274  1.00  0.00     0.049 A 
ATOM     61  C   UNL A   1      43.815  30.869  33.333  1.00  0.00     0.074 A 
ATOM     62  C   UNL A   1      46.067  35.984  30.324  1.00  0.00     0.029 A 
ATOM     63  N   UNL A   1      44.789  34.318  31.061  1.00  0.00    -0.354 N 
ATOM     64  N   UNL A   1      44.192  31.944  32.680  1.00  0.00    -0.248 NA
ATOM     65  C   UNL A   1      44.912  30.170  34.020  1.00  0.00     0.031 C 
ATOM     66  C   UNL A   1      46.856  35.130  31.103  1.00  0.00     0.029 A 
ATOM     67  C   UNL A   1      46.058  34.099  31.573  1.00  0.00     0.049 A 
ATOM     68  H   UNL A   1      44.006  33.747  31.231  1.00  0.00     0.167 HD
ATOM     69  C   UNL A   1      45.563  32.056  32.888  1.00  0.00     0.074 A 
ATOM     70  C   UNL A   1      45.948  30.950  33.741  1.00  0.00     0.031 C 
ATOM     71  C   UNL A   1      46.427  32.989  32.416  1.00  0.00     0.037 A 
BRANCH  58  72
ATOM     72  C   UNL A   1      43.822  37.161  28.675  1.00  0.00     0.058 A 
ATOM     73  C   UNL A   1      44.058  37.042  27.297  1.00  0.00     0.135 A 
ATOM     74  C   UNL A   1      43.729  38.453  29.217  1.00  0.00     0.135 A 
ATOM     75  F   UNL A   1      44.177  35.829  26.733  1.00  0.00    -0.206 F 
ATOM     76  C   UNL A   1      44.215  38.162  26.488  1.00  0.00     0.059 A 
ATOM     77  C   UNL A   1      43.861  39.588  28.423  1.00  0.00     0.059 A 
ATOM     78  F   UNL A   1      43.513  38.619  30.532  1.00  0.00    -0.206 F 
ATOM     79  C   UNL A   1      44.115  39.431  27.062  1.00  0.00     0.060 A 
BRANCH  79  80
ATOM     80  S   UNL A   1      44.318  40.875  25.999  1.00  0.00     0.124 S 
ATOM     81  O   UNL A   1      43.011  40.946  25.351  1.00  0.00    -0.237 OA
ATOM     82  O   UNL A   1      44.606  41.935  26.961  1.00  0.00    -0.237 OA
ATOM     83  O   UNL A   1      45.429  40.504  25.129  1.00  0.00    -0.744 OA
ENDBRANCH  79  80
ENDBRANCH  58  72
BRANCH  59  84
ATOM     84  C   UNL A   1      42.223  29.033  34.255  1.00  0.00     0.058 A 
ATOM     85  C   UNL A   1      41.904  29.094  35.620  1.00  0.00     0.135 A 
ATOM     86  C   UNL A   1      42.343  27.763  33.668  1.00  0.00     0.135 A 
ATOM     87  F   UNL A   1      41.796  30.283  36.230  1.00  0.00    -0.206 F 
ATOM     88  C   UNL A   1      41.721  27.940  36.378  1.00  0.00     0.059 A 
ATOM     89  C   UNL A   1      42.142  26.597  34.399  1.00  0.00     0.059 A 
ATOM     90  F   UNL A   1      42.643  27.651  32.365  1.00  0.00    -0.206 F 
ATOM     91  C   UNL A   1      41.839  26.696  35.756  1.00  0.00     0.060 A 
BRANCH  91  92
ATOM     92  S   UNL A   1      41.543  25.206  36.733  1.00  0.00     0.124 S 
ATOM     93  O   UNL A   1      41.308  24.214  35.692  1.00  0.00    -0.237 OA
ATOM     94  O   UNL A   1      42.795  25.072  37.473  1.00  0.00    -0.237 OA
ATOM     95  O   UNL A   1      40.383  25.563  37.544  1.00  0.00    -0.744 OA
ENDBRANCH  91  92
ENDBRANCH  59  84
BRANCH  71  96
ATOM     96  C   UNL A   1      47.872  32.865  32.812  1.00  0.00     0.058 A 
ATOM     97  C   UNL A   1      48.357  33.438  33.998  1.00  0.00     0.135 A 
ATOM     98  C   UNL A   1      48.765  32.112  32.033  1.00  0.00     0.135 A 
ATOM     99  F   UNL A   1      47.546  34.174  34.774  1.00  0.00    -0.206 F 
ATOM    100  C   UNL A   1      49.683  33.280  34.391  1.00  0.00     0.059 A 
ATOM    101  C   UNL A   1      50.088  31.921  32.420  1.00  0.00     0.059 A 
ATOM    102  F   UNL A   1      48.349  31.535  30.895  1.00  0.00    -0.206 F 
ATOM    103  C   UNL A   1      50.540  32.516  33.597  1.00  0.00     0.060 A 
BRANCH 103 104
ATOM    104  S   UNL A   1      52.246  32.281  34.141  1.00  0.00     0.124 S 
ATOM    105  O   UNL A   1      52.841  33.571  33.811  1.00  0.00    -0.237 OA
ATOM    106  O   UNL A   1      52.085  32.003  35.566  1.00  0.00    -0.237 OA
ATOM    107  O   UNL A   1      52.707  31.152  33.337  1.00  0.00    -0.744 OA
ENDBRANCH 103 104
ENDBRANCH  71  96
ENDBRANCH  45  46
ENDBRANCH  38  40
ENDBRANCH  37  38
ENDBRANCH  36  37
ENDBRANCH  35  36
ENDBRANCH  34  35
ENDBRANCH  33  34
ENDBRANCH   1  33
TORSDOF 28
ENDMDL
MODEL 2
REMARK VINA RESULT:      -8.4      6.861     13.089
REMARK SMILES CCCc1cc(OC(F)(F)F)cc2c1O[C@@H](C(F)(F)F)C(C(=O)OCCOCCOCCOCCOC(=O)c1ccc(-c3c4nc(c(-c5c(F)cc(S(=O)(=O)[O-])cc5F)c5ccc([nH]5)c(-c5c(F)cc(S(=O)(=O)[O-])cc5F)c5nc(c(-c6c(F)cc(S(=O)(=O)[O-])cc6F)c6ccc3[nH]6)C=C5)C=C4)cc1)=C2
REMARK SMILES IDX 31 1 30 2 29 3 28 4 27 5 26 6 25 7 24 8 22 9 23 10 21 11
REMARK SMILES IDX 4 12 5 13 14 14 6 15 13 16 15 17 12 18 105 19 16 20 3 21
REMARK SMILES IDX 2 22 1 23 7 24 8 25 9 26 10 27 11 28 17 29 18 30 19 31 20 32
REMARK SMILES IDX 32 33 33 34 34 35 35 36 36 37 37 38 38 39 39 40 40 41 104 42
REMARK SMILES IDX 41 43 103 44 42 45 43 46 44 47 97 48 45 49 102 50 96 51
REMARK SMILES IDX 98 52 46 53 101 54 95 55 94 56 47 58 81 59 60 60 80 61 61 62
REMARK SMILES IDX 64 63 79 64 99 65 62 66 63 67 78 69 100 70 65 71 48 72 49 73
REMARK SMILES IDX 58 74 50 75 51 76 57 77 59 78 52 79 53 80 54 81 55 82 56 83
REMARK SMILES IDX 82 84 83 85 92 86 84 87 85 88 91 89 93 90 86 91 87 92 88 93
REMARK SMILES IDX 89 94 90 95 66 96 67 97 76 98 68 99 69 100 75 101 77 102
REMARK SMILES IDX 70 103 71 104 72 105 73 106 74 107
REMARK H PARENT 98 57 64 68
REMARK Flexibility Score: inf
ROOT
ATOM      1  C   UNL A   1      34.191  33.248  33.238  1.00  0.00     0.188 C 
ENDROOT
BRANCH   1   2
ATOM      2  O   UNL A   1      35.361  33.247  34.046  1.00  0.00    -0.377 OA
BRANCH   2   3
ATOM      3  C   UNL A   1      36.221  34.369  34.033  1.00  0.00     0.188 C 
BRANCH   3   4
ATOM      4  C   UNL A   1      37.743  34.148  34.003  1.00  0.00     0.188 C 
BRANCH   4   5
ATOM      5  O   UNL A   1      38.383  34.491  32.781  1.00  0.00    -0.376 OA
BRANCH   5   6
ATOM      6  C   UNL A   1      39.786  34.261  32.727  1.00  0.00     0.202 C 
BRANCH   6   7
ATOM      7  C   UNL A   1      40.171  33.094  31.812  1.00  0.00     0.261 C 
BRANCH   7   8
ATOM      8  O   UNL A   1      41.520  32.643  32.010  1.00  0.00    -0.460 OA
BRANCH   8   9
ATOM      9  C   UNL A   1      41.890  32.398  33.285  1.00  0.00     0.338 C 
ATOM     10  O   UNL A   1      41.873  33.189  34.211  1.00  0.00    -0.246 OA
BRANCH   9  11
ATOM     11  C   UNL A   1      42.158  30.961  33.444  1.00  0.00     0.087 C 
ATOM     12  C   UNL A   1      42.933  26.955  34.353  1.00  0.00    -0.002 A 
ATOM     13  C   UNL A   1      43.971  26.301  33.657  1.00  0.00     0.054 A 
ATOM     14  C   UNL A   1      42.721  28.311  34.077  1.00  0.00     0.131 A 
ATOM     15  C   UNL A   1      44.753  26.970  32.707  1.00  0.00     0.130 A 
ATOM     16  C   UNL A   1      43.482  28.990  33.107  1.00  0.00     0.021 A 
ATOM     17  O   UNL A   1      41.806  28.996  34.832  1.00  0.00    -0.475 OA
ATOM     18  C   UNL A   1      44.482  28.308  32.414  1.00  0.00     0.058 A 
ATOM     19  C   UNL A   1      43.266  30.424  32.907  1.00  0.00     0.027 C 
ATOM     20  C   UNL A   1      41.149  30.087  34.141  1.00  0.00     0.316 C 
BRANCH  12  21
ATOM     21  C   UNL A   1      42.197  26.156  35.413  1.00  0.00     0.039 C 
BRANCH  21  22
ATOM     22  C   UNL A   1      42.452  26.416  36.905  1.00  0.00     0.001 C 
ATOM     23  C   UNL A   1      43.691  25.722  37.451  1.00  0.00     0.004 C 
ENDBRANCH  21  22
ENDBRANCH  12  21
BRANCH  15  24
ATOM     24  O   UNL A   1      45.794  26.427  32.007  1.00  0.00    -0.406 OA
BRANCH  24  25
ATOM     25  C   UNL A   1      45.688  26.424  30.593  1.00  0.00     0.573 C 
ATOM     26  F   UNL A   1      45.440  27.661  30.108  1.00  0.00    -0.132 F 
ATOM     27  F   UNL A   1      46.818  25.944  30.027  1.00  0.00    -0.132 F 
ATOM     28  F   UNL A   1      44.667  25.617  30.228  1.00  0.00    -0.132 F 
ENDBRANCH  24  25
ENDBRANCH  15  24
BRANCH  20  29
ATOM     29  C   UNL A   1      40.149  30.723  35.121  1.00  0.00     0.430 C 
ATOM     30  F   UNL A   1      39.068  31.231  34.485  1.00  0.00    -0.167 F 
ATOM     31  F   UNL A   1      39.655  29.768  35.959  1.00  0.00    -0.167 F 
ATOM     32  F   UNL A   1      40.690  31.683  35.895  1.00  0.00    -0.167 F 
ENDBRANCH  20  29
ENDBRANCH   9  11
ENDBRANCH   8   9
ENDBRANCH   7   8
ENDBRANCH   6   7
ENDBRANCH   5   6
ENDBRANCH   4   5
ENDBRANCH   3   4
ENDBRANCH   2   3
ENDBRANCH   1   2
BRANCH   1  33
ATOM     33  C   UNL A   1      34.100  34.137  31.981  1.00  0.00     0.188 C 
BRANCH  33  34
ATOM     34  O   UNL A   1      34.083  33.427  30.746  1.00  0.00    -0.376 OA
BRANCH  34  35
ATOM     35  C   UNL A   1      35.205  33.640  29.900  1.00  0.00     0.202 C 
BRANCH  35  36
ATOM     36  C   UNL A   1      36.397  32.738  30.230  1.00  0.00     0.261 C 
BRANCH  36  37
ATOM     37  O   UNL A   1      36.204  31.346  29.932  1.00  0.00    -0.460 OA
BRANCH  37  38
ATOM     38  C   UNL A   1      36.747  30.440  30.776  1.00  0.00     0.338 C 
ATOM     39  O   UNL A   1      36.211  29.901  31.727  1.00  0.00    -0.246 OA
BRANCH  38  40
ATOM     40  C   UNL A   1      38.063  30.070  30.222  1.00  0.00     0.060 A 
ATOM     41  C   UNL A   1      39.133  29.835  31.096  1.00  0.00     0.016 A 
ATOM     42  C   UNL A   1      38.215  29.893  28.845  1.00  0.00     0.016 A 
ATOM     43  C   UNL A   1      40.363  29.413  30.588  1.00  0.00     0.010 A 
ATOM     44  C   UNL A   1      39.451  29.496  28.338  1.00  0.00     0.010 A 
ATOM     45  C   UNL A   1      40.533  29.263  29.204  1.00  0.00    -0.014 A 
BRANCH  45  46
ATOM     46  C   UNL A   1      41.870  28.994  28.629  1.00  0.00     0.031 A 
ATOM     47  C   UNL A   1      42.202  27.589  28.214  1.00  0.00     0.074 A 
ATOM     48  C   UNL A   1      42.789  29.970  28.523  1.00  0.00     0.049 A 
ATOM     49  N   UNL A   1      43.337  27.095  27.795  1.00  0.00    -0.248 NA
ATOM     50  C   UNL A   1      41.104  26.609  28.287  1.00  0.00     0.031 C 
ATOM     51  C   UNL A   1      42.575  31.375  28.870  1.00  0.00     0.029 A 
ATOM     52  N   UNL A   1      44.099  29.918  28.118  1.00  0.00    -0.354 N 
ATOM     53  C   UNL A   1      43.094  25.749  27.555  1.00  0.00     0.074 A 
ATOM     54  C   UNL A   1      41.710  25.499  27.895  1.00  0.00     0.031 C 
ATOM     55  C   UNL A   1      43.725  32.048  28.683  1.00  0.00     0.029 A 
ATOM     56  C   UNL A   1      44.762  31.116  28.241  1.00  0.00     0.049 A 
ATOM     57  H   UNL A   1      44.524  29.101  27.770  1.00  0.00     0.167 HD
ATOM     58  C   UNL A   1      43.948  24.808  27.089  1.00  0.00     0.037 A 
ATOM     59  C   UNL A   1      46.063  31.415  28.052  1.00  0.00     0.037 A 
ATOM     60  C   UNL A   1      45.328  25.057  26.770  1.00  0.00     0.049 A 
ATOM     61  C   UNL A   1      47.018  30.330  27.623  1.00  0.00     0.074 A 
ATOM     62  C   UNL A   1      46.267  24.175  26.267  1.00  0.00     0.029 A 
ATOM     63  N   UNL A   1      45.971  26.275  26.940  1.00  0.00    -0.354 N 
ATOM     64  N   UNL A   1      46.770  29.067  27.362  1.00  0.00    -0.248 NA
ATOM     65  C   UNL A   1      48.431  30.706  27.473  1.00  0.00     0.031 C 
ATOM     66  C   UNL A   1      47.492  24.846  26.179  1.00  0.00     0.029 A 
ATOM     67  C   UNL A   1      47.305  26.158  26.586  1.00  0.00     0.049 A 
ATOM     68  H   UNL A   1      45.543  27.099  27.265  1.00  0.00     0.167 HD
ATOM     69  C   UNL A   1      47.991  28.504  27.006  1.00  0.00     0.074 A 
ATOM     70  C   UNL A   1      48.974  29.565  27.067  1.00  0.00     0.031 C 
ATOM     71  C   UNL A   1      48.273  27.223  26.659  1.00  0.00     0.037 A 
BRANCH  58  72
ATOM     72  C   UNL A   1      43.415  23.414  26.924  1.00  0.00     0.058 A 
ATOM     73  C   UNL A   1      43.264  22.551  28.021  1.00  0.00     0.135 A 
ATOM     74  C   UNL A   1      43.028  22.945  25.659  1.00  0.00     0.135 A 
ATOM     75  F   UNL A   1      43.639  22.945  29.249  1.00  0.00    -0.206 F 
ATOM     76  C   UNL A   1      42.766  21.263  27.866  1.00  0.00     0.059 A 
ATOM     77  C   UNL A   1      42.507  21.667  25.485  1.00  0.00     0.059 A 
ATOM     78  F   UNL A   1      43.161  23.729  24.578  1.00  0.00    -0.206 F 
ATOM     79  C   UNL A   1      42.391  20.829  26.592  1.00  0.00     0.060 A 
BRANCH  79  80
ATOM     80  S   UNL A   1      41.742  19.155  26.409  1.00  0.00     0.124 S 
ATOM     81  O   UNL A   1      42.771  18.533  25.582  1.00  0.00    -0.237 OA
ATOM     82  O   UNL A   1      41.674  18.692  27.791  1.00  0.00    -0.237 OA
ATOM     83  O   UNL A   1      40.452  19.360  25.757  1.00  0.00    -0.744 OA
ENDBRANCH  79  80
ENDBRANCH  58  72
BRANCH  59  84
ATOM     84  C   UNL A   1      46.555  32.796  28.301  1.00  0.00     0.058 A 
ATOM     85  C   UNL A   1      46.640  33.732  27.260  1.00  0.00     0.135 A 
ATOM     86  C   UNL A   1      46.958  33.204  29.582  1.00  0.00     0.135 A 
ATOM     87  F   UNL A   1      46.283  33.385  26.014  1.00  0.00    -0.206 F 
ATOM     88  C   UNL A   1      47.117  35.022  27.477  1.00  0.00     0.059 A 
ATOM     89  C   UNL A   1      47.416  34.494  29.829  1.00  0.00     0.059 A 
ATOM     90  F   UNL A   1      46.892  32.347  30.613  1.00  0.00    -0.206 F 
ATOM     91  C   UNL A   1      47.499  35.394  28.767  1.00  0.00     0.060 A 
BRANCH  91  92
ATOM     92  S   UNL A   1      48.063  37.087  29.051  1.00  0.00     0.124 S 
ATOM     93  O   UNL A   1      49.439  36.870  29.480  1.00  0.00    -0.237 OA
ATOM     94  O   UNL A   1      47.891  37.691  27.734  1.00  0.00    -0.237 OA
ATOM     95  O   UNL A   1      47.147  37.575  30.079  1.00  0.00    -0.744 OA
ENDBRANCH  91  92
ENDBRANCH  59  84
BRANCH  71  96
ATOM     96  C   UNL A   1      49.699  26.894  26.311  1.00  0.00     0.058 A 
ATOM     97  C   UNL A   1      50.512  26.153  27.183  1.00  0.00     0.135 A 
ATOM     98  C   UNL A   1      50.237  27.267  25.069  1.00  0.00     0.135 A 
ATOM     99  F   UNL A   1      50.049  25.778  28.385  1.00  0.00    -0.206 F 
ATOM    100  C   UNL A   1      51.815  25.804  26.839  1.00  0.00     0.059 A 
ATOM    101  C   UNL A   1      51.528  26.907  24.695  1.00  0.00     0.059 A 
ATOM    102  F   UNL A   1      49.497  27.968  24.195  1.00  0.00    -0.206 F 
ATOM    103  C   UNL A   1      52.313  26.183  25.591  1.00  0.00     0.060 A 
BRANCH 103 104
ATOM    104  S   UNL A   1      53.989  25.685  25.140  1.00  0.00     0.124 S 
ATOM    105  O   UNL A   1      53.809  24.265  24.859  1.00  0.00    -0.237 OA
ATOM    106  O   UNL A   1      54.267  26.530  23.982  1.00  0.00    -0.237 OA
ATOM    107  O   UNL A   1      54.769  25.995  26.336  1.00  0.00    -0.744 OA
ENDBRANCH 103 104
ENDBRANCH  71  96
ENDBRANCH  45  46
ENDBRANCH  38  40
ENDBRANCH  37  38
ENDBRANCH  36  37
ENDBRANCH  35  36
ENDBRANCH  34  35
ENDBRANCH  33  34
ENDBRANCH   1  33
TORSDOF 28
ENDMDL
MODEL 3
REMARK VINA RESULT:      -8.2      4.782      6.587
REMARK SMILES CCCc1cc(OC(F)(F)F)cc2c1O[C@@H](C(F)(F)F)C(C(=O)OCCOCCOCCOCCOC(=O)c1ccc(-c3c4nc(c(-c5c(F)cc(S(=O)(=O)[O-])cc5F)c5ccc([nH]5)c(-c5c(F)cc(S(=O)(=O)[O-])cc5F)c5nc(c(-c6c(F)cc(S(=O)(=O)[O-])cc6F)c6ccc3[nH]6)C=C5)C=C4)cc1)=C2
REMARK SMILES IDX 31 1 30 2 29 3 28 4 27 5 26 6 25 7 24 8 22 9 23 10 21 11
REMARK SMILES IDX 4 12 5 13 14 14 6 15 13 16 15 17 12 18 105 19 16 20 3 21
REMARK SMILES IDX 2 22 1 23 7 24 8 25 9 26 10 27 11 28 17 29 18 30 19 31 20 32
REMARK SMILES IDX 32 33 33 34 34 35 35 36 36 37 37 38 38 39 39 40 40 41 104 42
REMARK SMILES IDX 41 43 103 44 42 45 43 46 44 47 97 48 45 49 102 50 96 51
REMARK SMILES IDX 98 52 46 53 101 54 95 55 94 56 47 58 81 59 60 60 80 61 61 62
REMARK SMILES IDX 64 63 79 64 99 65 62 66 63 67 78 69 100 70 65 71 48 72 49 73
REMARK SMILES IDX 58 74 50 75 51 76 57 77 59 78 52 79 53 80 54 81 55 82 56 83
REMARK SMILES IDX 82 84 83 85 92 86 84 87 85 88 91 89 93 90 86 91 87 92 88 93
REMARK SMILES IDX 89 94 90 95 66 96 67 97 76 98 68 99 69 100 75 101 77 102
REMARK SMILES IDX 70 103 71 104 72 105 73 106 74 107
REMARK H PARENT 98 57 64 68
REMARK Flexibility Score: inf
ROOT
ATOM      1  C   UNL A   1      33.429  27.941  25.394  1.00  0.00     0.188 C 
ENDROOT
BRANCH   1   2
ATOM      2  O   UNL A   1      34.426  27.138  24.775  1.00  0.00    -0.377 OA
BRANCH   2   3
ATOM      3  C   UNL A   1      34.228  25.744  24.657  1.00  0.00     0.188 C 
BRANCH   3   4
ATOM      4  C   UNL A   1      34.815  24.809  25.729  1.00  0.00     0.188 C 
BRANCH   4   5
ATOM      5  O   UNL A   1      33.882  24.314  26.681  1.00  0.00    -0.376 OA
BRANCH   5   6
ATOM      6  C   UNL A   1      33.973  22.926  26.979  1.00  0.00     0.202 C 
BRANCH   6   7
ATOM      7  C   UNL A   1      32.691  22.356  27.593  1.00  0.00     0.261 C 
BRANCH   7   8
ATOM      8  O   UNL A   1      31.501  23.012  27.123  1.00  0.00    -0.460 OA
BRANCH   8   9
ATOM      9  C   UNL A   1      30.963  22.533  25.982  1.00  0.00     0.338 C 
ATOM     10  O   UNL A   1      30.389  21.467  25.841  1.00  0.00    -0.246 OA
BRANCH   9  11
ATOM     11  C   UNL A   1      31.011  23.578  24.948  1.00  0.00     0.087 C 
ATOM     12  C   UNL A   1      31.611  26.519  22.039  1.00  0.00    -0.002 A 
ATOM     13  C   UNL A   1      30.904  27.733  22.162  1.00  0.00     0.054 A 
ATOM     14  C   UNL A   1      31.441  25.565  23.050  1.00  0.00     0.131 A 
ATOM     15  C   UNL A   1      30.046  27.977  23.241  1.00  0.00     0.130 A 
ATOM     16  C   UNL A   1      30.564  25.786  24.127  1.00  0.00     0.021 A 
ATOM     17  O   UNL A   1      32.214  24.435  23.017  1.00  0.00    -0.475 OA
ATOM     18  C   UNL A   1      29.856  26.985  24.206  1.00  0.00     0.058 A 
ATOM     19  C   UNL A   1      30.475  24.785  25.192  1.00  0.00     0.027 C 
ATOM     20  C   UNL A   1      31.591  23.261  23.595  1.00  0.00     0.316 C 
BRANCH  12  21
ATOM     21  C   UNL A   1      32.570  26.389  20.870  1.00  0.00     0.039 C 
BRANCH  21  22
ATOM     22  C   UNL A   1      32.244  25.459  19.692  1.00  0.00     0.001 C 
ATOM     23  C   UNL A   1      32.857  24.071  19.812  1.00  0.00     0.004 C 
ENDBRANCH  21  22
ENDBRANCH  12  21
BRANCH  15  24
ATOM     24  O   UNL A   1      29.346  29.131  23.458  1.00  0.00    -0.406 OA
BRANCH  24  25
ATOM     25  C   UNL A   1      28.049  29.213  22.890  1.00  0.00     0.573 C 
ATOM     26  F   UNL A   1      27.387  28.039  22.984  1.00  0.00    -0.132 F 
ATOM     27  F   UNL A   1      27.321  30.181  23.492  1.00  0.00    -0.132 F 
ATOM     28  F   UNL A   1      28.158  29.531  21.581  1.00  0.00    -0.132 F 
ENDBRANCH  24  25
ENDBRANCH  15  24
BRANCH  20  29
ATOM     29  C   UNL A   1      32.580  22.092  23.453  1.00  0.00     0.430 C 
ATOM     30  F   UNL A   1      31.946  20.904  23.312  1.00  0.00    -0.167 F 
ATOM     31  F   UNL A   1      33.313  22.244  22.314  1.00  0.00    -0.167 F 
ATOM     32  F   UNL A   1      33.454  21.999  24.472  1.00  0.00    -0.167 F 
ENDBRANCH  20  29
ENDBRANCH   9  11
ENDBRANCH   8   9
ENDBRANCH   7   8
ENDBRANCH   6   7
ENDBRANCH   5   6
ENDBRANCH   4   5
ENDBRANCH   3   4
ENDBRANCH   2   3
ENDBRANCH   1   2
BRANCH   1  33
ATOM     33  C   UNL A   1      33.052  29.319  24.814  1.00  0.00     0.188 C 
BRANCH  33  34
ATOM     34  O   UNL A   1      31.945  29.952  25.447  1.00  0.00    -0.376 OA
BRANCH  34  35
ATOM     35  C   UNL A   1      32.213  30.533  26.716  1.00  0.00     0.202 C 
BRANCH  35  36
ATOM     36  C   UNL A   1      33.705  30.612  27.048  1.00  0.00     0.261 C 
BRANCH  36  37
ATOM     37  O   UNL A   1      34.033  31.458  28.161  1.00  0.00    -0.460 OA
BRANCH  37  38
ATOM     38  C   UNL A   1      34.942  32.439  27.960  1.00  0.00     0.338 C 
ATOM     39  O   UNL A   1      34.765  33.510  27.408  1.00  0.00    -0.246 OA
BRANCH  38  40
ATOM     40  C   UNL A   1      36.156  32.061  28.708  1.00  0.00     0.060 A 
ATOM     41  C   UNL A   1      36.166  30.866  29.439  1.00  0.00     0.016 A 
ATOM     42  C   UNL A   1      37.300  32.857  28.628  1.00  0.00     0.016 A 
ATOM     43  C   UNL A   1      37.333  30.462  30.090  1.00  0.00     0.010 A 
ATOM     44  C   UNL A   1      38.457  32.465  29.299  1.00  0.00     0.010 A 
ATOM     45  C   UNL A   1      38.477  31.271  30.040  1.00  0.00    -0.014 A 
BRANCH  45  46
ATOM     46  C   UNL A   1      39.665  30.957  30.866  1.00  0.00     0.031 A 
ATOM     47  C   UNL A   1      40.636  29.928  30.363  1.00  0.00     0.074 A 
ATOM     48  C   UNL A   1      39.850  31.541  32.064  1.00  0.00     0.049 A 
ATOM     49  N   UNL A   1      41.678  29.412  30.959  1.00  0.00    -0.248 NA
ATOM     50  C   UNL A   1      40.394  29.410  29.006  1.00  0.00     0.031 C 
ATOM     51  C   UNL A   1      38.990  32.571  32.646  1.00  0.00     0.029 A 
ATOM     52  N   UNL A   1      40.813  31.326  33.019  1.00  0.00    -0.354 N 
ATOM     53  C   UNL A   1      42.217  28.507  30.054  1.00  0.00     0.074 A 
ATOM     54  C   UNL A   1      41.375  28.530  28.876  1.00  0.00     0.031 C 
ATOM     55  C   UNL A   1      39.453  32.881  33.870  1.00  0.00     0.029 A 
ATOM     56  C   UNL A   1      40.617  32.048  34.171  1.00  0.00     0.049 A 
ATOM     57  H   UNL A   1      41.573  30.714  32.889  1.00  0.00     0.167 HD
ATOM     58  C   UNL A   1      43.317  27.731  30.191  1.00  0.00     0.037 A 
ATOM     59  C   UNL A   1      41.279  32.012  35.345  1.00  0.00     0.037 A 
ATOM     60  C   UNL A   1      44.139  27.697  31.370  1.00  0.00     0.049 A 
ATOM     61  C   UNL A   1      42.446  31.071  35.508  1.00  0.00     0.074 A 
ATOM     62  C   UNL A   1      45.290  26.962  31.595  1.00  0.00     0.029 A 
ATOM     63  N   UNL A   1      43.889  28.417  32.529  1.00  0.00    -0.354 N 
ATOM     64  N   UNL A   1      42.971  30.246  34.633  1.00  0.00    -0.248 NA
ATOM     65  C   UNL A   1      43.104  31.046  36.823  1.00  0.00     0.031 C 
ATOM     66  C   UNL A   1      45.708  27.201  32.909  1.00  0.00     0.029 A 
ATOM     67  C   UNL A   1      44.843  28.117  33.487  1.00  0.00     0.049 A 
ATOM     68  H   UNL A   1      43.144  29.047  32.653  1.00  0.00     0.167 HD
ATOM     69  C   UNL A   1      44.026  29.616  35.285  1.00  0.00     0.074 A 
ATOM     70  C   UNL A   1      44.076  30.166  36.624  1.00  0.00     0.031 C 
ATOM     71  C   UNL A   1      44.876  28.668  34.819  1.00  0.00     0.037 A 
BRANCH  58  72
ATOM     72  C   UNL A   1      43.675  26.833  29.042  1.00  0.00     0.058 A 
ATOM     73  C   UNL A   1      43.317  25.476  29.031  1.00  0.00     0.135 A 
ATOM     74  C   UNL A   1      44.363  27.341  27.928  1.00  0.00     0.135 A 
ATOM     75  F   UNL A   1      42.677  24.936  30.081  1.00  0.00    -0.206 F 
ATOM     76  C   UNL A   1      43.645  24.648  27.964  1.00  0.00     0.059 A 
ATOM     77  C   UNL A   1      44.682  26.535  26.840  1.00  0.00     0.059 A 
ATOM     78  F   UNL A   1      44.735  28.630  27.895  1.00  0.00    -0.206 F 
ATOM     79  C   UNL A   1      44.330  25.188  26.873  1.00  0.00     0.060 A 
BRANCH  79  80
ATOM     80  S   UNL A   1      44.745  24.100  25.493  1.00  0.00     0.124 S 
ATOM     81  O   UNL A   1      45.370  25.036  24.563  1.00  0.00    -0.237 OA
ATOM     82  O   UNL A   1      45.643  23.133  26.117  1.00  0.00    -0.237 OA
ATOM     83  O   UNL A   1      43.451  23.571  25.076  1.00  0.00    -0.744 OA
ENDBRANCH  79  80
ENDBRANCH  58  72
BRANCH  59  84
ATOM     84  C   UNL A   1      40.838  32.869  36.478  1.00  0.00     0.058 A 
ATOM     85  C   UNL A   1      41.529  34.044  36.808  1.00  0.00     0.135 A 
ATOM     86  C   UNL A   1      39.722  32.525  37.257  1.00  0.00     0.135 A 
ATOM     87  F   UNL A   1      42.611  34.406  36.103  1.00  0.00    -0.206 F 
ATOM     88  C   UNL A   1      41.136  34.844  37.878  1.00  0.00     0.059 A 
ATOM     89  C   UNL A   1      39.297  33.320  38.316  1.00  0.00     0.059 A 
ATOM     90  F   UNL A   1      39.025  31.413  36.979  1.00  0.00    -0.206 F 
ATOM     91  C   UNL A   1      40.016  34.474  38.624  1.00  0.00     0.060 A 
BRANCH  91  92
ATOM     92  S   UNL A   1      39.479  35.547  39.974  1.00  0.00     0.124 S 
ATOM     93  O   UNL A   1      40.677  35.596  40.804  1.00  0.00    -0.237 OA
ATOM     94  O   UNL A   1      39.140  36.779  39.269  1.00  0.00    -0.237 OA
ATOM     95  O   UNL A   1      38.342  34.827  40.541  1.00  0.00    -0.744 OA
ENDBRANCH  91  92
ENDBRANCH  59  84
BRANCH  71  96
ATOM     96  C   UNL A   1      45.940  28.165  35.755  1.00  0.00     0.058 A 
ATOM     97  C   UNL A   1      45.786  26.960  36.457  1.00  0.00     0.135 A 
ATOM     98  C   UNL A   1      47.151  28.861  35.902  1.00  0.00     0.135 A 
ATOM     99  F   UNL A   1      44.646  26.260  36.357  1.00  0.00    -0.206 F 
ATOM    100  C   UNL A   1      46.792  26.468  37.284  1.00  0.00     0.059 A 
ATOM    101  C   UNL A   1      48.179  28.375  36.704  1.00  0.00     0.059 A 
ATOM    102  F   UNL A   1      47.352  30.014  35.244  1.00  0.00    -0.206 F 
ATOM    103  C   UNL A   1      47.987  27.182  37.398  1.00  0.00     0.060 A 
BRANCH 103 104
ATOM    104  S   UNL A   1      49.301  26.510  38.439  1.00  0.00     0.124 S 
ATOM    105  O   UNL A   1      48.976  27.092  39.736  1.00  0.00    -0.237 OA
ATOM    106  O   UNL A   1      49.090  25.070  38.319  1.00  0.00    -0.237 OA
ATOM    107  O   UNL A   1      50.521  27.013  37.812  1.00  0.00    -0.744 OA
ENDBRANCH 103 104
ENDBRANCH  71  96
ENDBRANCH  45  46
ENDBRANCH  38  40
ENDBRANCH  37  38
ENDBRANCH  36  37
ENDBRANCH  35  36
ENDBRANCH  34  35
ENDBRANCH  33  34
ENDBRANCH   1  33
TORSDOF 28
ENDMDL
