MODEL 1
REMARK VINA RESULT:      -7.8      0.000      0.000
REMARK SMILES CC(C)CCOc1ccc(/C=C2\SC(=S)N(CC(=O)OCCOCCOCCOCCOC(=O)c3ccc(-c4c5nc(c(-c6c(F)cc(S(=O)(=O)[O-])cc6F)c6ccc([nH]6)c(-c6c(F)cc(S(=O)(=O)[O-])cc6F)c6nc(c(-c7c(F)cc(S(=O)(=O)[O-])cc7F)c7ccc4[nH]7)C=C6)C=C5)cc3)C2=O)cc1
REMARK SMILES IDX 24 1 23 2 22 3 21 4 20 5 18 6 19 7 17 8 16 9 11 10 12 11
REMARK SMILES IDX 13 12 101 13 14 14 102 15 15 16 10 17 7 18 8 19 104 20 9 21
REMARK SMILES IDX 103 22 6 23 5 24 4 25 2 26 1 27 3 28 25 29 26 30 27 31 28 32
REMARK SMILES IDX 29 33 30 34 31 35 32 36 33 37 34 38 35 39 36 40 100 41 37 42
REMARK SMILES IDX 99 43 38 44 39 45 40 46 93 47 41 48 98 49 92 50 94 51 42 52
REMARK SMILES IDX 97 53 91 54 90 55 43 57 77 58 56 59 76 60 57 61 60 62 75 63
REMARK SMILES IDX 95 64 58 65 59 66 74 68 96 69 61 70 44 71 45 72 54 73 46 74
REMARK SMILES IDX 47 75 53 76 55 77 48 78 49 79 50 80 51 81 52 82 78 83 79 84
REMARK SMILES IDX 88 85 80 86 81 87 87 88 89 89 82 90 83 91 84 92 85 93 86 94
REMARK SMILES IDX 62 95 63 96 72 97 64 98 65 99 71 100 73 101 66 102 67 103
REMARK SMILES IDX 68 104 69 105 70 106
REMARK H PARENT 94 56 60 67
REMARK Flexibility Score: inf
ROOT
ATOM      1  C   UNL A   1      31.965  31.077  26.768  1.00  0.00     0.188 C 
ENDROOT
BRANCH   1   2
ATOM      2  O   UNL A   1      31.834  30.212  25.650  1.00  0.00    -0.376 OA
BRANCH   2   3
ATOM      3  C   UNL A   1      31.424  28.865  25.830  1.00  0.00     0.202 C 
BRANCH   3   4
ATOM      4  C   UNL A   1      31.127  27.941  24.628  1.00  0.00     0.261 C 
BRANCH   4   5
ATOM      5  O   UNL A   1      31.275  28.498  23.305  1.00  0.00    -0.462 OA
BRANCH   5   6
ATOM      6  C   UNL A   1      32.538  28.626  22.828  1.00  0.00     0.326 C 
ATOM      7  O   UNL A   1      33.366  29.417  23.271  1.00  0.00    -0.250 OA
BRANCH   6   8
ATOM      8  C   UNL A   1      32.902  27.625  21.716  1.00  0.00     0.250 C 
BRANCH   8   9
ATOM      9  N   UNL A   1      33.160  26.212  22.041  1.00  0.00    -0.282 N 
ATOM     10  C   UNL A   1      34.304  23.786  24.504  1.00  0.00     0.029 C 
ATOM     11  C   UNL A   1      33.869  24.385  23.380  1.00  0.00     0.081 C 
ATOM     12  S   UNL A   1      33.314  23.645  21.932  1.00  0.00    -0.054 SA
ATOM     13  C   UNL A   1      33.782  25.869  23.235  1.00  0.00     0.266 C 
ATOM     14  C   UNL A   1      32.894  25.173  21.178  1.00  0.00     0.148 C 
ATOM     15  O   UNL A   1      34.208  26.653  24.075  1.00  0.00    -0.268 OA
ATOM     16  S   UNL A   1      32.305  25.262  19.622  1.00  0.00    -0.052 S 
BRANCH  10  17
ATOM     17  C   UNL A   1      34.553  22.345  24.709  1.00  0.00    -0.024 A 
ATOM     18  C   UNL A   1      35.114  19.598  24.718  1.00  0.00     0.119 A 
ATOM     19  C   UNL A   1      36.074  20.494  25.179  1.00  0.00     0.047 A 
ATOM     20  C   UNL A   1      33.846  20.042  24.373  1.00  0.00     0.047 A 
ATOM     21  C   UNL A   1      35.791  21.870  25.176  1.00  0.00     0.012 A 
ATOM     22  C   UNL A   1      33.592  21.409  24.306  1.00  0.00     0.012 A 
BRANCH  18  23
ATOM     23  O   UNL A   1      35.386  18.268  24.570  1.00  0.00    -0.494 OA
BRANCH  23  24
ATOM     24  C   UNL A   1      34.389  17.587  23.779  1.00  0.00     0.230 C 
BRANCH  24  25
ATOM     25  C   UNL A   1      34.036  16.165  24.268  1.00  0.00     0.044 C 
BRANCH  25  26
ATOM     26  C   UNL A   1      32.693  16.051  25.030  1.00  0.00    -0.014 C 
ATOM     27  C   UNL A   1      32.502  14.683  25.683  1.00  0.00     0.007 C 
ATOM     28  C   UNL A   1      32.571  17.160  26.079  1.00  0.00     0.007 C 
ENDBRANCH  25  26
ENDBRANCH  24  25
ENDBRANCH  23  24
ENDBRANCH  18  23
ENDBRANCH  10  17
ENDBRANCH   8   9
ENDBRANCH   6   8
ENDBRANCH   5   6
ENDBRANCH   4   5
ENDBRANCH   3   4
ENDBRANCH   2   3
ENDBRANCH   1   2
BRANCH   1  29
ATOM     29  C   UNL A   1      33.156  30.923  27.729  1.00  0.00     0.188 C 
BRANCH  29  30
ATOM     30  O   UNL A   1      34.429  31.181  27.188  1.00  0.00    -0.377 OA
BRANCH  30  31
ATOM     31  C   UNL A   1      35.351  31.919  27.967  1.00  0.00     0.188 C 
BRANCH  31  32
ATOM     32  C   UNL A   1      36.791  31.404  28.145  1.00  0.00     0.188 C 
BRANCH  32  33
ATOM     33  O   UNL A   1      36.921  29.989  28.154  1.00  0.00    -0.376 OA
BRANCH  33  34
ATOM     34  C   UNL A   1      38.079  29.408  28.728  1.00  0.00     0.202 C 
BRANCH  34  35
ATOM     35  C   UNL A   1      37.920  28.692  30.078  1.00  0.00     0.261 C 
BRANCH  35  36
ATOM     36  O   UNL A   1      37.099  29.356  31.047  1.00  0.00    -0.460 OA
BRANCH  36  37
ATOM     37  C   UNL A   1      37.543  29.333  32.322  1.00  0.00     0.338 C 
ATOM     38  O   UNL A   1      37.406  28.421  33.123  1.00  0.00    -0.246 OA
BRANCH  37  39
ATOM     39  C   UNL A   1      38.395  30.520  32.536  1.00  0.00     0.060 A 
ATOM     40  C   UNL A   1      39.711  30.320  32.969  1.00  0.00     0.016 A 
ATOM     41  C   UNL A   1      37.917  31.811  32.288  1.00  0.00     0.016 A 
ATOM     42  C   UNL A   1      40.547  31.414  33.184  1.00  0.00     0.010 A 
ATOM     43  C   UNL A   1      38.750  32.909  32.531  1.00  0.00     0.010 A 
ATOM     44  C   UNL A   1      40.058  32.715  33.010  1.00  0.00    -0.014 A 
BRANCH  44  45
ATOM     45  C   UNL A   1      40.862  33.851  33.519  1.00  0.00     0.031 A 
ATOM     46  C   UNL A   1      40.744  34.213  34.975  1.00  0.00     0.074 A 
ATOM     47  C   UNL A   1      41.732  34.501  32.727  1.00  0.00     0.049 A 
ATOM     48  N   UNL A   1      41.391  35.117  35.664  1.00  0.00    -0.248 NA
ATOM     49  C   UNL A   1      39.765  33.444  35.758  1.00  0.00     0.031 C 
ATOM     50  C   UNL A   1      41.968  34.211  31.315  1.00  0.00     0.029 A 
ATOM     51  N   UNL A   1      42.591  35.534  33.008  1.00  0.00    -0.354 N 
ATOM     52  C   UNL A   1      40.902  35.022  36.961  1.00  0.00     0.074 A 
ATOM     53  C   UNL A   1      39.874  34.004  36.952  1.00  0.00     0.031 C 
ATOM     54  C   UNL A   1      42.916  35.044  30.853  1.00  0.00     0.029 A 
ATOM     55  C   UNL A   1      43.336  35.941  31.928  1.00  0.00     0.049 A 
ATOM     56  H   UNL A   1      42.665  35.945  33.901  1.00  0.00     0.167 HD
ATOM     57  C   UNL A   1      41.282  35.712  38.064  1.00  0.00     0.037 A 
ATOM     58  C   UNL A   1      44.247  36.930  31.823  1.00  0.00     0.037 A 
ATOM     59  C   UNL A   1      42.287  36.744  38.058  1.00  0.00     0.049 A 
ATOM     60  C   UNL A   1      44.591  37.747  33.041  1.00  0.00     0.074 A 
ATOM     61  C   UNL A   1      42.752  37.502  39.118  1.00  0.00     0.029 A 
ATOM     62  N   UNL A   1      42.970  37.178  36.929  1.00  0.00    -0.354 N 
ATOM     63  N   UNL A   1      44.145  37.631  34.270  1.00  0.00    -0.248 NA
ATOM     64  C   UNL A   1      45.569  38.828  32.857  1.00  0.00     0.031 C 
ATOM     65  C   UNL A   1      43.666  38.437  38.619  1.00  0.00     0.029 A 
ATOM     66  C   UNL A   1      43.824  38.218  37.260  1.00  0.00     0.049 A 
ATOM     67  H   UNL A   1      42.862  36.803  36.026  1.00  0.00     0.167 HD
ATOM     68  C   UNL A   1      44.806  38.606  35.011  1.00  0.00     0.074 A 
ATOM     69  C   UNL A   1      45.695  39.291  34.093  1.00  0.00     0.031 C 
ATOM     70  C   UNL A   1      44.692  38.905  36.332  1.00  0.00     0.037 A 
BRANCH  57  71
ATOM     71  C   UNL A   1      40.564  35.397  39.350  1.00  0.00     0.058 A 
ATOM     72  C   UNL A   1      41.007  34.386  40.222  1.00  0.00     0.135 A 
ATOM     73  C   UNL A   1      39.399  36.096  39.703  1.00  0.00     0.135 A 
ATOM     74  F   UNL A   1      42.105  33.672  39.928  1.00  0.00    -0.206 F 
ATOM     75  C   UNL A   1      40.291  34.046  41.365  1.00  0.00     0.059 A 
ATOM     76  C   UNL A   1      38.686  35.795  40.860  1.00  0.00     0.059 A 
ATOM     77  F   UNL A   1      38.929  37.072  38.910  1.00  0.00    -0.206 F 
ATOM     78  C   UNL A   1      39.126  34.751  41.671  1.00  0.00     0.060 A 
BRANCH  78  79
ATOM     79  S   UNL A   1      38.182  34.268  43.133  1.00  0.00     0.124 S 
ATOM     80  O   UNL A   1      37.015  35.139  43.027  1.00  0.00    -0.237 OA
ATOM     81  O   UNL A   1      37.939  32.849  42.891  1.00  0.00    -0.237 OA
ATOM     82  O   UNL A   1      39.089  34.566  44.237  1.00  0.00    -0.744 OA
ENDBRANCH  78  79
ENDBRANCH  57  71
BRANCH  58  83
ATOM     83  C   UNL A   1      44.912  37.183  30.516  1.00  0.00     0.058 A 
ATOM     84  C   UNL A   1      44.460  38.197  29.659  1.00  0.00     0.135 A 
ATOM     85  C   UNL A   1      46.030  36.436  30.111  1.00  0.00     0.135 A 
ATOM     86  F   UNL A   1      43.384  38.927  29.993  1.00  0.00    -0.206 F 
ATOM     87  C   UNL A   1      45.094  38.468  28.451  1.00  0.00     0.059 A 
ATOM     88  C   UNL A   1      46.697  36.705  28.920  1.00  0.00     0.059 A 
ATOM     89  F   UNL A   1      46.503  35.455  30.896  1.00  0.00    -0.206 F 
ATOM     90  C   UNL A   1      46.221  37.723  28.097  1.00  0.00     0.060 A 
BRANCH  90  91
ATOM     91  S   UNL A   1      47.088  38.147  26.570  1.00  0.00     0.124 S 
ATOM     92  O   UNL A   1      46.033  38.795  25.799  1.00  0.00    -0.237 OA
ATOM     93  O   UNL A   1      48.150  39.021  27.058  1.00  0.00    -0.237 OA
ATOM     94  O   UNL A   1      47.535  36.853  26.066  1.00  0.00    -0.744 OA
ENDBRANCH  90  91
ENDBRANCH  58  83
BRANCH  70  95
ATOM     95  C   UNL A   1      45.566  40.011  36.866  1.00  0.00     0.058 A 
ATOM     96  C   UNL A   1      46.848  39.761  37.383  1.00  0.00     0.135 A 
ATOM     97  C   UNL A   1      45.123  41.343  36.844  1.00  0.00     0.135 A 
ATOM     98  F   UNL A   1      47.324  38.506  37.433  1.00  0.00    -0.206 F 
ATOM     99  C   UNL A   1      47.639  40.783  37.899  1.00  0.00     0.059 A 
ATOM    100  C   UNL A   1      45.911  42.387  37.322  1.00  0.00     0.059 A 
ATOM    101  F   UNL A   1      43.913  41.647  36.347  1.00  0.00    -0.206 F 
ATOM    102  C   UNL A   1      47.159  42.094  37.867  1.00  0.00     0.060 A 
BRANCH 102 103
ATOM    103  S   UNL A   1      48.193  43.411  38.541  1.00  0.00     0.124 S 
ATOM    104  O   UNL A   1      48.401  44.252  37.367  1.00  0.00    -0.237 OA
ATOM    105  O   UNL A   1      47.341  43.975  39.583  1.00  0.00    -0.237 OA
ATOM    106  O   UNL A   1      49.375  42.703  39.022  1.00  0.00    -0.744 OA
ENDBRANCH 102 103
ENDBRANCH  70  95
ENDBRANCH  44  45
ENDBRANCH  37  39
ENDBRANCH  36  37
ENDBRANCH  35  36
ENDBRANCH  34  35
ENDBRANCH  33  34
ENDBRANCH  32  33
ENDBRANCH  31  32
ENDBRANCH  30  31
ENDBRANCH  29  30
ENDBRANCH   1  29
TORSDOF 29
ENDMDL
MODEL 2
REMARK VINA RESULT:      -7.8      1.865      2.694
REMARK SMILES CC(C)CCOc1ccc(/C=C2\SC(=S)N(CC(=O)OCCOCCOCCOCCOC(=O)c3ccc(-c4c5nc(c(-c6c(F)cc(S(=O)(=O)[O-])cc6F)c6ccc([nH]6)c(-c6c(F)cc(S(=O)(=O)[O-])cc6F)c6nc(c(-c7c(F)cc(S(=O)(=O)[O-])cc7F)c7ccc4[nH]7)C=C6)C=C5)cc3)C2=O)cc1
REMARK SMILES IDX 24 1 23 2 22 3 21 4 20 5 18 6 19 7 17 8 16 9 11 10 12 11
REMARK SMILES IDX 13 12 101 13 14 14 102 15 15 16 10 17 7 18 8 19 104 20 9 21
REMARK SMILES IDX 103 22 6 23 5 24 4 25 2 26 1 27 3 28 25 29 26 30 27 31 28 32
REMARK SMILES IDX 29 33 30 34 31 35 32 36 33 37 34 38 35 39 36 40 100 41 37 42
REMARK SMILES IDX 99 43 38 44 39 45 40 46 93 47 41 48 98 49 92 50 94 51 42 52
REMARK SMILES IDX 97 53 91 54 90 55 43 57 77 58 56 59 76 60 57 61 60 62 75 63
REMARK SMILES IDX 95 64 58 65 59 66 74 68 96 69 61 70 44 71 45 72 54 73 46 74
REMARK SMILES IDX 47 75 53 76 55 77 48 78 49 79 50 80 51 81 52 82 78 83 79 84
REMARK SMILES IDX 88 85 80 86 81 87 87 88 89 89 82 90 83 91 84 92 85 93 86 94
REMARK SMILES IDX 62 95 63 96 72 97 64 98 65 99 71 100 73 101 66 102 67 103
REMARK SMILES IDX 68 104 69 105 70 106
REMARK H PARENT 94 56 60 67
REMARK Flexibility Score: inf
ROOT
ATOM      1  C   UNL A   1      32.083  31.106  26.878  1.00  0.00     0.188 C 
ENDROOT
BRANCH   1   2
ATOM      2  O   UNL A   1      31.841  30.268  25.758  1.00  0.00    -0.376 OA
BRANCH   2   3
ATOM      3  C   UNL A   1      31.542  28.893  25.942  1.00  0.00     0.202 C 
BRANCH   3   4
ATOM      4  C   UNL A   1      31.218  27.966  24.749  1.00  0.00     0.261 C 
BRANCH   4   5
ATOM      5  O   UNL A   1      31.387  28.505  23.420  1.00  0.00    -0.462 OA
BRANCH   5   6
ATOM      6  C   UNL A   1      32.656  28.602  22.950  1.00  0.00     0.326 C 
ATOM      7  O   UNL A   1      33.504  29.364  23.406  1.00  0.00    -0.250 OA
BRANCH   6   8
ATOM      8  C   UNL A   1      32.996  27.604  21.829  1.00  0.00     0.250 C 
BRANCH   8   9
ATOM      9  N   UNL A   1      33.252  26.189  22.144  1.00  0.00    -0.282 N 
ATOM     10  C   UNL A   1      34.365  23.741  24.599  1.00  0.00     0.029 C 
ATOM     11  C   UNL A   1      33.946  24.350  23.475  1.00  0.00     0.081 C 
ATOM     12  S   UNL A   1      33.414  23.622  22.012  1.00  0.00    -0.054 SA
ATOM     13  C   UNL A   1      33.857  25.835  23.343  1.00  0.00     0.266 C 
ATOM     14  C   UNL A   1      33.002  25.157  21.267  1.00  0.00     0.148 C 
ATOM     15  O   UNL A   1      34.269  26.611  24.197  1.00  0.00    -0.268 OA
ATOM     16  S   UNL A   1      32.435  25.260  19.704  1.00  0.00    -0.052 S 
BRANCH  10  17
ATOM     17  C   UNL A   1      34.614  22.298  24.795  1.00  0.00    -0.024 A 
ATOM     18  C   UNL A   1      35.077  19.533  24.775  1.00  0.00     0.119 A 
ATOM     19  C   UNL A   1      36.148  20.405  24.946  1.00  0.00     0.047 A 
ATOM     20  C   UNL A   1      33.776  20.016  24.739  1.00  0.00     0.047 A 
ATOM     21  C   UNL A   1      35.915  21.790  24.958  1.00  0.00     0.012 A 
ATOM     22  C   UNL A   1      33.555  21.388  24.681  1.00  0.00     0.012 A 
BRANCH  18  23
ATOM     23  O   UNL A   1      35.263  18.189  24.618  1.00  0.00    -0.494 OA
BRANCH  23  24
ATOM     24  C   UNL A   1      34.303  17.603  23.712  1.00  0.00     0.230 C 
BRANCH  24  25
ATOM     25  C   UNL A   1      33.917  16.143  24.036  1.00  0.00     0.044 C 
BRANCH  25  26
ATOM     26  C   UNL A   1      33.291  15.927  25.435  1.00  0.00    -0.014 C 
ATOM     27  C   UNL A   1      32.255  16.992  25.787  1.00  0.00     0.007 C 
ATOM     28  C   UNL A   1      32.671  14.530  25.540  1.00  0.00     0.007 C 
ENDBRANCH  25  26
ENDBRANCH  24  25
ENDBRANCH  23  24
ENDBRANCH  18  23
ENDBRANCH  10  17
ENDBRANCH   8   9
ENDBRANCH   6   8
ENDBRANCH   5   6
ENDBRANCH   4   5
ENDBRANCH   3   4
ENDBRANCH   2   3
ENDBRANCH   1   2
BRANCH   1  29
ATOM     29  C   UNL A   1      33.353  30.917  27.724  1.00  0.00     0.188 C 
BRANCH  29  30
ATOM     30  O   UNL A   1      34.482  31.657  27.326  1.00  0.00    -0.377 OA
BRANCH  30  31
ATOM     31  C   UNL A   1      35.170  32.408  28.306  1.00  0.00     0.188 C 
BRANCH  31  32
ATOM     32  C   UNL A   1      36.641  32.086  28.628  1.00  0.00     0.188 C 
BRANCH  32  33
ATOM     33  O   UNL A   1      37.007  30.726  28.444  1.00  0.00    -0.376 OA
BRANCH  33  34
ATOM     34  C   UNL A   1      38.201  30.247  29.041  1.00  0.00     0.202 C 
BRANCH  34  35
ATOM     35  C   UNL A   1      38.063  29.293  30.238  1.00  0.00     0.261 C 
BRANCH  35  36
ATOM     36  O   UNL A   1      37.133  29.690  31.252  1.00  0.00    -0.460 OA
BRANCH  36  37
ATOM     37  C   UNL A   1      37.478  29.400  32.525  1.00  0.00     0.338 C 
ATOM     38  O   UNL A   1      37.345  28.323  33.087  1.00  0.00    -0.246 OA
BRANCH  37  39
ATOM     39  C   UNL A   1      38.224  30.550  33.074  1.00  0.00     0.060 A 
ATOM     40  C   UNL A   1      39.490  30.315  33.622  1.00  0.00     0.016 A 
ATOM     41  C   UNL A   1      37.698  31.845  33.029  1.00  0.00     0.016 A 
ATOM     42  C   UNL A   1      40.227  31.373  34.152  1.00  0.00     0.010 A 
ATOM     43  C   UNL A   1      38.427  32.901  33.587  1.00  0.00     0.010 A 
ATOM     44  C   UNL A   1      39.680  32.663  34.178  1.00  0.00    -0.014 A 
BRANCH  44  45
ATOM     45  C   UNL A   1      40.348  33.701  34.999  1.00  0.00     0.031 A 
ATOM     46  C   UNL A   1      40.052  33.745  36.474  1.00  0.00     0.074 A 
ATOM     47  C   UNL A   1      41.252  34.540  34.464  1.00  0.00     0.049 A 
ATOM     48  N   UNL A   1      40.560  34.511  37.403  1.00  0.00    -0.248 NA
ATOM     49  C   UNL A   1      39.049  32.786  36.964  1.00  0.00     0.031 C 
ATOM     50  C   UNL A   1      41.655  34.564  33.060  1.00  0.00     0.029 A 
ATOM     51  N   UNL A   1      42.004  35.527  35.049  1.00  0.00    -0.354 N 
ATOM     52  C   UNL A   1      39.944  34.125  38.588  1.00  0.00     0.074 A 
ATOM     53  C   UNL A   1      38.993  33.087  38.251  1.00  0.00     0.031 C 
ATOM     54  C   UNL A   1      42.589  35.515  32.892  1.00  0.00     0.029 A 
ATOM     55  C   UNL A   1      42.831  36.184  34.169  1.00  0.00     0.049 A 
ATOM     56  H   UNL A   1      41.956  35.746  36.008  1.00  0.00     0.167 HD
ATOM     57  C   UNL A   1      40.157  34.584  39.845  1.00  0.00     0.037 A 
ATOM     58  C   UNL A   1      43.680  37.212  34.375  1.00  0.00     0.037 A 
ATOM     59  C   UNL A   1      41.086  35.637  40.167  1.00  0.00     0.049 A 
ATOM     60  C   UNL A   1      43.837  37.770  35.766  1.00  0.00     0.074 A 
ATOM     61  C   UNL A   1      41.384  36.176  41.406  1.00  0.00     0.029 A 
ATOM     62  N   UNL A   1      41.854  36.328  39.239  1.00  0.00    -0.354 N 
ATOM     63  N   UNL A   1      43.272  37.379  36.884  1.00  0.00    -0.248 NA
ATOM     64  C   UNL A   1      44.754  38.907  35.922  1.00  0.00     0.031 C 
ATOM     65  C   UNL A   1      42.281  37.234  41.219  1.00  0.00     0.029 A 
ATOM     66  C   UNL A   1      42.597  37.312  39.872  1.00  0.00     0.049 A 
ATOM     67  H   UNL A   1      41.868  36.146  38.271  1.00  0.00     0.167 HD
ATOM     68  C   UNL A   1      43.783  38.205  37.881  1.00  0.00     0.074 A 
ATOM     69  C   UNL A   1      44.717  39.105  37.233  1.00  0.00     0.031 C 
ATOM     70  C   UNL A   1      43.510  38.215  39.212  1.00  0.00     0.037 A 
BRANCH  57  71
ATOM     71  C   UNL A   1      39.330  33.976  40.947  1.00  0.00     0.058 A 
ATOM     72  C   UNL A   1      38.177  34.605  41.447  1.00  0.00     0.135 A 
ATOM     73  C   UNL A   1      39.713  32.759  41.533  1.00  0.00     0.135 A 
ATOM     74  F   UNL A   1      37.772  35.780  40.938  1.00  0.00    -0.206 F 
ATOM     75  C   UNL A   1      37.467  34.078  42.522  1.00  0.00     0.059 A 
ATOM     76  C   UNL A   1      38.998  32.196  42.586  1.00  0.00     0.059 A 
ATOM     77  F   UNL A   1      40.806  32.112  41.097  1.00  0.00    -0.206 F 
ATOM     78  C   UNL A   1      37.891  32.876  43.090  1.00  0.00     0.060 A 
BRANCH  78  79
ATOM     79  S   UNL A   1      36.988  32.227  44.513  1.00  0.00     0.124 S 
ATOM     80  O   UNL A   1      36.322  33.430  45.007  1.00  0.00    -0.237 OA
ATOM     81  O   UNL A   1      36.118  31.228  43.900  1.00  0.00    -0.237 OA
ATOM     82  O   UNL A   1      38.041  31.697  45.372  1.00  0.00    -0.744 OA
ENDBRANCH  78  79
ENDBRANCH  57  71
BRANCH  58  83
ATOM     83  C   UNL A   1      44.461  37.762  33.235  1.00  0.00     0.058 A 
ATOM     84  C   UNL A   1      44.045  38.923  32.567  1.00  0.00     0.135 A 
ATOM     85  C   UNL A   1      45.653  37.155  32.809  1.00  0.00     0.135 A 
ATOM     86  F   UNL A   1      42.903  39.530  32.924  1.00  0.00    -0.206 F 
ATOM     87  C   UNL A   1      44.785  39.468  31.523  1.00  0.00     0.059 A 
ATOM     88  C   UNL A   1      46.424  37.696  31.784  1.00  0.00     0.059 A 
ATOM     89  F   UNL A   1      46.096  36.043  33.417  1.00  0.00    -0.206 F 
ATOM     90  C   UNL A   1      45.981  38.853  31.147  1.00  0.00     0.060 A 
BRANCH  90  91
ATOM     91  S   UNL A   1      46.977  39.624  29.852  1.00  0.00     0.124 S 
ATOM     92  O   UNL A   1      47.223  40.947  30.415  1.00  0.00    -0.237 OA
ATOM     93  O   UNL A   1      48.131  38.732  29.788  1.00  0.00    -0.237 OA
ATOM     94  O   UNL A   1      46.101  39.586  28.686  1.00  0.00    -0.744 OA
ENDBRANCH  90  91
ENDBRANCH  58  83
BRANCH  70  95
ATOM     95  C   UNL A   1      44.247  39.221  40.060  1.00  0.00     0.058 A 
ATOM     96  C   UNL A   1      43.707  40.485  40.350  1.00  0.00     0.135 A 
ATOM     97  C   UNL A   1      45.503  38.909  40.605  1.00  0.00     0.135 A 
ATOM     98  F   UNL A   1      42.511  40.839  39.852  1.00  0.00    -0.206 F 
ATOM     99  C   UNL A   1      44.404  41.418  41.112  1.00  0.00     0.059 A 
ATOM    100  C   UNL A   1      46.202  39.814  41.400  1.00  0.00     0.059 A 
ATOM    101  F   UNL A   1      46.062  37.711  40.377  1.00  0.00    -0.206 F 
ATOM    102  C   UNL A   1      45.654  41.073  41.630  1.00  0.00     0.060 A 
BRANCH 102 103
ATOM    103  S   UNL A   1      46.549  42.293  42.614  1.00  0.00     0.124 S 
ATOM    104  O   UNL A   1      46.254  41.849  43.972  1.00  0.00    -0.237 OA
ATOM    105  O   UNL A   1      47.926  42.103  42.170  1.00  0.00    -0.237 OA
ATOM    106  O   UNL A   1      45.940  43.560  42.222  1.00  0.00    -0.744 OA
ENDBRANCH 102 103
ENDBRANCH  70  95
ENDBRANCH  44  45
ENDBRANCH  37  39
ENDBRANCH  36  37
ENDBRANCH  35  36
ENDBRANCH  34  35
ENDBRANCH  33  34
ENDBRANCH  32  33
ENDBRANCH  31  32
ENDBRANCH  30  31
ENDBRANCH  29  30
ENDBRANCH   1  29
TORSDOF 29
ENDMDL
MODEL 3
REMARK VINA RESULT:      -6.9      9.353     17.589
REMARK SMILES CC(C)CCOc1ccc(/C=C2\SC(=S)N(CC(=O)OCCOCCOCCOCCOC(=O)c3ccc(-c4c5nc(c(-c6c(F)cc(S(=O)(=O)[O-])cc6F)c6ccc([nH]6)c(-c6c(F)cc(S(=O)(=O)[O-])cc6F)c6nc(c(-c7c(F)cc(S(=O)(=O)[O-])cc7F)c7ccc4[nH]7)C=C6)C=C5)cc3)C2=O)cc1
REMARK SMILES IDX 24 1 23 2 22 3 21 4 20 5 18 6 19 7 17 8 16 9 11 10 12 11
REMARK SMILES IDX 13 12 101 13 14 14 102 15 15 16 10 17 7 18 8 19 104 20 9 21
REMARK SMILES IDX 103 22 6 23 5 24 4 25 2 26 1 27 3 28 25 29 26 30 27 31 28 32
REMARK SMILES IDX 29 33 30 34 31 35 32 36 33 37 34 38 35 39 36 40 100 41 37 42
REMARK SMILES IDX 99 43 38 44 39 45 40 46 93 47 41 48 98 49 92 50 94 51 42 52
REMARK SMILES IDX 97 53 91 54 90 55 43 57 77 58 56 59 76 60 57 61 60 62 75 63
REMARK SMILES IDX 95 64 58 65 59 66 74 68 96 69 61 70 44 71 45 72 54 73 46 74
REMARK SMILES IDX 47 75 53 76 55 77 48 78 49 79 50 80 51 81 52 82 78 83 79 84
REMARK SMILES IDX 88 85 80 86 81 87 87 88 89 89 82 90 83 91 84 92 85 93 86 94
REMARK SMILES IDX 62 95 63 96 72 97 64 98 65 99 71 100 73 101 66 102 67 103
REMARK SMILES IDX 68 104 69 105 70 106
REMARK H PARENT 94 56 60 67
REMARK Flexibility Score: inf
ROOT
ATOM      1  C   UNL A   1      57.863  30.584  23.518  1.00  0.00     0.188 C 
ENDROOT
BRANCH   1   2
ATOM      2  O   UNL A   1      56.722  29.837  23.912  1.00  0.00    -0.376 OA
BRANCH   2   3
ATOM      3  C   UNL A   1      55.871  30.318  24.941  1.00  0.00     0.202 C 
BRANCH   3   4
ATOM      4  C   UNL A   1      56.431  30.796  26.299  1.00  0.00     0.261 C 
BRANCH   4   5
ATOM      5  O   UNL A   1      56.041  30.060  27.478  1.00  0.00    -0.462 OA
BRANCH   5   6
ATOM      6  C   UNL A   1      56.990  29.869  28.428  1.00  0.00     0.326 C 
ATOM      7  O   UNL A   1      58.014  30.540  28.525  1.00  0.00    -0.250 OA
BRANCH   6   8
ATOM      8  C   UNL A   1      56.647  28.779  29.459  1.00  0.00     0.250 C 
BRANCH   8   9
ATOM      9  N   UNL A   1      55.269  28.630  29.956  1.00  0.00    -0.282 N 
ATOM     10  C   UNL A   1      52.428  26.423  30.516  1.00  0.00     0.029 C 
ATOM     11  C   UNL A   1      53.240  27.492  30.425  1.00  0.00     0.081 C 
ATOM     12  S   UNL A   1      52.967  29.082  31.016  1.00  0.00    -0.054 SA
ATOM     13  C   UNL A   1      54.584  27.436  29.776  1.00  0.00     0.266 C 
ATOM     14  C   UNL A   1      54.554  29.655  30.535  1.00  0.00     0.148 C 
ATOM     15  O   UNL A   1      54.999  26.451  29.176  1.00  0.00    -0.268 OA
ATOM     16  S   UNL A   1      55.028  31.238  30.747  1.00  0.00    -0.052 S 
BRANCH  10  17
ATOM     17  C   UNL A   1      51.037  26.396  31.015  1.00  0.00    -0.024 A 
ATOM     18  C   UNL A   1      48.312  26.157  31.628  1.00  0.00     0.119 A 
ATOM     19  C   UNL A   1      49.222  25.272  32.197  1.00  0.00     0.047 A 
ATOM     20  C   UNL A   1      48.756  27.226  30.862  1.00  0.00     0.047 A 
ATOM     21  C   UNL A   1      50.587  25.393  31.891  1.00  0.00     0.012 A 
ATOM     22  C   UNL A   1      50.099  27.303  30.505  1.00  0.00     0.012 A 
BRANCH  18  23
ATOM     23  O   UNL A   1      46.964  25.999  31.780  1.00  0.00    -0.494 OA
BRANCH  23  24
ATOM     24  C   UNL A   1      46.398  26.956  32.702  1.00  0.00     0.230 C 
BRANCH  24  25
ATOM     25  C   UNL A   1      45.330  27.889  32.090  1.00  0.00     0.044 C 
BRANCH  25  26
ATOM     26  C   UNL A   1      44.939  29.100  32.970  1.00  0.00    -0.014 C 
ATOM     27  C   UNL A   1      45.366  28.932  34.427  1.00  0.00     0.007 C 
ATOM     28  C   UNL A   1      45.519  30.396  32.395  1.00  0.00     0.007 C 
ENDBRANCH  25  26
ENDBRANCH  24  25
ENDBRANCH  23  24
ENDBRANCH  18  23
ENDBRANCH  10  17
ENDBRANCH   8   9
ENDBRANCH   6   8
ENDBRANCH   5   6
ENDBRANCH   4   5
ENDBRANCH   3   4
ENDBRANCH   2   3
ENDBRANCH   1   2
BRANCH   1  29
ATOM     29  C   UNL A   1      59.262  30.172  24.008  1.00  0.00     0.188 C 
BRANCH  29  30
ATOM     30  O   UNL A   1      59.686  28.876  23.662  1.00  0.00    -0.377 OA
BRANCH  30  31
ATOM     31  C   UNL A   1      59.614  27.863  24.647  1.00  0.00     0.188 C 
BRANCH  31  32
ATOM     32  C   UNL A   1      58.776  26.597  24.386  1.00  0.00     0.188 C 
BRANCH  32  33
ATOM     33  O   UNL A   1      57.370  26.800  24.400  1.00  0.00    -0.376 OA
BRANCH  33  34
ATOM     34  C   UNL A   1      56.640  26.486  25.573  1.00  0.00     0.202 C 
BRANCH  34  35
ATOM     35  C   UNL A   1      55.781  25.212  25.554  1.00  0.00     0.261 C 
BRANCH  35  36
ATOM     36  O   UNL A   1      54.446  25.348  26.053  1.00  0.00    -0.460 OA
BRANCH  36  37
ATOM     37  C   UNL A   1      53.455  24.961  25.222  1.00  0.00     0.338 C 
ATOM     38  O   UNL A   1      53.529  24.107  24.351  1.00  0.00    -0.246 OA
BRANCH  37  39
ATOM     39  C   UNL A   1      52.202  25.605  25.664  1.00  0.00     0.060 A 
ATOM     40  C   UNL A   1      51.888  25.575  27.028  1.00  0.00     0.016 A 
ATOM     41  C   UNL A   1      51.360  26.254  24.755  1.00  0.00     0.016 A 
ATOM     42  C   UNL A   1      50.715  26.171  27.486  1.00  0.00     0.010 A 
ATOM     43  C   UNL A   1      50.168  26.827  25.214  1.00  0.00     0.010 A 
ATOM     44  C   UNL A   1      49.827  26.760  26.576  1.00  0.00    -0.014 A 
BRANCH  44  45
ATOM     45  C   UNL A   1      48.467  27.122  27.042  1.00  0.00     0.031 A 
ATOM     46  C   UNL A   1      48.218  28.537  27.489  1.00  0.00     0.074 A 
ATOM     47  C   UNL A   1      47.456  26.237  27.000  1.00  0.00     0.049 A 
ATOM     48  N   UNL A   1      47.106  29.106  27.872  1.00  0.00    -0.248 NA
ATOM     49  C   UNL A   1      49.388  29.430  27.499  1.00  0.00     0.031 C 
ATOM     50  C   UNL A   1      47.563  24.853  26.544  1.00  0.00     0.029 A 
ATOM     51  N   UNL A   1      46.134  26.380  27.338  1.00  0.00    -0.354 N 
ATOM     52  C   UNL A   1      47.438  30.424  28.163  1.00  0.00     0.074 A 
ATOM     53  C   UNL A   1      48.864  30.556  27.954  1.00  0.00     0.031 C 
ATOM     54  C   UNL A   1      46.353  24.274  26.623  1.00  0.00     0.029 A 
ATOM     55  C   UNL A   1      45.392  25.237  27.159  1.00  0.00     0.049 A 
ATOM     56  H   UNL A   1      45.752  27.223  27.677  1.00  0.00     0.167 HD
ATOM     57  C   UNL A   1      46.629  31.437  28.557  1.00  0.00     0.037 A 
ATOM     58  C   UNL A   1      44.088  24.999  27.406  1.00  0.00     0.037 A 
ATOM     59  C   UNL A   1      45.215  31.289  28.789  1.00  0.00     0.049 A 
ATOM     60  C   UNL A   1      43.221  26.115  27.930  1.00  0.00     0.074 A 
ATOM     61  C   UNL A   1      44.301  32.249  29.185  1.00  0.00     0.029 A 
ATOM     62  N   UNL A   1      44.512  30.098  28.666  1.00  0.00    -0.354 N 
ATOM     63  N   UNL A   1      43.539  27.365  28.174  1.00  0.00    -0.248 NA
ATOM     64  C   UNL A   1      41.817  25.787  28.207  1.00  0.00     0.031 C 
ATOM     65  C   UNL A   1      43.061  31.625  29.364  1.00  0.00     0.029 A 
ATOM     66  C   UNL A   1      43.184  30.290  29.014  1.00  0.00     0.049 A 
ATOM     67  H   UNL A   1      44.900  29.242  28.375  1.00  0.00     0.167 HD
ATOM     68  C   UNL A   1      42.368  27.979  28.609  1.00  0.00     0.074 A 
ATOM     69  C   UNL A   1      41.333  26.965  28.578  1.00  0.00     0.031 C 
ATOM     70  C   UNL A   1      42.165  29.266  28.995  1.00  0.00     0.037 A 
BRANCH  57  71
ATOM     71  C   UNL A   1      47.275  32.774  28.806  1.00  0.00     0.058 A 
ATOM     72  C   UNL A   1      47.599  33.653  27.757  1.00  0.00     0.135 A 
ATOM     73  C   UNL A   1      47.605  33.171  30.112  1.00  0.00     0.135 A 
ATOM     74  F   UNL A   1      47.325  33.318  26.486  1.00  0.00    -0.206 F 
ATOM     75  C   UNL A   1      48.272  34.848  27.989  1.00  0.00     0.059 A 
ATOM     76  C   UNL A   1      48.247  34.379  30.370  1.00  0.00     0.059 A 
ATOM     77  F   UNL A   1      47.320  32.375  31.154  1.00  0.00    -0.206 F 
ATOM     78  C   UNL A   1      48.600  35.198  29.299  1.00  0.00     0.060 A 
BRANCH  78  79
ATOM     79  S   UNL A   1      49.514  36.730  29.581  1.00  0.00     0.124 S 
ATOM     80  O   UNL A   1      50.313  36.380  30.751  1.00  0.00    -0.237 OA
ATOM     81  O   UNL A   1      50.252  36.886  28.332  1.00  0.00    -0.237 OA
ATOM     82  O   UNL A   1      48.463  37.716  29.812  1.00  0.00    -0.744 OA
ENDBRANCH  78  79
ENDBRANCH  57  71
BRANCH  58  83
ATOM     83  C   UNL A   1      43.521  23.650  27.137  1.00  0.00     0.058 A 
ATOM     84  C   UNL A   1      43.233  23.234  25.828  1.00  0.00     0.135 A 
ATOM     85  C   UNL A   1      43.284  22.739  28.178  1.00  0.00     0.135 A 
ATOM     86  F   UNL A   1      43.425  24.076  24.800  1.00  0.00    -0.206 F 
ATOM     87  C   UNL A   1      42.736  21.964  25.559  1.00  0.00     0.059 A 
ATOM     88  C   UNL A   1      42.812  21.453  27.932  1.00  0.00     0.059 A 
ATOM     89  F   UNL A   1      43.546  23.086  29.448  1.00  0.00    -0.206 F 
ATOM     90  C   UNL A   1      42.541  21.075  26.618  1.00  0.00     0.060 A 
BRANCH  90  91
ATOM     91  S   UNL A   1      41.983  19.398  26.244  1.00  0.00     0.124 S 
ATOM     92  O   UNL A   1      42.325  18.691  27.474  1.00  0.00    -0.237 OA
ATOM     93  O   UNL A   1      40.559  19.601  25.999  1.00  0.00    -0.237 OA
ATOM     94  O   UNL A   1      42.768  19.036  25.068  1.00  0.00    -0.744 OA
ENDBRANCH  90  91
ENDBRANCH  58  83
BRANCH  70  95
ATOM     95  C   UNL A   1      40.765  29.654  29.397  1.00  0.00     0.058 A 
ATOM     96  C   UNL A   1      39.729  29.776  28.456  1.00  0.00     0.135 A 
ATOM     97  C   UNL A   1      40.449  29.888  30.745  1.00  0.00     0.135 A 
ATOM     98  F   UNL A   1      39.973  29.566  27.152  1.00  0.00    -0.206 F 
ATOM     99  C   UNL A   1      38.445  30.159  28.830  1.00  0.00     0.059 A 
ATOM    100  C   UNL A   1      39.163  30.238  31.147  1.00  0.00     0.059 A 
ATOM    101  F   UNL A   1      41.393  29.771  31.692  1.00  0.00    -0.206 F 
ATOM    102  C   UNL A   1      38.173  30.391  30.180  1.00  0.00     0.060 A 
BRANCH 102 103
ATOM    103  S   UNL A   1      36.503  30.891  30.653  1.00  0.00     0.124 S 
ATOM    104  O   UNL A   1      35.828  29.602  30.753  1.00  0.00    -0.237 OA
ATOM    105  O   UNL A   1      36.732  31.587  31.915  1.00  0.00    -0.237 OA
ATOM    106  O   UNL A   1      36.075  31.739  29.545  1.00  0.00    -0.744 OA
ENDBRANCH 102 103
ENDBRANCH  70  95
ENDBRANCH  44  45
ENDBRANCH  37  39
ENDBRANCH  36  37
ENDBRANCH  35  36
ENDBRANCH  34  35
ENDBRANCH  33  34
ENDBRANCH  32  33
ENDBRANCH  31  32
ENDBRANCH  30  31
ENDBRANCH  29  30
ENDBRANCH   1  29
TORSDOF 29
ENDMDL
