MODEL 1
REMARK VINA RESULT:      -8.0      0.000      0.000
REMARK SMILES CCCCCCNC(=O)Nc1cccc(-c2ccc([C@@H](C)C(=O)OCCOCCOCCOCCOC(=O)c3ccc(-c4c5nc(c(-c6c(F)cc(S(=O)(=O)[O-])cc6F)c6ccc([nH]6)c(-c6c(F)cc(S(=O)(=O)[O-])cc6F)c6nc(c(-c7c(F)cc(S(=O)(=O)[O-])cc7F)c7ccc4[nH]7)C=C6)C=C5)cc3)cc2F)c1
REMARK SMILES IDX 28 1 27 2 26 3 25 4 24 5 22 6 23 7 20 8 21 9 19 10 16 11
REMARK SMILES IDX 17 12 106 13 18 14 105 15 107 16 15 17 11 18 12 19 108 20
REMARK SMILES IDX 13 21 14 22 10 23 7 24 8 25 9 27 6 29 5 30 4 31 3 32 2 33
REMARK SMILES IDX 1 34 29 35 30 36 31 37 32 38 33 39 34 40 35 41 36 42 37 43
REMARK SMILES IDX 38 44 39 45 40 46 104 47 41 48 103 49 42 50 43 51 44 52
REMARK SMILES IDX 97 53 45 54 102 55 96 56 98 57 46 58 101 59 95 60 94 61
REMARK SMILES IDX 47 63 81 64 60 65 80 66 61 67 64 68 79 69 99 70 62 71 63 72
REMARK SMILES IDX 78 74 100 75 65 76 48 77 49 78 58 79 50 80 51 81 57 82 59 83
REMARK SMILES IDX 52 84 53 85 54 86 55 87 56 88 82 89 83 90 92 91 84 92 85 93
REMARK SMILES IDX 91 94 93 95 86 96 87 97 88 98 89 99 90 100 66 101 67 102
REMARK SMILES IDX 76 103 68 104 69 105 75 106 77 107 70 108 71 109 72 110
REMARK SMILES IDX 73 111 74 112
REMARK H PARENT 7 26 10 28 98 62 64 73
REMARK Flexibility Score: inf
ROOT
ATOM      1  C   UNL A   1      33.621  37.580  33.370  1.00  0.00     0.188 C 
ENDROOT
BRANCH   1   2
ATOM      2  O   UNL A   1      33.981  36.377  34.053  1.00  0.00    -0.376 OA
BRANCH   2   3
ATOM      3  C   UNL A   1      34.886  35.470  33.430  1.00  0.00     0.202 C 
BRANCH   3   4
ATOM      4  C   UNL A   1      34.689  33.996  33.764  1.00  0.00     0.261 C 
BRANCH   4   5
ATOM      5  O   UNL A   1      35.729  33.441  34.590  1.00  0.00    -0.463 OA
BRANCH   5   6
ATOM      6  C   UNL A   1      36.714  32.797  33.913  1.00  0.00     0.313 C 
ATOM      7  O   UNL A   1      36.550  31.776  33.249  1.00  0.00    -0.252 OA
BRANCH   6   8
ATOM      8  C   UNL A   1      38.097  33.355  34.165  1.00  0.00     0.126 C 
ATOM      9  C   UNL A   1      37.993  34.361  35.314  1.00  0.00     0.025 C 
BRANCH   8  10
ATOM     10  C   UNL A   1      38.906  33.909  33.001  1.00  0.00    -0.031 A 
ATOM     11  C   UNL A   1      40.531  34.419  30.693  1.00  0.00     0.018 A 
ATOM     12  C   UNL A   1      41.034  34.553  32.000  1.00  0.00     0.012 A 
ATOM     13  C   UNL A   1      39.172  34.105  30.581  1.00  0.00     0.131 A 
ATOM     14  C   UNL A   1      40.237  34.314  33.134  1.00  0.00     0.005 A 
ATOM     15  C   UNL A   1      38.372  33.857  31.704  1.00  0.00     0.044 A 
ATOM     16  F   UNL A   1      38.603  33.976  29.372  1.00  0.00    -0.206 F 
BRANCH  11  17
ATOM     17  C   UNL A   1      41.406  34.611  29.514  1.00  0.00    -0.013 A 
ATOM     18  C   UNL A   1      42.060  35.903  27.545  1.00  0.00     0.043 A 
ATOM     19  C   UNL A   1      43.197  35.123  27.364  1.00  0.00     0.026 A 
ATOM     20  C   UNL A   1      41.131  35.599  28.554  1.00  0.00     0.035 A 
ATOM     21  C   UNL A   1      43.484  34.132  28.296  1.00  0.00     0.003 A 
ATOM     22  C   UNL A   1      42.610  33.894  29.366  1.00  0.00     0.009 A 
BRANCH  18  23
ATOM     23  N   UNL A   1      41.962  37.098  26.826  1.00  0.00    -0.308 N 
ATOM     24  N   UNL A   1      42.827  38.606  28.432  1.00  0.00    -0.338 N 
ATOM     25  C   UNL A   1      42.103  38.365  27.305  1.00  0.00     0.319 C 
ATOM     26  H   UNL A   1      42.722  39.507  28.816  1.00  0.00     0.165 HD
ATOM     27  O   UNL A   1      41.666  39.318  26.661  1.00  0.00    -0.249 OA
ATOM     28  H   UNL A   1      41.771  37.015  25.864  1.00  0.00     0.171 HD
BRANCH  24  29
ATOM     29  C   UNL A   1      43.741  37.722  29.155  1.00  0.00     0.117 C 
BRANCH  29  30
ATOM     30  C   UNL A   1      44.586  38.408  30.210  1.00  0.00     0.021 C 
BRANCH  30  31
ATOM     31  C   UNL A   1      43.822  38.629  31.508  1.00  0.00     0.002 C 
BRANCH  31  32
ATOM     32  C   UNL A   1      43.604  37.487  32.486  1.00  0.00    -0.000 C 
BRANCH  32  33
ATOM     33  C   UNL A   1      44.554  36.299  32.376  1.00  0.00    -0.003 C 
ATOM     34  C   UNL A   1      45.145  35.844  33.698  1.00  0.00     0.004 C 
ENDBRANCH  32  33
ENDBRANCH  31  32
ENDBRANCH  30  31
ENDBRANCH  29  30
ENDBRANCH  24  29
ENDBRANCH  18  23
ENDBRANCH  11  17
ENDBRANCH   8  10
ENDBRANCH   6   8
ENDBRANCH   5   6
ENDBRANCH   4   5
ENDBRANCH   3   4
ENDBRANCH   2   3
ENDBRANCH   1   2
BRANCH   1  35
ATOM     35  C   UNL A   1      33.975  37.704  31.884  1.00  0.00     0.188 C 
BRANCH  35  36
ATOM     36  O   UNL A   1      32.901  37.429  30.985  1.00  0.00    -0.377 OA
BRANCH  36  37
ATOM     37  C   UNL A   1      32.305  36.144  31.109  1.00  0.00     0.188 C 
BRANCH  37  38
ATOM     38  C   UNL A   1      33.062  35.107  30.303  1.00  0.00     0.188 C 
BRANCH  38  39
ATOM     39  O   UNL A   1      33.659  35.633  29.120  1.00  0.00    -0.376 OA
BRANCH  39  40
ATOM     40  C   UNL A   1      34.807  34.875  28.726  1.00  0.00     0.202 C 
BRANCH  40  41
ATOM     41  C   UNL A   1      34.545  33.763  27.698  1.00  0.00     0.261 C 
BRANCH  41  42
ATOM     42  O   UNL A   1      35.444  32.636  27.671  1.00  0.00    -0.460 OA
BRANCH  42  43
ATOM     43  C   UNL A   1      35.055  31.398  28.056  1.00  0.00     0.338 C 
ATOM     44  O   UNL A   1      33.964  30.892  27.870  1.00  0.00    -0.246 OA
BRANCH  43  45
ATOM     45  C   UNL A   1      36.272  30.702  28.569  1.00  0.00     0.060 A 
ATOM     46  C   UNL A   1      36.172  29.643  29.482  1.00  0.00     0.016 A 
ATOM     47  C   UNL A   1      37.523  31.036  28.054  1.00  0.00     0.016 A 
ATOM     48  C   UNL A   1      37.326  28.937  29.889  1.00  0.00     0.010 A 
ATOM     49  C   UNL A   1      38.646  30.263  28.377  1.00  0.00     0.010 A 
ATOM     50  C   UNL A   1      38.584  29.251  29.355  1.00  0.00    -0.014 A 
BRANCH  50  51
ATOM     51  C   UNL A   1      39.873  28.730  29.927  1.00  0.00     0.031 A 
ATOM     52  C   UNL A   1      40.395  29.391  31.190  1.00  0.00     0.074 A 
ATOM     53  C   UNL A   1      40.630  27.765  29.358  1.00  0.00     0.049 A 
ATOM     54  N   UNL A   1      41.540  29.241  31.809  1.00  0.00    -0.248 NA
ATOM     55  C   UNL A   1      39.525  30.412  31.800  1.00  0.00     0.031 C 
ATOM     56  C   UNL A   1      40.326  27.044  28.125  1.00  0.00     0.029 A 
ATOM     57  N   UNL A   1      41.848  27.246  29.746  1.00  0.00    -0.354 N 
ATOM     58  C   UNL A   1      41.532  30.178  32.837  1.00  0.00     0.074 A 
ATOM     59  C   UNL A   1      40.338  30.974  32.676  1.00  0.00     0.031 C 
ATOM     60  C   UNL A   1      41.341  26.205  27.839  1.00  0.00     0.029 A 
ATOM     61  C   UNL A   1      42.364  26.308  28.879  1.00  0.00     0.049 A 
ATOM     62  H   UNL A   1      42.311  27.522  30.570  1.00  0.00     0.167 HD
ATOM     63  C   UNL A   1      42.383  30.327  33.880  1.00  0.00     0.037 A 
ATOM     64  C   UNL A   1      43.515  25.600  28.921  1.00  0.00     0.037 A 
ATOM     65  C   UNL A   1      43.512  29.479  34.123  1.00  0.00     0.049 A 
ATOM     66  C   UNL A   1      44.437  25.731  30.111  1.00  0.00     0.074 A 
ATOM     67  C   UNL A   1      44.361  29.468  35.215  1.00  0.00     0.029 A 
ATOM     68  N   UNL A   1      43.940  28.477  33.268  1.00  0.00    -0.354 N 
ATOM     69  N   UNL A   1      44.352  26.544  31.136  1.00  0.00    -0.248 NA
ATOM     70  C   UNL A   1      45.589  24.816  30.171  1.00  0.00     0.031 C 
ATOM     71  C   UNL A   1      45.318  28.467  35.011  1.00  0.00     0.029 A 
ATOM     72  C   UNL A   1      45.044  27.840  33.806  1.00  0.00     0.049 A 
ATOM     73  H   UNL A   1      43.520  28.251  32.407  1.00  0.00     0.167 HD
ATOM     74  C   UNL A   1      45.405  26.206  31.982  1.00  0.00     0.074 A 
ATOM     75  C   UNL A   1      46.122  25.122  31.347  1.00  0.00     0.031 C 
ATOM     76  C   UNL A   1      45.736  26.740  33.185  1.00  0.00     0.037 A 
BRANCH  63  77
ATOM     77  C   UNL A   1      42.068  31.425  34.858  1.00  0.00     0.058 A 
ATOM     78  C   UNL A   1      42.733  32.665  34.807  1.00  0.00     0.135 A 
ATOM     79  C   UNL A   1      41.140  31.223  35.889  1.00  0.00     0.135 A 
ATOM     80  F   UNL A   1      43.643  32.905  33.848  1.00  0.00    -0.206 F 
ATOM     81  C   UNL A   1      42.548  33.631  35.788  1.00  0.00     0.059 A 
ATOM     82  C   UNL A   1      40.909  32.194  36.860  1.00  0.00     0.059 A 
ATOM     83  F   UNL A   1      40.470  30.064  35.980  1.00  0.00    -0.206 F 
ATOM     84  C   UNL A   1      41.643  33.379  36.818  1.00  0.00     0.060 A 
BRANCH  84  85
ATOM     85  S   UNL A   1      41.452  34.617  38.117  1.00  0.00     0.124 S 
ATOM     86  O   UNL A   1      42.386  35.647  37.673  1.00  0.00    -0.237 OA
ATOM     87  O   UNL A   1      40.038  34.961  38.021  1.00  0.00    -0.237 OA
ATOM     88  O   UNL A   1      41.837  33.897  39.328  1.00  0.00    -0.744 OA
ENDBRANCH  84  85
ENDBRANCH  63  77
BRANCH  64  89
ATOM     89  C   UNL A   1      43.835  24.630  27.836  1.00  0.00     0.058 A 
ATOM     90  C   UNL A   1      43.502  23.273  27.962  1.00  0.00     0.135 A 
ATOM     91  C   UNL A   1      44.475  25.037  26.656  1.00  0.00     0.135 A 
ATOM     92  F   UNL A   1      42.910  22.831  29.082  1.00  0.00    -0.206 F 
ATOM     93  C   UNL A   1      43.791  22.352  26.959  1.00  0.00     0.059 A 
ATOM     94  C   UNL A   1      44.760  24.137  25.630  1.00  0.00     0.059 A 
ATOM     95  F   UNL A   1      44.816  26.323  26.485  1.00  0.00    -0.206 F 
ATOM     96  C   UNL A   1      44.413  22.795  25.791  1.00  0.00     0.060 A 
BRANCH  96  97
ATOM     97  S   UNL A   1      44.703  21.605  24.462  1.00  0.00     0.124 S 
ATOM     98  O   UNL A   1      43.735  20.563  24.781  1.00  0.00    -0.237 OA
ATOM     99  O   UNL A   1      44.415  22.402  23.273  1.00  0.00    -0.237 OA
ATOM    100  O   UNL A   1      46.106  21.241  24.638  1.00  0.00    -0.744 OA
ENDBRANCH  96  97
ENDBRANCH  64  89
BRANCH  76 101
ATOM    101  C   UNL A   1      46.887  26.135  33.939  1.00  0.00     0.058 A 
ATOM    102  C   UNL A   1      46.753  24.941  34.661  1.00  0.00     0.135 A 
ATOM    103  C   UNL A   1      48.166  26.711  33.855  1.00  0.00     0.135 A 
ATOM    104  F   UNL A   1      45.552  24.350  34.772  1.00  0.00    -0.206 F 
ATOM    105  C   UNL A   1      47.844  24.343  35.285  1.00  0.00     0.059 A 
ATOM    106  C   UNL A   1      49.275  26.119  34.452  1.00  0.00     0.059 A 
ATOM    107  F   UNL A   1      48.352  27.847  33.163  1.00  0.00    -0.206 F 
ATOM    108  C   UNL A   1      49.102  24.938  35.171  1.00  0.00     0.060 A 
BRANCH 108 109
ATOM    109  S   UNL A   1      50.522  24.124  35.937  1.00  0.00     0.124 S 
ATOM    110  O   UNL A   1      50.845  25.051  37.016  1.00  0.00    -0.237 OA
ATOM    111  O   UNL A   1      49.962  22.841  36.351  1.00  0.00    -0.237 OA
ATOM    112  O   UNL A   1      51.498  24.053  34.854  1.00  0.00    -0.744 OA
ENDBRANCH 108 109
ENDBRANCH  76 101
ENDBRANCH  50  51
ENDBRANCH  43  45
ENDBRANCH  42  43
ENDBRANCH  41  42
ENDBRANCH  40  41
ENDBRANCH  39  40
ENDBRANCH  38  39
ENDBRANCH  37  38
ENDBRANCH  36  37
ENDBRANCH  35  36
ENDBRANCH   1  35
TORSDOF 31
ENDMDL
MODEL 2
REMARK VINA RESULT:      -7.0      5.011     12.155
REMARK SMILES CCCCCCNC(=O)Nc1cccc(-c2ccc([C@@H](C)C(=O)OCCOCCOCCOCCOC(=O)c3ccc(-c4c5nc(c(-c6c(F)cc(S(=O)(=O)[O-])cc6F)c6ccc([nH]6)c(-c6c(F)cc(S(=O)(=O)[O-])cc6F)c6nc(c(-c7c(F)cc(S(=O)(=O)[O-])cc7F)c7ccc4[nH]7)C=C6)C=C5)cc3)cc2F)c1
REMARK SMILES IDX 28 1 27 2 26 3 25 4 24 5 22 6 23 7 20 8 21 9 19 10 16 11
REMARK SMILES IDX 17 12 106 13 18 14 105 15 107 16 15 17 11 18 12 19 108 20
REMARK SMILES IDX 13 21 14 22 10 23 7 24 8 25 9 27 6 29 5 30 4 31 3 32 2 33
REMARK SMILES IDX 1 34 29 35 30 36 31 37 32 38 33 39 34 40 35 41 36 42 37 43
REMARK SMILES IDX 38 44 39 45 40 46 104 47 41 48 103 49 42 50 43 51 44 52
REMARK SMILES IDX 97 53 45 54 102 55 96 56 98 57 46 58 101 59 95 60 94 61
REMARK SMILES IDX 47 63 81 64 60 65 80 66 61 67 64 68 79 69 99 70 62 71 63 72
REMARK SMILES IDX 78 74 100 75 65 76 48 77 49 78 58 79 50 80 51 81 57 82 59 83
REMARK SMILES IDX 52 84 53 85 54 86 55 87 56 88 82 89 83 90 92 91 84 92 85 93
REMARK SMILES IDX 91 94 93 95 86 96 87 97 88 98 89 99 90 100 66 101 67 102
REMARK SMILES IDX 76 103 68 104 69 105 75 106 77 107 70 108 71 109 72 110
REMARK SMILES IDX 73 111 74 112
REMARK H PARENT 7 26 10 28 98 62 64 73
REMARK Flexibility Score: inf
ROOT
ATOM      1  C   UNL A   1      35.237  23.259  25.113  1.00  0.00     0.188 C 
ENDROOT
BRANCH   1   2
ATOM      2  O   UNL A   1      34.646  23.579  23.851  1.00  0.00    -0.376 OA
BRANCH   2   3
ATOM      3  C   UNL A   1      33.322  24.103  23.818  1.00  0.00     0.202 C 
BRANCH   3   4
ATOM      4  C   UNL A   1      33.023  25.088  22.693  1.00  0.00     0.261 C 
BRANCH   4   5
ATOM      5  O   UNL A   1      32.006  26.054  23.019  1.00  0.00    -0.463 OA
BRANCH   5   6
ATOM      6  C   UNL A   1      32.450  27.145  23.694  1.00  0.00     0.313 C 
ATOM      7  O   UNL A   1      33.155  28.026  23.208  1.00  0.00    -0.252 OA
BRANCH   6   8
ATOM      8  C   UNL A   1      32.135  27.120  25.174  1.00  0.00     0.126 C 
ATOM      9  C   UNL A   1      30.653  26.776  25.330  1.00  0.00     0.025 C 
BRANCH   8  10
ATOM     10  C   UNL A   1      32.535  28.303  26.045  1.00  0.00    -0.031 A 
ATOM     11  C   UNL A   1      33.446  30.763  27.206  1.00  0.00     0.018 A 
ATOM     12  C   UNL A   1      34.221  29.590  27.247  1.00  0.00     0.012 A 
ATOM     13  C   UNL A   1      32.170  30.643  26.641  1.00  0.00     0.131 A 
ATOM     14  C   UNL A   1      33.773  28.379  26.689  1.00  0.00     0.005 A 
ATOM     15  C   UNL A   1      31.719  29.445  26.075  1.00  0.00     0.044 A 
ATOM     16  F   UNL A   1      31.355  31.708  26.576  1.00  0.00    -0.206 F 
BRANCH  11  17
ATOM     17  C   UNL A   1      33.965  32.042  27.741  1.00  0.00    -0.013 A 
ATOM     18  C   UNL A   1      35.846  33.466  28.380  1.00  0.00     0.043 A 
ATOM     19  C   UNL A   1      35.004  34.557  28.569  1.00  0.00     0.026 A 
ATOM     20  C   UNL A   1      35.325  32.203  28.054  1.00  0.00     0.035 A 
ATOM     21  C   UNL A   1      33.652  34.418  28.274  1.00  0.00     0.003 A 
ATOM     22  C   UNL A   1      33.146  33.182  27.849  1.00  0.00     0.009 A 
BRANCH  18  23
ATOM     23  N   UNL A   1      37.224  33.700  28.337  1.00  0.00    -0.308 N 
ATOM     24  N   UNL A   1      37.621  34.174  30.622  1.00  0.00    -0.338 N 
ATOM     25  C   UNL A   1      38.000  34.240  29.317  1.00  0.00     0.319 C 
ATOM     26  H   UNL A   1      38.130  34.748  31.239  1.00  0.00     0.165 HD
ATOM     27  O   UNL A   1      39.108  34.699  29.040  1.00  0.00    -0.249 OA
ATOM     28  H   UNL A   1      37.685  33.443  27.507  1.00  0.00     0.171 HD
BRANCH  24  29
ATOM     29  C   UNL A   1      36.566  33.372  31.242  1.00  0.00     0.117 C 
BRANCH  29  30
ATOM     30  C   UNL A   1      36.861  32.925  32.661  1.00  0.00     0.021 C 
BRANCH  30  31
ATOM     31  C   UNL A   1      35.607  32.475  33.398  1.00  0.00     0.002 C 
BRANCH  31  32
ATOM     32  C   UNL A   1      34.516  33.471  33.754  1.00  0.00    -0.000 C 
BRANCH  32  33
ATOM     33  C   UNL A   1      34.965  34.888  34.093  1.00  0.00    -0.003 C 
ATOM     34  C   UNL A   1      34.551  35.938  33.078  1.00  0.00     0.004 C 
ENDBRANCH  32  33
ENDBRANCH  31  32
ENDBRANCH  30  31
ENDBRANCH  29  30
ENDBRANCH  24  29
ENDBRANCH  18  23
ENDBRANCH  11  17
ENDBRANCH   8  10
ENDBRANCH   6   8
ENDBRANCH   5   6
ENDBRANCH   4   5
ENDBRANCH   3   4
ENDBRANCH   2   3
ENDBRANCH   1   2
BRANCH   1  35
ATOM     35  C   UNL A   1      36.707  23.628  25.338  1.00  0.00     0.188 C 
BRANCH  35  36
ATOM     36  O   UNL A   1      37.649  22.715  24.776  1.00  0.00    -0.377 OA
BRANCH  36  37
ATOM     37  C   UNL A   1      38.129  21.705  25.655  1.00  0.00     0.188 C 
BRANCH  37  38
ATOM     38  C   UNL A   1      39.534  22.015  26.132  1.00  0.00     0.188 C 
BRANCH  38  39
ATOM     39  O   UNL A   1      39.636  23.252  26.832  1.00  0.00    -0.376 OA
BRANCH  39  40
ATOM     40  C   UNL A   1      40.539  23.160  27.939  1.00  0.00     0.202 C 
BRANCH  40  41
ATOM     41  C   UNL A   1      41.828  23.987  27.812  1.00  0.00     0.261 C 
BRANCH  41  42
ATOM     42  O   UNL A   1      41.710  25.422  27.735  1.00  0.00    -0.460 OA
BRANCH  42  43
ATOM     43  C   UNL A   1      42.435  26.156  26.859  1.00  0.00     0.338 C 
ATOM     44  O   UNL A   1      42.646  25.888  25.690  1.00  0.00    -0.246 OA
BRANCH  43  45
ATOM     45  C   UNL A   1      42.756  27.447  27.537  1.00  0.00     0.060 A 
ATOM     46  C   UNL A   1      43.879  27.572  28.367  1.00  0.00     0.016 A 
ATOM     47  C   UNL A   1      41.989  28.577  27.260  1.00  0.00     0.016 A 
ATOM     48  C   UNL A   1      44.218  28.823  28.929  1.00  0.00     0.010 A 
ATOM     49  C   UNL A   1      42.392  29.833  27.732  1.00  0.00     0.010 A 
ATOM     50  C   UNL A   1      43.466  29.969  28.634  1.00  0.00    -0.014 A 
BRANCH  50  51
ATOM     51  C   UNL A   1      43.604  31.261  29.391  1.00  0.00     0.031 A 
ATOM     52  C   UNL A   1      44.668  32.236  28.920  1.00  0.00     0.074 A 
ATOM     53  C   UNL A   1      42.898  31.579  30.499  1.00  0.00     0.049 A 
ATOM     54  N   UNL A   1      45.096  33.346  29.469  1.00  0.00    -0.248 NA
ATOM     55  C   UNL A   1      45.390  31.870  27.689  1.00  0.00     0.031 C 
ATOM     56  C   UNL A   1      41.870  30.760  31.133  1.00  0.00     0.029 A 
ATOM     57  N   UNL A   1      42.973  32.693  31.311  1.00  0.00    -0.354 N 
ATOM     58  C   UNL A   1      46.158  33.767  28.675  1.00  0.00     0.074 A 
ATOM     59  C   UNL A   1      46.390  32.732  27.694  1.00  0.00     0.031 C 
ATOM     60  C   UNL A   1      41.435  31.376  32.250  1.00  0.00     0.029 A 
ATOM     61  C   UNL A   1      42.136  32.651  32.405  1.00  0.00     0.049 A 
ATOM     62  H   UNL A   1      43.572  33.451  31.127  1.00  0.00     0.167 HD
ATOM     63  C   UNL A   1      46.836  34.939  28.685  1.00  0.00     0.037 A 
ATOM     64  C   UNL A   1      41.941  33.537  33.406  1.00  0.00     0.037 A 
ATOM     65  C   UNL A   1      46.550  36.025  29.575  1.00  0.00     0.049 A 
ATOM     66  C   UNL A   1      42.662  34.865  33.387  1.00  0.00     0.074 A 
ATOM     67  C   UNL A   1      47.094  37.297  29.584  1.00  0.00     0.029 A 
ATOM     68  N   UNL A   1      45.625  35.973  30.604  1.00  0.00    -0.354 N 
ATOM     69  N   UNL A   1      43.582  35.294  32.558  1.00  0.00    -0.248 NA
ATOM     70  C   UNL A   1      42.284  35.848  34.417  1.00  0.00     0.031 C 
ATOM     71  C   UNL A   1      46.509  38.011  30.636  1.00  0.00     0.029 A 
ATOM     72  C   UNL A   1      45.582  37.191  31.259  1.00  0.00     0.049 A 
ATOM     73  H   UNL A   1      45.079  35.188  30.835  1.00  0.00     0.167 HD
ATOM     74  C   UNL A   1      43.855  36.607  32.934  1.00  0.00     0.074 A 
ATOM     75  C   UNL A   1      43.012  36.902  34.071  1.00  0.00     0.031 C 
ATOM     76  C   UNL A   1      44.719  37.490  32.373  1.00  0.00     0.037 A 
BRANCH  63  77
ATOM     77  C   UNL A   1      47.917  35.104  27.652  1.00  0.00     0.058 A 
ATOM     78  C   UNL A   1      49.267  34.842  27.955  1.00  0.00     0.135 A 
ATOM     79  C   UNL A   1      47.615  35.581  26.368  1.00  0.00     0.135 A 
ATOM     80  F   UNL A   1      49.612  34.399  29.175  1.00  0.00    -0.206 F 
ATOM     81  C   UNL A   1      50.283  35.125  27.051  1.00  0.00     0.059 A 
ATOM     82  C   UNL A   1      48.615  35.832  25.433  1.00  0.00     0.059 A 
ATOM     83  F   UNL A   1      46.344  35.837  26.022  1.00  0.00    -0.206 F 
ATOM     84  C   UNL A   1      49.947  35.632  25.797  1.00  0.00     0.060 A 
BRANCH  84  85
ATOM     85  S   UNL A   1      51.278  36.048  24.652  1.00  0.00     0.124 S 
ATOM     86  O   UNL A   1      52.173  36.811  25.515  1.00  0.00    -0.237 OA
ATOM     87  O   UNL A   1      51.762  34.735  24.240  1.00  0.00    -0.237 OA
ATOM     88  O   UNL A   1      50.600  36.816  23.612  1.00  0.00    -0.744 OA
ENDBRANCH  84  85
ENDBRANCH  63  77
BRANCH  64  89
ATOM     89  C   UNL A   1      40.956  33.242  34.484  1.00  0.00     0.058 A 
ATOM     90  C   UNL A   1      39.696  33.861  34.498  1.00  0.00     0.135 A 
ATOM     91  C   UNL A   1      41.248  32.338  35.516  1.00  0.00     0.135 A 
ATOM     92  F   UNL A   1      39.378  34.750  33.545  1.00  0.00    -0.206 F 
ATOM     93  C   UNL A   1      38.761  33.596  35.494  1.00  0.00     0.059 A 
ATOM     94  C   UNL A   1      40.323  32.043  36.516  1.00  0.00     0.059 A 
ATOM     95  F   UNL A   1      42.438  31.719  35.551  1.00  0.00    -0.206 F 
ATOM     96  C   UNL A   1      39.080  32.678  36.496  1.00  0.00     0.060 A 
BRANCH  96  97
ATOM     97  S   UNL A   1      37.824  32.280  37.733  1.00  0.00     0.124 S 
ATOM     98  O   UNL A   1      36.742  33.182  37.359  1.00  0.00    -0.237 OA
ATOM     99  O   UNL A   1      37.590  30.861  37.481  1.00  0.00    -0.237 OA
ATOM    100  O   UNL A   1      38.491  32.581  38.997  1.00  0.00    -0.744 OA
ENDBRANCH  96  97
ENDBRANCH  64  89
BRANCH  76 101
ATOM    101  C   UNL A   1      44.770  38.886  32.929  1.00  0.00     0.058 A 
ATOM    102  C   UNL A   1      45.678  39.249  33.933  1.00  0.00     0.135 A 
ATOM    103  C   UNL A   1      43.961  39.895  32.379  1.00  0.00     0.135 A 
ATOM    104  F   UNL A   1      46.474  38.324  34.492  1.00  0.00    -0.206 F 
ATOM    105  C   UNL A   1      45.777  40.564  34.382  1.00  0.00     0.059 A 
ATOM    106  C   UNL A   1      44.058  41.219  32.797  1.00  0.00     0.059 A 
ATOM    107  F   UNL A   1      43.084  39.602  31.405  1.00  0.00    -0.206 F 
ATOM    108  C   UNL A   1      44.965  41.542  33.803  1.00  0.00     0.060 A 
BRANCH 108 109
ATOM    109  S   UNL A   1      45.141  43.254  34.354  1.00  0.00     0.124 S 
ATOM    110  O   UNL A   1      46.259  43.150  35.285  1.00  0.00    -0.237 OA
ATOM    111  O   UNL A   1      45.419  43.958  33.106  1.00  0.00    -0.237 OA
ATOM    112  O   UNL A   1      43.844  43.551  34.957  1.00  0.00    -0.744 OA
ENDBRANCH 108 109
ENDBRANCH  76 101
ENDBRANCH  50  51
ENDBRANCH  43  45
ENDBRANCH  42  43
ENDBRANCH  41  42
ENDBRANCH  40  41
ENDBRANCH  39  40
ENDBRANCH  38  39
ENDBRANCH  37  38
ENDBRANCH  36  37
ENDBRANCH  35  36
ENDBRANCH   1  35
TORSDOF 31
ENDMDL
MODEL 3
REMARK VINA RESULT:      -6.6      3.636     10.189
REMARK SMILES CCCCCCNC(=O)Nc1cccc(-c2ccc([C@@H](C)C(=O)OCCOCCOCCOCCOC(=O)c3ccc(-c4c5nc(c(-c6c(F)cc(S(=O)(=O)[O-])cc6F)c6ccc([nH]6)c(-c6c(F)cc(S(=O)(=O)[O-])cc6F)c6nc(c(-c7c(F)cc(S(=O)(=O)[O-])cc7F)c7ccc4[nH]7)C=C6)C=C5)cc3)cc2F)c1
REMARK SMILES IDX 28 1 27 2 26 3 25 4 24 5 22 6 23 7 20 8 21 9 19 10 16 11
REMARK SMILES IDX 17 12 106 13 18 14 105 15 107 16 15 17 11 18 12 19 108 20
REMARK SMILES IDX 13 21 14 22 10 23 7 24 8 25 9 27 6 29 5 30 4 31 3 32 2 33
REMARK SMILES IDX 1 34 29 35 30 36 31 37 32 38 33 39 34 40 35 41 36 42 37 43
REMARK SMILES IDX 38 44 39 45 40 46 104 47 41 48 103 49 42 50 43 51 44 52
REMARK SMILES IDX 97 53 45 54 102 55 96 56 98 57 46 58 101 59 95 60 94 61
REMARK SMILES IDX 47 63 81 64 60 65 80 66 61 67 64 68 79 69 99 70 62 71 63 72
REMARK SMILES IDX 78 74 100 75 65 76 48 77 49 78 58 79 50 80 51 81 57 82 59 83
REMARK SMILES IDX 52 84 53 85 54 86 55 87 56 88 82 89 83 90 92 91 84 92 85 93
REMARK SMILES IDX 91 94 93 95 86 96 87 97 88 98 89 99 90 100 66 101 67 102
REMARK SMILES IDX 76 103 68 104 69 105 75 106 77 107 70 108 71 109 72 110
REMARK SMILES IDX 73 111 74 112
REMARK H PARENT 7 26 10 28 98 62 64 73
REMARK Flexibility Score: inf
ROOT
ATOM      1  C   UNL A   1      34.531  23.243  24.920  1.00  0.00     0.188 C 
ENDROOT
BRANCH   1   2
ATOM      2  O   UNL A   1      34.474  24.478  24.202  1.00  0.00    -0.376 OA
BRANCH   2   3
ATOM      3  C   UNL A   1      33.389  25.370  24.440  1.00  0.00     0.202 C 
BRANCH   3   4
ATOM      4  C   UNL A   1      33.192  26.472  23.405  1.00  0.00     0.261 C 
BRANCH   4   5
ATOM      5  O   UNL A   1      32.507  27.633  23.912  1.00  0.00    -0.463 OA
BRANCH   5   6
ATOM      6  C   UNL A   1      33.279  28.478  24.642  1.00  0.00     0.313 C 
ATOM      7  O   UNL A   1      34.465  28.709  24.416  1.00  0.00    -0.252 OA
BRANCH   6   8
ATOM      8  C   UNL A   1      32.598  29.015  25.882  1.00  0.00     0.126 C 
ATOM      9  C   UNL A   1      31.383  29.829  25.432  1.00  0.00     0.025 C 
BRANCH   8  10
ATOM     10  C   UNL A   1      33.420  29.756  26.927  1.00  0.00    -0.031 A 
ATOM     11  C   UNL A   1      35.237  31.364  28.456  1.00  0.00     0.018 A 
ATOM     12  C   UNL A   1      35.426  29.979  28.294  1.00  0.00     0.012 A 
ATOM     13  C   UNL A   1      34.070  31.900  27.900  1.00  0.00     0.131 A 
ATOM     14  C   UNL A   1      34.531  29.186  27.554  1.00  0.00     0.005 A 
ATOM     15  C   UNL A   1      33.177  31.120  27.154  1.00  0.00     0.044 A 
ATOM     16  F   UNL A   1      33.800  33.209  28.021  1.00  0.00    -0.206 F 
BRANCH  11  17
ATOM     17  C   UNL A   1      36.228  32.191  29.184  1.00  0.00    -0.013 A 
ATOM     18  C   UNL A   1      37.036  33.194  31.260  1.00  0.00     0.043 A 
ATOM     19  C   UNL A   1      38.219  33.597  30.649  1.00  0.00     0.026 A 
ATOM     20  C   UNL A   1      36.016  32.576  30.518  1.00  0.00     0.035 A 
ATOM     21  C   UNL A   1      38.445  33.235  29.326  1.00  0.00     0.003 A 
ATOM     22  C   UNL A   1      37.470  32.526  28.611  1.00  0.00     0.009 A 
BRANCH  18  23
ATOM     23  N   UNL A   1      36.966  33.250  32.656  1.00  0.00    -0.308 N 
ATOM     24  N   UNL A   1      37.674  31.053  33.181  1.00  0.00    -0.338 N 
ATOM     25  C   UNL A   1      37.042  32.208  33.528  1.00  0.00     0.319 C 
ATOM     26  H   UNL A   1      37.520  30.291  33.785  1.00  0.00     0.165 HD
ATOM     27  O   UNL A   1      36.634  32.341  34.682  1.00  0.00    -0.249 OA
ATOM     28  H   UNL A   1      36.850  34.143  33.052  1.00  0.00     0.171 HD
BRANCH  24  29
ATOM     29  C   UNL A   1      38.550  30.782  32.042  1.00  0.00     0.117 C 
BRANCH  29  30
ATOM     30  C   UNL A   1      38.637  29.321  31.643  1.00  0.00     0.021 C 
BRANCH  30  31
ATOM     31  C   UNL A   1      40.037  28.927  31.194  1.00  0.00     0.002 C 
BRANCH  31  32
ATOM     32  C   UNL A   1      40.325  28.610  29.736  1.00  0.00    -0.000 C 
BRANCH  32  33
ATOM     33  C   UNL A   1      40.031  29.712  28.723  1.00  0.00    -0.003 C 
ATOM     34  C   UNL A   1      39.222  29.260  27.521  1.00  0.00     0.004 C 
ENDBRANCH  32  33
ENDBRANCH  31  32
ENDBRANCH  30  31
ENDBRANCH  29  30
ENDBRANCH  24  29
ENDBRANCH  18  23
ENDBRANCH  11  17
ENDBRANCH   8  10
ENDBRANCH   6   8
ENDBRANCH   5   6
ENDBRANCH   4   5
ENDBRANCH   3   4
ENDBRANCH   2   3
ENDBRANCH   1   2
BRANCH   1  35
ATOM     35  C   UNL A   1      35.853  22.855  25.590  1.00  0.00     0.188 C 
BRANCH  35  36
ATOM     36  O   UNL A   1      36.822  22.276  24.716  1.00  0.00    -0.377 OA
BRANCH  36  37
ATOM     37  C   UNL A   1      37.191  20.934  25.007  1.00  0.00     0.188 C 
BRANCH  37  38
ATOM     38  C   UNL A   1      38.654  20.836  25.390  1.00  0.00     0.188 C 
BRANCH  38  39
ATOM     39  O   UNL A   1      39.033  21.746  26.420  1.00  0.00    -0.376 OA
BRANCH  39  40
ATOM     40  C   UNL A   1      40.341  21.456  26.926  1.00  0.00     0.202 C 
BRANCH  40  41
ATOM     41  C   UNL A   1      41.432  21.255  25.862  1.00  0.00     0.261 C 
BRANCH  41  42
ATOM     42  O   UNL A   1      42.225  22.397  25.479  1.00  0.00    -0.460 OA
BRANCH  42  43
ATOM     43  C   UNL A   1      43.563  22.441  25.682  1.00  0.00     0.338 C 
ATOM     44  O   UNL A   1      44.411  21.827  25.062  1.00  0.00    -0.246 OA
BRANCH  43  45
ATOM     45  C   UNL A   1      43.814  23.533  26.669  1.00  0.00     0.060 A 
ATOM     46  C   UNL A   1      44.989  24.296  26.626  1.00  0.00     0.016 A 
ATOM     47  C   UNL A   1      42.819  23.873  27.585  1.00  0.00     0.016 A 
ATOM     48  C   UNL A   1      45.171  25.382  27.510  1.00  0.00     0.010 A 
ATOM     49  C   UNL A   1      42.960  25.016  28.383  1.00  0.00     0.010 A 
ATOM     50  C   UNL A   1      44.164  25.745  28.416  1.00  0.00    -0.014 A 
BRANCH  50  51
ATOM     51  C   UNL A   1      44.387  26.707  29.550  1.00  0.00     0.031 A 
ATOM     52  C   UNL A   1      44.741  26.119  30.905  1.00  0.00     0.074 A 
ATOM     53  C   UNL A   1      44.227  28.046  29.463  1.00  0.00     0.049 A 
ATOM     54  N   UNL A   1      44.844  26.700  32.074  1.00  0.00    -0.248 NA
ATOM     55  C   UNL A   1      44.943  24.660  30.951  1.00  0.00     0.031 C 
ATOM     56  C   UNL A   1      43.845  28.794  28.268  1.00  0.00     0.029 A 
ATOM     57  N   UNL A   1      44.340  29.021  30.433  1.00  0.00    -0.354 N 
ATOM     58  C   UNL A   1      45.072  25.670  32.982  1.00  0.00     0.074 A 
ATOM     59  C   UNL A   1      44.959  24.430  32.251  1.00  0.00     0.031 C 
ATOM     60  C   UNL A   1      43.723  30.099  28.581  1.00  0.00     0.029 A 
ATOM     61  C   UNL A   1      44.038  30.292  29.996  1.00  0.00     0.049 A 
ATOM     62  H   UNL A   1      44.613  28.826  31.359  1.00  0.00     0.167 HD
ATOM     63  C   UNL A   1      45.429  25.729  34.286  1.00  0.00     0.037 A 
ATOM     64  C   UNL A   1      44.030  31.475  30.649  1.00  0.00     0.037 A 
ATOM     65  C   UNL A   1      45.656  26.948  35.004  1.00  0.00     0.049 A 
ATOM     66  C   UNL A   1      44.478  31.544  32.090  1.00  0.00     0.074 A 
ATOM     67  C   UNL A   1      46.140  27.113  36.289  1.00  0.00     0.029 A 
ATOM     68  N   UNL A   1      45.432  28.214  34.490  1.00  0.00    -0.354 N 
ATOM     69  N   UNL A   1      44.803  30.566  32.901  1.00  0.00    -0.248 NA
ATOM     70  C   UNL A   1      44.600  32.882  32.691  1.00  0.00     0.031 C 
ATOM     71  C   UNL A   1      46.190  28.485  36.560  1.00  0.00     0.029 A 
ATOM     72  C   UNL A   1      45.765  29.170  35.433  1.00  0.00     0.049 A 
ATOM     73  H   UNL A   1      45.088  28.406  33.588  1.00  0.00     0.167 HD
ATOM     74  C   UNL A   1      45.213  31.172  34.086  1.00  0.00     0.074 A 
ATOM     75  C   UNL A   1      45.087  32.600  33.893  1.00  0.00     0.031 C 
ATOM     76  C   UNL A   1      45.667  30.592  35.226  1.00  0.00     0.037 A 
BRANCH  63  77
ATOM     77  C   UNL A   1      45.646  24.416  34.988  1.00  0.00     0.058 A 
ATOM     78  C   UNL A   1      46.940  23.914  35.220  1.00  0.00     0.135 A 
ATOM     79  C   UNL A   1      44.557  23.624  35.380  1.00  0.00     0.135 A 
ATOM     80  F   UNL A   1      48.017  24.625  34.849  1.00  0.00    -0.206 F 
ATOM     81  C   UNL A   1      47.145  22.643  35.741  1.00  0.00     0.059 A 
ATOM     82  C   UNL A   1      44.741  22.364  35.942  1.00  0.00     0.059 A 
ATOM     83  F   UNL A   1      43.301  24.058  35.193  1.00  0.00    -0.206 F 
ATOM     84  C   UNL A   1      46.037  21.870  36.086  1.00  0.00     0.060 A 
BRANCH  84  85
ATOM     85  S   UNL A   1      46.314  20.199  36.709  1.00  0.00     0.124 S 
ATOM     86  O   UNL A   1      47.711  19.985  36.348  1.00  0.00    -0.237 OA
ATOM     87  O   UNL A   1      46.043  20.344  38.135  1.00  0.00    -0.237 OA
ATOM     88  O   UNL A   1      45.342  19.399  35.969  1.00  0.00    -0.744 OA
ENDBRANCH  84  85
ENDBRANCH  63  77
BRANCH  64  89
ATOM     89  C   UNL A   1      43.660  32.724  29.925  1.00  0.00     0.058 A 
ATOM     90  C   UNL A   1      42.362  33.249  30.011  1.00  0.00     0.135 A 
ATOM     91  C   UNL A   1      44.592  33.418  29.139  1.00  0.00     0.135 A 
ATOM     92  F   UNL A   1      41.429  32.610  30.732  1.00  0.00    -0.206 F 
ATOM     93  C   UNL A   1      41.998  34.416  29.345  1.00  0.00     0.059 A 
ATOM     94  C   UNL A   1      44.258  34.597  28.476  1.00  0.00     0.059 A 
ATOM     95  F   UNL A   1      45.848  32.959  29.022  1.00  0.00    -0.206 F 
ATOM     96  C   UNL A   1      42.957  35.089  28.585  1.00  0.00     0.060 A 
BRANCH  96  97
ATOM     97  S   UNL A   1      42.494  36.648  27.797  1.00  0.00     0.124 S 
ATOM     98  O   UNL A   1      43.369  36.663  26.631  1.00  0.00    -0.237 OA
ATOM     99  O   UNL A   1      41.074  36.442  27.527  1.00  0.00    -0.237 OA
ATOM    100  O   UNL A   1      42.789  37.644  28.823  1.00  0.00    -0.744 OA
ENDBRANCH  96  97
ENDBRANCH  64  89
BRANCH  76 101
ATOM    101  C   UNL A   1      46.123  31.485  36.345  1.00  0.00     0.058 A 
ATOM    102  C   UNL A   1      47.433  31.980  36.410  1.00  0.00     0.135 A 
ATOM    103  C   UNL A   1      45.206  31.928  37.314  1.00  0.00     0.135 A 
ATOM    104  F   UNL A   1      48.348  31.589  35.509  1.00  0.00    -0.206 F 
ATOM    105  C   UNL A   1      47.824  32.876  37.402  1.00  0.00     0.059 A 
ATOM    106  C   UNL A   1      45.568  32.839  38.301  1.00  0.00     0.059 A 
ATOM    107  F   UNL A   1      43.935  31.495  37.288  1.00  0.00    -0.206 F 
ATOM    108  C   UNL A   1      46.881  33.302  38.341  1.00  0.00     0.060 A 
BRANCH 108 109
ATOM    109  S   UNL A   1      47.383  34.507  39.591  1.00  0.00     0.124 S 
ATOM    110  O   UNL A   1      47.749  35.652  38.765  1.00  0.00    -0.237 OA
ATOM    111  O   UNL A   1      46.169  34.660  40.385  1.00  0.00    -0.237 OA
ATOM    112  O   UNL A   1      48.491  33.844  40.274  1.00  0.00    -0.744 OA
ENDBRANCH 108 109
ENDBRANCH  76 101
ENDBRANCH  50  51
ENDBRANCH  43  45
ENDBRANCH  42  43
ENDBRANCH  41  42
ENDBRANCH  40  41
ENDBRANCH  39  40
ENDBRANCH  38  39
ENDBRANCH  37  38
ENDBRANCH  36  37
ENDBRANCH  35  36
ENDBRANCH   1  35
TORSDOF 31
ENDMDL
