MODEL 1
REMARK VINA RESULT:     -10.4      0.000      0.000
REMARK SMILES C[C@@H]1CC[C@H](C)[N@H+]1Cc1cc2c(cc1Cl)C=C(C(=O)OCCOCCOCCOCCOC(=O)c1ccc(-c3c4nc(c(-c5c(F)cc(S(=O)(=O)[O-])cc5F)c5ccc([nH]5)c(-c5c(F)cc(S(=O)(=O)[O-])cc5F)c5nc(c(-c6c(F)cc(S(=O)(=O)[O-])cc6F)c6ccc3[nH]6)C=C5)C=C4)cc1)[C@@H](C(F)(F)F)O2
REMARK SMILES IDX 27 1 26 2 25 3 24 4 23 5 22 6 21 7 20 8 18 9 19 10 17 11
REMARK SMILES IDX 9 12 10 13 14 14 11 15 13 16 15 17 12 18 106 19 16 20 101 21
REMARK SMILES IDX 8 22 7 23 6 24 5 25 4 26 3 27 2 28 1 30 102 31 103 32 104 33
REMARK SMILES IDX 105 34 28 35 29 36 30 37 31 38 32 39 33 40 34 41 35 42 36 43
REMARK SMILES IDX 100 44 37 45 99 46 38 47 39 48 40 49 93 50 41 51 98 52 92 53
REMARK SMILES IDX 94 54 42 55 97 56 91 57 90 58 43 60 77 61 56 62 76 63 57 64
REMARK SMILES IDX 60 65 75 66 95 67 58 68 59 69 74 71 96 72 61 73 44 74 45 75
REMARK SMILES IDX 54 76 46 77 47 78 53 79 55 80 48 81 49 82 50 83 51 84 52 85
REMARK SMILES IDX 78 86 79 87 88 88 80 89 81 90 87 91 89 92 82 93 83 94 84 95
REMARK SMILES IDX 85 96 86 97 62 98 63 99 72 100 64 101 65 102 71 103 73 104
REMARK SMILES IDX 66 105 67 106 68 107 69 108 70 109
REMARK H PARENT 7 29 94 59 60 70
REMARK Flexibility Score: inf
ROOT
ATOM      1  C   UNL A   1      41.742  19.508  26.131  1.00  0.00     0.188 C 
ENDROOT
BRANCH   1   2
ATOM      2  O   UNL A   1      40.581  19.249  25.342  1.00  0.00    -0.377 OA
BRANCH   2   3
ATOM      3  C   UNL A   1      39.312  19.564  25.882  1.00  0.00     0.188 C 
BRANCH   3   4
ATOM      4  C   UNL A   1      38.523  20.601  25.064  1.00  0.00     0.188 C 
BRANCH   4   5
ATOM      5  O   UNL A   1      37.166  20.736  25.476  1.00  0.00    -0.376 OA
BRANCH   5   6
ATOM      6  C   UNL A   1      36.346  21.633  24.736  1.00  0.00     0.202 C 
BRANCH   6   7
ATOM      7  C   UNL A   1      34.901  21.187  24.454  1.00  0.00     0.261 C 
BRANCH   7   8
ATOM      8  O   UNL A   1      34.435  20.097  25.267  1.00  0.00    -0.460 OA
BRANCH   8   9
ATOM      9  C   UNL A   1      33.108  19.881  25.280  1.00  0.00     0.338 C 
ATOM     10  O   UNL A   1      32.547  18.807  25.427  1.00  0.00    -0.246 OA
BRANCH   9  11
ATOM     11  C   UNL A   1      32.414  21.186  25.295  1.00  0.00     0.087 C 
ATOM     12  C   UNL A   1      30.617  25.708  23.998  1.00  0.00     0.029 A 
ATOM     13  C   UNL A   1      30.607  24.948  25.195  1.00  0.00     0.058 A 
ATOM     14  C   UNL A   1      31.171  25.103  22.856  1.00  0.00     0.050 A 
ATOM     15  C   UNL A   1      31.131  23.649  25.240  1.00  0.00     0.128 A 
ATOM     16  C   UNL A   1      31.582  23.768  22.877  1.00  0.00     0.033 A 
ATOM     17  Cl  UNL A   1      31.554  25.963  21.404  1.00  0.00    -0.084 Cl
ATOM     18  C   UNL A   1      31.592  23.053  24.071  1.00  0.00     0.019 A 
ATOM     19  O   UNL A   1      31.174  23.025  26.457  1.00  0.00    -0.475 OA
ATOM     20  C   UNL A   1      32.175  21.728  24.097  1.00  0.00     0.027 C 
ATOM     21  C   UNL A   1      32.009  21.827  26.597  1.00  0.00     0.316 C 
BRANCH  12  22
ATOM     22  C   UNL A   1      30.122  27.146  24.029  1.00  0.00     0.301 C 
BRANCH  22  23
ATOM     23  N   UNL A   1      31.108  28.227  24.170  1.00  0.00    -0.327 N 
ATOM     24  C   UNL A   1      31.121  29.787  22.256  1.00  0.00     0.075 C 
ATOM     25  C   UNL A   1      31.825  28.628  22.953  1.00  0.00     0.181 C 
ATOM     26  C   UNL A   1      33.219  29.037  23.430  1.00  0.00     0.071 C 
ATOM     27  C   UNL A   1      33.432  28.165  24.648  1.00  0.00     0.071 C 
ATOM     28  C   UNL A   1      32.052  28.114  25.285  1.00  0.00     0.181 C 
ATOM     29  H   UNL A   1      30.462  28.982  24.401  1.00  0.00     0.348 HD
ATOM     30  C   UNL A   1      31.817  29.261  26.270  1.00  0.00     0.075 C 
ENDBRANCH  22  23
ENDBRANCH  12  22
BRANCH  21  31
ATOM     31  C   UNL A   1      33.239  22.142  27.461  1.00  0.00     0.430 C 
ATOM     32  F   UNL A   1      32.883  22.613  28.678  1.00  0.00    -0.167 F 
ATOM     33  F   UNL A   1      33.995  21.038  27.664  1.00  0.00    -0.167 F 
ATOM     34  F   UNL A   1      34.031  23.073  26.878  1.00  0.00    -0.167 F 
ENDBRANCH  21  31
ENDBRANCH   9  11
ENDBRANCH   8   9
ENDBRANCH   7   8
ENDBRANCH   6   7
ENDBRANCH   5   6
ENDBRANCH   4   5
ENDBRANCH   3   4
ENDBRANCH   2   3
ENDBRANCH   1   2
BRANCH   1  35
ATOM     35  C   UNL A   1      42.304  20.933  26.348  1.00  0.00     0.188 C 
BRANCH  35  36
ATOM     36  O   UNL A   1      42.059  21.477  27.643  1.00  0.00    -0.376 OA
BRANCH  36  37
ATOM     37  C   UNL A   1      42.678  22.721  27.939  1.00  0.00     0.202 C 
BRANCH  37  38
ATOM     38  C   UNL A   1      42.928  23.601  26.710  1.00  0.00     0.261 C 
BRANCH  38  39
ATOM     39  O   UNL A   1      41.807  24.390  26.287  1.00  0.00    -0.460 OA
BRANCH  39  40
ATOM     40  C   UNL A   1      42.040  25.664  25.895  1.00  0.00     0.338 C 
ATOM     41  O   UNL A   1      42.310  26.051  24.772  1.00  0.00    -0.246 OA
BRANCH  40  42
ATOM     42  C   UNL A   1      41.709  26.534  27.042  1.00  0.00     0.060 A 
ATOM     43  C   UNL A   1      40.751  26.129  27.974  1.00  0.00     0.016 A 
ATOM     44  C   UNL A   1      42.323  27.789  27.152  1.00  0.00     0.016 A 
ATOM     45  C   UNL A   1      40.422  26.973  29.033  1.00  0.00     0.010 A 
ATOM     46  C   UNL A   1      41.986  28.636  28.212  1.00  0.00     0.010 A 
ATOM     47  C   UNL A   1      41.048  28.223  29.170  1.00  0.00    -0.014 A 
BRANCH  47  48
ATOM     48  C   UNL A   1      40.840  29.003  30.412  1.00  0.00     0.031 A 
ATOM     49  C   UNL A   1      41.714  28.834  31.617  1.00  0.00     0.074 A 
ATOM     50  C   UNL A   1      39.837  29.901  30.421  1.00  0.00     0.049 A 
ATOM     51  N   UNL A   1      41.711  29.519  32.731  1.00  0.00    -0.248 NA
ATOM     52  C   UNL A   1      42.715  27.759  31.572  1.00  0.00     0.031 C 
ATOM     53  C   UNL A   1      38.912  30.131  29.308  1.00  0.00     0.029 A 
ATOM     54  N   UNL A   1      39.435  30.793  31.379  1.00  0.00    -0.354 N 
ATOM     55  C   UNL A   1      42.723  28.982  33.515  1.00  0.00     0.074 A 
ATOM     56  C   UNL A   1      43.289  27.878  32.763  1.00  0.00     0.031 C 
ATOM     57  C   UNL A   1      38.066  31.118  29.638  1.00  0.00     0.029 A 
ATOM     58  C   UNL A   1      38.375  31.576  30.990  1.00  0.00     0.049 A 
ATOM     59  H   UNL A   1      39.864  30.866  32.262  1.00  0.00     0.167 HD
ATOM     60  C   UNL A   1      43.146  29.386  34.737  1.00  0.00     0.037 A 
ATOM     61  C   UNL A   1      37.726  32.558  31.642  1.00  0.00     0.037 A 
ATOM     62  C   UNL A   1      42.559  30.475  35.482  1.00  0.00     0.049 A 
ATOM     63  C   UNL A   1      38.188  32.954  33.015  1.00  0.00     0.074 A 
ATOM     64  C   UNL A   1      42.946  30.984  36.711  1.00  0.00     0.029 A 
ATOM     65  N   UNL A   1      41.454  31.212  35.080  1.00  0.00    -0.354 N 
ATOM     66  N   UNL A   1      39.193  32.484  33.712  1.00  0.00    -0.248 NA
ATOM     67  C   UNL A   1      37.430  34.019  33.686  1.00  0.00     0.031 C 
ATOM     68  C   UNL A   1      42.047  31.991  37.075  1.00  0.00     0.029 A 
ATOM     69  C   UNL A   1      41.127  32.148  36.051  1.00  0.00     0.049 A 
ATOM     70  H   UNL A   1      40.973  31.089  34.230  1.00  0.00     0.167 HD
ATOM     71  C   UNL A   1      39.197  33.200  34.903  1.00  0.00     0.074 A 
ATOM     72  C   UNL A   1      38.107  34.152  34.820  1.00  0.00     0.031 C 
ATOM     73  C   UNL A   1      40.026  33.078  35.969  1.00  0.00     0.037 A 
BRANCH  60  74
ATOM     74  C   UNL A   1      44.309  28.659  35.356  1.00  0.00     0.058 A 
ATOM     75  C   UNL A   1      45.630  29.087  35.153  1.00  0.00     0.135 A 
ATOM     76  C   UNL A   1      44.101  27.573  36.223  1.00  0.00     0.135 A 
ATOM     77  F   UNL A   1      45.888  30.115  34.328  1.00  0.00    -0.206 F 
ATOM     78  C   UNL A   1      46.704  28.456  35.772  1.00  0.00     0.059 A 
ATOM     79  C   UNL A   1      45.159  26.940  36.871  1.00  0.00     0.059 A 
ATOM     80  F   UNL A   1      42.858  27.123  36.455  1.00  0.00    -0.206 F 
ATOM     81  C   UNL A   1      46.458  27.384  36.633  1.00  0.00     0.060 A 
BRANCH  81  82
ATOM     82  S   UNL A   1      47.864  26.588  37.439  1.00  0.00     0.124 S 
ATOM     83  O   UNL A   1      48.961  27.466  37.045  1.00  0.00    -0.237 OA
ATOM     84  O   UNL A   1      47.485  26.639  38.847  1.00  0.00    -0.237 OA
ATOM     85  O   UNL A   1      47.886  25.255  36.846  1.00  0.00    -0.744 OA
ENDBRANCH  81  82
ENDBRANCH  60  74
BRANCH  61  86
ATOM     86  C   UNL A   1      36.592  33.249  30.979  1.00  0.00     0.058 A 
ATOM     87  C   UNL A   1      35.276  33.066  31.428  1.00  0.00     0.135 A 
ATOM     88  C   UNL A   1      36.806  34.143  29.918  1.00  0.00     0.135 A 
ATOM     89  F   UNL A   1      35.024  32.219  32.437  1.00  0.00    -0.206 F 
ATOM     90  C   UNL A   1      34.210  33.740  30.844  1.00  0.00     0.059 A 
ATOM     91  C   UNL A   1      35.759  34.846  29.334  1.00  0.00     0.059 A 
ATOM     92  F   UNL A   1      38.051  34.365  29.467  1.00  0.00    -0.206 F 
ATOM     93  C   UNL A   1      34.463  34.634  29.801  1.00  0.00     0.060 A 
BRANCH  93  94
ATOM     94  S   UNL A   1      33.076  35.550  29.096  1.00  0.00     0.124 S 
ATOM     95  O   UNL A   1      33.759  36.659  28.441  1.00  0.00    -0.237 OA
ATOM     96  O   UNL A   1      32.475  34.557  28.210  1.00  0.00    -0.237 OA
ATOM     97  O   UNL A   1      32.277  35.902  30.265  1.00  0.00    -0.744 OA
ENDBRANCH  93  94
ENDBRANCH  61  86
BRANCH  73  98
ATOM     98  C   UNL A   1      39.782  33.990  37.139  1.00  0.00     0.058 A 
ATOM     99  C   UNL A   1      40.447  35.220  37.259  1.00  0.00     0.135 A 
ATOM    100  C   UNL A   1      38.843  33.654  38.128  1.00  0.00     0.135 A 
ATOM    101  F   UNL A   1      41.362  35.585  36.347  1.00  0.00    -0.206 F 
ATOM    102  C   UNL A   1      40.207  36.076  38.330  1.00  0.00     0.059 A 
ATOM    103  C   UNL A   1      38.566  34.508  39.193  1.00  0.00     0.059 A 
ATOM    104  F   UNL A   1      38.172  32.494  38.059  1.00  0.00    -0.206 F 
ATOM    105  C   UNL A   1      39.261  35.712  39.290  1.00  0.00     0.060 A 
BRANCH 105 106
ATOM    106  S   UNL A   1      38.938  36.850  40.655  1.00  0.00     0.124 S 
ATOM    107  O   UNL A   1      38.244  37.938  39.973  1.00  0.00    -0.237 OA
ATOM    108  O   UNL A   1      38.119  36.038  41.550  1.00  0.00    -0.237 OA
ATOM    109  O   UNL A   1      40.272  37.172  41.153  1.00  0.00    -0.744 OA
ENDBRANCH 105 106
ENDBRANCH  73  98
ENDBRANCH  47  48
ENDBRANCH  40  42
ENDBRANCH  39  40
ENDBRANCH  38  39
ENDBRANCH  37  38
ENDBRANCH  36  37
ENDBRANCH  35  36
ENDBRANCH   1  35
TORSDOF 26
ENDMDL
MODEL 2
REMARK VINA RESULT:      -9.9      1.297      2.229
REMARK SMILES C[C@@H]1CC[C@H](C)[N@H+]1Cc1cc2c(cc1Cl)C=C(C(=O)OCCOCCOCCOCCOC(=O)c1ccc(-c3c4nc(c(-c5c(F)cc(S(=O)(=O)[O-])cc5F)c5ccc([nH]5)c(-c5c(F)cc(S(=O)(=O)[O-])cc5F)c5nc(c(-c6c(F)cc(S(=O)(=O)[O-])cc6F)c6ccc3[nH]6)C=C5)C=C4)cc1)[C@@H](C(F)(F)F)O2
REMARK SMILES IDX 27 1 26 2 25 3 24 4 23 5 22 6 21 7 20 8 18 9 19 10 17 11
REMARK SMILES IDX 9 12 10 13 14 14 11 15 13 16 15 17 12 18 106 19 16 20 101 21
REMARK SMILES IDX 8 22 7 23 6 24 5 25 4 26 3 27 2 28 1 30 102 31 103 32 104 33
REMARK SMILES IDX 105 34 28 35 29 36 30 37 31 38 32 39 33 40 34 41 35 42 36 43
REMARK SMILES IDX 100 44 37 45 99 46 38 47 39 48 40 49 93 50 41 51 98 52 92 53
REMARK SMILES IDX 94 54 42 55 97 56 91 57 90 58 43 60 77 61 56 62 76 63 57 64
REMARK SMILES IDX 60 65 75 66 95 67 58 68 59 69 74 71 96 72 61 73 44 74 45 75
REMARK SMILES IDX 54 76 46 77 47 78 53 79 55 80 48 81 49 82 50 83 51 84 52 85
REMARK SMILES IDX 78 86 79 87 88 88 80 89 81 90 87 91 89 92 82 93 83 94 84 95
REMARK SMILES IDX 85 96 86 97 62 98 63 99 72 100 64 101 65 102 71 103 73 104
REMARK SMILES IDX 66 105 67 106 68 107 69 108 70 109
REMARK H PARENT 7 29 94 59 60 70
REMARK Flexibility Score: inf
ROOT
ATOM      1  C   UNL A   1      40.120  19.303  25.813  1.00  0.00     0.188 C 
ENDROOT
BRANCH   1   2
ATOM      2  O   UNL A   1      38.828  19.353  25.207  1.00  0.00    -0.377 OA
BRANCH   2   3
ATOM      3  C   UNL A   1      37.915  20.342  25.642  1.00  0.00     0.188 C 
BRANCH   3   4
ATOM      4  C   UNL A   1      37.643  21.445  24.604  1.00  0.00     0.188 C 
BRANCH   4   5
ATOM      5  O   UNL A   1      36.289  21.888  24.588  1.00  0.00    -0.376 OA
BRANCH   5   6
ATOM      6  C   UNL A   1      35.764  22.333  23.343  1.00  0.00     0.202 C 
BRANCH   6   7
ATOM      7  C   UNL A   1      34.234  22.298  23.178  1.00  0.00     0.261 C 
BRANCH   7   8
ATOM      8  O   UNL A   1      33.568  21.273  23.933  1.00  0.00    -0.460 OA
BRANCH   8   9
ATOM      9  C   UNL A   1      32.504  21.657  24.660  1.00  0.00     0.338 C 
ATOM     10  O   UNL A   1      31.634  20.933  25.115  1.00  0.00    -0.246 OA
BRANCH   9  11
ATOM     11  C   UNL A   1      32.656  23.086  25.006  1.00  0.00     0.087 C 
ATOM     12  C   UNL A   1      33.502  28.044  24.758  1.00  0.00     0.029 A 
ATOM     13  C   UNL A   1      33.234  27.141  25.817  1.00  0.00     0.058 A 
ATOM     14  C   UNL A   1      33.472  27.530  23.450  1.00  0.00     0.050 A 
ATOM     15  C   UNL A   1      32.954  25.790  25.571  1.00  0.00     0.128 A 
ATOM     16  C   UNL A   1      33.076  26.214  23.203  1.00  0.00     0.033 A 
ATOM     17  Cl  UNL A   1      34.069  28.385  22.068  1.00  0.00    -0.084 Cl
ATOM     18  C   UNL A   1      32.848  25.338  24.260  1.00  0.00     0.019 A 
ATOM     19  O   UNL A   1      32.806  24.966  26.653  1.00  0.00    -0.475 OA
ATOM     20  C   UNL A   1      32.600  23.939  23.978  1.00  0.00     0.027 C 
ATOM     21  C   UNL A   1      32.850  23.516  26.437  1.00  0.00     0.316 C 
BRANCH  12  22
ATOM     22  C   UNL A   1      33.893  29.478  25.088  1.00  0.00     0.301 C 
BRANCH  22  23
ATOM     23  N   UNL A   1      33.899  29.899  26.496  1.00  0.00    -0.327 N 
ATOM     24  C   UNL A   1      31.635  30.307  27.397  1.00  0.00     0.075 C 
ATOM     25  C   UNL A   1      32.926  30.931  26.878  1.00  0.00     0.181 C 
ATOM     26  C   UNL A   1      33.620  31.746  27.970  1.00  0.00     0.071 C 
ATOM     27  C   UNL A   1      35.083  31.635  27.600  1.00  0.00     0.071 C 
ATOM     28  C   UNL A   1      35.203  30.208  27.085  1.00  0.00     0.181 C 
ATOM     29  H   UNL A   1      33.584  29.022  26.910  1.00  0.00     0.348 HD
ATOM     30  C   UNL A   1      35.510  29.206  28.199  1.00  0.00     0.075 C 
ENDBRANCH  22  23
ENDBRANCH  12  22
BRANCH  21  31
ATOM     31  C   UNL A   1      34.151  22.937  27.013  1.00  0.00     0.430 C 
ATOM     32  F   UNL A   1      34.277  21.621  26.729  1.00  0.00    -0.167 F 
ATOM     33  F   UNL A   1      35.237  23.562  26.504  1.00  0.00    -0.167 F 
ATOM     34  F   UNL A   1      34.201  23.071  28.360  1.00  0.00    -0.167 F 
ENDBRANCH  21  31
ENDBRANCH   9  11
ENDBRANCH   8   9
ENDBRANCH   7   8
ENDBRANCH   6   7
ENDBRANCH   5   6
ENDBRANCH   4   5
ENDBRANCH   3   4
ENDBRANCH   2   3
ENDBRANCH   1   2
BRANCH   1  35
ATOM     35  C   UNL A   1      40.888  20.573  26.249  1.00  0.00     0.188 C 
BRANCH  35  36
ATOM     36  O   UNL A   1      40.621  21.001  27.582  1.00  0.00    -0.376 OA
BRANCH  36  37
ATOM     37  C   UNL A   1      41.540  21.922  28.152  1.00  0.00     0.202 C 
BRANCH  37  38
ATOM     38  C   UNL A   1      42.024  23.002  27.179  1.00  0.00     0.261 C 
BRANCH  38  39
ATOM     39  O   UNL A   1      41.056  24.011  26.857  1.00  0.00    -0.460 OA
BRANCH  39  40
ATOM     40  C   UNL A   1      41.509  25.208  26.422  1.00  0.00     0.338 C 
ATOM     41  O   UNL A   1      41.903  25.485  25.303  1.00  0.00    -0.246 OA
BRANCH  40  42
ATOM     42  C   UNL A   1      41.252  26.184  27.501  1.00  0.00     0.060 A 
ATOM     43  C   UNL A   1      40.201  25.975  28.397  1.00  0.00     0.016 A 
ATOM     44  C   UNL A   1      42.036  27.343  27.581  1.00  0.00     0.016 A 
ATOM     45  C   UNL A   1      39.946  26.919  29.390  1.00  0.00     0.010 A 
ATOM     46  C   UNL A   1      41.773  28.291  28.574  1.00  0.00     0.010 A 
ATOM     47  C   UNL A   1      40.739  28.073  29.497  1.00  0.00    -0.014 A 
BRANCH  47  48
ATOM     48  C   UNL A   1      40.586  28.948  30.684  1.00  0.00     0.031 A 
ATOM     49  C   UNL A   1      41.462  28.815  31.892  1.00  0.00     0.074 A 
ATOM     50  C   UNL A   1      39.634  29.898  30.636  1.00  0.00     0.049 A 
ATOM     51  N   UNL A   1      41.507  29.575  32.955  1.00  0.00    -0.248 NA
ATOM     52  C   UNL A   1      42.403  27.687  31.915  1.00  0.00     0.031 C 
ATOM     53  C   UNL A   1      38.711  30.100  29.515  1.00  0.00     0.029 A 
ATOM     54  N   UNL A   1      39.290  30.874  31.532  1.00  0.00    -0.354 N 
ATOM     55  C   UNL A   1      42.496  29.038  33.769  1.00  0.00     0.074 A 
ATOM     56  C   UNL A   1      42.994  27.856  33.092  1.00  0.00     0.031 C 
ATOM     57  C   UNL A   1      37.923  31.152  29.781  1.00  0.00     0.029 A 
ATOM     58  C   UNL A   1      38.270  31.685  31.095  1.00  0.00     0.049 A 
ATOM     59  H   UNL A   1      39.731  30.985  32.405  1.00  0.00     0.167 HD
ATOM     60  C   UNL A   1      42.952  29.503  34.957  1.00  0.00     0.037 A 
ATOM     61  C   UNL A   1      37.681  32.744  31.681  1.00  0.00     0.037 A 
ATOM     62  C   UNL A   1      42.432  30.671  35.628  1.00  0.00     0.049 A 
ATOM     63  C   UNL A   1      38.177  33.209  33.021  1.00  0.00     0.074 A 
ATOM     64  C   UNL A   1      42.858  31.242  36.816  1.00  0.00     0.029 A 
ATOM     65  N   UNL A   1      41.365  31.438  35.183  1.00  0.00    -0.354 N 
ATOM     66  N   UNL A   1      39.162  32.734  33.743  1.00  0.00    -0.248 NA
ATOM     67  C   UNL A   1      37.485  34.356  33.621  1.00  0.00     0.031 C 
ATOM     68  C   UNL A   1      42.018  32.320  37.114  1.00  0.00     0.029 A 
ATOM     69  C   UNL A   1      41.098  32.455  36.088  1.00  0.00     0.049 A 
ATOM     70  H   UNL A   1      40.870  31.283  34.346  1.00  0.00     0.167 HD
ATOM     71  C   UNL A   1      39.217  33.529  34.882  1.00  0.00     0.074 A 
ATOM     72  C   UNL A   1      38.179  34.531  34.738  1.00  0.00     0.031 C 
ATOM     73  C   UNL A   1      40.049  33.436  35.948  1.00  0.00     0.037 A 
BRANCH  60  74
ATOM     74  C   UNL A   1      44.080  28.758  35.618  1.00  0.00     0.058 A 
ATOM     75  C   UNL A   1      43.844  27.609  36.390  1.00  0.00     0.135 A 
ATOM     76  C   UNL A   1      45.416  29.144  35.416  1.00  0.00     0.135 A 
ATOM     77  F   UNL A   1      42.586  27.198  36.621  1.00  0.00    -0.206 F 
ATOM     78  C   UNL A   1      44.887  26.881  36.951  1.00  0.00     0.059 A 
ATOM     79  C   UNL A   1      46.477  28.418  35.950  1.00  0.00     0.059 A 
ATOM     80  F   UNL A   1      45.700  30.233  34.684  1.00  0.00    -0.206 F 
ATOM     81  C   UNL A   1      46.202  27.292  36.723  1.00  0.00     0.060 A 
BRANCH  81  82
ATOM     82  S   UNL A   1      47.543  26.325  37.448  1.00  0.00     0.124 S 
ATOM     83  O   UNL A   1      47.168  24.969  37.060  1.00  0.00    -0.237 OA
ATOM     84  O   UNL A   1      48.720  26.873  36.780  1.00  0.00    -0.237 OA
ATOM     85  O   UNL A   1      47.443  26.618  38.875  1.00  0.00    -0.744 OA
ENDBRANCH  81  82
ENDBRANCH  60  74
BRANCH  61  86
ATOM     86  C   UNL A   1      36.579  33.448  30.979  1.00  0.00     0.058 A 
ATOM     87  C   UNL A   1      35.246  33.271  31.373  1.00  0.00     0.135 A 
ATOM     88  C   UNL A   1      36.843  34.349  29.935  1.00  0.00     0.135 A 
ATOM     89  F   UNL A   1      34.947  32.418  32.364  1.00  0.00    -0.206 F 
ATOM     90  C   UNL A   1      34.209  33.957  30.752  1.00  0.00     0.059 A 
ATOM     91  C   UNL A   1      35.825  35.065  29.315  1.00  0.00     0.059 A 
ATOM     92  F   UNL A   1      38.106  34.566  29.537  1.00  0.00    -0.206 F 
ATOM     93  C   UNL A   1      34.510  34.858  29.728  1.00  0.00     0.060 A 
BRANCH  93  94
ATOM     94  S   UNL A   1      33.159  35.790  28.974  1.00  0.00     0.124 S 
ATOM     95  O   UNL A   1      32.540  36.405  30.142  1.00  0.00    -0.237 OA
ATOM     96  O   UNL A   1      33.876  36.694  28.080  1.00  0.00    -0.237 OA
ATOM     97  O   UNL A   1      32.370  34.758  28.310  1.00  0.00    -0.744 OA
ENDBRANCH  93  94
ENDBRANCH  61  86
BRANCH  73  98
ATOM     98  C   UNL A   1      39.866  34.439  37.053  1.00  0.00     0.058 A 
ATOM     99  C   UNL A   1      39.003  34.189  38.132  1.00  0.00     0.135 A 
ATOM    100  C   UNL A   1      40.589  35.643  37.059  1.00  0.00     0.135 A 
ATOM    101  F   UNL A   1      38.280  33.059  38.170  1.00  0.00    -0.206 F 
ATOM    102  C   UNL A   1      38.848  35.105  39.167  1.00  0.00     0.059 A 
ATOM    103  C   UNL A   1      40.470  36.562  38.098  1.00  0.00     0.059 A 
ATOM    104  F   UNL A   1      41.434  35.930  36.056  1.00  0.00    -0.206 F 
ATOM    105  C   UNL A   1      39.589  36.288  39.143  1.00  0.00     0.060 A 
BRANCH 105 106
ATOM    106  S   UNL A   1      39.399  37.452  40.511  1.00  0.00     0.124 S 
ATOM    107  O   UNL A   1      40.679  38.153  40.480  1.00  0.00    -0.237 OA
ATOM    108  O   UNL A   1      38.238  38.232  40.097  1.00  0.00    -0.237 OA
ATOM    109  O   UNL A   1      39.187  36.586  41.667  1.00  0.00    -0.744 OA
ENDBRANCH 105 106
ENDBRANCH  73  98
ENDBRANCH  47  48
ENDBRANCH  40  42
ENDBRANCH  39  40
ENDBRANCH  38  39
ENDBRANCH  37  38
ENDBRANCH  36  37
ENDBRANCH  35  36
ENDBRANCH   1  35
TORSDOF 26
ENDMDL
MODEL 3
REMARK VINA RESULT:      -9.7      5.156      8.334
REMARK SMILES C[C@@H]1CC[C@H](C)[N@H+]1Cc1cc2c(cc1Cl)C=C(C(=O)OCCOCCOCCOCCOC(=O)c1ccc(-c3c4nc(c(-c5c(F)cc(S(=O)(=O)[O-])cc5F)c5ccc([nH]5)c(-c5c(F)cc(S(=O)(=O)[O-])cc5F)c5nc(c(-c6c(F)cc(S(=O)(=O)[O-])cc6F)c6ccc3[nH]6)C=C5)C=C4)cc1)[C@@H](C(F)(F)F)O2
REMARK SMILES IDX 27 1 26 2 25 3 24 4 23 5 22 6 21 7 20 8 18 9 19 10 17 11
REMARK SMILES IDX 9 12 10 13 14 14 11 15 13 16 15 17 12 18 106 19 16 20 101 21
REMARK SMILES IDX 8 22 7 23 6 24 5 25 4 26 3 27 2 28 1 30 102 31 103 32 104 33
REMARK SMILES IDX 105 34 28 35 29 36 30 37 31 38 32 39 33 40 34 41 35 42 36 43
REMARK SMILES IDX 100 44 37 45 99 46 38 47 39 48 40 49 93 50 41 51 98 52 92 53
REMARK SMILES IDX 94 54 42 55 97 56 91 57 90 58 43 60 77 61 56 62 76 63 57 64
REMARK SMILES IDX 60 65 75 66 95 67 58 68 59 69 74 71 96 72 61 73 44 74 45 75
REMARK SMILES IDX 54 76 46 77 47 78 53 79 55 80 48 81 49 82 50 83 51 84 52 85
REMARK SMILES IDX 78 86 79 87 88 88 80 89 81 90 87 91 89 92 82 93 83 94 84 95
REMARK SMILES IDX 85 96 86 97 62 98 63 99 72 100 64 101 65 102 71 103 73 104
REMARK SMILES IDX 66 105 67 106 68 107 69 108 70 109
REMARK H PARENT 7 29 94 59 60 70
REMARK Flexibility Score: inf
ROOT
ATOM      1  C   UNL A   1      39.460  26.831  28.080  1.00  0.00     0.188 C 
ENDROOT
BRANCH   1   2
ATOM      2  O   UNL A   1      39.944  25.495  27.952  1.00  0.00    -0.377 OA
BRANCH   2   3
ATOM      3  C   UNL A   1      39.070  24.505  27.443  1.00  0.00     0.188 C 
BRANCH   3   4
ATOM      4  C   UNL A   1      39.784  23.358  26.706  1.00  0.00     0.188 C 
BRANCH   4   5
ATOM      5  O   UNL A   1      39.078  22.121  26.762  1.00  0.00    -0.376 OA
BRANCH   5   6
ATOM      6  C   UNL A   1      38.540  21.622  25.543  1.00  0.00     0.202 C 
BRANCH   6   7
ATOM      7  C   UNL A   1      37.538  22.525  24.802  1.00  0.00     0.261 C 
BRANCH   7   8
ATOM      8  O   UNL A   1      36.217  21.977  24.665  1.00  0.00    -0.460 OA
BRANCH   8   9
ATOM      9  C   UNL A   1      35.251  22.543  25.409  1.00  0.00     0.338 C 
ATOM     10  O   UNL A   1      35.027  22.337  26.591  1.00  0.00    -0.246 OA
BRANCH   9  11
ATOM     11  C   UNL A   1      34.619  23.624  24.624  1.00  0.00     0.087 C 
ATOM     12  C   UNL A   1      32.294  27.886  23.285  1.00  0.00     0.029 A 
ATOM     13  C   UNL A   1      32.706  26.725  22.584  1.00  0.00     0.058 A 
ATOM     14  C   UNL A   1      32.637  27.973  24.645  1.00  0.00     0.050 A 
ATOM     15  C   UNL A   1      33.423  25.703  23.221  1.00  0.00     0.128 A 
ATOM     16  C   UNL A   1      33.452  27.010  25.244  1.00  0.00     0.033 A 
ATOM     17  Cl  UNL A   1      31.969  29.143  25.731  1.00  0.00    -0.084 Cl
ATOM     18  C   UNL A   1      33.819  25.864  24.546  1.00  0.00     0.019 A 
ATOM     19  O   UNL A   1      33.694  24.573  22.499  1.00  0.00    -0.475 OA
ATOM     20  C   UNL A   1      34.524  24.807  25.239  1.00  0.00     0.027 C 
ATOM     21  C   UNL A   1      34.133  23.373  23.220  1.00  0.00     0.316 C 
BRANCH  12  22
ATOM     22  C   UNL A   1      31.437  28.919  22.568  1.00  0.00     0.301 C 
BRANCH  22  23
ATOM     23  N   UNL A   1      30.067  29.151  23.047  1.00  0.00    -0.327 N 
ATOM     24  C   UNL A   1      29.027  27.138  24.029  1.00  0.00     0.075 C 
ATOM     25  C   UNL A   1      29.099  28.069  22.824  1.00  0.00     0.181 C 
ATOM     26  C   UNL A   1      27.762  28.774  22.592  1.00  0.00     0.071 C 
ATOM     27  C   UNL A   1      28.173  30.087  21.964  1.00  0.00     0.071 C 
ATOM     28  C   UNL A   1      29.458  30.437  22.700  1.00  0.00     0.181 C 
ATOM     29  H   UNL A   1      30.266  29.175  24.047  1.00  0.00     0.348 HD
ATOM     30  C   UNL A   1      29.203  31.241  23.977  1.00  0.00     0.075 C 
ENDBRANCH  22  23
ENDBRANCH  12  22
BRANCH  21  31
ATOM     31  C   UNL A   1      33.021  22.314  23.204  1.00  0.00     0.430 C 
ATOM     32  F   UNL A   1      31.933  22.726  23.894  1.00  0.00    -0.167 F 
ATOM     33  F   UNL A   1      32.617  22.042  21.943  1.00  0.00    -0.167 F 
ATOM     34  F   UNL A   1      33.437  21.149  23.756  1.00  0.00    -0.167 F 
ENDBRANCH  21  31
ENDBRANCH   9  11
ENDBRANCH   8   9
ENDBRANCH   7   8
ENDBRANCH   6   7
ENDBRANCH   5   6
ENDBRANCH   4   5
ENDBRANCH   3   4
ENDBRANCH   2   3
ENDBRANCH   1   2
BRANCH   1  35
ATOM     35  C   UNL A   1      39.233  27.509  29.453  1.00  0.00     0.188 C 
BRANCH  35  36
ATOM     36  O   UNL A   1      38.422  28.680  29.410  1.00  0.00    -0.376 OA
BRANCH  36  37
ATOM     37  C   UNL A   1      37.694  28.908  28.212  1.00  0.00     0.202 C 
BRANCH  37  38
ATOM     38  C   UNL A   1      36.629  30.003  28.329  1.00  0.00     0.261 C 
BRANCH  38  39
ATOM     39  O   UNL A   1      36.263  30.357  29.671  1.00  0.00    -0.460 OA
BRANCH  39  40
ATOM     40  C   UNL A   1      35.860  31.627  29.905  1.00  0.00     0.338 C 
ATOM     41  O   UNL A   1      34.790  32.127  29.606  1.00  0.00    -0.246 OA
BRANCH  40  42
ATOM     42  C   UNL A   1      36.881  32.250  30.771  1.00  0.00     0.060 A 
ATOM     43  C   UNL A   1      37.837  31.455  31.408  1.00  0.00     0.016 A 
ATOM     44  C   UNL A   1      36.847  33.634  30.990  1.00  0.00     0.016 A 
ATOM     45  C   UNL A   1      38.774  32.049  32.251  1.00  0.00     0.010 A 
ATOM     46  C   UNL A   1      37.784  34.226  31.841  1.00  0.00     0.010 A 
ATOM     47  C   UNL A   1      38.766  33.439  32.460  1.00  0.00    -0.014 A 
BRANCH  47  48
ATOM     48  C   UNL A   1      39.897  34.067  33.183  1.00  0.00     0.031 A 
ATOM     49  C   UNL A   1      41.116  34.572  32.474  1.00  0.00     0.074 A 
ATOM     50  C   UNL A   1      39.785  34.194  34.518  1.00  0.00     0.049 A 
ATOM     51  N   UNL A   1      42.132  35.232  32.967  1.00  0.00    -0.248 NA
ATOM     52  C   UNL A   1      41.214  34.298  31.034  1.00  0.00     0.031 C 
ATOM     53  C   UNL A   1      38.648  33.717  35.311  1.00  0.00     0.029 A 
ATOM     54  N   UNL A   1      40.619  34.768  35.441  1.00  0.00    -0.354 N 
ATOM     55  C   UNL A   1      42.983  35.480  31.898  1.00  0.00     0.074 A 
ATOM     56  C   UNL A   1      42.383  34.854  30.735  1.00  0.00     0.031 C 
ATOM     57  C   UNL A   1      38.845  34.041  36.597  1.00  0.00     0.029 A 
ATOM     58  C   UNL A   1      40.127  34.729  36.724  1.00  0.00     0.049 A 
ATOM     59  H   UNL A   1      41.486  35.171  35.208  1.00  0.00     0.167 HD
ATOM     60  C   UNL A   1      44.144  36.179  31.891  1.00  0.00     0.037 A 
ATOM     61  C   UNL A   1      40.644  35.197  37.874  1.00  0.00     0.037 A 
ATOM     62  C   UNL A   1      44.740  36.780  33.061  1.00  0.00     0.049 A 
ATOM     63  C   UNL A   1      41.956  35.928  37.843  1.00  0.00     0.074 A 
ATOM     64  C   UNL A   1      45.894  37.541  33.144  1.00  0.00     0.029 A 
ATOM     65  N   UNL A   1      44.242  36.676  34.352  1.00  0.00    -0.354 N 
ATOM     66  N   UNL A   1      42.712  36.217  36.812  1.00  0.00    -0.248 NA
ATOM     67  C   UNL A   1      42.481  36.401  39.131  1.00  0.00     0.031 C 
ATOM     68  C   UNL A   1      46.120  37.853  34.489  1.00  0.00     0.029 A 
ATOM     69  C   UNL A   1      45.082  37.330  35.241  1.00  0.00     0.049 A 
ATOM     70  H   UNL A   1      43.412  36.206  34.600  1.00  0.00     0.167 HD
ATOM     71  C   UNL A   1      43.800  36.915  37.323  1.00  0.00     0.074 A 
ATOM     72  C   UNL A   1      43.590  37.024  38.753  1.00  0.00     0.031 C 
ATOM     73  C   UNL A   1      44.876  37.416  36.667  1.00  0.00     0.037 A 
BRANCH  60  74
ATOM     74  C   UNL A   1      44.856  36.347  30.576  1.00  0.00     0.058 A 
ATOM     75  C   UNL A   1      45.686  35.340  30.061  1.00  0.00     0.135 A 
ATOM     76  C   UNL A   1      44.648  37.489  29.784  1.00  0.00     0.135 A 
ATOM     77  F   UNL A   1      45.927  34.230  30.778  1.00  0.00    -0.206 F 
ATOM     78  C   UNL A   1      46.298  35.463  28.817  1.00  0.00     0.059 A 
ATOM     79  C   UNL A   1      45.231  37.625  28.527  1.00  0.00     0.059 A 
ATOM     80  F   UNL A   1      43.861  38.483  30.226  1.00  0.00    -0.206 F 
ATOM     81  C   UNL A   1      46.062  36.610  28.055  1.00  0.00     0.060 A 
BRANCH  81  82
ATOM     82  S   UNL A   1      46.852  36.746  26.438  1.00  0.00     0.124 S 
ATOM     83  O   UNL A   1      46.351  38.036  25.976  1.00  0.00    -0.237 OA
ATOM     84  O   UNL A   1      48.270  36.701  26.779  1.00  0.00    -0.237 OA
ATOM     85  O   UNL A   1      46.348  35.583  25.713  1.00  0.00    -0.744 OA
ENDBRANCH  81  82
ENDBRANCH  60  74
BRANCH  61  86
ATOM     86  C   UNL A   1      39.893  35.013  39.141  1.00  0.00     0.058 A 
ATOM     87  C   UNL A   1      39.081  36.035  39.652  1.00  0.00     0.135 A 
ATOM     88  C   UNL A   1      39.936  33.796  39.840  1.00  0.00     0.135 A 
ATOM     89  F   UNL A   1      39.011  37.216  39.019  1.00  0.00    -0.206 F 
ATOM     90  C   UNL A   1      38.339  35.860  40.814  1.00  0.00     0.059 A 
ATOM     91  C   UNL A   1      39.185  33.589  40.991  1.00  0.00     0.059 A 
ATOM     92  F   UNL A   1      40.685  32.782  39.379  1.00  0.00    -0.206 F 
ATOM     93  C   UNL A   1      38.393  34.630  41.474  1.00  0.00     0.060 A 
BRANCH  93  94
ATOM     94  S   UNL A   1      37.375  34.396  42.947  1.00  0.00     0.124 S 
ATOM     95  O   UNL A   1      37.609  35.641  43.666  1.00  0.00    -0.237 OA
ATOM     96  O   UNL A   1      36.043  34.230  42.372  1.00  0.00    -0.237 OA
ATOM     97  O   UNL A   1      37.940  33.197  43.558  1.00  0.00    -0.744 OA
ENDBRANCH  93  94
ENDBRANCH  61  86
BRANCH  73  98
ATOM     98  C   UNL A   1      45.917  38.121  37.491  1.00  0.00     0.058 A 
ATOM     99  C   UNL A   1      47.062  37.452  37.952  1.00  0.00     0.135 A 
ATOM    100  C   UNL A   1      45.793  39.488  37.789  1.00  0.00     0.135 A 
ATOM    101  F   UNL A   1      47.223  36.143  37.705  1.00  0.00    -0.206 F 
ATOM    102  C   UNL A   1      48.038  38.107  38.696  1.00  0.00     0.059 A 
ATOM    103  C   UNL A   1      46.771  40.171  38.509  1.00  0.00     0.059 A 
ATOM    104  F   UNL A   1      44.723  40.179  37.367  1.00  0.00    -0.206 F 
ATOM    105  C   UNL A   1      47.885  39.468  38.967  1.00  0.00     0.060 A 
BRANCH 105 106
ATOM    106  S   UNL A   1      49.177  40.310  39.907  1.00  0.00     0.124 S 
ATOM    107  O   UNL A   1      50.200  40.511  38.885  1.00  0.00    -0.237 OA
ATOM    108  O   UNL A   1      48.494  41.516  40.365  1.00  0.00    -0.237 OA
ATOM    109  O   UNL A   1      49.516  39.351  40.954  1.00  0.00    -0.744 OA
ENDBRANCH 105 106
ENDBRANCH  73  98
ENDBRANCH  47  48
ENDBRANCH  40  42
ENDBRANCH  39  40
ENDBRANCH  38  39
ENDBRANCH  37  38
ENDBRANCH  36  37
ENDBRANCH  35  36
ENDBRANCH   1  35
TORSDOF 26
ENDMDL
