MODEL 1
REMARK VINA RESULT:     -10.0      0.000      0.000
REMARK SMILES C[N@H+]1C[C@@H](Oc2cccc3cccnc23)C[C@H]1C(=O)OCCOCCOCCOCCOC(=O)c1ccc(-c2c3nc(c(-c4c(F)cc(S(=O)(=O)[O-])cc4F)c4ccc([nH]4)c(-c4c(F)cc(S(=O)(=O)[O-])cc4F)c4nc(c(-c5c(F)cc(S(=O)(=O)[O-])cc5F)c5ccc2[nH]5)C=C4)C=C3)cc1
REMARK SMILES IDX 27 1 26 2 25 3 24 4 23 5 22 6 21 7 20 8 18 9 19 10 17 11
REMARK SMILES IDX 1 12 2 13 3 14 4 16 16 17 5 18 6 19 7 20 15 21 8 22 10 23
REMARK SMILES IDX 14 24 9 25 11 26 13 27 12 28 28 29 29 30 30 31 31 32 32 33
REMARK SMILES IDX 33 34 34 35 35 36 36 37 100 38 37 39 99 40 38 41 39 42 40 43
REMARK SMILES IDX 93 44 41 45 98 46 92 47 94 48 42 49 97 50 91 51 90 52 43 54
REMARK SMILES IDX 77 55 56 56 76 57 57 58 60 59 75 60 95 61 58 62 59 63 74 65
REMARK SMILES IDX 96 66 61 67 44 68 45 69 54 70 46 71 47 72 53 73 55 74 48 75
REMARK SMILES IDX 49 76 50 77 51 78 52 79 78 80 79 81 88 82 80 83 81 84 87 85
REMARK SMILES IDX 89 86 82 87 83 88 84 89 85 90 86 91 62 92 63 93 72 94 64 95
REMARK SMILES IDX 65 96 71 97 73 98 66 99 67 100 68 101 69 102 70 103
REMARK H PARENT 2 15 94 53 60 64
REMARK Flexibility Score: inf
ROOT
ATOM      1  C   UNL A   1      34.074  30.596  27.735  1.00  0.00     0.188 C 
ENDROOT
BRANCH   1   2
ATOM      2  O   UNL A   1      33.508  30.047  26.545  1.00  0.00    -0.377 OA
BRANCH   2   3
ATOM      3  C   UNL A   1      32.108  30.046  26.326  1.00  0.00     0.188 C 
BRANCH   3   4
ATOM      4  C   UNL A   1      31.674  30.074  24.860  1.00  0.00     0.188 C 
BRANCH   4   5
ATOM      5  O   UNL A   1      30.289  30.217  24.594  1.00  0.00    -0.376 OA
BRANCH   5   6
ATOM      6  C   UNL A   1      29.807  29.783  23.327  1.00  0.00     0.202 C 
BRANCH   6   7
ATOM      7  C   UNL A   1      30.777  29.138  22.325  1.00  0.00     0.261 C 
BRANCH   7   8
ATOM      8  O   UNL A   1      30.621  27.718  22.104  1.00  0.00    -0.459 OA
BRANCH   8   9
ATOM      9  C   UNL A   1      31.692  26.930  22.384  1.00  0.00     0.365 C 
ATOM     10  O   UNL A   1      32.223  26.189  21.554  1.00  0.00    -0.245 OA
BRANCH   9  11
ATOM     11  C   UNL A   1      32.241  26.996  23.817  1.00  0.00     0.298 C 
ATOM     12  C   UNL A   1      30.602  26.598  25.728  1.00  0.00     0.333 C 
ATOM     13  N   UNL A   1      31.635  26.173  24.840  1.00  0.00    -0.322 N 
ATOM     14  C   UNL A   1      32.067  24.799  24.771  1.00  0.00     0.308 C 
ATOM     15  H   UNL A   1      31.662  26.723  25.698  1.00  0.00     0.348 HD
ATOM     16  C   UNL A   1      33.501  24.946  24.240  1.00  0.00     0.234 C 
ATOM     17  C   UNL A   1      33.659  26.421  23.818  1.00  0.00     0.128 C 
BRANCH  16  18
ATOM     18  O   UNL A   1      34.001  24.019  23.274  1.00  0.00    -0.482 OA
BRANCH  18  19
ATOM     19  C   UNL A   1      34.803  22.996  23.719  1.00  0.00     0.146 A 
ATOM     20  C   UNL A   1      36.133  23.308  24.026  1.00  0.00     0.049 A 
ATOM     21  C   UNL A   1      34.247  21.747  24.039  1.00  0.00     0.112 A 
ATOM     22  C   UNL A   1      36.963  22.351  24.596  1.00  0.00     0.005 A 
ATOM     23  C   UNL A   1      35.108  20.785  24.620  1.00  0.00     0.004 A 
ATOM     24  N   UNL A   1      32.941  21.473  23.811  1.00  0.00    -0.252 NA
ATOM     25  C   UNL A   1      36.455  21.089  24.886  1.00  0.00     0.010 A 
ATOM     26  C   UNL A   1      34.583  19.531  24.951  1.00  0.00     0.012 A 
ATOM     27  C   UNL A   1      32.463  20.265  24.180  1.00  0.00     0.112 A 
ATOM     28  C   UNL A   1      33.237  19.271  24.743  1.00  0.00     0.021 A 
ENDBRANCH  18  19
ENDBRANCH  16  18
ENDBRANCH   9  11
ENDBRANCH   8   9
ENDBRANCH   7   8
ENDBRANCH   6   7
ENDBRANCH   5   6
ENDBRANCH   4   5
ENDBRANCH   3   4
ENDBRANCH   2   3
ENDBRANCH   1   2
BRANCH   1  29
ATOM     29  C   UNL A   1      34.701  31.984  27.635  1.00  0.00     0.188 C 
BRANCH  29  30
ATOM     30  O   UNL A   1      34.329  32.933  28.640  1.00  0.00    -0.376 OA
BRANCH  30  31
ATOM     31  C   UNL A   1      35.279  33.923  29.031  1.00  0.00     0.202 C 
BRANCH  31  32
ATOM     32  C   UNL A   1      35.858  33.737  30.430  1.00  0.00     0.261 C 
BRANCH  32  33
ATOM     33  O   UNL A   1      37.011  32.883  30.425  1.00  0.00    -0.460 OA
BRANCH  33  34
ATOM     34  C   UNL A   1      36.780  31.630  30.867  1.00  0.00     0.338 C 
ATOM     35  O   UNL A   1      35.821  31.244  31.532  1.00  0.00    -0.246 OA
BRANCH  34  36
ATOM     36  C   UNL A   1      37.793  30.707  30.338  1.00  0.00     0.060 A 
ATOM     37  C   UNL A   1      38.564  29.986  31.258  1.00  0.00     0.016 A 
ATOM     38  C   UNL A   1      38.071  30.649  28.969  1.00  0.00     0.016 A 
ATOM     39  C   UNL A   1      39.677  29.278  30.822  1.00  0.00     0.010 A 
ATOM     40  C   UNL A   1      39.193  29.943  28.534  1.00  0.00     0.010 A 
ATOM     41  C   UNL A   1      40.032  29.312  29.468  1.00  0.00    -0.014 A 
BRANCH  41  42
ATOM     42  C   UNL A   1      41.399  28.897  29.083  1.00  0.00     0.031 A 
ATOM     43  C   UNL A   1      42.504  29.916  29.175  1.00  0.00     0.074 A 
ATOM     44  C   UNL A   1      41.660  27.627  28.734  1.00  0.00     0.049 A 
ATOM     45  N   UNL A   1      43.775  29.787  28.898  1.00  0.00    -0.248 NA
ATOM     46  C   UNL A   1      42.124  31.260  29.644  1.00  0.00     0.031 C 
ATOM     47  C   UNL A   1      40.675  26.548  28.676  1.00  0.00     0.029 A 
ATOM     48  N   UNL A   1      42.838  27.031  28.369  1.00  0.00    -0.354 N 
ATOM     49  C   UNL A   1      44.344  31.030  29.156  1.00  0.00     0.074 A 
ATOM     50  C   UNL A   1      43.276  31.910  29.573  1.00  0.00     0.031 C 
ATOM     51  C   UNL A   1      41.293  25.419  28.291  1.00  0.00     0.029 A 
ATOM     52  C   UNL A   1      42.702  25.706  28.038  1.00  0.00     0.049 A 
ATOM     53  H   UNL A   1      43.699  27.507  28.347  1.00  0.00     0.167 HD
ATOM     54  C   UNL A   1      45.644  31.398  29.067  1.00  0.00     0.037 A 
ATOM     55  C   UNL A   1      43.609  24.830  27.564  1.00  0.00     0.037 A 
ATOM     56  C   UNL A   1      46.698  30.508  28.655  1.00  0.00     0.049 A 
ATOM     57  C   UNL A   1      45.036  25.282  27.401  1.00  0.00     0.074 A 
ATOM     58  C   UNL A   1      48.051  30.770  28.543  1.00  0.00     0.029 A 
ATOM     59  N   UNL A   1      46.512  29.185  28.281  1.00  0.00    -0.354 N 
ATOM     60  N   UNL A   1      45.566  26.454  27.664  1.00  0.00    -0.248 NA
ATOM     61  C   UNL A   1      45.991  24.290  26.892  1.00  0.00     0.031 C 
ATOM     62  C   UNL A   1      48.677  29.620  28.049  1.00  0.00     0.029 A 
ATOM     63  C   UNL A   1      47.723  28.623  27.910  1.00  0.00     0.049 A 
ATOM     64  H   UNL A   1      45.649  28.713  28.280  1.00  0.00     0.167 HD
ATOM     65  C   UNL A   1      46.921  26.332  27.378  1.00  0.00     0.074 A 
ATOM     66  C   UNL A   1      47.130  24.966  26.941  1.00  0.00     0.031 C 
ATOM     67  C   UNL A   1      47.906  27.262  27.471  1.00  0.00     0.037 A 
BRANCH  54  68
ATOM     68  C   UNL A   1      45.988  32.825  29.393  1.00  0.00     0.058 A 
ATOM     69  C   UNL A   1      46.033  33.825  28.408  1.00  0.00     0.135 A 
ATOM     70  C   UNL A   1      46.259  33.204  30.719  1.00  0.00     0.135 A 
ATOM     71  F   UNL A   1      45.805  33.517  27.121  1.00  0.00    -0.206 F 
ATOM     72  C   UNL A   1      46.358  35.142  28.720  1.00  0.00     0.059 A 
ATOM     73  C   UNL A   1      46.557  34.521  31.058  1.00  0.00     0.059 A 
ATOM     74  F   UNL A   1      46.238  32.290  31.700  1.00  0.00    -0.206 F 
ATOM     75  C   UNL A   1      46.617  35.480  30.050  1.00  0.00     0.060 A 
BRANCH  75  76
ATOM     76  S   UNL A   1      47.028  37.194  30.440  1.00  0.00     0.124 S 
ATOM     77  O   UNL A   1      45.985  37.915  29.716  1.00  0.00    -0.237 OA
ATOM     78  O   UNL A   1      46.920  37.217  31.895  1.00  0.00    -0.237 OA
ATOM     79  O   UNL A   1      48.379  37.350  29.910  1.00  0.00    -0.744 OA
ENDBRANCH  75  76
ENDBRANCH  54  68
BRANCH  55  80
ATOM     80  C   UNL A   1      43.192  23.449  27.205  1.00  0.00     0.058 A 
ATOM     81  C   UNL A   1      43.059  23.053  25.868  1.00  0.00     0.135 A 
ATOM     82  C   UNL A   1      42.924  22.494  28.200  1.00  0.00     0.135 A 
ATOM     83  F   UNL A   1      43.301  23.930  24.881  1.00  0.00    -0.206 F 
ATOM     84  C   UNL A   1      42.660  21.765  25.525  1.00  0.00     0.059 A 
ATOM     85  C   UNL A   1      42.550  21.192  27.883  1.00  0.00     0.059 A 
ATOM     86  F   UNL A   1      43.057  22.815  29.496  1.00  0.00    -0.206 F 
ATOM     87  C   UNL A   1      42.411  20.840  26.542  1.00  0.00     0.060 A 
BRANCH  87  88
ATOM     88  S   UNL A   1      41.944  19.159  26.082  1.00  0.00     0.124 S 
ATOM     89  O   UNL A   1      42.788  18.927  24.917  1.00  0.00    -0.237 OA
ATOM     90  O   UNL A   1      42.294  18.409  27.285  1.00  0.00    -0.237 OA
ATOM     91  O   UNL A   1      40.513  19.269  25.816  1.00  0.00    -0.744 OA
ENDBRANCH  87  88
ENDBRANCH  55  80
BRANCH  67  92
ATOM     92  C   UNL A   1      49.299  26.820  27.116  1.00  0.00     0.058 A 
ATOM     93  C   UNL A   1      49.776  26.869  25.796  1.00  0.00     0.135 A 
ATOM     94  C   UNL A   1      50.176  26.364  28.113  1.00  0.00     0.135 A 
ATOM     95  F   UNL A   1      48.977  27.293  24.805  1.00  0.00    -0.206 F 
ATOM     96  C   UNL A   1      51.058  26.442  25.472  1.00  0.00     0.059 A 
ATOM     97  C   UNL A   1      51.475  25.963  27.817  1.00  0.00     0.059 A 
ATOM     98  F   UNL A   1      49.776  26.311  29.393  1.00  0.00    -0.206 F 
ATOM     99  C   UNL A   1      51.900  25.987  26.490  1.00  0.00     0.060 A 
BRANCH  99 100
ATOM    100  S   UNL A   1      53.563  25.438  26.056  1.00  0.00     0.124 S 
ATOM    101  O   UNL A   1      53.981  26.479  25.122  1.00  0.00    -0.237 OA
ATOM    102  O   UNL A   1      54.240  25.437  27.349  1.00  0.00    -0.237 OA
ATOM    103  O   UNL A   1      53.344  24.119  25.469  1.00  0.00    -0.744 OA
ENDBRANCH  99 100
ENDBRANCH  67  92
ENDBRANCH  41  42
ENDBRANCH  34  36
ENDBRANCH  33  34
ENDBRANCH  32  33
ENDBRANCH  31  32
ENDBRANCH  30  31
ENDBRANCH  29  30
ENDBRANCH   1  29
TORSDOF 25
ENDMDL
MODEL 2
REMARK VINA RESULT:      -9.0      5.234     12.163
REMARK SMILES C[N@H+]1C[C@@H](Oc2cccc3cccnc23)C[C@H]1C(=O)OCCOCCOCCOCCOC(=O)c1ccc(-c2c3nc(c(-c4c(F)cc(S(=O)(=O)[O-])cc4F)c4ccc([nH]4)c(-c4c(F)cc(S(=O)(=O)[O-])cc4F)c4nc(c(-c5c(F)cc(S(=O)(=O)[O-])cc5F)c5ccc2[nH]5)C=C4)C=C3)cc1
REMARK SMILES IDX 27 1 26 2 25 3 24 4 23 5 22 6 21 7 20 8 18 9 19 10 17 11
REMARK SMILES IDX 1 12 2 13 3 14 4 16 16 17 5 18 6 19 7 20 15 21 8 22 10 23
REMARK SMILES IDX 14 24 9 25 11 26 13 27 12 28 28 29 29 30 30 31 31 32 32 33
REMARK SMILES IDX 33 34 34 35 35 36 36 37 100 38 37 39 99 40 38 41 39 42 40 43
REMARK SMILES IDX 93 44 41 45 98 46 92 47 94 48 42 49 97 50 91 51 90 52 43 54
REMARK SMILES IDX 77 55 56 56 76 57 57 58 60 59 75 60 95 61 58 62 59 63 74 65
REMARK SMILES IDX 96 66 61 67 44 68 45 69 54 70 46 71 47 72 53 73 55 74 48 75
REMARK SMILES IDX 49 76 50 77 51 78 52 79 78 80 79 81 88 82 80 83 81 84 87 85
REMARK SMILES IDX 89 86 82 87 83 88 84 89 85 90 86 91 62 92 63 93 72 94 64 95
REMARK SMILES IDX 65 96 71 97 73 98 66 99 67 100 68 101 69 102 70 103
REMARK H PARENT 2 15 94 53 60 64
REMARK Flexibility Score: inf
ROOT
ATOM      1  C   UNL A   1      39.968  23.365  27.540  1.00  0.00     0.188 C 
ENDROOT
BRANCH   1   2
ATOM      2  O   UNL A   1      39.800  24.390  26.562  1.00  0.00    -0.377 OA
BRANCH   2   3
ATOM      3  C   UNL A   1      39.583  25.740  26.937  1.00  0.00     0.188 C 
BRANCH   3   4
ATOM      4  C   UNL A   1      39.768  26.045  28.424  1.00  0.00     0.188 C 
BRANCH   4   5
ATOM      5  O   UNL A   1      39.352  27.319  28.884  1.00  0.00    -0.376 OA
BRANCH   5   6
ATOM      6  C   UNL A   1      40.258  28.407  28.740  1.00  0.00     0.202 C 
BRANCH   6   7
ATOM      7  C   UNL A   1      40.595  29.282  29.957  1.00  0.00     0.261 C 
BRANCH   7   8
ATOM      8  O   UNL A   1      39.707  30.392  30.214  1.00  0.00    -0.459 OA
BRANCH   8   9
ATOM      9  C   UNL A   1      38.496  30.100  30.755  1.00  0.00     0.365 C 
ATOM     10  O   UNL A   1      37.453  30.059  30.098  1.00  0.00    -0.245 OA
BRANCH   9  11
ATOM     11  C   UNL A   1      38.465  29.808  32.262  1.00  0.00     0.298 C 
ATOM     12  C   UNL A   1      40.633  30.121  33.567  1.00  0.00     0.333 C 
ATOM     13  N   UNL A   1      39.342  30.553  33.139  1.00  0.00    -0.322 N 
ATOM     14  C   UNL A   1      38.848  31.879  33.418  1.00  0.00     0.308 C 
ATOM     15  H   UNL A   1      39.632  29.902  33.869  1.00  0.00     0.348 HD
ATOM     16  C   UNL A   1      37.327  31.664  33.371  1.00  0.00     0.234 C 
ATOM     17  C   UNL A   1      37.106  30.244  32.812  1.00  0.00     0.128 C 
BRANCH  16  18
ATOM     18  O   UNL A   1      36.487  32.652  32.768  1.00  0.00    -0.482 OA
BRANCH  18  19
ATOM     19  C   UNL A   1      36.914  33.232  31.599  1.00  0.00     0.146 A 
ATOM     20  C   UNL A   1      38.172  33.847  31.607  1.00  0.00     0.049 A 
ATOM     21  C   UNL A   1      36.200  33.033  30.407  1.00  0.00     0.112 A 
ATOM     22  C   UNL A   1      38.716  34.343  30.429  1.00  0.00     0.005 A 
ATOM     23  C   UNL A   1      36.770  33.546  29.217  1.00  0.00     0.004 A 
ATOM     24  N   UNL A   1      35.018  32.371  30.391  1.00  0.00    -0.252 NA
ATOM     25  C   UNL A   1      38.013  34.201  29.237  1.00  0.00     0.010 A 
ATOM     26  C   UNL A   1      36.081  33.362  28.012  1.00  0.00     0.012 A 
ATOM     27  C   UNL A   1      34.404  32.181  29.203  1.00  0.00     0.112 A 
ATOM     28  C   UNL A   1      34.888  32.656  28.002  1.00  0.00     0.021 A 
ENDBRANCH  18  19
ENDBRANCH  16  18
ENDBRANCH   9  11
ENDBRANCH   8   9
ENDBRANCH   7   8
ENDBRANCH   6   7
ENDBRANCH   5   6
ENDBRANCH   4   5
ENDBRANCH   3   4
ENDBRANCH   2   3
ENDBRANCH   1   2
BRANCH   1  29
ATOM     29  C   UNL A   1      40.492  22.016  27.056  1.00  0.00     0.188 C 
BRANCH  29  30
ATOM     30  O   UNL A   1      41.915  21.854  27.018  1.00  0.00    -0.376 OA
BRANCH  30  31
ATOM     31  C   UNL A   1      42.470  20.896  26.118  1.00  0.00     0.202 C 
BRANCH  31  32
ATOM     32  C   UNL A   1      43.711  21.368  25.368  1.00  0.00     0.261 C 
BRANCH  32  33
ATOM     33  O   UNL A   1      43.473  22.586  24.648  1.00  0.00    -0.460 OA
BRANCH  33  34
ATOM     34  C   UNL A   1      44.558  23.376  24.513  1.00  0.00     0.338 C 
ATOM     35  O   UNL A   1      45.486  23.231  23.721  1.00  0.00    -0.246 OA
BRANCH  34  36
ATOM     36  C   UNL A   1      44.442  24.556  25.382  1.00  0.00     0.060 A 
ATOM     37  C   UNL A   1      45.625  25.162  25.822  1.00  0.00     0.016 A 
ATOM     38  C   UNL A   1      43.199  24.977  25.863  1.00  0.00     0.016 A 
ATOM     39  C   UNL A   1      45.577  26.130  26.817  1.00  0.00     0.010 A 
ATOM     40  C   UNL A   1      43.153  25.946  26.867  1.00  0.00     0.010 A 
ATOM     41  C   UNL A   1      44.346  26.474  27.389  1.00  0.00    -0.014 A 
BRANCH  41  42
ATOM     42  C   UNL A   1      44.342  27.193  28.682  1.00  0.00     0.031 A 
ATOM     43  C   UNL A   1      44.525  26.390  29.942  1.00  0.00     0.074 A 
ATOM     44  C   UNL A   1      44.252  28.532  28.724  1.00  0.00     0.049 A 
ATOM     45  N   UNL A   1      44.561  26.794  31.185  1.00  0.00    -0.248 NA
ATOM     46  C   UNL A   1      44.693  24.936  29.780  1.00  0.00     0.031 C 
ATOM     47  C   UNL A   1      44.137  29.407  27.559  1.00  0.00     0.029 A 
ATOM     48  N   UNL A   1      44.252  29.388  29.794  1.00  0.00    -0.354 N 
ATOM     49  C   UNL A   1      44.751  25.648  31.949  1.00  0.00     0.074 A 
ATOM     50  C   UNL A   1      44.784  24.528  31.036  1.00  0.00     0.031 C 
ATOM     51  C   UNL A   1      44.072  30.681  27.981  1.00  0.00     0.029 A 
ATOM     52  C   UNL A   1      44.099  30.705  29.441  1.00  0.00     0.049 A 
ATOM     53  H   UNL A   1      44.351  29.087  30.725  1.00  0.00     0.167 HD
ATOM     54  C   UNL A   1      44.901  25.543  33.290  1.00  0.00     0.037 A 
ATOM     55  C   UNL A   1      43.975  31.803  30.210  1.00  0.00     0.037 A 
ATOM     56  C   UNL A   1      44.871  26.669  34.186  1.00  0.00     0.049 A 
ATOM     57  C   UNL A   1      44.069  31.654  31.706  1.00  0.00     0.074 A 
ATOM     58  C   UNL A   1      45.025  26.681  35.560  1.00  0.00     0.029 A 
ATOM     59  N   UNL A   1      44.666  27.984  33.795  1.00  0.00    -0.354 N 
ATOM     60  N   UNL A   1      44.266  30.568  32.416  1.00  0.00    -0.248 NA
ATOM     61  C   UNL A   1      43.938  32.880  32.503  1.00  0.00     0.031 C 
ATOM     62  C   UNL A   1      44.859  27.997  36.006  1.00  0.00     0.029 A 
ATOM     63  C   UNL A   1      44.661  28.814  34.904  1.00  0.00     0.049 A 
ATOM     64  H   UNL A   1      44.542  28.285  32.866  1.00  0.00     0.167 HD
ATOM     65  C   UNL A   1      44.311  30.983  33.742  1.00  0.00     0.074 A 
ATOM     66  C   UNL A   1      44.138  32.422  33.731  1.00  0.00     0.031 C 
ATOM     67  C   UNL A   1      44.481  30.244  34.869  1.00  0.00     0.037 A 
BRANCH  54  68
ATOM     68  C   UNL A   1      45.080  24.165  33.866  1.00  0.00     0.058 A 
ATOM     69  C   UNL A   1      43.986  23.348  34.199  1.00  0.00     0.135 A 
ATOM     70  C   UNL A   1      46.369  23.643  34.070  1.00  0.00     0.135 A 
ATOM     71  F   UNL A   1      42.732  23.803  34.047  1.00  0.00    -0.206 F 
ATOM     72  C   UNL A   1      44.163  22.077  34.737  1.00  0.00     0.059 A 
ATOM     73  C   UNL A   1      46.569  22.363  34.578  1.00  0.00     0.059 A 
ATOM     74  F   UNL A   1      47.449  24.382  33.776  1.00  0.00    -0.206 F 
ATOM     75  C   UNL A   1      45.460  21.593  34.921  1.00  0.00     0.060 A 
BRANCH  75  76
ATOM     76  S   UNL A   1      45.672  19.937  35.609  1.00  0.00     0.124 S 
ATOM     77  O   UNL A   1      46.968  19.555  35.055  1.00  0.00    -0.237 OA
ATOM     78  O   UNL A   1      45.649  20.192  37.046  1.00  0.00    -0.237 OA
ATOM     79  O   UNL A   1      44.526  19.201  35.086  1.00  0.00    -0.744 OA
ENDBRANCH  75  76
ENDBRANCH  54  68
BRANCH  55  80
ATOM     80  C   UNL A   1      43.741  33.130  29.581  1.00  0.00     0.058 A 
ATOM     81  C   UNL A   1      44.802  33.892  29.073  1.00  0.00     0.135 A 
ATOM     82  C   UNL A   1      42.444  33.658  29.468  1.00  0.00     0.135 A 
ATOM     83  F   UNL A   1      46.060  33.432  29.160  1.00  0.00    -0.206 F 
ATOM     84  C   UNL A   1      44.591  35.138  28.492  1.00  0.00     0.059 A 
ATOM     85  C   UNL A   1      42.205  34.889  28.867  1.00  0.00     0.059 A 
ATOM     86  F   UNL A   1      41.390  32.959  29.919  1.00  0.00    -0.206 F 
ATOM     87  C   UNL A   1      43.287  35.626  28.391  1.00  0.00     0.060 A 
BRANCH  87  88
ATOM     88  S   UNL A   1      43.023  37.221  27.588  1.00  0.00     0.124 S 
ATOM     89  O   UNL A   1      42.465  38.011  28.679  1.00  0.00    -0.237 OA
ATOM     90  O   UNL A   1      44.375  37.575  27.168  1.00  0.00    -0.237 OA
ATOM     91  O   UNL A   1      42.100  36.902  26.502  1.00  0.00    -0.744 OA
ENDBRANCH  87  88
ENDBRANCH  55  80
BRANCH  67  92
ATOM     92  C   UNL A   1      44.515  30.988  36.176  1.00  0.00     0.058 A 
ATOM     93  C   UNL A   1      43.391  31.060  37.014  1.00  0.00     0.135 A 
ATOM     94  C   UNL A   1      45.695  31.618  36.605  1.00  0.00     0.135 A 
ATOM     95  F   UNL A   1      42.238  30.479  36.649  1.00  0.00    -0.206 F 
ATOM     96  C   UNL A   1      43.424  31.765  38.212  1.00  0.00     0.059 A 
ATOM     97  C   UNL A   1      45.760  32.300  37.815  1.00  0.00     0.059 A 
ATOM     98  F   UNL A   1      46.802  31.568  35.848  1.00  0.00    -0.206 F 
ATOM     99  C   UNL A   1      44.613  32.384  38.603  1.00  0.00     0.060 A 
BRANCH  99 100
ATOM    100  S   UNL A   1      44.643  33.294  40.161  1.00  0.00     0.124 S 
ATOM    101  O   UNL A   1      45.532  34.405  39.834  1.00  0.00    -0.237 OA
ATOM    102  O   UNL A   1      43.238  33.641  40.348  1.00  0.00    -0.237 OA
ATOM    103  O   UNL A   1      45.175  32.322  41.112  1.00  0.00    -0.744 OA
ENDBRANCH  99 100
ENDBRANCH  67  92
ENDBRANCH  41  42
ENDBRANCH  34  36
ENDBRANCH  33  34
ENDBRANCH  32  33
ENDBRANCH  31  32
ENDBRANCH  30  31
ENDBRANCH  29  30
ENDBRANCH   1  29
TORSDOF 25
ENDMDL
MODEL 3
REMARK VINA RESULT:      -8.9      4.273      8.909
REMARK SMILES C[N@H+]1C[C@@H](Oc2cccc3cccnc23)C[C@H]1C(=O)OCCOCCOCCOCCOC(=O)c1ccc(-c2c3nc(c(-c4c(F)cc(S(=O)(=O)[O-])cc4F)c4ccc([nH]4)c(-c4c(F)cc(S(=O)(=O)[O-])cc4F)c4nc(c(-c5c(F)cc(S(=O)(=O)[O-])cc5F)c5ccc2[nH]5)C=C4)C=C3)cc1
REMARK SMILES IDX 27 1 26 2 25 3 24 4 23 5 22 6 21 7 20 8 18 9 19 10 17 11
REMARK SMILES IDX 1 12 2 13 3 14 4 16 16 17 5 18 6 19 7 20 15 21 8 22 10 23
REMARK SMILES IDX 14 24 9 25 11 26 13 27 12 28 28 29 29 30 30 31 31 32 32 33
REMARK SMILES IDX 33 34 34 35 35 36 36 37 100 38 37 39 99 40 38 41 39 42 40 43
REMARK SMILES IDX 93 44 41 45 98 46 92 47 94 48 42 49 97 50 91 51 90 52 43 54
REMARK SMILES IDX 77 55 56 56 76 57 57 58 60 59 75 60 95 61 58 62 59 63 74 65
REMARK SMILES IDX 96 66 61 67 44 68 45 69 54 70 46 71 47 72 53 73 55 74 48 75
REMARK SMILES IDX 49 76 50 77 51 78 52 79 78 80 79 81 88 82 80 83 81 84 87 85
REMARK SMILES IDX 89 86 82 87 83 88 84 89 85 90 86 91 62 92 63 93 72 94 64 95
REMARK SMILES IDX 65 96 71 97 73 98 66 99 67 100 68 101 69 102 70 103
REMARK H PARENT 2 15 94 53 60 64
REMARK Flexibility Score: inf
ROOT
ATOM      1  C   UNL A   1      38.454  33.975  33.026  1.00  0.00     0.188 C 
ENDROOT
BRANCH   1   2
ATOM      2  O   UNL A   1      39.118  32.726  32.832  1.00  0.00    -0.377 OA
BRANCH   2   3
ATOM      3  C   UNL A   1      38.607  31.525  33.385  1.00  0.00     0.188 C 
BRANCH   3   4
ATOM      4  C   UNL A   1      39.659  30.489  33.786  1.00  0.00     0.188 C 
BRANCH   4   5
ATOM      5  O   UNL A   1      39.349  29.126  33.559  1.00  0.00    -0.376 OA
BRANCH   5   6
ATOM      6  C   UNL A   1      40.280  28.348  32.814  1.00  0.00     0.202 C 
BRANCH   6   7
ATOM      7  C   UNL A   1      41.771  28.718  32.837  1.00  0.00     0.261 C 
BRANCH   7   8
ATOM      8  O   UNL A   1      42.702  27.620  32.965  1.00  0.00    -0.459 OA
BRANCH   8   9
ATOM      9  C   UNL A   1      42.965  27.179  34.222  1.00  0.00     0.365 C 
ATOM     10  O   UNL A   1      42.782  27.862  35.232  1.00  0.00    -0.245 OA
BRANCH   9  11
ATOM     11  C   UNL A   1      43.514  25.751  34.352  1.00  0.00     0.298 C 
ATOM     12  C   UNL A   1      44.087  24.508  32.201  1.00  0.00     0.333 C 
ATOM     13  N   UNL A   1      44.445  25.263  33.357  1.00  0.00    -0.322 N 
ATOM     14  C   UNL A   1      45.782  25.762  33.561  1.00  0.00     0.308 C 
ATOM     15  H   UNL A   1      44.232  24.274  33.233  1.00  0.00     0.348 HD
ATOM     16  C   UNL A   1      45.838  25.896  35.091  1.00  0.00     0.234 C 
ATOM     17  C   UNL A   1      44.398  25.683  35.599  1.00  0.00     0.128 C 
BRANCH  16  18
ATOM     18  O   UNL A   1      46.492  27.021  35.684  1.00  0.00    -0.482 OA
BRANCH  18  19
ATOM     19  C   UNL A   1      47.459  27.663  34.949  1.00  0.00     0.146 A 
ATOM     20  C   UNL A   1      47.072  28.801  34.231  1.00  0.00     0.049 A 
ATOM     21  C   UNL A   1      48.809  27.301  35.084  1.00  0.00     0.112 A 
ATOM     22  C   UNL A   1      48.023  29.566  33.567  1.00  0.00     0.005 A 
ATOM     23  C   UNL A   1      49.763  28.094  34.401  1.00  0.00     0.004 A 
ATOM     24  N   UNL A   1      49.188  26.244  35.841  1.00  0.00    -0.252 NA
ATOM     25  C   UNL A   1      49.365  29.210  33.645  1.00  0.00     0.010 A 
ATOM     26  C   UNL A   1      51.117  27.759  34.517  1.00  0.00     0.012 A 
ATOM     27  C   UNL A   1      50.506  25.977  35.959  1.00  0.00     0.112 A 
ATOM     28  C   UNL A   1      51.496  26.694  35.320  1.00  0.00     0.021 A 
ENDBRANCH  18  19
ENDBRANCH  16  18
ENDBRANCH   9  11
ENDBRANCH   8   9
ENDBRANCH   7   8
ENDBRANCH   6   7
ENDBRANCH   5   6
ENDBRANCH   4   5
ENDBRANCH   3   4
ENDBRANCH   2   3
ENDBRANCH   1   2
BRANCH   1  29
ATOM     29  C   UNL A   1      37.208  34.242  32.186  1.00  0.00     0.188 C 
BRANCH  29  30
ATOM     30  O   UNL A   1      35.944  33.975  32.805  1.00  0.00    -0.376 OA
BRANCH  30  31
ATOM     31  C   UNL A   1      34.824  33.681  31.972  1.00  0.00     0.202 C 
BRANCH  31  32
ATOM     32  C   UNL A   1      35.179  33.128  30.595  1.00  0.00     0.261 C 
BRANCH  32  33
ATOM     33  O   UNL A   1      34.752  31.767  30.436  1.00  0.00    -0.460 OA
BRANCH  33  34
ATOM     34  C   UNL A   1      34.837  31.299  29.174  1.00  0.00     0.338 C 
ATOM     35  O   UNL A   1      34.108  31.584  28.227  1.00  0.00    -0.246 OA
BRANCH  34  36
ATOM     36  C   UNL A   1      36.034  30.459  29.021  1.00  0.00     0.060 A 
ATOM     37  C   UNL A   1      36.562  29.860  30.171  1.00  0.00     0.016 A 
ATOM     38  C   UNL A   1      36.700  30.369  27.796  1.00  0.00     0.016 A 
ATOM     39  C   UNL A   1      37.808  29.248  30.122  1.00  0.00     0.010 A 
ATOM     40  C   UNL A   1      37.955  29.760  27.749  1.00  0.00     0.010 A 
ATOM     41  C   UNL A   1      38.536  29.258  28.925  1.00  0.00    -0.014 A 
BRANCH  41  42
ATOM     42  C   UNL A   1      39.985  28.964  28.975  1.00  0.00     0.031 A 
ATOM     43  C   UNL A   1      40.916  30.054  29.437  1.00  0.00     0.074 A 
ATOM     44  C   UNL A   1      40.449  27.738  28.689  1.00  0.00     0.049 A 
ATOM     45  N   UNL A   1      42.216  30.034  29.569  1.00  0.00    -0.248 NA
ATOM     46  C   UNL A   1      40.296  31.340  29.803  1.00  0.00     0.031 C 
ATOM     47  C   UNL A   1      39.627  26.594  28.296  1.00  0.00     0.029 A 
ATOM     48  N   UNL A   1      41.729  27.249  28.695  1.00  0.00    -0.354 N 
ATOM     49  C   UNL A   1      42.568  31.299  30.027  1.00  0.00     0.074 A 
ATOM     50  C   UNL A   1      41.352  32.075  30.114  1.00  0.00     0.031 C 
ATOM     51  C   UNL A   1      40.429  25.536  28.091  1.00  0.00     0.029 A 
ATOM     52  C   UNL A   1      41.817  25.938  28.299  1.00  0.00     0.049 A 
ATOM     53  H   UNL A   1      42.510  27.787  28.956  1.00  0.00     0.167 HD
ATOM     54  C   UNL A   1      43.795  31.765  30.360  1.00  0.00     0.037 A 
ATOM     55  C   UNL A   1      42.897  25.157  28.108  1.00  0.00     0.037 A 
ATOM     56  C   UNL A   1      44.997  30.978  30.273  1.00  0.00     0.049 A 
ATOM     57  C   UNL A   1      44.260  25.719  28.412  1.00  0.00     0.074 A 
ATOM     58  C   UNL A   1      46.291  31.343  30.597  1.00  0.00     0.029 A 
ATOM     59  N   UNL A   1      45.051  29.667  29.822  1.00  0.00    -0.354 N 
ATOM     60  N   UNL A   1      44.580  26.911  28.862  1.00  0.00    -0.248 NA
ATOM     61  C   UNL A   1      45.407  24.829  28.200  1.00  0.00     0.031 C 
ATOM     62  C   UNL A   1      47.135  30.270  30.290  1.00  0.00     0.029 A 
ATOM     63  C   UNL A   1      46.361  29.215  29.831  1.00  0.00     0.049 A 
ATOM     64  H   UNL A   1      44.274  29.134  29.537  1.00  0.00     0.167 HD
ATOM     65  C   UNL A   1      45.962  26.904  29.010  1.00  0.00     0.074 A 
ATOM     66  C   UNL A   1      46.414  25.582  28.621  1.00  0.00     0.031 C 
ATOM     67  C   UNL A   1      46.787  27.897  29.432  1.00  0.00     0.037 A 
BRANCH  54  68
ATOM     68  C   UNL A   1      43.898  33.194  30.818  1.00  0.00     0.058 A 
ATOM     69  C   UNL A   1      44.155  34.247  29.924  1.00  0.00     0.135 A 
ATOM     70  C   UNL A   1      43.715  33.519  32.173  1.00  0.00     0.135 A 
ATOM     71  F   UNL A   1      44.360  33.993  28.622  1.00  0.00    -0.206 F 
ATOM     72  C   UNL A   1      44.254  35.565  30.360  1.00  0.00     0.059 A 
ATOM     73  C   UNL A   1      43.780  34.833  32.626  1.00  0.00     0.059 A 
ATOM     74  F   UNL A   1      43.475  32.553  33.072  1.00  0.00    -0.206 F 
ATOM     75  C   UNL A   1      44.063  35.847  31.714  1.00  0.00     0.060 A 
BRANCH  75  76
ATOM     76  S   UNL A   1      44.184  37.564  32.261  1.00  0.00     0.124 S 
ATOM     77  O   UNL A   1      43.220  37.588  33.358  1.00  0.00    -0.237 OA
ATOM     78  O   UNL A   1      45.586  37.669  32.649  1.00  0.00    -0.237 OA
ATOM     79  O   UNL A   1      43.803  38.326  31.077  1.00  0.00    -0.744 OA
ENDBRANCH  75  76
ENDBRANCH  54  68
BRANCH  55  80
ATOM     80  C   UNL A   1      42.732  23.771  27.597  1.00  0.00     0.058 A 
ATOM     81  C   UNL A   1      42.550  22.690  28.471  1.00  0.00     0.135 A 
ATOM     82  C   UNL A   1      42.745  23.502  26.219  1.00  0.00     0.135 A 
ATOM     83  F   UNL A   1      42.532  22.895  29.797  1.00  0.00    -0.206 F 
ATOM     84  C   UNL A   1      42.404  21.389  27.999  1.00  0.00     0.059 A 
ATOM     85  C   UNL A   1      42.574  22.214  25.722  1.00  0.00     0.059 A 
ATOM     86  F   UNL A   1      42.894  24.505  25.338  1.00  0.00    -0.206 F 
ATOM     87  C   UNL A   1      42.415  21.163  26.621  1.00  0.00     0.060 A 
BRANCH  87  88
ATOM     88  S   UNL A   1      42.173  19.477  26.022  1.00  0.00     0.124 S 
ATOM     89  O   UNL A   1      42.983  19.476  24.811  1.00  0.00    -0.237 OA
ATOM     90  O   UNL A   1      42.686  18.685  27.136  1.00  0.00    -0.237 OA
ATOM     91  O   UNL A   1      40.730  19.397  25.819  1.00  0.00    -0.744 OA
ENDBRANCH  87  88
ENDBRANCH  55  80
BRANCH  67  92
ATOM     92  C   UNL A   1      48.254  27.577  29.519  1.00  0.00     0.058 A 
ATOM     93  C   UNL A   1      48.815  26.982  30.660  1.00  0.00     0.135 A 
ATOM     94  C   UNL A   1      49.106  27.849  28.436  1.00  0.00     0.135 A 
ATOM     95  F   UNL A   1      48.045  26.706  31.724  1.00  0.00    -0.206 F 
ATOM     96  C   UNL A   1      50.175  26.707  30.740  1.00  0.00     0.059 A 
ATOM     97  C   UNL A   1      50.464  27.551  28.481  1.00  0.00     0.059 A 
ATOM     98  F   UNL A   1      48.619  28.404  27.314  1.00  0.00    -0.206 F 
ATOM     99  C   UNL A   1      50.992  26.998  29.646  1.00  0.00     0.060 A 
BRANCH  99 100
ATOM    100  S   UNL A   1      52.755  26.633  29.762  1.00  0.00     0.124 S 
ATOM    101  O   UNL A   1      53.024  26.063  28.445  1.00  0.00    -0.237 OA
ATOM    102  O   UNL A   1      53.333  27.950  30.012  1.00  0.00    -0.237 OA
ATOM    103  O   UNL A   1      52.836  25.697  30.880  1.00  0.00    -0.744 OA
ENDBRANCH  99 100
ENDBRANCH  67  92
ENDBRANCH  41  42
ENDBRANCH  34  36
ENDBRANCH  33  34
ENDBRANCH  32  33
ENDBRANCH  31  32
ENDBRANCH  30  31
ENDBRANCH  29  30
ENDBRANCH   1  29
TORSDOF 25
ENDMDL
