MODEL 1
REMARK VINA RESULT:      -5.6      0.000      0.000
REMARK SMILES CCCNC(=O)CN(C)C(=O)C[N@H+]1CCCC[C@H]1C(=O)OCCOCCOCCOCCOC(=O)c1ccc(-c2c3nc(c(-c4c(F)cc(S(=O)(=O)[O-])cc4F)c4ccc([nH]4)c(-c4c(F)cc(S(=O)(=O)[O-])cc4F)c4nc(c(-c5c(F)cc(S(=O)(=O)[O-])cc5F)c5ccc2[nH]5)C=C4)C=C3)cc1
REMARK SMILES IDX 25 1 24 2 23 3 22 4 21 5 19 6 20 7 18 8 13 9 14 10 15 12
REMARK SMILES IDX 17 13 16 14 12 15 10 16 11 17 8 18 9 19 7 20 5 21 4 22 6 24
REMARK SMILES IDX 3 25 2 26 1 27 26 28 27 29 28 30 29 31 30 32 31 33 32 34
REMARK SMILES IDX 33 35 34 36 35 37 36 38 37 39 101 40 38 41 100 42 39 43
REMARK SMILES IDX 40 44 41 45 94 46 42 47 99 48 93 49 95 50 43 51 98 52 92 53
REMARK SMILES IDX 91 54 44 56 78 57 57 58 77 59 58 60 61 61 76 62 96 63 59 64
REMARK SMILES IDX 60 65 75 67 97 68 62 69 45 70 46 71 55 72 47 73 48 74 54 75
REMARK SMILES IDX 56 76 49 77 50 78 51 79 52 80 53 81 79 82 80 83 89 84 81 85
REMARK SMILES IDX 82 86 88 87 90 88 83 89 84 90 85 91 86 92 87 93 63 94 64 95
REMARK SMILES IDX 73 96 65 97 66 98 72 99 74 100 67 101 68 102 69 103 70 104
REMARK SMILES IDX 71 105
REMARK H PARENT 13 11 4 23 95 55 61 66
REMARK Flexibility Score: inf
ROOT
ATOM      1  C   UNL A   1      49.480  28.796  28.371  1.00  0.00     0.188 C 
ENDROOT
BRANCH   1   2
ATOM      2  O   UNL A   1      48.074  28.790  28.362  1.00  0.00    -0.376 OA
BRANCH   2   3
ATOM      3  C   UNL A   1      47.378  29.972  28.027  1.00  0.00     0.202 C 
BRANCH   3   4
ATOM      4  C   UNL A   1      47.106  30.440  26.586  1.00  0.00     0.261 C 
BRANCH   4   5
ATOM      5  O   UNL A   1      46.769  31.808  26.293  1.00  0.00    -0.459 OA
BRANCH   5   6
ATOM      6  C   UNL A   1      47.772  32.691  26.552  1.00  0.00     0.365 C 
ATOM      7  O   UNL A   1      48.957  32.364  26.510  1.00  0.00    -0.245 OA
BRANCH   6   8
ATOM      8  C   UNL A   1      47.311  34.098  27.039  1.00  0.00     0.295 C 
ATOM      9  N   UNL A   1      48.034  34.533  28.273  1.00  0.00    -0.315 N 
ATOM     10  C   UNL A   1      49.432  34.856  27.920  1.00  0.00     0.263 C 
ATOM     11  H   UNL A   1      47.535  35.353  28.616  1.00  0.00     0.349 HD
ATOM     12  C   UNL A   1      49.555  36.026  26.939  1.00  0.00     0.062 C 
ATOM     13  C   UNL A   1      47.244  35.318  26.103  1.00  0.00     0.078 C 
ATOM     14  C   UNL A   1      48.542  36.046  25.806  1.00  0.00     0.013 C 
BRANCH   9  15
ATOM     15  C   UNL A   1      47.988  33.570  29.424  1.00  0.00     0.364 C 
BRANCH  15  16
ATOM     16  C   UNL A   1      47.358  34.050  30.766  1.00  0.00     0.277 C 
ATOM     17  O   UNL A   1      46.544  34.978  30.757  1.00  0.00    -0.268 OA
BRANCH  16  18
ATOM     18  N   UNL A   1      47.689  33.404  31.961  1.00  0.00    -0.332 N 
ATOM     19  C   UNL A   1      48.990  33.635  32.559  1.00  0.00     0.147 C 
BRANCH  18  20
ATOM     20  C   UNL A   1      46.984  32.152  32.305  1.00  0.00     0.219 C 
BRANCH  20  21
ATOM     21  C   UNL A   1      45.477  32.224  32.646  1.00  0.00     0.239 C 
ATOM     22  N   UNL A   1      44.488  32.071  31.717  1.00  0.00    -0.355 N 
ATOM     23  H   UNL A   1      43.580  32.111  32.097  1.00  0.00     0.163 HD
ATOM     24  O   UNL A   1      45.110  32.502  33.793  1.00  0.00    -0.273 OA
BRANCH  22  25
ATOM     25  C   UNL A   1      44.509  31.861  30.280  1.00  0.00     0.115 C 
BRANCH  25  26
ATOM     26  C   UNL A   1      43.667  32.895  29.535  1.00  0.00     0.018 C 
ATOM     27  C   UNL A   1      42.177  32.950  29.839  1.00  0.00     0.006 C 
ENDBRANCH  25  26
ENDBRANCH  22  25
ENDBRANCH  20  21
ENDBRANCH  18  20
ENDBRANCH  16  18
ENDBRANCH  15  16
ENDBRANCH   9  15
ENDBRANCH   6   8
ENDBRANCH   5   6
ENDBRANCH   4   5
ENDBRANCH   3   4
ENDBRANCH   2   3
ENDBRANCH   1   2
BRANCH   1  28
ATOM     28  C   UNL A   1      50.082  29.599  29.527  1.00  0.00     0.188 C 
BRANCH  28  29
ATOM     29  O   UNL A   1      49.914  29.160  30.870  1.00  0.00    -0.377 OA
BRANCH  29  30
ATOM     30  C   UNL A   1      50.479  29.936  31.918  1.00  0.00     0.188 C 
BRANCH  30  31
ATOM     31  C   UNL A   1      50.341  29.402  33.350  1.00  0.00     0.188 C 
BRANCH  31  32
ATOM     32  O   UNL A   1      51.501  29.009  34.050  1.00  0.00    -0.376 OA
BRANCH  32  33
ATOM     33  C   UNL A   1      51.479  28.337  35.292  1.00  0.00     0.202 C 
BRANCH  33  34
ATOM     34  C   UNL A   1      50.463  27.285  35.757  1.00  0.00     0.261 C 
BRANCH  34  35
ATOM     35  O   UNL A   1      49.294  27.687  36.456  1.00  0.00    -0.460 OA
BRANCH  35  36
ATOM     36  C   UNL A   1      48.253  26.828  36.429  1.00  0.00     0.338 C 
ATOM     37  O   UNL A   1      48.276  25.633  36.627  1.00  0.00    -0.246 OA
BRANCH  36  38
ATOM     38  C   UNL A   1      47.038  27.635  36.208  1.00  0.00     0.060 A 
ATOM     39  C   UNL A   1      45.799  27.175  36.668  1.00  0.00     0.016 A 
ATOM     40  C   UNL A   1      47.137  28.829  35.492  1.00  0.00     0.016 A 
ATOM     41  C   UNL A   1      44.639  27.879  36.351  1.00  0.00     0.010 A 
ATOM     42  C   UNL A   1      45.976  29.524  35.162  1.00  0.00     0.010 A 
ATOM     43  C   UNL A   1      44.720  29.023  35.549  1.00  0.00    -0.014 A 
BRANCH  43  44
ATOM     44  C   UNL A   1      43.497  29.574  34.925  1.00  0.00     0.031 A 
ATOM     45  C   UNL A   1      43.129  29.095  33.546  1.00  0.00     0.074 A 
ATOM     46  C   UNL A   1      42.738  30.478  35.565  1.00  0.00     0.049 A 
ATOM     47  N   UNL A   1      42.166  29.493  32.758  1.00  0.00    -0.248 NA
ATOM     48  C   UNL A   1      43.967  28.024  32.978  1.00  0.00     0.031 C 
ATOM     49  C   UNL A   1      42.977  30.978  36.918  1.00  0.00     0.029 A 
ATOM     50  N   UNL A   1      41.616  31.147  35.149  1.00  0.00    -0.354 N 
ATOM     51  C   UNL A   1      42.290  28.736  31.600  1.00  0.00     0.074 A 
ATOM     52  C   UNL A   1      43.439  27.875  31.773  1.00  0.00     0.031 C 
ATOM     53  C   UNL A   1      42.038  31.893  37.214  1.00  0.00     0.029 A 
ATOM     54  C   UNL A   1      41.158  32.069  36.060  1.00  0.00     0.049 A 
ATOM     55  H   UNL A   1      41.180  30.983  34.282  1.00  0.00     0.167 HD
ATOM     56  C   UNL A   1      41.510  28.753  30.493  1.00  0.00     0.037 A 
ATOM     57  C   UNL A   1      40.162  32.971  35.955  1.00  0.00     0.037 A 
ATOM     58  C   UNL A   1      40.371  29.618  30.333  1.00  0.00     0.049 A 
ATOM     59  C   UNL A   1      39.350  33.022  34.685  1.00  0.00     0.074 A 
ATOM     60  C   UNL A   1      39.502  29.706  29.261  1.00  0.00     0.029 A 
ATOM     61  N   UNL A   1      39.948  30.551  31.269  1.00  0.00    -0.354 N 
ATOM     62  N   UNL A   1      39.462  32.288  33.602  1.00  0.00    -0.248 NA
ATOM     63  C   UNL A   1      38.274  34.021  34.624  1.00  0.00     0.031 C 
ATOM     64  C   UNL A   1      38.590  30.733  29.523  1.00  0.00     0.029 A 
ATOM     65  C   UNL A   1      38.848  31.239  30.787  1.00  0.00     0.049 A 
ATOM     66  H   UNL A   1      40.368  30.702  32.147  1.00  0.00     0.167 HD
ATOM     67  C   UNL A   1      38.451  32.715  32.745  1.00  0.00     0.074 A 
ATOM     68  C   UNL A   1      37.733  33.764  33.440  1.00  0.00     0.031 C 
ATOM     69  C   UNL A   1      38.141  32.277  31.499  1.00  0.00     0.037 A 
BRANCH  56  70
ATOM     70  C   UNL A   1      41.882  27.836  29.360  1.00  0.00     0.058 A 
ATOM     71  C   UNL A   1      43.013  28.062  28.560  1.00  0.00     0.135 A 
ATOM     72  C   UNL A   1      41.108  26.696  29.088  1.00  0.00     0.135 A 
ATOM     73  F   UNL A   1      43.777  29.148  28.761  1.00  0.00    -0.206 F 
ATOM     74  C   UNL A   1      43.351  27.205  27.517  1.00  0.00     0.059 A 
ATOM     75  C   UNL A   1      41.444  25.808  28.070  1.00  0.00     0.059 A 
ATOM     76  F   UNL A   1      40.012  26.433  29.816  1.00  0.00    -0.206 F 
ATOM     77  C   UNL A   1      42.561  26.078  27.282  1.00  0.00     0.060 A 
BRANCH  77  78
ATOM     78  S   UNL A   1      43.020  24.970  25.932  1.00  0.00     0.124 S 
ATOM     79  O   UNL A   1      44.442  24.771  26.190  1.00  0.00    -0.237 OA
ATOM     80  O   UNL A   1      42.164  23.814  26.176  1.00  0.00    -0.237 OA
ATOM     81  O   UNL A   1      42.702  25.742  24.735  1.00  0.00    -0.744 OA
ENDBRANCH  77  78
ENDBRANCH  56  70
BRANCH  57  82
ATOM     82  C   UNL A   1      39.887  33.908  37.077  1.00  0.00     0.058 A 
ATOM     83  C   UNL A   1      38.990  33.570  38.101  1.00  0.00     0.135 A 
ATOM     84  C   UNL A   1      40.518  35.161  37.148  1.00  0.00     0.135 A 
ATOM     85  F   UNL A   1      38.354  32.389  38.072  1.00  0.00    -0.206 F 
ATOM     86  C   UNL A   1      38.715  34.445  39.148  1.00  0.00     0.059 A 
ATOM     87  C   UNL A   1      40.281  36.040  38.199  1.00  0.00     0.059 A 
ATOM     88  F   UNL A   1      41.393  35.528  36.201  1.00  0.00    -0.206 F 
ATOM     89  C   UNL A   1      39.371  35.676  39.190  1.00  0.00     0.060 A 
BRANCH  89  90
ATOM     90  S   UNL A   1      39.048  36.784  40.579  1.00  0.00     0.124 S 
ATOM     91  O   UNL A   1      38.410  37.914  39.913  1.00  0.00    -0.237 OA
ATOM     92  O   UNL A   1      38.183  35.966  41.425  1.00  0.00    -0.237 OA
ATOM     93  O   UNL A   1      40.380  37.039  41.120  1.00  0.00    -0.744 OA
ENDBRANCH  89  90
ENDBRANCH  57  82
BRANCH  69  94
ATOM     94  C   UNL A   1      36.948  32.895  30.819  1.00  0.00     0.058 A 
ATOM     95  C   UNL A   1      35.634  32.534  31.153  1.00  0.00     0.135 A 
ATOM     96  C   UNL A   1      37.125  33.907  29.862  1.00  0.00     0.135 A 
ATOM     97  F   UNL A   1      35.406  31.569  32.058  1.00  0.00    -0.206 F 
ATOM     98  C   UNL A   1      34.538  33.136  30.542  1.00  0.00     0.059 A 
ATOM     99  C   UNL A   1      36.044  34.546  29.263  1.00  0.00     0.059 A 
ATOM    100  F   UNL A   1      38.360  34.301  29.514  1.00  0.00    -0.206 F 
ATOM    101  C   UNL A   1      34.753  34.144  29.601  1.00  0.00     0.060 A 
BRANCH 101 102
ATOM    102  S   UNL A   1      33.322  34.940  28.842  1.00  0.00     0.124 S 
ATOM    103  O   UNL A   1      33.938  36.082  28.177  1.00  0.00    -0.237 OA
ATOM    104  O   UNL A   1      32.813  33.892  27.962  1.00  0.00    -0.237 OA
ATOM    105  O   UNL A   1      32.467  35.263  29.981  1.00  0.00    -0.744 OA
ENDBRANCH 101 102
ENDBRANCH  69  94
ENDBRANCH  43  44
ENDBRANCH  36  38
ENDBRANCH  35  36
ENDBRANCH  34  35
ENDBRANCH  33  34
ENDBRANCH  32  33
ENDBRANCH  31  32
ENDBRANCH  30  31
ENDBRANCH  29  30
ENDBRANCH  28  29
ENDBRANCH   1  28
TORSDOF 30
ENDMDL
MODEL 2
REMARK VINA RESULT:      -5.6     10.739     17.940
REMARK SMILES CCCNC(=O)CN(C)C(=O)C[N@H+]1CCCC[C@H]1C(=O)OCCOCCOCCOCCOC(=O)c1ccc(-c2c3nc(c(-c4c(F)cc(S(=O)(=O)[O-])cc4F)c4ccc([nH]4)c(-c4c(F)cc(S(=O)(=O)[O-])cc4F)c4nc(c(-c5c(F)cc(S(=O)(=O)[O-])cc5F)c5ccc2[nH]5)C=C4)C=C3)cc1
REMARK SMILES IDX 25 1 24 2 23 3 22 4 21 5 19 6 20 7 18 8 13 9 14 10 15 12
REMARK SMILES IDX 17 13 16 14 12 15 10 16 11 17 8 18 9 19 7 20 5 21 4 22 6 24
REMARK SMILES IDX 3 25 2 26 1 27 26 28 27 29 28 30 29 31 30 32 31 33 32 34
REMARK SMILES IDX 33 35 34 36 35 37 36 38 37 39 101 40 38 41 100 42 39 43
REMARK SMILES IDX 40 44 41 45 94 46 42 47 99 48 93 49 95 50 43 51 98 52 92 53
REMARK SMILES IDX 91 54 44 56 78 57 57 58 77 59 58 60 61 61 76 62 96 63 59 64
REMARK SMILES IDX 60 65 75 67 97 68 62 69 45 70 46 71 55 72 47 73 48 74 54 75
REMARK SMILES IDX 56 76 49 77 50 78 51 79 52 80 53 81 79 82 80 83 89 84 81 85
REMARK SMILES IDX 82 86 88 87 90 88 83 89 84 90 85 91 86 92 87 93 63 94 64 95
REMARK SMILES IDX 73 96 65 97 66 98 72 99 74 100 67 101 68 102 69 103 70 104
REMARK SMILES IDX 71 105
REMARK H PARENT 13 11 4 23 95 55 61 66
REMARK Flexibility Score: inf
ROOT
ATOM      1  C   UNL A   1      47.344  19.417  39.230  1.00  0.00     0.188 C 
ENDROOT
BRANCH   1   2
ATOM      2  O   UNL A   1      46.053  18.940  39.518  1.00  0.00    -0.376 OA
BRANCH   2   3
ATOM      3  C   UNL A   1      45.740  18.540  40.836  1.00  0.00     0.202 C 
BRANCH   3   4
ATOM      4  C   UNL A   1      45.314  19.505  41.957  1.00  0.00     0.261 C 
BRANCH   4   5
ATOM      5  O   UNL A   1      45.434  19.143  43.344  1.00  0.00    -0.459 OA
BRANCH   5   6
ATOM      6  C   UNL A   1      44.355  18.473  43.833  1.00  0.00     0.365 C 
ATOM      7  O   UNL A   1      43.204  18.871  43.660  1.00  0.00    -0.245 OA
BRANCH   6   8
ATOM      8  C   UNL A   1      44.687  17.249  44.740  1.00  0.00     0.295 C 
ATOM      9  N   UNL A   1      44.520  15.951  44.019  1.00  0.00    -0.315 N 
ATOM     10  C   UNL A   1      45.610  15.809  43.031  1.00  0.00     0.263 C 
ATOM     11  H   UNL A   1      44.566  15.225  44.734  1.00  0.00     0.349 HD
ATOM     12  C   UNL A   1      47.002  15.749  43.668  1.00  0.00     0.062 C 
ATOM     13  C   UNL A   1      45.989  17.149  45.553  1.00  0.00     0.078 C 
ATOM     14  C   UNL A   1      47.243  16.714  44.817  1.00  0.00     0.013 C 
BRANCH   9  15
ATOM     15  C   UNL A   1      43.184  15.738  43.368  1.00  0.00     0.364 C 
BRANCH  15  16
ATOM     16  C   UNL A   1      42.345  14.494  43.788  1.00  0.00     0.277 C 
ATOM     17  O   UNL A   1      41.839  14.455  44.914  1.00  0.00    -0.268 OA
BRANCH  16  18
ATOM     18  N   UNL A   1      42.139  13.453  42.878  1.00  0.00    -0.332 N 
ATOM     19  C   UNL A   1      41.852  13.767  41.491  1.00  0.00     0.147 C 
BRANCH  18  20
ATOM     20  C   UNL A   1      41.698  12.141  43.393  1.00  0.00     0.219 C 
BRANCH  20  21
ATOM     21  C   UNL A   1      42.664  10.939  43.272  1.00  0.00     0.239 C 
ATOM     22  N   UNL A   1      43.724  10.739  44.110  1.00  0.00    -0.355 N 
ATOM     23  H   UNL A   1      44.225   9.912  43.923  1.00  0.00     0.163 HD
ATOM     24  O   UNL A   1      42.547  10.136  42.341  1.00  0.00    -0.273 OA
BRANCH  22  25
ATOM     25  C   UNL A   1      44.260  11.504  45.222  1.00  0.00     0.115 C 
BRANCH  25  26
ATOM     26  C   UNL A   1      45.390  12.436  44.788  1.00  0.00     0.018 C 
ATOM     27  C   UNL A   1      46.303  12.995  45.868  1.00  0.00     0.006 C 
ENDBRANCH  25  26
ENDBRANCH  22  25
ENDBRANCH  20  21
ENDBRANCH  18  20
ENDBRANCH  16  18
ENDBRANCH  15  16
ENDBRANCH   9  15
ENDBRANCH   6   8
ENDBRANCH   5   6
ENDBRANCH   4   5
ENDBRANCH   3   4
ENDBRANCH   2   3
ENDBRANCH   1   2
BRANCH   1  28
ATOM     28  C   UNL A   1      47.620  19.571  37.732  1.00  0.00     0.188 C 
BRANCH  28  29
ATOM     29  O   UNL A   1      46.680  20.231  36.891  1.00  0.00    -0.377 OA
BRANCH  29  30
ATOM     30  C   UNL A   1      47.164  21.071  35.853  1.00  0.00     0.188 C 
BRANCH  30  31
ATOM     31  C   UNL A   1      46.476  20.978  34.486  1.00  0.00     0.188 C 
BRANCH  31  32
ATOM     32  O   UNL A   1      45.197  21.550  34.319  1.00  0.00    -0.376 OA
BRANCH  32  33
ATOM     33  C   UNL A   1      44.915  22.917  34.531  1.00  0.00     0.202 C 
BRANCH  33  34
ATOM     34  C   UNL A   1      43.741  23.721  33.953  1.00  0.00     0.261 C 
BRANCH  34  35
ATOM     35  O   UNL A   1      43.700  25.131  34.114  1.00  0.00    -0.460 OA
BRANCH  35  36
ATOM     36  C   UNL A   1      42.954  25.596  35.137  1.00  0.00     0.338 C 
ATOM     37  O   UNL A   1      41.747  25.700  35.185  1.00  0.00    -0.246 OA
BRANCH  36  38
ATOM     38  C   UNL A   1      43.880  25.872  36.252  1.00  0.00     0.060 A 
ATOM     39  C   UNL A   1      44.854  26.869  36.122  1.00  0.00     0.016 A 
ATOM     40  C   UNL A   1      43.804  25.091  37.406  1.00  0.00     0.016 A 
ATOM     41  C   UNL A   1      45.803  27.043  37.127  1.00  0.00     0.010 A 
ATOM     42  C   UNL A   1      44.763  25.255  38.403  1.00  0.00     0.010 A 
ATOM     43  C   UNL A   1      45.794  26.198  38.242  1.00  0.00    -0.014 A 
BRANCH  43  44
ATOM     44  C   UNL A   1      46.975  26.138  39.131  1.00  0.00     0.031 A 
ATOM     45  C   UNL A   1      48.138  25.281  38.707  1.00  0.00     0.074 A 
ATOM     46  C   UNL A   1      47.011  26.824  40.286  1.00  0.00     0.049 A 
ATOM     47  N   UNL A   1      49.237  24.994  39.352  1.00  0.00    -0.248 NA
ATOM     48  C   UNL A   1      48.042  24.659  37.375  1.00  0.00     0.031 C 
ATOM     49  C   UNL A   1      45.960  27.716  40.772  1.00  0.00     0.029 A 
ATOM     50  N   UNL A   1      47.969  26.859  41.266  1.00  0.00    -0.354 N 
ATOM     51  C   UNL A   1      49.955  24.150  38.514  1.00  0.00     0.074 A 
ATOM     52  C   UNL A   1      49.156  23.945  37.326  1.00  0.00     0.031 C 
ATOM     53  C   UNL A   1      46.324  28.199  41.974  1.00  0.00     0.029 A 
ATOM     54  C   UNL A   1      47.611  27.619  42.354  1.00  0.00     0.049 A 
ATOM     55  H   UNL A   1      48.829  26.387  41.198  1.00  0.00     0.167 HD
ATOM     56  C   UNL A   1      51.176  23.600  38.716  1.00  0.00     0.037 A 
ATOM     57  C   UNL A   1      48.241  27.797  43.532  1.00  0.00     0.037 A 
ATOM     58  C   UNL A   1      51.960  23.811  39.904  1.00  0.00     0.049 A 
ATOM     59  C   UNL A   1      49.567  27.118  43.765  1.00  0.00     0.074 A 
ATOM     60  C   UNL A   1      53.216  23.317  40.204  1.00  0.00     0.029 A 
ATOM     61  N   UNL A   1      51.558  24.572  40.992  1.00  0.00    -0.354 N 
ATOM     62  N   UNL A   1      50.248  26.337  42.959  1.00  0.00    -0.248 NA
ATOM     63  C   UNL A   1      50.213  27.348  45.065  1.00  0.00     0.031 C 
ATOM     64  C   UNL A   1      53.548  23.730  41.499  1.00  0.00     0.029 A 
ATOM     65  C   UNL A   1      52.529  24.538  41.978  1.00  0.00     0.049 A 
ATOM     66  H   UNL A   1      50.708  25.065  41.055  1.00  0.00     0.167 HD
ATOM     67  C   UNL A   1      51.417  26.009  43.641  1.00  0.00     0.074 A 
ATOM     68  C   UNL A   1      51.353  26.684  44.921  1.00  0.00     0.031 C 
ATOM     69  C   UNL A   1      52.450  25.225  43.245  1.00  0.00     0.037 A 
BRANCH  56  70
ATOM     70  C   UNL A   1      51.722  22.695  37.645  1.00  0.00     0.058 A 
ATOM     71  C   UNL A   1      52.609  23.159  36.661  1.00  0.00     0.135 A 
ATOM     72  C   UNL A   1      51.374  21.335  37.621  1.00  0.00     0.135 A 
ATOM     73  F   UNL A   1      52.960  24.454  36.622  1.00  0.00    -0.206 F 
ATOM     74  C   UNL A   1      53.113  22.313  35.677  1.00  0.00     0.059 A 
ATOM     75  C   UNL A   1      51.890  20.464  36.666  1.00  0.00     0.059 A 
ATOM     76  F   UNL A   1      50.524  20.838  38.533  1.00  0.00    -0.206 F 
ATOM     77  C   UNL A   1      52.749  20.965  35.690  1.00  0.00     0.060 A 
BRANCH  77  78
ATOM     78  S   UNL A   1      53.420  19.878  34.414  1.00  0.00     0.124 S 
ATOM     79  O   UNL A   1      53.861  20.843  33.412  1.00  0.00    -0.237 OA
ATOM     80  O   UNL A   1      54.482  19.179  35.130  1.00  0.00    -0.237 OA
ATOM     81  O   UNL A   1      52.277  19.055  34.031  1.00  0.00    -0.744 OA
ENDBRANCH  77  78
ENDBRANCH  56  70
BRANCH  57  82
ATOM     82  C   UNL A   1      47.619  28.641  44.588  1.00  0.00     0.058 A 
ATOM     83  C   UNL A   1      47.786  30.033  44.595  1.00  0.00     0.135 A 
ATOM     84  C   UNL A   1      46.842  28.071  45.610  1.00  0.00     0.135 A 
ATOM     85  F   UNL A   1      48.527  30.625  43.646  1.00  0.00    -0.206 F 
ATOM     86  C   UNL A   1      47.219  30.831  45.585  1.00  0.00     0.059 A 
ATOM     87  C   UNL A   1      46.242  28.850  46.594  1.00  0.00     0.059 A 
ATOM     88  F   UNL A   1      46.641  26.745  45.642  1.00  0.00    -0.206 F 
ATOM     89  C   UNL A   1      46.444  30.228  46.578  1.00  0.00     0.060 A 
BRANCH  89  90
ATOM     90  S   UNL A   1      45.670  31.276  47.829  1.00  0.00     0.124 S 
ATOM     91  O   UNL A   1      44.537  31.825  47.093  1.00  0.00    -0.237 OA
ATOM     92  O   UNL A   1      45.347  30.312  48.876  1.00  0.00    -0.237 OA
ATOM     93  O   UNL A   1      46.725  32.227  48.167  1.00  0.00    -0.744 OA
ENDBRANCH  89  90
ENDBRANCH  57  82
BRANCH  69  94
ATOM     94  C   UNL A   1      53.620  25.087  44.182  1.00  0.00     0.058 A 
ATOM     95  C   UNL A   1      54.693  25.992  44.169  1.00  0.00     0.135 A 
ATOM     96  C   UNL A   1      53.638  24.067  45.148  1.00  0.00     0.135 A 
ATOM     97  F   UNL A   1      54.730  26.984  43.265  1.00  0.00    -0.206 F 
ATOM     98  C   UNL A   1      55.753  25.876  45.063  1.00  0.00     0.059 A 
ATOM     99  C   UNL A   1      54.671  23.951  46.073  1.00  0.00     0.059 A 
ATOM    100  F   UNL A   1      52.631  23.181  45.214  1.00  0.00    -0.206 F 
ATOM    101  C   UNL A   1      55.731  24.853  46.013  1.00  0.00     0.060 A 
BRANCH 101 102
ATOM    102  S   UNL A   1      57.096  24.735  47.188  1.00  0.00     0.124 S 
ATOM    103  O   UNL A   1      58.227  24.486  46.301  1.00  0.00    -0.237 OA
ATOM    104  O   UNL A   1      57.071  26.046  47.829  1.00  0.00    -0.237 OA
ATOM    105  O   UNL A   1      56.713  23.617  48.046  1.00  0.00    -0.744 OA
ENDBRANCH 101 102
ENDBRANCH  69  94
ENDBRANCH  43  44
ENDBRANCH  36  38
ENDBRANCH  35  36
ENDBRANCH  34  35
ENDBRANCH  33  34
ENDBRANCH  32  33
ENDBRANCH  31  32
ENDBRANCH  30  31
ENDBRANCH  29  30
ENDBRANCH  28  29
ENDBRANCH   1  28
TORSDOF 30
ENDMDL
MODEL 3
REMARK VINA RESULT:      -5.6      8.003     14.865
REMARK SMILES CCCNC(=O)CN(C)C(=O)C[N@H+]1CCCC[C@H]1C(=O)OCCOCCOCCOCCOC(=O)c1ccc(-c2c3nc(c(-c4c(F)cc(S(=O)(=O)[O-])cc4F)c4ccc([nH]4)c(-c4c(F)cc(S(=O)(=O)[O-])cc4F)c4nc(c(-c5c(F)cc(S(=O)(=O)[O-])cc5F)c5ccc2[nH]5)C=C4)C=C3)cc1
REMARK SMILES IDX 25 1 24 2 23 3 22 4 21 5 19 6 20 7 18 8 13 9 14 10 15 12
REMARK SMILES IDX 17 13 16 14 12 15 10 16 11 17 8 18 9 19 7 20 5 21 4 22 6 24
REMARK SMILES IDX 3 25 2 26 1 27 26 28 27 29 28 30 29 31 30 32 31 33 32 34
REMARK SMILES IDX 33 35 34 36 35 37 36 38 37 39 101 40 38 41 100 42 39 43
REMARK SMILES IDX 40 44 41 45 94 46 42 47 99 48 93 49 95 50 43 51 98 52 92 53
REMARK SMILES IDX 91 54 44 56 78 57 57 58 77 59 58 60 61 61 76 62 96 63 59 64
REMARK SMILES IDX 60 65 75 67 97 68 62 69 45 70 46 71 55 72 47 73 48 74 54 75
REMARK SMILES IDX 56 76 49 77 50 78 51 79 52 80 53 81 79 82 80 83 89 84 81 85
REMARK SMILES IDX 82 86 88 87 90 88 83 89 84 90 85 91 86 92 87 93 63 94 64 95
REMARK SMILES IDX 73 96 65 97 66 98 72 99 74 100 67 101 68 102 69 103 70 104
REMARK SMILES IDX 71 105
REMARK H PARENT 13 11 4 23 95 55 61 66
REMARK Flexibility Score: inf
ROOT
ATOM      1  C   UNL A   1      47.207  45.118  27.642  1.00  0.00     0.188 C 
ENDROOT
BRANCH   1   2
ATOM      2  O   UNL A   1      48.573  45.064  27.318  1.00  0.00    -0.376 OA
BRANCH   2   3
ATOM      3  C   UNL A   1      49.169  46.151  26.640  1.00  0.00     0.202 C 
BRANCH   3   4
ATOM      4  C   UNL A   1      49.264  46.271  25.109  1.00  0.00     0.261 C 
BRANCH   4   5
ATOM      5  O   UNL A   1      49.508  45.120  24.280  1.00  0.00    -0.459 OA
BRANCH   5   6
ATOM      6  C   UNL A   1      49.716  45.420  22.969  1.00  0.00     0.365 C 
ATOM      7  O   UNL A   1      49.359  46.490  22.479  1.00  0.00    -0.245 OA
BRANCH   6   8
ATOM      8  C   UNL A   1      50.310  44.264  22.108  1.00  0.00     0.295 C 
ATOM      9  N   UNL A   1      49.265  43.572  21.295  1.00  0.00    -0.315 N 
ATOM     10  C   UNL A   1      48.833  44.473  20.205  1.00  0.00     0.263 C 
ATOM     11  H   UNL A   1      49.706  42.728  20.929  1.00  0.00     0.349 HD
ATOM     12  C   UNL A   1      49.956  44.819  19.223  1.00  0.00     0.062 C 
ATOM     13  C   UNL A   1      51.537  44.453  21.199  1.00  0.00     0.078 C 
ATOM     14  C   UNL A   1      51.313  45.102  19.846  1.00  0.00     0.013 C 
BRANCH   9  15
ATOM     15  C   UNL A   1      48.079  43.062  22.061  1.00  0.00     0.364 C 
BRANCH  15  16
ATOM     16  C   UNL A   1      46.850  42.538  21.260  1.00  0.00     0.277 C 
ATOM     17  O   UNL A   1      46.977  41.551  20.530  1.00  0.00    -0.268 OA
BRANCH  16  18
ATOM     18  N   UNL A   1      45.607  43.163  21.405  1.00  0.00    -0.332 N 
ATOM     19  C   UNL A   1      45.397  44.083  22.506  1.00  0.00     0.147 C 
BRANCH  18  20
ATOM     20  C   UNL A   1      44.420  42.520  20.807  1.00  0.00     0.219 C 
BRANCH  20  21
ATOM     21  C   UNL A   1      43.128  43.356  20.653  1.00  0.00     0.239 C 
ATOM     22  N   UNL A   1      42.007  43.155  21.407  1.00  0.00    -0.355 N 
ATOM     23  H   UNL A   1      41.280  43.789  21.211  1.00  0.00     0.163 HD
ATOM     24  O   UNL A   1      43.041  44.213  19.767  1.00  0.00    -0.273 OA
BRANCH  22  25
ATOM     25  C   UNL A   1      41.674  42.189  22.440  1.00  0.00     0.115 C 
BRANCH  25  26
ATOM     26  C   UNL A   1      42.269  42.567  23.795  1.00  0.00     0.018 C 
ATOM     27  C   UNL A   1      42.228  41.526  24.904  1.00  0.00     0.006 C 
ENDBRANCH  25  26
ENDBRANCH  22  25
ENDBRANCH  20  21
ENDBRANCH  18  20
ENDBRANCH  16  18
ENDBRANCH  15  16
ENDBRANCH   9  15
ENDBRANCH   6   8
ENDBRANCH   5   6
ENDBRANCH   4   5
ENDBRANCH   3   4
ENDBRANCH   2   3
ENDBRANCH   1   2
BRANCH   1  28
ATOM     28  C   UNL A   1      46.308  44.405  26.628  1.00  0.00     0.188 C 
BRANCH  28  29
ATOM     29  O   UNL A   1      45.605  43.224  26.996  1.00  0.00    -0.377 OA
BRANCH  29  30
ATOM     30  C   UNL A   1      45.633  42.808  28.355  1.00  0.00     0.188 C 
BRANCH  30  31
ATOM     31  C   UNL A   1      45.898  41.324  28.637  1.00  0.00     0.188 C 
BRANCH  31  32
ATOM     32  O   UNL A   1      45.436  40.357  27.720  1.00  0.00    -0.376 OA
BRANCH  32  33
ATOM     33  C   UNL A   1      44.655  39.239  28.085  1.00  0.00     0.202 C 
BRANCH  33  34
ATOM     34  C   UNL A   1      43.182  38.984  27.734  1.00  0.00     0.261 C 
BRANCH  34  35
ATOM     35  O   UNL A   1      42.842  37.986  26.783  1.00  0.00    -0.460 OA
BRANCH  35  36
ATOM     36  C   UNL A   1      42.253  36.872  27.266  1.00  0.00     0.338 C 
ATOM     37  O   UNL A   1      41.118  36.755  27.677  1.00  0.00    -0.246 OA
BRANCH  36  38
ATOM     38  C   UNL A   1      43.224  35.773  27.111  1.00  0.00     0.060 A 
ATOM     39  C   UNL A   1      43.969  35.337  28.214  1.00  0.00     0.016 A 
ATOM     40  C   UNL A   1      43.423  35.216  25.847  1.00  0.00     0.016 A 
ATOM     41  C   UNL A   1      44.970  34.384  28.038  1.00  0.00     0.010 A 
ATOM     42  C   UNL A   1      44.435  34.275  25.670  1.00  0.00     0.010 A 
ATOM     43  C   UNL A   1      45.243  33.894  26.756  1.00  0.00    -0.014 A 
BRANCH  43  44
ATOM     44  C   UNL A   1      46.503  33.161  26.500  1.00  0.00     0.031 A 
ATOM     45  C   UNL A   1      46.468  31.657  26.538  1.00  0.00     0.074 A 
ATOM     46  C   UNL A   1      47.647  33.816  26.244  1.00  0.00     0.049 A 
ATOM     47  N   UNL A   1      47.448  30.800  26.440  1.00  0.00    -0.248 NA
ATOM     48  C   UNL A   1      45.143  31.037  26.719  1.00  0.00     0.031 C 
ATOM     49  C   UNL A   1      47.786  35.268  26.140  1.00  0.00     0.029 A 
ATOM     50  N   UNL A   1      48.916  33.338  26.041  1.00  0.00    -0.354 N 
ATOM     51  C   UNL A   1      46.865  29.545  26.561  1.00  0.00     0.074 A 
ATOM     52  C   UNL A   1      45.449  29.749  26.770  1.00  0.00     0.031 C 
ATOM     53  C   UNL A   1      49.077  35.565  25.911  1.00  0.00     0.029 A 
ATOM     54  C   UNL A   1      49.857  34.328  25.891  1.00  0.00     0.049 A 
ATOM     55  H   UNL A   1      49.132  32.379  26.006  1.00  0.00     0.167 HD
ATOM     56  C   UNL A   1      47.459  28.330  26.496  1.00  0.00     0.037 A 
ATOM     57  C   UNL A   1      51.198  34.241  25.782  1.00  0.00     0.037 A 
ATOM     58  C   UNL A   1      48.871  28.141  26.290  1.00  0.00     0.049 A 
ATOM     59  C   UNL A   1      51.847  32.879  25.784  1.00  0.00     0.074 A 
ATOM     60  C   UNL A   1      49.574  26.954  26.191  1.00  0.00     0.029 A 
ATOM     61  N   UNL A   1      49.796  29.166  26.160  1.00  0.00    -0.354 N 
ATOM     62  N   UNL A   1      51.285  31.697  25.879  1.00  0.00    -0.248 NA
ATOM     63  C   UNL A   1      53.310  32.840  25.659  1.00  0.00     0.031 C 
ATOM     64  C   UNL A   1      50.932  27.263  26.062  1.00  0.00     0.029 A 
ATOM     65  C   UNL A   1      51.067  28.641  26.010  1.00  0.00     0.049 A 
ATOM     66  H   UNL A   1      49.580  30.127  26.172  1.00  0.00     0.167 HD
ATOM     67  C   UNL A   1      52.323  30.773  25.793  1.00  0.00     0.074 A 
ATOM     68  C   UNL A   1      53.544  31.535  25.629  1.00  0.00     0.031 C 
ATOM     69  C   UNL A   1      52.272  29.418  25.840  1.00  0.00     0.037 A 
BRANCH  56  70
ATOM     70  C   UNL A   1      46.590  27.115  26.682  1.00  0.00     0.058 A 
ATOM     71  C   UNL A   1      46.384  26.535  27.944  1.00  0.00     0.135 A 
ATOM     72  C   UNL A   1      45.931  26.540  25.584  1.00  0.00     0.135 A 
ATOM     73  F   UNL A   1      47.005  27.030  29.026  1.00  0.00    -0.206 F 
ATOM     74  C   UNL A   1      45.575  25.414  28.107  1.00  0.00     0.059 A 
ATOM     75  C   UNL A   1      45.093  25.438  25.728  1.00  0.00     0.059 A 
ATOM     76  F   UNL A   1      46.098  27.049  24.353  1.00  0.00    -0.206 F 
ATOM     77  C   UNL A   1      44.931  24.874  26.992  1.00  0.00     0.060 A 
BRANCH  77  78
ATOM     78  S   UNL A   1      43.876  23.427  27.222  1.00  0.00     0.124 S 
ATOM     79  O   UNL A   1      43.801  23.350  28.677  1.00  0.00    -0.237 OA
ATOM     80  O   UNL A   1      42.648  23.829  26.545  1.00  0.00    -0.237 OA
ATOM     81  O   UNL A   1      44.624  22.354  26.574  1.00  0.00    -0.744 OA
ENDBRANCH  77  78
ENDBRANCH  56  70
BRANCH  57  82
ATOM     82  C   UNL A   1      52.017  35.478  25.679  1.00  0.00     0.058 A 
ATOM     83  C   UNL A   1      52.343  36.030  24.432  1.00  0.00     0.135 A 
ATOM     84  C   UNL A   1      52.489  36.135  26.828  1.00  0.00     0.135 A 
ATOM     85  F   UNL A   1      51.925  35.434  23.305  1.00  0.00    -0.206 F 
ATOM     86  C   UNL A   1      53.120  37.180  24.323  1.00  0.00     0.059 A 
ATOM     87  C   UNL A   1      53.243  37.300  26.745  1.00  0.00     0.059 A 
ATOM     88  F   UNL A   1      52.196  35.656  28.046  1.00  0.00    -0.206 F 
ATOM     89  C   UNL A   1      53.561  37.810  25.488  1.00  0.00     0.060 A 
BRANCH  89  90
ATOM     90  S   UNL A   1      54.525  39.330  25.340  1.00  0.00     0.124 S 
ATOM     91  O   UNL A   1      55.880  38.808  25.207  1.00  0.00    -0.237 OA
ATOM     92  O   UNL A   1      53.952  39.938  24.142  1.00  0.00    -0.237 OA
ATOM     93  O   UNL A   1      54.238  40.032  26.587  1.00  0.00    -0.744 OA
ENDBRANCH  89  90
ENDBRANCH  57  82
BRANCH  69  94
ATOM     94  C   UNL A   1      53.564  28.665  25.668  1.00  0.00     0.058 A 
ATOM     95  C   UNL A   1      54.423  28.406  26.748  1.00  0.00     0.135 A 
ATOM     96  C   UNL A   1      53.917  28.143  24.413  1.00  0.00     0.135 A 
ATOM     97  F   UNL A   1      54.136  28.885  27.969  1.00  0.00    -0.206 F 
ATOM     98  C   UNL A   1      55.598  27.679  26.584  1.00  0.00     0.059 A 
ATOM     99  C   UNL A   1      55.071  27.385  24.232  1.00  0.00     0.059 A 
ATOM    100  F   UNL A   1      53.126  28.349  23.348  1.00  0.00    -0.206 F 
ATOM    101  C   UNL A   1      55.911  27.170  25.322  1.00  0.00     0.060 A 
BRANCH 101 102
ATOM    102  S   UNL A   1      57.421  26.200  25.132  1.00  0.00     0.124 S 
ATOM    103  O   UNL A   1      57.831  26.017  26.520  1.00  0.00    -0.237 OA
ATOM    104  O   UNL A   1      56.939  25.002  24.451  1.00  0.00    -0.237 OA
ATOM    105  O   UNL A   1      58.284  27.065  24.331  1.00  0.00    -0.744 OA
ENDBRANCH 101 102
ENDBRANCH  69  94
ENDBRANCH  43  44
ENDBRANCH  36  38
ENDBRANCH  35  36
ENDBRANCH  34  35
ENDBRANCH  33  34
ENDBRANCH  32  33
ENDBRANCH  31  32
ENDBRANCH  30  31
ENDBRANCH  29  30
ENDBRANCH  28  29
ENDBRANCH   1  28
TORSDOF 30
ENDMDL
