MODEL 1
REMARK VINA RESULT:     -10.3      0.000      0.000
REMARK SMILES C[C@H]1CC[C@@H]([C@H](C(=O)OCCOCCOCCOCCOC(=O)c2ccc(-c3c4nc(c(-c5c(F)cc(S(=O)(=O)[O-])cc5F)c5ccc([nH]5)c(-c5c(F)cc(S(=O)(=O)[O-])cc5F)c5nc(c(-c6c(F)cc(S(=O)(=O)[O-])cc6F)c6ccc3[nH]6)C=C5)C=C4)cc2)[C@@H]2CCS(=O)(=O)C2)C[C@@H]1C
REMARK SMILES IDX 16 1 15 2 14 3 13 4 12 5 11 6 10 7 9 8 7 9 8 10 6 11 5 12
REMARK SMILES IDX 1 13 2 14 3 15 98 16 4 17 97 18 99 19 90 20 91 21 96 22
REMARK SMILES IDX 92 23 93 24 94 25 95 26 17 27 18 28 19 29 20 30 21 31 22 32
REMARK SMILES IDX 23 33 24 34 25 35 89 36 26 37 88 38 27 39 28 40 29 41 82 42
REMARK SMILES IDX 30 43 87 44 81 45 83 46 31 47 86 48 80 49 79 50 32 52 66 53
REMARK SMILES IDX 45 54 65 55 46 56 49 57 64 58 84 59 47 60 48 61 63 63 85 64
REMARK SMILES IDX 50 65 33 66 34 67 43 68 35 69 36 70 42 71 44 72 37 73 38 74
REMARK SMILES IDX 39 75 40 76 41 77 67 78 68 79 77 80 69 81 70 82 76 83 78 84
REMARK SMILES IDX 71 85 72 86 73 87 74 88 75 89 51 90 52 91 61 92 53 93 54 94
REMARK SMILES IDX 60 95 62 96 55 97 56 98 57 99 58 100 59 101
REMARK H PARENT 83 51 49 62
REMARK Flexibility Score: inf
ROOT
ATOM      1  C   UNL A   1      37.711  21.189  25.003  1.00  0.00     0.188 C 
ENDROOT
BRANCH   1   2
ATOM      2  O   UNL A   1      36.394  20.998  25.512  1.00  0.00    -0.377 OA
BRANCH   2   3
ATOM      3  C   UNL A   1      35.631  19.932  24.983  1.00  0.00     0.188 C 
BRANCH   3   4
ATOM      4  C   UNL A   1      34.185  20.316  24.594  1.00  0.00     0.188 C 
BRANCH   4   5
ATOM      5  O   UNL A   1      34.002  21.699  24.373  1.00  0.00    -0.376 OA
BRANCH   5   6
ATOM      6  C   UNL A   1      33.099  22.135  23.374  1.00  0.00     0.202 C 
BRANCH   6   7
ATOM      7  C   UNL A   1      33.489  23.091  22.233  1.00  0.00     0.261 C 
BRANCH   7   8
ATOM      8  O   UNL A   1      33.731  24.466  22.552  1.00  0.00    -0.463 OA
BRANCH   8   9
ATOM      9  C   UNL A   1      32.769  25.376  22.279  1.00  0.00     0.309 C 
ATOM     10  O   UNL A   1      32.240  25.523  21.185  1.00  0.00    -0.252 OA
BRANCH   9  11
ATOM     11  C   UNL A   1      32.457  26.224  23.537  1.00  0.00     0.106 C 
BRANCH  11  12
ATOM     12  C   UNL A   1      32.935  27.652  23.086  1.00  0.00     0.004 C 
ATOM     13  C   UNL A   1      31.774  30.136  26.409  1.00  0.00     0.008 C 
ATOM     14  C   UNL A   1      32.311  29.850  24.998  1.00  0.00    -0.011 C 
ATOM     15  C   UNL A   1      33.659  29.089  25.096  1.00  0.00     0.004 C 
ATOM     16  C   UNL A   1      31.229  29.173  24.116  1.00  0.00    -0.011 C 
ATOM     17  C   UNL A   1      34.077  28.294  23.871  1.00  0.00     0.005 C 
ATOM     18  C   UNL A   1      31.834  28.678  22.817  1.00  0.00     0.008 C 
ATOM     19  C   UNL A   1      30.021  30.064  23.834  1.00  0.00     0.008 C 
ENDBRANCH  11  12
BRANCH  11  20
ATOM     20  C   UNL A   1      31.007  25.815  24.029  1.00  0.00     0.019 C 
ATOM     21  C   UNL A   1      30.300  26.548  25.176  1.00  0.00     0.021 C 
ATOM     22  C   UNL A   1      30.901  24.344  24.524  1.00  0.00     0.141 C 
ATOM     23  C   UNL A   1      30.850  26.084  26.511  1.00  0.00     0.137 C 
ATOM     24  S   UNL A   1      31.065  24.340  26.305  1.00  0.00     0.150 S 
ATOM     25  O   UNL A   1      32.426  23.995  26.659  1.00  0.00    -0.229 OA
ATOM     26  O   UNL A   1      29.922  23.657  26.877  1.00  0.00    -0.229 OA
ENDBRANCH  11  20
ENDBRANCH   9  11
ENDBRANCH   8   9
ENDBRANCH   7   8
ENDBRANCH   6   7
ENDBRANCH   5   6
ENDBRANCH   4   5
ENDBRANCH   3   4
ENDBRANCH   2   3
ENDBRANCH   1   2
BRANCH   1  27
ATOM     27  C   UNL A   1      38.869  21.711  25.893  1.00  0.00     0.188 C 
BRANCH  27  28
ATOM     28  O   UNL A   1      40.044  20.913  25.907  1.00  0.00    -0.376 OA
BRANCH  28  29
ATOM     29  C   UNL A   1      41.240  21.439  26.450  1.00  0.00     0.202 C 
BRANCH  29  30
ATOM     30  C   UNL A   1      41.632  22.874  26.067  1.00  0.00     0.261 C 
BRANCH  30  31
ATOM     31  O   UNL A   1      40.964  23.921  26.782  1.00  0.00    -0.460 OA
BRANCH  31  32
ATOM     32  C   UNL A   1      41.244  25.192  26.425  1.00  0.00     0.338 C 
ATOM     33  O   UNL A   1      41.332  25.636  25.291  1.00  0.00    -0.246 OA
BRANCH  32  34
ATOM     34  C   UNL A   1      41.213  26.015  27.651  1.00  0.00     0.060 A 
ATOM     35  C   UNL A   1      40.076  25.977  28.470  1.00  0.00     0.016 A 
ATOM     36  C   UNL A   1      42.315  26.796  28.004  1.00  0.00     0.016 A 
ATOM     37  C   UNL A   1      40.023  26.751  29.627  1.00  0.00     0.010 A 
ATOM     38  C   UNL A   1      42.249  27.595  29.147  1.00  0.00     0.010 A 
ATOM     39  C   UNL A   1      41.088  27.604  29.940  1.00  0.00    -0.014 A 
BRANCH  39  40
ATOM     40  C   UNL A   1      40.891  28.662  30.957  1.00  0.00     0.031 A 
ATOM     41  C   UNL A   1      41.769  28.636  32.178  1.00  0.00     0.074 A 
ATOM     42  C   UNL A   1      39.986  29.640  30.786  1.00  0.00     0.049 A 
ATOM     43  N   UNL A   1      41.768  29.425  33.219  1.00  0.00    -0.248 NA
ATOM     44  C   UNL A   1      42.786  27.570  32.232  1.00  0.00     0.031 C 
ATOM     45  C   UNL A   1      39.112  29.793  29.623  1.00  0.00     0.029 A 
ATOM     46  N   UNL A   1      39.648  30.692  31.601  1.00  0.00    -0.354 N 
ATOM     47  C   UNL A   1      42.774  28.950  34.053  1.00  0.00     0.074 A 
ATOM     48  C   UNL A   1      43.342  27.785  33.414  1.00  0.00     0.031 C 
ATOM     49  C   UNL A   1      38.326  30.869  29.809  1.00  0.00     0.029 A 
ATOM     50  C   UNL A   1      38.618  31.459  31.114  1.00  0.00     0.049 A 
ATOM     51  H   UNL A   1      40.101  30.878  32.456  1.00  0.00     0.167 HD
ATOM     52  C   UNL A   1      43.191  29.446  35.241  1.00  0.00     0.037 A 
ATOM     53  C   UNL A   1      37.972  32.503  31.672  1.00  0.00     0.037 A 
ATOM     54  C   UNL A   1      42.617  30.607  35.870  1.00  0.00     0.049 A 
ATOM     55  C   UNL A   1      38.408  32.996  33.030  1.00  0.00     0.074 A 
ATOM     56  C   UNL A   1      42.977  31.202  37.065  1.00  0.00     0.029 A 
ATOM     57  N   UNL A   1      41.557  31.342  35.359  1.00  0.00    -0.354 N 
ATOM     58  N   UNL A   1      39.376  32.554  33.799  1.00  0.00    -0.248 NA
ATOM     59  C   UNL A   1      37.668  34.133  33.595  1.00  0.00     0.031 C 
ATOM     60  C   UNL A   1      42.095  32.260  37.308  1.00  0.00     0.029 A 
ATOM     61  C   UNL A   1      41.230  32.368  36.230  1.00  0.00     0.049 A 
ATOM     62  H   UNL A   1      41.104  31.161  34.504  1.00  0.00     0.167 HD
ATOM     63  C   UNL A   1      39.380  33.379  34.921  1.00  0.00     0.074 A 
ATOM     64  C   UNL A   1      38.329  34.354  34.723  1.00  0.00     0.031 C 
ATOM     65  C   UNL A   1      40.183  33.336  36.015  1.00  0.00     0.037 A 
BRANCH  52  66
ATOM     66  C   UNL A   1      44.297  28.719  35.954  1.00  0.00     0.058 A 
ATOM     67  C   UNL A   1      45.642  29.104  35.831  1.00  0.00     0.135 A 
ATOM     68  C   UNL A   1      44.001  27.642  36.806  1.00  0.00     0.135 A 
ATOM     69  F   UNL A   1      45.984  30.111  35.012  1.00  0.00    -0.206 F 
ATOM     70  C   UNL A   1      46.654  28.438  36.512  1.00  0.00     0.059 A 
ATOM     71  C   UNL A   1      44.995  26.980  37.521  1.00  0.00     0.059 A 
ATOM     72  F   UNL A   1      42.734  27.226  36.954  1.00  0.00    -0.206 F 
ATOM     73  C   UNL A   1      46.320  27.379  37.359  1.00  0.00     0.060 A 
BRANCH  73  74
ATOM     74  S   UNL A   1      47.644  26.541  38.255  1.00  0.00     0.124 S 
ATOM     75  O   UNL A   1      47.655  25.235  37.604  1.00  0.00    -0.237 OA
ATOM     76  O   UNL A   1      48.794  27.396  37.980  1.00  0.00    -0.237 OA
ATOM     77  O   UNL A   1      47.178  26.548  39.638  1.00  0.00    -0.744 OA
ENDBRANCH  73  74
ENDBRANCH  52  66
BRANCH  53  78
ATOM     78  C   UNL A   1      36.832  33.144  30.961  1.00  0.00     0.058 A 
ATOM     79  C   UNL A   1      35.505  32.924  31.362  1.00  0.00     0.135 A 
ATOM     80  C   UNL A   1      37.048  33.983  29.855  1.00  0.00     0.135 A 
ATOM     81  F   UNL A   1      35.244  32.122  32.404  1.00  0.00    -0.206 F 
ATOM     82  C   UNL A   1      34.433  33.494  30.681  1.00  0.00     0.059 A 
ATOM     83  C   UNL A   1      35.994  34.588  29.178  1.00  0.00     0.059 A 
ATOM     84  F   UNL A   1      38.297  34.234  29.435  1.00  0.00    -0.206 F 
ATOM     85  C   UNL A   1      34.689  34.328  29.591  1.00  0.00     0.060 A 
BRANCH  85  86
ATOM     86  S   UNL A   1      33.292  35.098  28.744  1.00  0.00     0.124 S 
ATOM     87  O   UNL A   1      32.776  33.986  27.954  1.00  0.00    -0.237 OA
ATOM     88  O   UNL A   1      32.459  35.531  29.860  1.00  0.00    -0.237 OA
ATOM     89  O   UNL A   1      33.915  36.177  27.982  1.00  0.00    -0.744 OA
ENDBRANCH  85  86
ENDBRANCH  53  78
BRANCH  65  90
ATOM     90  C   UNL A   1      39.989  34.399  37.064  1.00  0.00     0.058 A 
ATOM     91  C   UNL A   1      40.630  35.645  36.987  1.00  0.00     0.135 A 
ATOM     92  C   UNL A   1      39.108  34.183  38.137  1.00  0.00     0.135 A 
ATOM     93  F   UNL A   1      41.484  35.906  35.985  1.00  0.00    -0.206 F 
ATOM     94  C   UNL A   1      40.429  36.627  37.953  1.00  0.00     0.059 A 
ATOM     95  C   UNL A   1      38.865  35.162  39.095  1.00  0.00     0.059 A 
ATOM     96  F   UNL A   1      38.457  33.014  38.254  1.00  0.00    -0.206 F 
ATOM     97  C   UNL A   1      39.543  36.377  39.003  1.00  0.00     0.060 A 
BRANCH  97  98
ATOM     98  S   UNL A   1      39.276  37.667  40.236  1.00  0.00     0.124 S 
ATOM     99  O   UNL A   1      38.911  36.881  41.410  1.00  0.00    -0.237 OA
ATOM    100  O   UNL A   1      40.580  38.320  40.292  1.00  0.00    -0.237 OA
ATOM    101  O   UNL A   1      38.202  38.472  39.661  1.00  0.00    -0.744 OA
ENDBRANCH  97  98
ENDBRANCH  65  90
ENDBRANCH  39  40
ENDBRANCH  32  34
ENDBRANCH  31  32
ENDBRANCH  30  31
ENDBRANCH  29  30
ENDBRANCH  28  29
ENDBRANCH  27  28
ENDBRANCH   1  27
TORSDOF 25
ENDMDL
MODEL 2
REMARK VINA RESULT:     -10.2      0.997      2.233
REMARK SMILES C[C@H]1CC[C@@H]([C@H](C(=O)OCCOCCOCCOCCOC(=O)c2ccc(-c3c4nc(c(-c5c(F)cc(S(=O)(=O)[O-])cc5F)c5ccc([nH]5)c(-c5c(F)cc(S(=O)(=O)[O-])cc5F)c5nc(c(-c6c(F)cc(S(=O)(=O)[O-])cc6F)c6ccc3[nH]6)C=C5)C=C4)cc2)[C@@H]2CCS(=O)(=O)C2)C[C@@H]1C
REMARK SMILES IDX 16 1 15 2 14 3 13 4 12 5 11 6 10 7 9 8 7 9 8 10 6 11 5 12
REMARK SMILES IDX 1 13 2 14 3 15 98 16 4 17 97 18 99 19 90 20 91 21 96 22
REMARK SMILES IDX 92 23 93 24 94 25 95 26 17 27 18 28 19 29 20 30 21 31 22 32
REMARK SMILES IDX 23 33 24 34 25 35 89 36 26 37 88 38 27 39 28 40 29 41 82 42
REMARK SMILES IDX 30 43 87 44 81 45 83 46 31 47 86 48 80 49 79 50 32 52 66 53
REMARK SMILES IDX 45 54 65 55 46 56 49 57 64 58 84 59 47 60 48 61 63 63 85 64
REMARK SMILES IDX 50 65 33 66 34 67 43 68 35 69 36 70 42 71 44 72 37 73 38 74
REMARK SMILES IDX 39 75 40 76 41 77 67 78 68 79 77 80 69 81 70 82 76 83 78 84
REMARK SMILES IDX 71 85 72 86 73 87 74 88 75 89 51 90 52 91 61 92 53 93 54 94
REMARK SMILES IDX 60 95 62 96 55 97 56 98 57 99 58 100 59 101
REMARK H PARENT 83 51 49 62
REMARK Flexibility Score: inf
ROOT
ATOM      1  C   UNL A   1      37.692  21.602  25.184  1.00  0.00     0.188 C 
ENDROOT
BRANCH   1   2
ATOM      2  O   UNL A   1      36.444  21.420  25.848  1.00  0.00    -0.377 OA
BRANCH   2   3
ATOM      3  C   UNL A   1      35.415  20.754  25.145  1.00  0.00     0.188 C 
BRANCH   3   4
ATOM      4  C   UNL A   1      34.042  20.774  25.855  1.00  0.00     0.188 C 
BRANCH   4   5
ATOM      5  O   UNL A   1      34.097  21.237  27.188  1.00  0.00    -0.376 OA
BRANCH   5   6
ATOM      6  C   UNL A   1      33.267  22.310  27.592  1.00  0.00     0.202 C 
BRANCH   6   7
ATOM      7  C   UNL A   1      31.793  22.452  27.171  1.00  0.00     0.261 C 
BRANCH   7   8
ATOM      8  O   UNL A   1      31.485  23.284  26.048  1.00  0.00    -0.463 OA
BRANCH   8   9
ATOM      9  C   UNL A   1      31.529  24.628  26.202  1.00  0.00     0.309 C 
ATOM     10  O   UNL A   1      31.636  25.201  27.277  1.00  0.00    -0.252 OA
BRANCH   9  11
ATOM     11  C   UNL A   1      31.393  25.332  24.829  1.00  0.00     0.106 C 
BRANCH  11  12
ATOM     12  C   UNL A   1      30.297  26.417  25.135  1.00  0.00     0.004 C 
ATOM     13  C   UNL A   1      31.163  29.482  22.233  1.00  0.00     0.008 C 
ATOM     14  C   UNL A   1      30.453  28.871  23.452  1.00  0.00    -0.011 C 
ATOM     15  C   UNL A   1      29.582  27.670  23.002  1.00  0.00     0.004 C 
ATOM     16  C   UNL A   1      31.464  28.569  24.591  1.00  0.00    -0.011 C 
ATOM     17  C   UNL A   1      29.225  26.655  24.074  1.00  0.00     0.005 C 
ATOM     18  C   UNL A   1      30.804  27.751  25.684  1.00  0.00     0.008 C 
ATOM     19  C   UNL A   1      32.115  29.818  25.181  1.00  0.00     0.008 C 
ENDBRANCH  11  12
BRANCH  11  20
ATOM     20  C   UNL A   1      32.860  25.585  24.286  1.00  0.00     0.019 C 
ATOM     21  C   UNL A   1      33.136  25.931  22.818  1.00  0.00     0.021 C 
ATOM     22  C   UNL A   1      33.820  24.376  24.478  1.00  0.00     0.141 C 
ATOM     23  C   UNL A   1      33.069  24.679  21.964  1.00  0.00     0.137 C 
ATOM     24  S   UNL A   1      33.853  23.440  22.954  1.00  0.00     0.150 S 
ATOM     25  O   UNL A   1      32.962  22.305  23.070  1.00  0.00    -0.229 OA
ATOM     26  O   UNL A   1      35.230  23.299  22.524  1.00  0.00    -0.229 OA
ENDBRANCH  11  20
ENDBRANCH   9  11
ENDBRANCH   8   9
ENDBRANCH   7   8
ENDBRANCH   6   7
ENDBRANCH   5   6
ENDBRANCH   4   5
ENDBRANCH   3   4
ENDBRANCH   2   3
ENDBRANCH   1   2
BRANCH   1  27
ATOM     27  C   UNL A   1      38.987  21.974  25.954  1.00  0.00     0.188 C 
BRANCH  27  28
ATOM     28  O   UNL A   1      40.135  21.201  25.636  1.00  0.00    -0.376 OA
BRANCH  28  29
ATOM     29  C   UNL A   1      41.392  21.561  26.179  1.00  0.00     0.202 C 
BRANCH  29  30
ATOM     30  C   UNL A   1      41.868  23.009  25.988  1.00  0.00     0.261 C 
BRANCH  30  31
ATOM     31  O   UNL A   1      41.358  23.967  26.924  1.00  0.00    -0.460 OA
BRANCH  31  32
ATOM     32  C   UNL A   1      41.338  25.261  26.539  1.00  0.00     0.338 C 
ATOM     33  O   UNL A   1      41.197  25.688  25.404  1.00  0.00    -0.246 OA
BRANCH  32  34
ATOM     34  C   UNL A   1      41.298  26.088  27.762  1.00  0.00     0.060 A 
ATOM     35  C   UNL A   1      40.173  26.019  28.596  1.00  0.00     0.016 A 
ATOM     36  C   UNL A   1      42.380  26.904  28.097  1.00  0.00     0.016 A 
ATOM     37  C   UNL A   1      40.113  26.796  29.750  1.00  0.00     0.010 A 
ATOM     38  C   UNL A   1      42.305  27.707  29.236  1.00  0.00     0.010 A 
ATOM     39  C   UNL A   1      41.155  27.683  30.045  1.00  0.00    -0.014 A 
BRANCH  39  40
ATOM     40  C   UNL A   1      40.938  28.740  31.060  1.00  0.00     0.031 A 
ATOM     41  C   UNL A   1      41.818  28.733  32.280  1.00  0.00     0.074 A 
ATOM     42  C   UNL A   1      40.015  29.701  30.887  1.00  0.00     0.049 A 
ATOM     43  N   UNL A   1      41.804  29.525  33.319  1.00  0.00    -0.248 NA
ATOM     44  C   UNL A   1      42.855  27.687  32.335  1.00  0.00     0.031 C 
ATOM     45  C   UNL A   1      39.137  29.834  29.725  1.00  0.00     0.029 A 
ATOM     46  N   UNL A   1      39.658  30.747  31.701  1.00  0.00    -0.354 N 
ATOM     47  C   UNL A   1      42.818  29.070  34.153  1.00  0.00     0.074 A 
ATOM     48  C   UNL A   1      43.408  27.914  33.516  1.00  0.00     0.031 C 
ATOM     49  C   UNL A   1      38.332  30.895  29.909  1.00  0.00     0.029 A 
ATOM     50  C   UNL A   1      38.613  31.494  31.213  1.00  0.00     0.049 A 
ATOM     51  H   UNL A   1      40.108  30.943  32.555  1.00  0.00     0.167 HD
ATOM     52  C   UNL A   1      43.227  29.577  35.340  1.00  0.00     0.037 A 
ATOM     53  C   UNL A   1      37.948  32.527  31.769  1.00  0.00     0.037 A 
ATOM     54  C   UNL A   1      42.632  30.728  35.967  1.00  0.00     0.049 A 
ATOM     55  C   UNL A   1      38.376  33.031  33.126  1.00  0.00     0.074 A 
ATOM     56  C   UNL A   1      42.982  31.332  37.160  1.00  0.00     0.029 A 
ATOM     57  N   UNL A   1      41.558  31.442  35.455  1.00  0.00    -0.354 N 
ATOM     58  N   UNL A   1      39.353  32.609  33.895  1.00  0.00    -0.248 NA
ATOM     59  C   UNL A   1      37.615  34.155  33.689  1.00  0.00     0.031 C 
ATOM     60  C   UNL A   1      42.081  32.374  37.402  1.00  0.00     0.029 A 
ATOM     61  C   UNL A   1      41.213  32.464  36.324  1.00  0.00     0.049 A 
ATOM     62  H   UNL A   1      41.107  31.250  34.601  1.00  0.00     0.167 HD
ATOM     63  C   UNL A   1      39.343  33.436  35.015  1.00  0.00     0.074 A 
ATOM     64  C   UNL A   1      38.273  34.391  34.816  1.00  0.00     0.031 C 
ATOM     65  C   UNL A   1      40.148  33.411  36.108  1.00  0.00     0.037 A 
BRANCH  52  66
ATOM     66  C   UNL A   1      44.348  28.872  36.053  1.00  0.00     0.058 A 
ATOM     67  C   UNL A   1      45.685  29.280  35.925  1.00  0.00     0.135 A 
ATOM     68  C   UNL A   1      44.073  27.795  36.912  1.00  0.00     0.135 A 
ATOM     69  F   UNL A   1      46.008  30.289  35.099  1.00  0.00    -0.206 F 
ATOM     70  C   UNL A   1      46.711  28.634  36.606  1.00  0.00     0.059 A 
ATOM     71  C   UNL A   1      45.079  27.154  37.627  1.00  0.00     0.059 A 
ATOM     72  F   UNL A   1      42.813  27.357  37.065  1.00  0.00    -0.206 F 
ATOM     73  C   UNL A   1      46.398  27.575  37.460  1.00  0.00     0.060 A 
BRANCH  73  74
ATOM     74  S   UNL A   1      47.738  26.764  38.356  1.00  0.00     0.124 S 
ATOM     75  O   UNL A   1      47.000  25.999  39.356  1.00  0.00    -0.237 OA
ATOM     76  O   UNL A   1      48.381  25.980  37.307  1.00  0.00    -0.237 OA
ATOM     77  O   UNL A   1      48.525  27.878  38.874  1.00  0.00    -0.744 OA
ENDBRANCH  73  74
ENDBRANCH  52  66
BRANCH  53  78
ATOM     78  C   UNL A   1      36.796  33.145  31.058  1.00  0.00     0.058 A 
ATOM     79  C   UNL A   1      35.474  32.913  31.471  1.00  0.00     0.135 A 
ATOM     80  C   UNL A   1      36.993  33.971  29.940  1.00  0.00     0.135 A 
ATOM     81  F   UNL A   1      35.230  32.121  32.525  1.00  0.00    -0.206 F 
ATOM     82  C   UNL A   1      34.391  33.461  30.790  1.00  0.00     0.059 A 
ATOM     83  C   UNL A   1      35.928  34.555  29.262  1.00  0.00     0.059 A 
ATOM     84  F   UNL A   1      38.237  34.232  29.508  1.00  0.00    -0.206 F 
ATOM     85  C   UNL A   1      34.628  34.284  29.688  1.00  0.00     0.060 A 
BRANCH  85  86
ATOM     86  S   UNL A   1      33.217  35.026  28.840  1.00  0.00     0.124 S 
ATOM     87  O   UNL A   1      32.330  35.332  29.957  1.00  0.00    -0.237 OA
ATOM     88  O   UNL A   1      33.828  36.174  28.177  1.00  0.00    -0.237 OA
ATOM     89  O   UNL A   1      32.764  33.964  27.947  1.00  0.00    -0.744 OA
ENDBRANCH  85  86
ENDBRANCH  53  78
BRANCH  65  90
ATOM     90  C   UNL A   1      39.935  34.472  37.155  1.00  0.00     0.058 A 
ATOM     91  C   UNL A   1      39.074  34.277  38.247  1.00  0.00     0.135 A 
ATOM     92  C   UNL A   1      40.644  35.684  37.090  1.00  0.00     0.135 A 
ATOM     93  F   UNL A   1      38.371  33.140  38.359  1.00  0.00    -0.206 F 
ATOM     94  C   UNL A   1      38.899  35.259  39.219  1.00  0.00     0.059 A 
ATOM     95  C   UNL A   1      40.510  36.665  38.068  1.00  0.00     0.059 A 
ATOM     96  F   UNL A   1      41.491  35.918  36.076  1.00  0.00    -0.206 F 
ATOM     97  C   UNL A   1      39.622  36.449  39.121  1.00  0.00     0.060 A 
BRANCH  97  98
ATOM     98  S   UNL A   1      39.401  37.703  40.400  1.00  0.00     0.124 S 
ATOM     99  O   UNL A   1      40.639  38.467  40.280  1.00  0.00    -0.237 OA
ATOM    100  O   UNL A   1      38.189  38.386  39.960  1.00  0.00    -0.237 OA
ATOM    101  O   UNL A   1      39.264  36.921  41.625  1.00  0.00    -0.744 OA
ENDBRANCH  97  98
ENDBRANCH  65  90
ENDBRANCH  39  40
ENDBRANCH  32  34
ENDBRANCH  31  32
ENDBRANCH  30  31
ENDBRANCH  29  30
ENDBRANCH  28  29
ENDBRANCH  27  28
ENDBRANCH   1  27
TORSDOF 25
ENDMDL
MODEL 3
REMARK VINA RESULT:      -9.9      6.085     11.795
REMARK SMILES C[C@H]1CC[C@@H]([C@H](C(=O)OCCOCCOCCOCCOC(=O)c2ccc(-c3c4nc(c(-c5c(F)cc(S(=O)(=O)[O-])cc5F)c5ccc([nH]5)c(-c5c(F)cc(S(=O)(=O)[O-])cc5F)c5nc(c(-c6c(F)cc(S(=O)(=O)[O-])cc6F)c6ccc3[nH]6)C=C5)C=C4)cc2)[C@@H]2CCS(=O)(=O)C2)C[C@@H]1C
REMARK SMILES IDX 16 1 15 2 14 3 13 4 12 5 11 6 10 7 9 8 7 9 8 10 6 11 5 12
REMARK SMILES IDX 1 13 2 14 3 15 98 16 4 17 97 18 99 19 90 20 91 21 96 22
REMARK SMILES IDX 92 23 93 24 94 25 95 26 17 27 18 28 19 29 20 30 21 31 22 32
REMARK SMILES IDX 23 33 24 34 25 35 89 36 26 37 88 38 27 39 28 40 29 41 82 42
REMARK SMILES IDX 30 43 87 44 81 45 83 46 31 47 86 48 80 49 79 50 32 52 66 53
REMARK SMILES IDX 45 54 65 55 46 56 49 57 64 58 84 59 47 60 48 61 63 63 85 64
REMARK SMILES IDX 50 65 33 66 34 67 43 68 35 69 36 70 42 71 44 72 37 73 38 74
REMARK SMILES IDX 39 75 40 76 41 77 67 78 68 79 77 80 69 81 70 82 76 83 78 84
REMARK SMILES IDX 71 85 72 86 73 87 74 88 75 89 51 90 52 91 61 92 53 93 54 94
REMARK SMILES IDX 60 95 62 96 55 97 56 98 57 99 58 100 59 101
REMARK H PARENT 83 51 49 62
REMARK Flexibility Score: inf
ROOT
ATOM      1  C   UNL A   1      31.976  30.429  26.497  1.00  0.00     0.188 C 
ENDROOT
BRANCH   1   2
ATOM      2  O   UNL A   1      31.604  30.744  25.158  1.00  0.00    -0.377 OA
BRANCH   2   3
ATOM      3  C   UNL A   1      30.225  30.835  24.862  1.00  0.00     0.188 C 
BRANCH   3   4
ATOM      4  C   UNL A   1      29.822  30.215  23.504  1.00  0.00     0.188 C 
BRANCH   4   5
ATOM      5  O   UNL A   1      30.000  28.815  23.441  1.00  0.00    -0.376 OA
BRANCH   5   6
ATOM      6  C   UNL A   1      31.215  28.284  22.947  1.00  0.00     0.202 C 
BRANCH   6   7
ATOM      7  C   UNL A   1      31.289  27.154  21.905  1.00  0.00     0.261 C 
BRANCH   7   8
ATOM      8  O   UNL A   1      31.503  25.816  22.369  1.00  0.00    -0.463 OA
BRANCH   8   9
ATOM      9  C   UNL A   1      32.772  25.383  22.543  1.00  0.00     0.309 C 
ATOM     10  O   UNL A   1      33.739  25.794  21.915  1.00  0.00    -0.252 OA
BRANCH   9  11
ATOM     11  C   UNL A   1      32.820  24.274  23.624  1.00  0.00     0.106 C 
BRANCH  11  12
ATOM     12  C   UNL A   1      33.502  23.094  22.840  1.00  0.00     0.004 C 
ATOM     13  C   UNL A   1      32.960  19.751  25.503  1.00  0.00     0.008 C 
ATOM     14  C   UNL A   1      33.509  20.478  24.264  1.00  0.00    -0.011 C 
ATOM     15  C   UNL A   1      32.339  20.846  23.314  1.00  0.00     0.004 C 
ATOM     16  C   UNL A   1      34.430  21.658  24.674  1.00  0.00    -0.011 C 
ATOM     17  C   UNL A   1      32.599  21.973  22.330  1.00  0.00     0.005 C 
ATOM     18  C   UNL A   1      34.768  22.511  23.467  1.00  0.00     0.008 C 
ATOM     19  C   UNL A   1      35.705  21.221  25.390  1.00  0.00     0.008 C 
ENDBRANCH  11  12
BRANCH  11  20
ATOM     20  C   UNL A   1      33.330  24.950  24.963  1.00  0.00     0.019 C 
ATOM     21  C   UNL A   1      33.085  24.317  26.338  1.00  0.00     0.021 C 
ATOM     22  C   UNL A   1      32.765  26.379  25.204  1.00  0.00     0.141 C 
ATOM     23  C   UNL A   1      31.659  24.577  26.787  1.00  0.00     0.137 C 
ATOM     24  S   UNL A   1      31.349  26.246  26.288  1.00  0.00     0.150 S 
ATOM     25  O   UNL A   1      30.137  26.276  25.497  1.00  0.00    -0.229 OA
ATOM     26  O   UNL A   1      31.549  27.119  27.426  1.00  0.00    -0.229 OA
ENDBRANCH  11  20
ENDBRANCH   9  11
ENDBRANCH   8   9
ENDBRANCH   7   8
ENDBRANCH   6   7
ENDBRANCH   5   6
ENDBRANCH   4   5
ENDBRANCH   3   4
ENDBRANCH   2   3
ENDBRANCH   1   2
BRANCH   1  27
ATOM     27  C   UNL A   1      32.762  31.426  27.388  1.00  0.00     0.188 C 
BRANCH  27  28
ATOM     28  O   UNL A   1      34.115  31.648  27.019  1.00  0.00    -0.376 OA
BRANCH  28  29
ATOM     29  C   UNL A   1      35.000  32.259  27.939  1.00  0.00     0.202 C 
BRANCH  29  30
ATOM     30  C   UNL A   1      34.749  32.028  29.437  1.00  0.00     0.261 C 
BRANCH  30  31
ATOM     31  O   UNL A   1      35.773  31.319  30.145  1.00  0.00    -0.460 OA
BRANCH  31  32
ATOM     32  C   UNL A   1      36.871  32.014  30.510  1.00  0.00     0.338 C 
ATOM     33  O   UNL A   1      36.907  33.025  31.194  1.00  0.00    -0.246 OA
BRANCH  32  34
ATOM     34  C   UNL A   1      38.052  31.217  30.122  1.00  0.00     0.060 A 
ATOM     35  C   UNL A   1      38.986  30.859  31.103  1.00  0.00     0.016 A 
ATOM     36  C   UNL A   1      38.218  30.802  28.799  1.00  0.00     0.016 A 
ATOM     37  C   UNL A   1      40.110  30.114  30.756  1.00  0.00     0.010 A 
ATOM     38  C   UNL A   1      39.361  30.082  28.446  1.00  0.00     0.010 A 
ATOM     39  C   UNL A   1      40.329  29.770  29.416  1.00  0.00    -0.014 A 
BRANCH  39  40
ATOM     40  C   UNL A   1      41.668  29.291  29.002  1.00  0.00     0.031 A 
ATOM     41  C   UNL A   1      42.796  30.287  28.987  1.00  0.00     0.074 A 
ATOM     42  C   UNL A   1      41.887  28.004  28.685  1.00  0.00     0.049 A 
ATOM     43  N   UNL A   1      44.043  30.124  28.633  1.00  0.00    -0.248 NA
ATOM     44  C   UNL A   1      42.470  31.654  29.431  1.00  0.00     0.031 C 
ATOM     45  C   UNL A   1      40.881  26.943  28.708  1.00  0.00     0.029 A 
ATOM     46  N   UNL A   1      43.034  27.373  28.274  1.00  0.00    -0.354 N 
ATOM     47  C   UNL A   1      44.648  31.364  28.802  1.00  0.00     0.074 A 
ATOM     48  C   UNL A   1      43.625  32.278  29.260  1.00  0.00     0.031 C 
ATOM     49  C   UNL A   1      41.455  25.793  28.311  1.00  0.00     0.029 A 
ATOM     50  C   UNL A   1      42.855  26.043  27.976  1.00  0.00     0.049 A 
ATOM     51  H   UNL A   1      43.904  27.830  28.198  1.00  0.00     0.167 HD
ATOM     52  C   UNL A   1      45.942  31.708  28.602  1.00  0.00     0.037 A 
ATOM     53  C   UNL A   1      43.721  25.142  27.469  1.00  0.00     0.037 A 
ATOM     54  C   UNL A   1      46.952  30.790  28.145  1.00  0.00     0.049 A 
ATOM     55  C   UNL A   1      45.142  25.566  27.187  1.00  0.00     0.074 A 
ATOM     56  C   UNL A   1      48.296  31.032  27.926  1.00  0.00     0.029 A 
ATOM     57  N   UNL A   1      46.727  29.457  27.828  1.00  0.00    -0.354 N 
ATOM     58  N   UNL A   1      45.709  26.734  27.374  1.00  0.00    -0.248 NA
ATOM     59  C   UNL A   1      46.043  24.546  26.630  1.00  0.00     0.031 C 
ATOM     60  C   UNL A   1      48.872  29.864  27.418  1.00  0.00     0.029 A 
ATOM     61  C   UNL A   1      47.903  28.872  27.387  1.00  0.00     0.049 A 
ATOM     62  H   UNL A   1      45.861  28.997  27.905  1.00  0.00     0.167 HD
ATOM     63  C   UNL A   1      47.038  26.581  26.988  1.00  0.00     0.074 A 
ATOM     64  C   UNL A   1      47.193  25.203  26.572  1.00  0.00     0.031 C 
ATOM     65  C   UNL A   1      48.042  27.496  26.982  1.00  0.00     0.037 A 
BRANCH  52  66
ATOM     66  C   UNL A   1      46.331  33.139  28.844  1.00  0.00     0.058 A 
ATOM     67  C   UNL A   1      46.810  33.581  30.088  1.00  0.00     0.135 A 
ATOM     68  C   UNL A   1      46.261  34.077  27.800  1.00  0.00     0.135 A 
ATOM     69  F   UNL A   1      46.876  32.733  31.127  1.00  0.00    -0.206 F 
ATOM     70  C   UNL A   1      47.188  34.903  30.293  1.00  0.00     0.059 A 
ATOM     71  C   UNL A   1      46.662  35.398  27.975  1.00  0.00     0.059 A 
ATOM     72  F   UNL A   1      45.802  33.712  26.593  1.00  0.00    -0.206 F 
ATOM     73  C   UNL A   1      47.116  35.804  29.229  1.00  0.00     0.060 A 
BRANCH  73  74
ATOM     74  S   UNL A   1      47.634  37.511  29.507  1.00  0.00     0.124 S 
ATOM     75  O   UNL A   1      48.297  37.407  30.803  1.00  0.00    -0.237 OA
ATOM     76  O   UNL A   1      48.507  37.758  28.365  1.00  0.00    -0.237 OA
ATOM     77  O   UNL A   1      46.378  38.253  29.504  1.00  0.00    -0.744 OA
ENDBRANCH  73  74
ENDBRANCH  52  66
BRANCH  53  78
ATOM     78  C   UNL A   1      43.270  23.755  27.175  1.00  0.00     0.058 A 
ATOM     79  C   UNL A   1      43.110  22.807  28.198  1.00  0.00     0.135 A 
ATOM     80  C   UNL A   1      43.001  23.343  25.860  1.00  0.00     0.135 A 
ATOM     81  F   UNL A   1      43.366  23.145  29.471  1.00  0.00    -0.206 F 
ATOM     82  C   UNL A   1      42.721  21.498  27.927  1.00  0.00     0.059 A 
ATOM     83  C   UNL A   1      42.581  22.049  25.567  1.00  0.00     0.059 A 
ATOM     84  F   UNL A   1      43.130  24.211  24.844  1.00  0.00    -0.206 F 
ATOM     85  C   UNL A   1      42.456  21.130  26.607  1.00  0.00     0.060 A 
BRANCH  85  86
ATOM     86  S   UNL A   1      41.906  19.443  26.272  1.00  0.00     0.124 S 
ATOM     87  O   UNL A   1      42.637  19.133  25.048  1.00  0.00    -0.237 OA
ATOM     88  O   UNL A   1      42.342  18.736  27.472  1.00  0.00    -0.237 OA
ATOM     89  O   UNL A   1      40.461  19.582  26.126  1.00  0.00    -0.744 OA
ENDBRANCH  85  86
ENDBRANCH  53  78
BRANCH  65  90
ATOM     90  C   UNL A   1      49.408  27.029  26.554  1.00  0.00     0.058 A 
ATOM     91  C   UNL A   1      49.839  27.116  25.221  1.00  0.00     0.135 A 
ATOM     92  C   UNL A   1      50.317  26.533  27.504  1.00  0.00     0.135 A 
ATOM     93  F   UNL A   1      49.013  27.580  24.271  1.00  0.00    -0.206 F 
ATOM     94  C   UNL A   1      51.112  26.698  24.840  1.00  0.00     0.059 A 
ATOM     95  C   UNL A   1      51.605  26.142  27.151  1.00  0.00     0.059 A 
ATOM     96  F   UNL A   1      49.963  26.441  28.795  1.00  0.00    -0.206 F 
ATOM     97  C   UNL A   1      51.988  26.214  25.813  1.00  0.00     0.060 A 
BRANCH  97  98
ATOM     98  S   UNL A   1      53.641  25.695  25.307  1.00  0.00     0.124 S 
ATOM     99  O   UNL A   1      53.419  25.316  23.916  1.00  0.00    -0.237 OA
ATOM    100  O   UNL A   1      54.426  26.908  25.516  1.00  0.00    -0.237 OA
ATOM    101  O   UNL A   1      53.946  24.594  26.217  1.00  0.00    -0.744 OA
ENDBRANCH  97  98
ENDBRANCH  65  90
ENDBRANCH  39  40
ENDBRANCH  32  34
ENDBRANCH  31  32
ENDBRANCH  30  31
ENDBRANCH  29  30
ENDBRANCH  28  29
ENDBRANCH  27  28
ENDBRANCH   1  27
TORSDOF 25
ENDMDL
