MODEL 1
REMARK VINA RESULT:      -6.2      0.000      0.000
REMARK SMILES CC(C)C[C@H](NC(=O)[C@@H](NC(=O)[C@H](C)NC(=O)CNC(=O)OCc1ccccc1)C(C)C)C(=O)OCCOCCOCCOCCOC(=O)c1ccc(-c2c3nc(c(-c4c(F)cc(S(=O)(=O)[O-])cc4F)c4ccc([nH]4)c(-c4c(F)cc(S(=O)(=O)[O-])cc4F)c4nc(c(-c5c(F)cc(S(=O)(=O)[O-])cc5F)c5ccc2[nH]5)C=C4)C=C3)cc1
REMARK SMILES IDX 37 1 36 2 35 3 33 4 34 5 5 6 4 7 2 8 1 9 3 10 6 11 7 12 8 14
REMARK SMILES IDX 9 15 10 16 11 17 12 19 13 20 14 21 15 22 16 23 17 25 18 26
REMARK SMILES IDX 19 27 20 28 21 30 22 31 23 32 24 33 25 34 29 35 26 36 28 37
REMARK SMILES IDX 27 38 30 39 31 40 32 41 38 42 39 43 40 44 41 45 42 46 43 47
REMARK SMILES IDX 44 48 45 49 46 50 47 51 48 52 49 53 50 54 51 55 115 56 52 57
REMARK SMILES IDX 114 58 53 59 54 60 55 61 108 62 56 63 113 64 107 65 109 66
REMARK SMILES IDX 57 67 112 68 106 69 105 70 58 72 92 73 71 74 91 75 72 76
REMARK SMILES IDX 75 77 90 78 110 79 73 80 74 81 89 83 111 84 76 85 59 86
REMARK SMILES IDX 60 87 69 88 61 89 62 90 68 91 70 92 63 93 64 94 65 95 66 96
REMARK SMILES IDX 67 97 93 98 94 99 103 100 95 101 96 102 102 103 104 104
REMARK SMILES IDX 97 105 98 106 99 107 100 108 101 109 77 110 78 111 87 112
REMARK SMILES IDX 79 113 80 114 86 115 88 116 81 117 82 118 83 119 84 120
REMARK SMILES IDX 85 121
REMARK H PARENT 6 13 10 18 15 24 19 29 109 71 75 82
REMARK Flexibility Score: inf
ROOT
ATOM      1  C   UNL A   1      45.450  30.546  32.442  1.00  0.00     0.202 C 
ENDROOT
BRANCH   1   2
ATOM      2  C   UNL A   1      45.080  29.476  31.401  1.00  0.00     0.261 C 
BRANCH   2   3
ATOM      3  O   UNL A   1      45.525  29.813  30.070  1.00  0.00    -0.462 OA
BRANCH   3   4
ATOM      4  C   UNL A   1      46.729  29.298  29.717  1.00  0.00     0.328 C 
ATOM      5  O   UNL A   1      47.758  29.438  30.369  1.00  0.00    -0.250 OA
BRANCH   4   6
ATOM      6  C   UNL A   1      46.696  28.449  28.420  1.00  0.00     0.192 C 
BRANCH   6   7
ATOM      7  C   UNL A   1      47.805  27.388  28.577  1.00  0.00     0.040 C 
BRANCH   7   8
ATOM      8  C   UNL A   1      47.288  25.966  28.306  1.00  0.00    -0.015 C 
ATOM      9  C   UNL A   1      45.765  25.957  28.216  1.00  0.00     0.007 C 
ATOM     10  C   UNL A   1      47.910  25.424  27.020  1.00  0.00     0.007 C 
ENDBRANCH   7   8
ENDBRANCH   6   7
BRANCH   6  11
ATOM     11  N   UNL A   1      46.853  29.140  27.140  1.00  0.00    -0.341 N 
ATOM     12  C   UNL A   1      46.072  29.968  26.405  1.00  0.00     0.243 C 
ATOM     13  H   UNL A   1      47.725  28.962  26.716  1.00  0.00     0.164 HD
ATOM     14  O   UNL A   1      46.404  30.045  25.213  1.00  0.00    -0.273 OA
BRANCH  12  15
ATOM     15  C   UNL A   1      44.926  30.906  26.923  1.00  0.00     0.174 C 
BRANCH  15  16
ATOM     16  N   UNL A   1      43.856  30.359  27.784  1.00  0.00    -0.342 N 
ATOM     17  C   UNL A   1      43.010  29.310  27.878  1.00  0.00     0.242 C 
ATOM     18  H   UNL A   1      43.710  30.965  28.546  1.00  0.00     0.164 HD
ATOM     19  O   UNL A   1      42.503  29.208  29.011  1.00  0.00    -0.273 OA
BRANCH  17  20
ATOM     20  C   UNL A   1      42.485  28.347  26.776  1.00  0.00     0.168 C 
ATOM     21  C   UNL A   1      41.393  28.772  25.819  1.00  0.00     0.041 C 
BRANCH  20  22
ATOM     22  N   UNL A   1      42.218  27.032  27.339  1.00  0.00    -0.343 N 
ATOM     23  C   UNL A   1      42.281  25.793  26.780  1.00  0.00     0.240 C 
ATOM     24  H   UNL A   1      41.946  27.040  28.285  1.00  0.00     0.164 HD
ATOM     25  O   UNL A   1      42.137  24.826  27.531  1.00  0.00    -0.273 OA
BRANCH  23  26
ATOM     26  C   UNL A   1      42.580  25.572  25.299  1.00  0.00     0.219 C 
BRANCH  26  27
ATOM     27  N   UNL A   1      43.996  25.448  25.018  1.00  0.00    -0.312 N 
ATOM     28  C   UNL A   1      44.647  24.312  24.653  1.00  0.00     0.407 C 
ATOM     29  H   UNL A   1      44.539  26.265  25.099  1.00  0.00     0.167 HD
ATOM     30  O   UNL A   1      45.865  24.279  24.547  1.00  0.00    -0.225 OA
BRANCH  28  31
ATOM     31  O   UNL A   1      43.808  23.254  24.531  1.00  0.00    -0.445 OA
BRANCH  31  32
ATOM     32  C   UNL A   1      44.384  21.961  24.772  1.00  0.00     0.270 C 
BRANCH  32  33
ATOM     33  C   UNL A   1      43.478  21.126  25.634  1.00  0.00    -0.011 A 
ATOM     34  C   UNL A   1      43.441  19.736  25.474  1.00  0.00     0.007 A 
ATOM     35  C   UNL A   1      42.594  21.742  26.532  1.00  0.00     0.007 A 
ATOM     36  C   UNL A   1      42.479  18.986  26.145  1.00  0.00     0.000 A 
ATOM     37  C   UNL A   1      41.624  20.992  27.186  1.00  0.00     0.000 A 
ATOM     38  C   UNL A   1      41.561  19.616  26.983  1.00  0.00     0.000 A 
ENDBRANCH  32  33
ENDBRANCH  31  32
ENDBRANCH  28  31
ENDBRANCH  26  27
ENDBRANCH  23  26
ENDBRANCH  20  22
ENDBRANCH  17  20
ENDBRANCH  15  16
BRANCH  15  39
ATOM     39  C   UNL A   1      45.391  32.329  27.296  1.00  0.00     0.015 C 
ATOM     40  C   UNL A   1      45.654  33.271  26.130  1.00  0.00     0.010 C 
ATOM     41  C   UNL A   1      44.426  33.053  28.250  1.00  0.00     0.010 C 
ENDBRANCH  15  39
ENDBRANCH  12  15
ENDBRANCH   6  11
ENDBRANCH   4   6
ENDBRANCH   3   4
ENDBRANCH   2   3
ENDBRANCH   1   2
BRANCH   1  42
ATOM     42  O   UNL A   1      45.766  30.094  33.757  1.00  0.00    -0.376 OA
BRANCH  42  43
ATOM     43  C   UNL A   1      47.118  29.708  34.020  1.00  0.00     0.188 C 
BRANCH  43  44
ATOM     44  C   UNL A   1      47.350  28.407  34.809  1.00  0.00     0.188 C 
BRANCH  44  45
ATOM     45  O   UNL A   1      48.307  27.557  34.203  1.00  0.00    -0.377 OA
BRANCH  45  46
ATOM     46  C   UNL A   1      47.807  26.266  33.912  1.00  0.00     0.188 C 
BRANCH  46  47
ATOM     47  C   UNL A   1      48.714  25.168  34.474  1.00  0.00     0.188 C 
BRANCH  47  48
ATOM     48  O   UNL A   1      48.103  24.372  35.495  1.00  0.00    -0.376 OA
BRANCH  48  49
ATOM     49  C   UNL A   1      46.681  24.491  35.580  1.00  0.00     0.202 C 
BRANCH  49  50
ATOM     50  C   UNL A   1      45.912  23.452  34.748  1.00  0.00     0.261 C 
BRANCH  50  51
ATOM     51  O   UNL A   1      45.101  24.025  33.722  1.00  0.00    -0.460 OA
BRANCH  51  52
ATOM     52  C   UNL A   1      43.777  23.977  33.949  1.00  0.00     0.338 C 
ATOM     53  O   UNL A   1      43.070  22.987  34.025  1.00  0.00    -0.246 OA
BRANCH  52  54
ATOM     54  C   UNL A   1      43.360  25.332  34.323  1.00  0.00     0.060 A 
ATOM     55  C   UNL A   1      43.945  26.392  33.624  1.00  0.00     0.016 A 
ATOM     56  C   UNL A   1      42.385  25.548  35.303  1.00  0.00     0.016 A 
ATOM     57  C   UNL A   1      43.576  27.691  33.931  1.00  0.00     0.010 A 
ATOM     58  C   UNL A   1      42.052  26.855  35.646  1.00  0.00     0.010 A 
ATOM     59  C   UNL A   1      42.687  27.921  34.990  1.00  0.00    -0.014 A 
BRANCH  59  60
ATOM     60  C   UNL A   1      42.713  29.262  35.597  1.00  0.00     0.031 A 
ATOM     61  C   UNL A   1      41.701  30.249  35.084  1.00  0.00     0.074 A 
ATOM     62  C   UNL A   1      43.523  29.538  36.630  1.00  0.00     0.049 A 
ATOM     63  N   UNL A   1      41.411  31.442  35.520  1.00  0.00    -0.248 NA
ATOM     64  C   UNL A   1      40.889  29.817  33.929  1.00  0.00     0.031 C 
ATOM     65  C   UNL A   1      44.509  28.623  37.204  1.00  0.00     0.029 A 
ATOM     66  N   UNL A   1      43.631  30.672  37.386  1.00  0.00    -0.354 N 
ATOM     67  C   UNL A   1      40.364  31.885  34.722  1.00  0.00     0.074 A 
ATOM     68  C   UNL A   1      40.096  30.858  33.745  1.00  0.00     0.031 C 
ATOM     69  C   UNL A   1      45.135  29.242  38.221  1.00  0.00     0.029 A 
ATOM     70  C   UNL A   1      44.595  30.592  38.361  1.00  0.00     0.049 A 
ATOM     71  H   UNL A   1      43.072  31.470  37.245  1.00  0.00     0.167 HD
ATOM     72  C   UNL A   1      39.675  33.045  34.811  1.00  0.00     0.037 A 
ATOM     73  C   UNL A   1      44.988  31.519  39.254  1.00  0.00     0.037 A 
ATOM     74  C   UNL A   1      39.994  34.073  35.760  1.00  0.00     0.049 A 
ATOM     75  C   UNL A   1      44.255  32.836  39.287  1.00  0.00     0.074 A 
ATOM     76  C   UNL A   1      39.409  35.315  35.920  1.00  0.00     0.029 A 
ATOM     77  N   UNL A   1      41.003  33.976  36.708  1.00  0.00    -0.354 N 
ATOM     78  N   UNL A   1      43.256  33.242  38.536  1.00  0.00    -0.248 NA
ATOM     79  C   UNL A   1      44.686  33.812  40.295  1.00  0.00     0.031 C 
ATOM     80  C   UNL A   1      40.092  35.984  36.942  1.00  0.00     0.029 A 
ATOM     81  C   UNL A   1      41.069  35.139  37.450  1.00  0.00     0.049 A 
ATOM     82  H   UNL A   1      41.586  33.192  36.833  1.00  0.00     0.167 HD
ATOM     83  C   UNL A   1      42.930  34.515  38.988  1.00  0.00     0.074 A 
ATOM     84  C   UNL A   1      43.824  34.798  40.096  1.00  0.00     0.031 C 
ATOM     85  C   UNL A   1      41.985  35.380  38.537  1.00  0.00     0.037 A 
BRANCH  72  86
ATOM     86  C   UNL A   1      38.547  33.251  33.841  1.00  0.00     0.058 A 
ATOM     87  C   UNL A   1      37.266  32.725  34.083  1.00  0.00     0.135 A 
ATOM     88  C   UNL A   1      38.745  33.972  32.654  1.00  0.00     0.135 A 
ATOM     89  F   UNL A   1      37.032  31.995  35.186  1.00  0.00    -0.206 F 
ATOM     90  C   UNL A   1      36.227  32.895  33.175  1.00  0.00     0.059 A 
ATOM     91  C   UNL A   1      37.712  34.174  31.743  1.00  0.00     0.059 A 
ATOM     92  F   UNL A   1      39.954  34.478  32.365  1.00  0.00    -0.206 F 
ATOM     93  C   UNL A   1      36.460  33.623  32.008  1.00  0.00     0.060 A 
BRANCH  93  94
ATOM     94  S   UNL A   1      35.096  33.851  30.846  1.00  0.00     0.124 S 
ATOM     95  O   UNL A   1      35.811  34.122  29.604  1.00  0.00    -0.237 OA
ATOM     96  O   UNL A   1      34.410  32.564  30.915  1.00  0.00    -0.237 OA
ATOM     97  O   UNL A   1      34.358  34.980  31.406  1.00  0.00    -0.744 OA
ENDBRANCH  93  94
ENDBRANCH  72  86
BRANCH  73  98
ATOM     98  C   UNL A   1      46.127  31.240  40.167  1.00  0.00     0.058 A 
ATOM     99  C   UNL A   1      45.949  30.576  41.389  1.00  0.00     0.135 A 
ATOM    100  C   UNL A   1      47.431  31.634  39.825  1.00  0.00     0.135 A 
ATOM    101  F   UNL A   1      44.723  30.182  41.766  1.00  0.00    -0.206 F 
ATOM    102  C   UNL A   1      47.016  30.329  42.249  1.00  0.00     0.059 A 
ATOM    103  C   UNL A   1      48.519  31.378  40.655  1.00  0.00     0.059 A 
ATOM    104  F   UNL A   1      47.661  32.260  38.660  1.00  0.00    -0.206 F 
ATOM    105  C   UNL A   1      48.299  30.734  41.871  1.00  0.00     0.060 A 
BRANCH 105 106
ATOM    106  S   UNL A   1      49.686  30.370  42.968  1.00  0.00     0.124 S 
ATOM    107  O   UNL A   1      50.780  31.066  42.301  1.00  0.00    -0.237 OA
ATOM    108  O   UNL A   1      49.238  30.945  44.232  1.00  0.00    -0.237 OA
ATOM    109  O   UNL A   1      49.756  28.911  42.944  1.00  0.00    -0.744 OA
ENDBRANCH 105 106
ENDBRANCH  73  98
BRANCH  85 110
ATOM    110  C   UNL A   1      41.875  36.694  39.255  1.00  0.00     0.058 A 
ATOM    111  C   UNL A   1      41.010  36.863  40.347  1.00  0.00     0.135 A 
ATOM    112  C   UNL A   1      42.662  37.787  38.859  1.00  0.00     0.135 A 
ATOM    113  F   UNL A   1      40.239  35.846  40.762  1.00  0.00    -0.206 F 
ATOM    114  C   UNL A   1      40.896  38.087  40.995  1.00  0.00     0.059 A 
ATOM    115  C   UNL A   1      42.585  39.011  39.512  1.00  0.00     0.059 A 
ATOM    116  F   UNL A   1      43.518  37.668  37.832  1.00  0.00    -0.206 F 
ATOM    117  C   UNL A   1      41.683  39.156  40.565  1.00  0.00     0.060 A 
BRANCH 117 118
ATOM    118  S   UNL A   1      41.520  40.744  41.408  1.00  0.00     0.124 S 
ATOM    119  O   UNL A   1      41.939  41.672  40.362  1.00  0.00    -0.237 OA
ATOM    120  O   UNL A   1      40.103  40.773  41.752  1.00  0.00    -0.237 OA
ATOM    121  O   UNL A   1      42.432  40.620  42.541  1.00  0.00    -0.744 OA
ENDBRANCH 117 118
ENDBRANCH  85 110
ENDBRANCH  59  60
ENDBRANCH  52  54
ENDBRANCH  51  52
ENDBRANCH  50  51
ENDBRANCH  49  50
ENDBRANCH  48  49
ENDBRANCH  47  48
ENDBRANCH  46  47
ENDBRANCH  45  46
ENDBRANCH  44  45
ENDBRANCH  43  44
ENDBRANCH  42  43
ENDBRANCH   1  42
TORSDOF 36
ENDMDL
MODEL 2
REMARK VINA RESULT:      -5.9      4.193     11.071
REMARK SMILES CC(C)C[C@H](NC(=O)[C@@H](NC(=O)[C@H](C)NC(=O)CNC(=O)OCc1ccccc1)C(C)C)C(=O)OCCOCCOCCOCCOC(=O)c1ccc(-c2c3nc(c(-c4c(F)cc(S(=O)(=O)[O-])cc4F)c4ccc([nH]4)c(-c4c(F)cc(S(=O)(=O)[O-])cc4F)c4nc(c(-c5c(F)cc(S(=O)(=O)[O-])cc5F)c5ccc2[nH]5)C=C4)C=C3)cc1
REMARK SMILES IDX 37 1 36 2 35 3 33 4 34 5 5 6 4 7 2 8 1 9 3 10 6 11 7 12 8 14
REMARK SMILES IDX 9 15 10 16 11 17 12 19 13 20 14 21 15 22 16 23 17 25 18 26
REMARK SMILES IDX 19 27 20 28 21 30 22 31 23 32 24 33 25 34 29 35 26 36 28 37
REMARK SMILES IDX 27 38 30 39 31 40 32 41 38 42 39 43 40 44 41 45 42 46 43 47
REMARK SMILES IDX 44 48 45 49 46 50 47 51 48 52 49 53 50 54 51 55 115 56 52 57
REMARK SMILES IDX 114 58 53 59 54 60 55 61 108 62 56 63 113 64 107 65 109 66
REMARK SMILES IDX 57 67 112 68 106 69 105 70 58 72 92 73 71 74 91 75 72 76
REMARK SMILES IDX 75 77 90 78 110 79 73 80 74 81 89 83 111 84 76 85 59 86
REMARK SMILES IDX 60 87 69 88 61 89 62 90 68 91 70 92 63 93 64 94 65 95 66 96
REMARK SMILES IDX 67 97 93 98 94 99 103 100 95 101 96 102 102 103 104 104
REMARK SMILES IDX 97 105 98 106 99 107 100 108 101 109 77 110 78 111 87 112
REMARK SMILES IDX 79 113 80 114 86 115 88 116 81 117 82 118 83 119 84 120
REMARK SMILES IDX 85 121
REMARK H PARENT 6 13 10 18 15 24 19 29 109 71 75 82
REMARK Flexibility Score: inf
ROOT
ATOM      1  C   UNL A   1      41.780  34.918  28.621  1.00  0.00     0.202 C 
ENDROOT
BRANCH   1   2
ATOM      2  C   UNL A   1      42.877  35.727  29.331  1.00  0.00     0.261 C 
BRANCH   2   3
ATOM      3  O   UNL A   1      44.166  35.079  29.288  1.00  0.00    -0.462 OA
BRANCH   3   4
ATOM      4  C   UNL A   1      44.455  34.296  30.357  1.00  0.00     0.328 C 
ATOM      5  O   UNL A   1      43.765  33.353  30.728  1.00  0.00    -0.250 OA
BRANCH   4   6
ATOM      6  C   UNL A   1      45.788  34.659  31.062  1.00  0.00     0.192 C 
BRANCH   6   7
ATOM      7  C   UNL A   1      45.448  34.812  32.560  1.00  0.00     0.040 C 
BRANCH   7   8
ATOM      8  C   UNL A   1      45.970  36.136  33.139  1.00  0.00    -0.015 C 
ATOM      9  C   UNL A   1      44.890  36.817  33.975  1.00  0.00     0.007 C 
ATOM     10  C   UNL A   1      47.222  35.880  33.976  1.00  0.00     0.007 C 
ENDBRANCH   7   8
ENDBRANCH   6   7
BRANCH   6  11
ATOM     11  N   UNL A   1      46.513  35.841  30.598  1.00  0.00    -0.341 N 
ATOM     12  C   UNL A   1      47.394  36.083  29.597  1.00  0.00     0.243 C 
ATOM     13  H   UNL A   1      46.317  36.643  31.135  1.00  0.00     0.164 HD
ATOM     14  O   UNL A   1      48.064  37.114  29.757  1.00  0.00    -0.273 OA
BRANCH  12  15
ATOM     15  C   UNL A   1      47.543  35.297  28.247  1.00  0.00     0.174 C 
BRANCH  15  16
ATOM     16  N   UNL A   1      46.953  33.948  28.109  1.00  0.00    -0.342 N 
ATOM     17  C   UNL A   1      47.180  32.658  28.440  1.00  0.00     0.242 C 
ATOM     18  H   UNL A   1      46.109  34.013  27.606  1.00  0.00     0.164 HD
ATOM     19  O   UNL A   1      46.165  31.949  28.311  1.00  0.00    -0.273 OA
BRANCH  17  20
ATOM     20  C   UNL A   1      48.511  31.936  28.793  1.00  0.00     0.168 C 
ATOM     21  C   UNL A   1      49.827  32.682  28.810  1.00  0.00     0.041 C 
BRANCH  20  22
ATOM     22  N   UNL A   1      48.617  30.685  28.059  1.00  0.00    -0.343 N 
ATOM     23  C   UNL A   1      48.403  29.399  28.451  1.00  0.00     0.240 C 
ATOM     24  H   UNL A   1      48.890  30.785  27.118  1.00  0.00     0.164 HD
ATOM     25  O   UNL A   1      48.430  28.530  27.577  1.00  0.00    -0.273 OA
BRANCH  23  26
ATOM     26  C   UNL A   1      48.076  29.022  29.894  1.00  0.00     0.219 C 
BRANCH  26  27
ATOM     27  N   UNL A   1      49.086  29.458  30.837  1.00  0.00    -0.312 N 
ATOM     28  C   UNL A   1      50.209  28.775  31.185  1.00  0.00     0.407 C 
ATOM     29  H   UNL A   1      48.945  30.331  31.268  1.00  0.00     0.167 HD
ATOM     30  O   UNL A   1      50.947  29.171  32.076  1.00  0.00    -0.225 OA
BRANCH  28  31
ATOM     31  O   UNL A   1      50.331  27.605  30.511  1.00  0.00    -0.445 OA
BRANCH  31  32
ATOM     32  C   UNL A   1      49.728  26.457  31.125  1.00  0.00     0.270 C 
BRANCH  32  33
ATOM     33  C   UNL A   1      50.778  25.485  31.587  1.00  0.00    -0.011 A 
ATOM     34  C   UNL A   1      50.403  24.282  32.195  1.00  0.00     0.007 A 
ATOM     35  C   UNL A   1      52.137  25.823  31.502  1.00  0.00     0.007 A 
ATOM     36  C   UNL A   1      51.370  23.467  32.778  1.00  0.00     0.000 A 
ATOM     37  C   UNL A   1      53.098  25.017  32.102  1.00  0.00     0.000 A 
ATOM     38  C   UNL A   1      52.712  23.845  32.749  1.00  0.00     0.000 A 
ENDBRANCH  32  33
ENDBRANCH  31  32
ENDBRANCH  28  31
ENDBRANCH  26  27
ENDBRANCH  23  26
ENDBRANCH  20  22
ENDBRANCH  17  20
ENDBRANCH  15  16
BRANCH  15  39
ATOM     39  C   UNL A   1      47.442  36.179  26.985  1.00  0.00     0.015 C 
ATOM     40  C   UNL A   1      47.820  35.508  25.672  1.00  0.00     0.010 C 
ATOM     41  C   UNL A   1      46.050  36.800  26.789  1.00  0.00     0.010 C 
ENDBRANCH  15  39
ENDBRANCH  12  15
ENDBRANCH   6  11
ENDBRANCH   4   6
ENDBRANCH   3   4
ENDBRANCH   2   3
ENDBRANCH   1   2
BRANCH   1  42
ATOM     42  O   UNL A   1      40.429  35.175  29.004  1.00  0.00    -0.376 OA
BRANCH  42  43
ATOM     43  C   UNL A   1      39.826  34.283  29.945  1.00  0.00     0.188 C 
BRANCH  43  44
ATOM     44  C   UNL A   1      40.067  34.553  31.442  1.00  0.00     0.188 C 
BRANCH  44  45
ATOM     45  O   UNL A   1      38.869  34.790  32.159  1.00  0.00    -0.377 OA
BRANCH  45  46
ATOM     46  C   UNL A   1      37.732  34.190  31.568  1.00  0.00     0.188 C 
BRANCH  46  47
ATOM     47  C   UNL A   1      36.723  33.728  32.623  1.00  0.00     0.188 C 
BRANCH  47  48
ATOM     48  O   UNL A   1      35.517  33.182  32.077  1.00  0.00    -0.376 OA
BRANCH  48  49
ATOM     49  C   UNL A   1      34.800  34.060  31.205  1.00  0.00     0.202 C 
BRANCH  49  50
ATOM     50  C   UNL A   1      34.559  33.489  29.799  1.00  0.00     0.261 C 
BRANCH  50  51
ATOM     51  O   UNL A   1      34.498  32.063  29.761  1.00  0.00    -0.460 OA
BRANCH  51  52
ATOM     52  C   UNL A   1      34.857  31.509  28.590  1.00  0.00     0.338 C 
ATOM     53  O   UNL A   1      34.346  31.680  27.497  1.00  0.00    -0.246 OA
BRANCH  52  54
ATOM     54  C   UNL A   1      36.134  30.824  28.817  1.00  0.00     0.060 A 
ATOM     55  C   UNL A   1      36.142  29.788  29.755  1.00  0.00     0.016 A 
ATOM     56  C   UNL A   1      37.280  31.165  28.091  1.00  0.00     0.016 A 
ATOM     57  C   UNL A   1      37.320  29.103  29.997  1.00  0.00     0.010 A 
ATOM     58  C   UNL A   1      38.476  30.511  28.371  1.00  0.00     0.010 A 
ATOM     59  C   UNL A   1      38.498  29.514  29.359  1.00  0.00    -0.014 A 
BRANCH  59  60
ATOM     60  C   UNL A   1      39.767  29.121  29.995  1.00  0.00     0.031 A 
ATOM     61  C   UNL A   1      40.110  29.813  31.286  1.00  0.00     0.074 A 
ATOM     62  C   UNL A   1      40.508  28.120  29.500  1.00  0.00     0.049 A 
ATOM     63  N   UNL A   1      41.083  29.576  32.120  1.00  0.00    -0.248 NA
ATOM     64  C   UNL A   1      39.215  30.911  31.701  1.00  0.00     0.031 C 
ATOM     65  C   UNL A   1      40.224  27.381  28.270  1.00  0.00     0.029 A 
ATOM     66  N   UNL A   1      41.650  27.546  29.985  1.00  0.00    -0.354 N 
ATOM     67  C   UNL A   1      40.895  30.465  33.171  1.00  0.00     0.074 A 
ATOM     68  C   UNL A   1      39.747  31.278  32.855  1.00  0.00     0.031 C 
ATOM     69  C   UNL A   1      41.181  26.453  28.090  1.00  0.00     0.029 A 
ATOM     70  C   UNL A   1      42.142  26.542  29.188  1.00  0.00     0.049 A 
ATOM     71  H   UNL A   1      42.081  27.826  30.825  1.00  0.00     0.167 HD
ATOM     72  C   UNL A   1      41.613  30.579  34.311  1.00  0.00     0.037 A 
ATOM     73  C   UNL A   1      43.249  25.791  29.341  1.00  0.00     0.037 A 
ATOM     74  C   UNL A   1      42.783  29.791  34.581  1.00  0.00     0.049 A 
ATOM     75  C   UNL A   1      44.077  25.986  30.584  1.00  0.00     0.074 A 
ATOM     76  C   UNL A   1      43.628  29.844  35.672  1.00  0.00     0.029 A 
ATOM     77  N   UNL A   1      43.276  28.809  33.733  1.00  0.00    -0.354 N 
ATOM     78  N   UNL A   1      43.886  26.821  31.581  1.00  0.00    -0.248 NA
ATOM     79  C   UNL A   1      45.259  25.129  30.736  1.00  0.00     0.031 C 
ATOM     80  C   UNL A   1      44.657  28.917  35.463  1.00  0.00     0.029 A 
ATOM     81  C   UNL A   1      44.423  28.255  34.267  1.00  0.00     0.049 A 
ATOM     82  H   UNL A   1      42.867  28.546  32.876  1.00  0.00     0.167 HD
ATOM     83  C   UNL A   1      44.915  26.582  32.484  1.00  0.00     0.074 A 
ATOM     84  C   UNL A   1      45.709  25.504  31.925  1.00  0.00     0.031 C 
ATOM     85  C   UNL A   1      45.188  27.191  33.667  1.00  0.00     0.037 A 
BRANCH  72  86
ATOM     86  C   UNL A   1      41.159  31.603  35.311  1.00  0.00     0.058 A 
ATOM     87  C   UNL A   1      40.068  31.362  36.164  1.00  0.00     0.135 A 
ATOM     88  C   UNL A   1      41.810  32.841  35.415  1.00  0.00     0.135 A 
ATOM     89  F   UNL A   1      39.386  30.208  36.080  1.00  0.00    -0.206 F 
ATOM     90  C   UNL A   1      39.632  32.318  37.074  1.00  0.00     0.059 A 
ATOM     91  C   UNL A   1      41.405  33.803  36.336  1.00  0.00     0.059 A 
ATOM     92  F   UNL A   1      42.845  33.129  34.610  1.00  0.00    -0.206 F 
ATOM     93  C   UNL A   1      40.308  33.536  37.154  1.00  0.00     0.060 A 
BRANCH  93  94
ATOM     94  S   UNL A   1      39.741  34.762  38.353  1.00  0.00     0.124 S 
ATOM     95  O   UNL A   1      38.303  34.512  38.369  1.00  0.00    -0.237 OA
ATOM     96  O   UNL A   1      40.465  34.376  39.560  1.00  0.00    -0.237 OA
ATOM     97  O   UNL A   1      40.151  36.032  37.760  1.00  0.00    -0.744 OA
ENDBRANCH  93  94
ENDBRANCH  72  86
BRANCH  73  98
ATOM     98  C   UNL A   1      43.636  24.811  28.292  1.00  0.00     0.058 A 
ATOM     99  C   UNL A   1      43.066  23.532  28.229  1.00  0.00     0.135 A 
ATOM    100  C   UNL A   1      44.595  25.144  27.322  1.00  0.00     0.135 A 
ATOM    101  F   UNL A   1      42.148  23.161  29.135  1.00  0.00    -0.206 F 
ATOM    102  C   UNL A   1      43.442  22.611  27.255  1.00  0.00     0.059 A 
ATOM    103  C   UNL A   1      44.971  24.252  26.322  1.00  0.00     0.059 A 
ATOM    104  F   UNL A   1      45.163  26.361  27.326  1.00  0.00    -0.206 F 
ATOM    105  C   UNL A   1      44.397  22.982  26.304  1.00  0.00     0.060 A 
BRANCH 105 106
ATOM    106  S   UNL A   1      44.847  21.801  25.015  1.00  0.00     0.124 S 
ATOM    107  O   UNL A   1      46.281  22.030  24.894  1.00  0.00    -0.237 OA
ATOM    108  O   UNL A   1      44.449  20.529  25.610  1.00  0.00    -0.237 OA
ATOM    109  O   UNL A   1      44.039  22.228  23.875  1.00  0.00    -0.744 OA
ENDBRANCH 105 106
ENDBRANCH  73  98
BRANCH  85 110
ATOM    110  C   UNL A   1      46.385  26.690  34.423  1.00  0.00     0.058 A 
ATOM    111  C   UNL A   1      46.282  25.634  35.341  1.00  0.00     0.135 A 
ATOM    112  C   UNL A   1      47.650  27.257  34.206  1.00  0.00     0.135 A 
ATOM    113  F   UNL A   1      45.093  25.059  35.581  1.00  0.00    -0.206 F 
ATOM    114  C   UNL A   1      47.388  25.187  36.055  1.00  0.00     0.059 A 
ATOM    115  C   UNL A   1      48.775  26.806  34.886  1.00  0.00     0.059 A 
ATOM    116  F   UNL A   1      47.802  28.257  33.323  1.00  0.00    -0.206 F 
ATOM    117  C   UNL A   1      48.628  25.784  35.824  1.00  0.00     0.060 A 
BRANCH 117 118
ATOM    118  S   UNL A   1      50.056  25.203  36.762  1.00  0.00     0.124 S 
ATOM    119  O   UNL A   1      50.282  26.323  37.670  1.00  0.00    -0.237 OA
ATOM    120  O   UNL A   1      49.552  23.980  37.377  1.00  0.00    -0.237 OA
ATOM    121  O   UNL A   1      51.076  25.008  35.737  1.00  0.00    -0.744 OA
ENDBRANCH 117 118
ENDBRANCH  85 110
ENDBRANCH  59  60
ENDBRANCH  52  54
ENDBRANCH  51  52
ENDBRANCH  50  51
ENDBRANCH  49  50
ENDBRANCH  48  49
ENDBRANCH  47  48
ENDBRANCH  46  47
ENDBRANCH  45  46
ENDBRANCH  44  45
ENDBRANCH  43  44
ENDBRANCH  42  43
ENDBRANCH   1  42
TORSDOF 36
ENDMDL
MODEL 3
REMARK VINA RESULT:      -5.8      9.820     17.101
REMARK SMILES CC(C)C[C@H](NC(=O)[C@@H](NC(=O)[C@H](C)NC(=O)CNC(=O)OCc1ccccc1)C(C)C)C(=O)OCCOCCOCCOCCOC(=O)c1ccc(-c2c3nc(c(-c4c(F)cc(S(=O)(=O)[O-])cc4F)c4ccc([nH]4)c(-c4c(F)cc(S(=O)(=O)[O-])cc4F)c4nc(c(-c5c(F)cc(S(=O)(=O)[O-])cc5F)c5ccc2[nH]5)C=C4)C=C3)cc1
REMARK SMILES IDX 37 1 36 2 35 3 33 4 34 5 5 6 4 7 2 8 1 9 3 10 6 11 7 12 8 14
REMARK SMILES IDX 9 15 10 16 11 17 12 19 13 20 14 21 15 22 16 23 17 25 18 26
REMARK SMILES IDX 19 27 20 28 21 30 22 31 23 32 24 33 25 34 29 35 26 36 28 37
REMARK SMILES IDX 27 38 30 39 31 40 32 41 38 42 39 43 40 44 41 45 42 46 43 47
REMARK SMILES IDX 44 48 45 49 46 50 47 51 48 52 49 53 50 54 51 55 115 56 52 57
REMARK SMILES IDX 114 58 53 59 54 60 55 61 108 62 56 63 113 64 107 65 109 66
REMARK SMILES IDX 57 67 112 68 106 69 105 70 58 72 92 73 71 74 91 75 72 76
REMARK SMILES IDX 75 77 90 78 110 79 73 80 74 81 89 83 111 84 76 85 59 86
REMARK SMILES IDX 60 87 69 88 61 89 62 90 68 91 70 92 63 93 64 94 65 95 66 96
REMARK SMILES IDX 67 97 93 98 94 99 103 100 95 101 96 102 102 103 104 104
REMARK SMILES IDX 97 105 98 106 99 107 100 108 101 109 77 110 78 111 87 112
REMARK SMILES IDX 79 113 80 114 86 115 88 116 81 117 82 118 83 119 84 120
REMARK SMILES IDX 85 121
REMARK H PARENT 6 13 10 18 15 24 19 29 109 71 75 82
REMARK Flexibility Score: inf
ROOT
ATOM      1  C   UNL A   1      48.605  40.339  27.559  1.00  0.00     0.202 C 
ENDROOT
BRANCH   1   2
ATOM      2  C   UNL A   1      47.304  40.459  26.749  1.00  0.00     0.261 C 
BRANCH   2   3
ATOM      3  O   UNL A   1      47.403  41.411  25.669  1.00  0.00    -0.462 OA
BRANCH   3   4
ATOM      4  C   UNL A   1      46.516  41.234  24.658  1.00  0.00     0.328 C 
ATOM      5  O   UNL A   1      45.952  40.174  24.414  1.00  0.00    -0.250 OA
BRANCH   4   6
ATOM      6  C   UNL A   1      46.219  42.522  23.847  1.00  0.00     0.192 C 
BRANCH   6   7
ATOM      7  C   UNL A   1      46.501  43.701  24.802  1.00  0.00     0.040 C 
BRANCH   7   8
ATOM      8  C   UNL A   1      45.221  44.217  25.478  1.00  0.00    -0.015 C 
ATOM      9  C   UNL A   1      45.027  43.552  26.838  1.00  0.00     0.007 C 
ATOM     10  C   UNL A   1      45.287  45.737  25.623  1.00  0.00     0.007 C 
ENDBRANCH   7   8
ENDBRANCH   6   7
BRANCH   6  11
ATOM     11  N   UNL A   1      44.889  42.673  23.257  1.00  0.00    -0.341 N 
ATOM     12  C   UNL A   1      44.404  43.295  22.155  1.00  0.00     0.243 C 
ATOM     13  H   UNL A   1      44.187  42.221  23.780  1.00  0.00     0.164 HD
ATOM     14  O   UNL A   1      43.183  43.510  22.197  1.00  0.00    -0.273 OA
BRANCH  12  15
ATOM     15  C   UNL A   1      45.176  43.627  20.830  1.00  0.00     0.174 C 
BRANCH  15  16
ATOM     16  N   UNL A   1      44.530  43.393  19.521  1.00  0.00    -0.342 N 
ATOM     17  C   UNL A   1      43.919  44.053  18.513  1.00  0.00     0.242 C 
ATOM     18  H   UNL A   1      44.552  42.431  19.315  1.00  0.00     0.164 HD
ATOM     19  O   UNL A   1      43.825  43.362  17.482  1.00  0.00    -0.273 OA
BRANCH  17  20
ATOM     20  C   UNL A   1      43.213  45.437  18.508  1.00  0.00     0.168 C 
ATOM     21  C   UNL A   1      41.704  45.547  18.540  1.00  0.00     0.041 C 
BRANCH  20  22
ATOM     22  N   UNL A   1      43.787  46.295  17.482  1.00  0.00    -0.343 N 
ATOM     23  C   UNL A   1      45.055  46.761  17.317  1.00  0.00     0.240 C 
ATOM     24  H   UNL A   1      43.151  46.586  16.790  1.00  0.00     0.164 HD
ATOM     25  O   UNL A   1      45.304  47.363  16.270  1.00  0.00    -0.273 OA
BRANCH  23  26
ATOM     26  C   UNL A   1      46.164  46.510  18.336  1.00  0.00     0.219 C 
BRANCH  26  27
ATOM     27  N   UNL A   1      47.481  46.846  17.836  1.00  0.00    -0.312 N 
ATOM     28  C   UNL A   1      48.361  47.712  18.406  1.00  0.00     0.407 C 
ATOM     29  H   UNL A   1      47.767  46.406  17.004  1.00  0.00     0.167 HD
ATOM     30  O   UNL A   1      49.406  48.019  17.851  1.00  0.00    -0.225 OA
BRANCH  28  31
ATOM     31  O   UNL A   1      47.892  48.235  19.565  1.00  0.00    -0.445 OA
BRANCH  31  32
ATOM     32  C   UNL A   1      47.674  49.654  19.574  1.00  0.00     0.270 C 
BRANCH  32  33
ATOM     33  C   UNL A   1      46.286  49.984  19.100  1.00  0.00    -0.011 A 
ATOM     34  C   UNL A   1      45.174  49.573  19.842  1.00  0.00     0.007 A 
ATOM     35  C   UNL A   1      46.096  50.616  17.862  1.00  0.00     0.007 A 
ATOM     36  C   UNL A   1      43.893  49.723  19.316  1.00  0.00     0.000 A 
ATOM     37  C   UNL A   1      44.818  50.747  17.331  1.00  0.00     0.000 A 
ATOM     38  C   UNL A   1      43.718  50.290  18.054  1.00  0.00     0.000 A 
ENDBRANCH  32  33
ENDBRANCH  31  32
ENDBRANCH  28  31
ENDBRANCH  26  27
ENDBRANCH  23  26
ENDBRANCH  20  22
ENDBRANCH  17  20
ENDBRANCH  15  16
BRANCH  15  39
ATOM     39  C   UNL A   1      46.047  44.898  20.904  1.00  0.00     0.015 C 
ATOM     40  C   UNL A   1      45.599  45.955  21.903  1.00  0.00     0.010 C 
ATOM     41  C   UNL A   1      47.527  44.604  21.195  1.00  0.00     0.010 C 
ENDBRANCH  15  39
ENDBRANCH  12  15
ENDBRANCH   6  11
ENDBRANCH   4   6
ENDBRANCH   3   4
ENDBRANCH   2   3
ENDBRANCH   1   2
BRANCH   1  42
ATOM     42  O   UNL A   1      48.605  39.434  28.662  1.00  0.00    -0.376 OA
BRANCH  42  43
ATOM     43  C   UNL A   1      48.830  38.049  28.383  1.00  0.00     0.188 C 
BRANCH  43  44
ATOM     44  C   UNL A   1      49.500  37.199  29.478  1.00  0.00     0.188 C 
BRANCH  44  45
ATOM     45  O   UNL A   1      50.521  36.357  28.976  1.00  0.00    -0.377 OA
BRANCH  45  46
ATOM     46  C   UNL A   1      51.570  37.063  28.340  1.00  0.00     0.188 C 
BRANCH  46  47
ATOM     47  C   UNL A   1      52.367  37.909  29.335  1.00  0.00     0.188 C 
BRANCH  47  48
ATOM     48  O   UNL A   1      52.926  37.161  30.420  1.00  0.00    -0.376 OA
BRANCH  48  49
ATOM     49  C   UNL A   1      52.345  37.431  31.699  1.00  0.00     0.202 C 
BRANCH  49  50
ATOM     50  C   UNL A   1      52.700  36.398  32.781  1.00  0.00     0.261 C 
BRANCH  50  51
ATOM     51  O   UNL A   1      51.826  35.269  32.805  1.00  0.00    -0.460 OA
BRANCH  51  52
ATOM     52  C   UNL A   1      52.197  34.245  32.017  1.00  0.00     0.338 C 
ATOM     53  O   UNL A   1      53.329  33.875  31.760  1.00  0.00    -0.246 OA
BRANCH  52  54
ATOM     54  C   UNL A   1      50.979  33.495  31.695  1.00  0.00     0.060 A 
ATOM     55  C   UNL A   1      50.736  32.331  32.431  1.00  0.00     0.016 A 
ATOM     56  C   UNL A   1      50.079  33.951  30.726  1.00  0.00     0.016 A 
ATOM     57  C   UNL A   1      49.594  31.593  32.173  1.00  0.00     0.010 A 
ATOM     58  C   UNL A   1      48.957  33.182  30.431  1.00  0.00     0.010 A 
ATOM     59  C   UNL A   1      48.747  31.980  31.125  1.00  0.00    -0.014 A 
BRANCH  59  60
ATOM     60  C   UNL A   1      47.866  30.940  30.567  1.00  0.00     0.031 A 
ATOM     61  C   UNL A   1      48.512  29.936  29.654  1.00  0.00     0.074 A 
ATOM     62  C   UNL A   1      46.585  30.839  30.952  1.00  0.00     0.049 A 
ATOM     63  N   UNL A   1      48.016  28.850  29.131  1.00  0.00    -0.248 NA
ATOM     64  C   UNL A   1      49.924  30.184  29.298  1.00  0.00     0.031 C 
ATOM     65  C   UNL A   1      45.896  31.756  31.859  1.00  0.00     0.029 A 
ATOM     66  N   UNL A   1      45.641  29.903  30.633  1.00  0.00    -0.354 N 
ATOM     67  C   UNL A   1      49.059  28.269  28.421  1.00  0.00     0.074 A 
ATOM     68  C   UNL A   1      50.203  29.139  28.537  1.00  0.00     0.031 C 
ATOM     69  C   UNL A   1      44.626  31.341  32.014  1.00  0.00     0.029 A 
ATOM     70  C   UNL A   1      44.418  30.136  31.213  1.00  0.00     0.049 A 
ATOM     71  H   UNL A   1      45.819  29.135  30.043  1.00  0.00     0.167 HD
ATOM     72  C   UNL A   1      49.062  27.099  27.745  1.00  0.00     0.037 A 
ATOM     73  C   UNL A   1      43.269  29.446  31.095  1.00  0.00     0.037 A 
ATOM     74  C   UNL A   1      47.896  26.274  27.602  1.00  0.00     0.049 A 
ATOM     75  C   UNL A   1      43.276  28.182  30.274  1.00  0.00     0.074 A 
ATOM     76  C   UNL A   1      47.752  25.092  26.900  1.00  0.00     0.029 A 
ATOM     77  N   UNL A   1      46.662  26.560  28.170  1.00  0.00    -0.354 N 
ATOM     78  N   UNL A   1      44.271  27.632  29.615  1.00  0.00    -0.248 NA
ATOM     79  C   UNL A   1      42.015  27.436  30.192  1.00  0.00     0.031 C 
ATOM     80  C   UNL A   1      46.418  24.685  27.013  1.00  0.00     0.029 A 
ATOM     81  C   UNL A   1      45.745  25.586  27.826  1.00  0.00     0.049 A 
ATOM     82  H   UNL A   1      46.469  27.343  28.736  1.00  0.00     0.167 HD
ATOM     83  C   UNL A   1      43.760  26.469  29.052  1.00  0.00     0.074 A 
ATOM     84  C   UNL A   1      42.374  26.384  29.471  1.00  0.00     0.031 C 
ATOM     85  C   UNL A   1      44.370  25.550  28.258  1.00  0.00     0.037 A 
BRANCH  72  86
ATOM     86  C   UNL A   1      50.353  26.680  27.100  1.00  0.00     0.058 A 
ATOM     87  C   UNL A   1      50.620  26.955  25.748  1.00  0.00     0.135 A 
ATOM     88  C   UNL A   1      51.329  25.989  27.834  1.00  0.00     0.135 A 
ATOM     89  F   UNL A   1      49.704  27.580  24.991  1.00  0.00    -0.206 F 
ATOM     90  C   UNL A   1      51.804  26.547  25.144  1.00  0.00     0.059 A 
ATOM     91  C   UNL A   1      52.531  25.592  27.254  1.00  0.00     0.059 A 
ATOM     92  F   UNL A   1      51.114  25.683  29.123  1.00  0.00    -0.206 F 
ATOM     93  C   UNL A   1      52.755  25.867  25.907  1.00  0.00     0.060 A 
BRANCH  93  94
ATOM     94  S   UNL A   1      54.295  25.359  25.112  1.00  0.00     0.124 S 
ATOM     95  O   UNL A   1      54.241  26.111  23.862  1.00  0.00    -0.237 OA
ATOM     96  O   UNL A   1      55.301  25.798  26.074  1.00  0.00    -0.237 OA
ATOM     97  O   UNL A   1      54.148  23.912  24.981  1.00  0.00    -0.744 OA
ENDBRANCH  93  94
ENDBRANCH  72  86
BRANCH  73  98
ATOM     98  C   UNL A   1      42.030  29.941  31.752  1.00  0.00     0.058 A 
ATOM     99  C   UNL A   1      41.622  29.470  33.008  1.00  0.00     0.135 A 
ATOM    100  C   UNL A   1      41.227  30.908  31.127  1.00  0.00     0.135 A 
ATOM    101  F   UNL A   1      42.351  28.543  33.647  1.00  0.00    -0.206 F 
ATOM    102  C   UNL A   1      40.454  29.925  33.614  1.00  0.00     0.059 A 
ATOM    103  C   UNL A   1      40.068  31.398  31.722  1.00  0.00     0.059 A 
ATOM    104  F   UNL A   1      41.579  31.404  29.930  1.00  0.00    -0.206 F 
ATOM    105  C   UNL A   1      39.683  30.891  32.961  1.00  0.00     0.060 A 
BRANCH 105 106
ATOM    106  S   UNL A   1      38.194  31.511  33.773  1.00  0.00     0.124 S 
ATOM    107  O   UNL A   1      37.157  30.706  33.140  1.00  0.00    -0.237 OA
ATOM    108  O   UNL A   1      38.464  31.219  35.177  1.00  0.00    -0.237 OA
ATOM    109  O   UNL A   1      38.193  32.931  33.427  1.00  0.00    -0.744 OA
ENDBRANCH 105 106
ENDBRANCH  73  98
BRANCH  85 110
ATOM    110  C   UNL A   1      43.537  24.383  27.814  1.00  0.00     0.058 A 
ATOM    111  C   UNL A   1      42.894  24.374  26.567  1.00  0.00     0.135 A 
ATOM    112  C   UNL A   1      43.403  23.253  28.636  1.00  0.00     0.135 A 
ATOM    113  F   UNL A   1      42.993  25.432  25.747  1.00  0.00    -0.206 F 
ATOM    114  C   UNL A   1      42.106  23.301  26.168  1.00  0.00     0.059 A 
ATOM    115  C   UNL A   1      42.646  22.156  28.244  1.00  0.00     0.059 A 
ATOM    116  F   UNL A   1      44.016  23.207  29.829  1.00  0.00    -0.206 F 
ATOM    117  C   UNL A   1      41.984  22.199  27.017  1.00  0.00     0.060 A 
BRANCH 117 118
ATOM    118  S   UNL A   1      40.952  20.814  26.495  1.00  0.00     0.124 S 
ATOM    119  O   UNL A   1      41.835  20.132  25.555  1.00  0.00    -0.237 OA
ATOM    120  O   UNL A   1      40.702  20.116  27.751  1.00  0.00    -0.237 OA
ATOM    121  O   UNL A   1      39.787  21.466  25.904  1.00  0.00    -0.744 OA
ENDBRANCH 117 118
ENDBRANCH  85 110
ENDBRANCH  59  60
ENDBRANCH  52  54
ENDBRANCH  51  52
ENDBRANCH  50  51
ENDBRANCH  49  50
ENDBRANCH  48  49
ENDBRANCH  47  48
ENDBRANCH  46  47
ENDBRANCH  45  46
ENDBRANCH  44  45
ENDBRANCH  43  44
ENDBRANCH  42  43
ENDBRANCH   1  42
TORSDOF 36
ENDMDL
