MODEL 1
REMARK VINA RESULT:     -10.1      0.000      0.000
REMARK SMILES Cn1c(SCC(=O)Nc2ccc(C(=O)OCCOCCOCCOCCOC(=O)c3ccc(-c4c5nc(c(-c6c(F)cc(S(=O)(=O)[O-])cc6F)c6ccc([nH]6)c(-c6c(F)cc(S(=O)(=O)[O-])cc6F)c6nc(c(-c7c(F)cc(S(=O)(=O)[O-])cc7F)c7ccc4[nH]7)C=C6)C=C5)cc3)cc2)nc2ccccc2c1=O
REMARK SMILES IDX 20 1 19 2 18 3 17 4 16 5 15 6 13 7 14 8 12 9 9 10 10 11
REMARK SMILES IDX 97 12 11 13 96 14 8 15 6 16 7 17 5 19 4 20 3 21 1 22 2 23
REMARK SMILES IDX 105 24 98 25 104 26 106 27 99 28 103 29 100 30 102 31 101 32
REMARK SMILES IDX 21 33 22 34 23 35 24 36 25 37 26 38 27 39 28 40 29 41 30 42
REMARK SMILES IDX 31 43 95 44 32 45 94 46 33 47 34 48 35 49 88 50 36 51 93 52
REMARK SMILES IDX 87 53 89 54 37 55 92 56 86 57 85 58 38 60 72 61 51 62 71 63
REMARK SMILES IDX 52 64 55 65 70 66 90 67 53 68 54 69 69 71 91 72 56 73 39 74
REMARK SMILES IDX 40 75 49 76 41 77 42 78 48 79 50 80 43 81 44 82 45 83 46 84
REMARK SMILES IDX 47 85 73 86 74 87 83 88 75 89 76 90 82 91 84 92 77 93 78 94
REMARK SMILES IDX 79 95 80 96 81 97 57 98 58 99 67 100 59 101 60 102 66 103
REMARK SMILES IDX 68 104 61 105 62 106 63 107 64 108 65 109
REMARK H PARENT 8 18 89 59 55 70
REMARK Flexibility Score: inf
ROOT
ATOM      1  C   UNL A   1      39.182  23.783  27.061  1.00  0.00     0.188 C 
ENDROOT
BRANCH   1   2
ATOM      2  C   UNL A   1      38.007  23.544  26.095  1.00  0.00     0.188 C 
BRANCH   2   3
ATOM      3  O   UNL A   1      38.002  22.259  25.487  1.00  0.00    -0.376 OA
BRANCH   3   4
ATOM      4  C   UNL A   1      36.964  22.001  24.550  1.00  0.00     0.202 C 
BRANCH   4   5
ATOM      5  C   UNL A   1      36.545  20.531  24.417  1.00  0.00     0.261 C 
BRANCH   5   6
ATOM      6  O   UNL A   1      35.617  20.086  25.415  1.00  0.00    -0.460 OA
BRANCH   6   7
ATOM      7  C   UNL A   1      34.378  19.741  24.996  1.00  0.00     0.338 C 
ATOM      8  O   UNL A   1      34.045  18.690  24.481  1.00  0.00    -0.246 OA
BRANCH   7   9
ATOM      9  C   UNL A   1      33.438  20.755  25.533  1.00  0.00     0.060 A 
ATOM     10  C   UNL A   1      31.877  22.935  26.327  1.00  0.00     0.041 A 
ATOM     11  C   UNL A   1      33.142  22.746  26.883  1.00  0.00     0.027 A 
ATOM     12  C   UNL A   1      31.366  21.995  25.425  1.00  0.00     0.027 A 
ATOM     13  C   UNL A   1      33.915  21.648  26.499  1.00  0.00     0.018 A 
ATOM     14  C   UNL A   1      32.154  20.921  25.004  1.00  0.00     0.018 A 
BRANCH  10  15
ATOM     15  N   UNL A   1      31.049  24.004  26.678  1.00  0.00    -0.325 N 
ATOM     16  C   UNL A   1      30.566  25.046  25.940  1.00  0.00     0.234 C 
ATOM     17  O   UNL A   1      29.943  25.920  26.550  1.00  0.00    -0.274 OA
ATOM     18  H   UNL A   1      30.764  24.006  27.620  1.00  0.00     0.169 HD
BRANCH  16  19
ATOM     19  C   UNL A   1      30.526  24.985  24.434  1.00  0.00     0.178 C 
BRANCH  19  20
ATOM     20  S   UNL A   1      31.501  26.049  23.393  1.00  0.00    -0.078 SA
BRANCH  20  21
ATOM     21  C   UNL A   1      31.098  27.739  23.501  1.00  0.00     0.171 A 
ATOM     22  C   UNL A   1      32.554  28.194  25.510  1.00  0.00     0.156 C 
ATOM     23  N   UNL A   1      31.547  28.550  24.527  1.00  0.00    -0.290 N 
ATOM     24  C   UNL A   1      31.025  29.836  24.694  1.00  0.00     0.261 A 
ATOM     25  N   UNL A   1      30.177  28.096  22.661  1.00  0.00    -0.224 NA
ATOM     26  C   UNL A   1      29.882  30.205  23.851  1.00  0.00     0.066 A 
ATOM     27  O   UNL A   1      31.436  30.648  25.521  1.00  0.00    -0.269 OA
ATOM     28  C   UNL A   1      29.516  29.317  22.848  1.00  0.00     0.079 A 
ATOM     29  C   UNL A   1      29.144  31.371  24.101  1.00  0.00     0.016 A 
ATOM     30  C   UNL A   1      28.386  29.615  22.078  1.00  0.00     0.029 A 
ATOM     31  C   UNL A   1      28.014  31.651  23.335  1.00  0.00     0.001 A 
ATOM     32  C   UNL A   1      27.636  30.773  22.321  1.00  0.00     0.002 A 
ENDBRANCH  20  21
ENDBRANCH  19  20
ENDBRANCH  16  19
ENDBRANCH  10  15
ENDBRANCH   7   9
ENDBRANCH   6   7
ENDBRANCH   5   6
ENDBRANCH   4   5
ENDBRANCH   3   4
ENDBRANCH   2   3
ENDBRANCH   1   2
BRANCH   1  33
ATOM     33  O   UNL A   1      40.492  23.813  26.524  1.00  0.00    -0.377 OA
BRANCH  33  34
ATOM     34  C   UNL A   1      41.270  22.619  26.501  1.00  0.00     0.188 C 
BRANCH  34  35
ATOM     35  C   UNL A   1      41.016  21.453  27.485  1.00  0.00     0.188 C 
BRANCH  35  36
ATOM     36  O   UNL A   1      42.101  20.548  27.638  1.00  0.00    -0.376 OA
BRANCH  36  37
ATOM     37  C   UNL A   1      41.924  19.257  27.075  1.00  0.00     0.202 C 
BRANCH  37  38
ATOM     38  C   UNL A   1      42.539  19.094  25.682  1.00  0.00     0.261 C 
BRANCH  38  39
ATOM     39  O   UNL A   1      43.957  19.305  25.610  1.00  0.00    -0.460 OA
BRANCH  39  40
ATOM     40  C   UNL A   1      44.434  20.047  24.585  1.00  0.00     0.338 C 
ATOM     41  O   UNL A   1      44.553  19.705  23.421  1.00  0.00    -0.246 OA
BRANCH  40  42
ATOM     42  C   UNL A   1      44.609  21.424  25.093  1.00  0.00     0.060 A 
ATOM     43  C   UNL A   1      45.047  21.634  26.403  1.00  0.00     0.016 A 
ATOM     44  C   UNL A   1      44.282  22.510  24.271  1.00  0.00     0.016 A 
ATOM     45  C   UNL A   1      45.178  22.936  26.885  1.00  0.00     0.010 A 
ATOM     46  C   UNL A   1      44.407  23.815  24.759  1.00  0.00     0.010 A 
ATOM     47  C   UNL A   1      44.876  24.036  26.062  1.00  0.00    -0.014 A 
BRANCH  47  48
ATOM     48  C   UNL A   1      45.236  25.401  26.517  1.00  0.00     0.031 A 
ATOM     49  C   UNL A   1      46.629  25.944  26.399  1.00  0.00     0.074 A 
ATOM     50  C   UNL A   1      44.253  26.164  27.032  1.00  0.00     0.049 A 
ATOM     51  N   UNL A   1      47.060  27.149  26.668  1.00  0.00    -0.248 NA
ATOM     52  C   UNL A   1      47.671  25.023  25.921  1.00  0.00     0.031 C 
ATOM     53  C   UNL A   1      42.865  25.726  27.215  1.00  0.00     0.029 A 
ATOM     54  N   UNL A   1      44.256  27.459  27.481  1.00  0.00    -0.354 N 
ATOM     55  C   UNL A   1      48.417  27.147  26.370  1.00  0.00     0.074 A 
ATOM     56  C   UNL A   1      48.747  25.802  25.942  1.00  0.00     0.031 C 
ATOM     57  C   UNL A   1      42.147  26.743  27.712  1.00  0.00     0.029 A 
ATOM     58  C   UNL A   1      43.023  27.895  27.905  1.00  0.00     0.049 A 
ATOM     59  H   UNL A   1      45.063  28.022  27.498  1.00  0.00     0.167 HD
ATOM     60  C   UNL A   1      49.294  28.180  26.431  1.00  0.00     0.037 A 
ATOM     61  C   UNL A   1      42.637  29.090  28.389  1.00  0.00     0.037 A 
ATOM     62  C   UNL A   1      48.956  29.512  26.874  1.00  0.00     0.049 A 
ATOM     63  C   UNL A   1      43.644  30.201  28.491  1.00  0.00     0.074 A 
ATOM     64  C   UNL A   1      49.772  30.629  26.938  1.00  0.00     0.029 A 
ATOM     65  N   UNL A   1      47.709  29.907  27.336  1.00  0.00    -0.354 N 
ATOM     66  N   UNL A   1      44.907  30.200  28.139  1.00  0.00    -0.248 NA
ATOM     67  C   UNL A   1      43.174  31.476  29.049  1.00  0.00     0.031 C 
ATOM     68  C   UNL A   1      49.034  31.684  27.483  1.00  0.00     0.029 A 
ATOM     69  C   UNL A   1      47.742  31.242  27.713  1.00  0.00     0.049 A 
ATOM     70  H   UNL A   1      46.915  29.326  27.390  1.00  0.00     0.167 HD
ATOM     71  C   UNL A   1      45.377  31.479  28.413  1.00  0.00     0.074 A 
ATOM     72  C   UNL A   1      44.258  32.231  28.943  1.00  0.00     0.031 C 
ATOM     73  C   UNL A   1      46.624  31.983  28.241  1.00  0.00     0.037 A 
BRANCH  60  74
ATOM     74  C   UNL A   1      50.712  27.936  25.990  1.00  0.00     0.058 A 
ATOM     75  C   UNL A   1      51.061  27.943  24.630  1.00  0.00     0.135 A 
ATOM     76  C   UNL A   1      51.749  27.811  26.929  1.00  0.00     0.135 A 
ATOM     77  F   UNL A   1      50.110  28.052  23.689  1.00  0.00    -0.206 F 
ATOM     78  C   UNL A   1      52.384  27.831  24.217  1.00  0.00     0.059 A 
ATOM     79  C   UNL A   1      53.083  27.720  26.540  1.00  0.00     0.059 A 
ATOM     80  F   UNL A   1      51.472  27.802  28.243  1.00  0.00    -0.206 F 
ATOM     81  C   UNL A   1      53.390  27.728  25.180  1.00  0.00     0.060 A 
BRANCH  81  82
ATOM     82  S   UNL A   1      55.104  27.620  24.621  1.00  0.00     0.124 S 
ATOM     83  O   UNL A   1      55.778  27.169  25.835  1.00  0.00    -0.237 OA
ATOM     84  O   UNL A   1      55.017  26.640  23.543  1.00  0.00    -0.237 OA
ATOM     85  O   UNL A   1      55.414  28.984  24.204  1.00  0.00    -0.744 OA
ENDBRANCH  81  82
ENDBRANCH  60  74
BRANCH  61  86
ATOM     86  C   UNL A   1      41.222  29.303  28.788  1.00  0.00     0.058 A 
ATOM     87  C   UNL A   1      40.212  29.421  27.823  1.00  0.00     0.135 A 
ATOM     88  C   UNL A   1      40.850  29.376  30.139  1.00  0.00     0.135 A 
ATOM     89  F   UNL A   1      40.521  29.358  26.518  1.00  0.00    -0.206 F 
ATOM     90  C   UNL A   1      38.884  29.624  28.181  1.00  0.00     0.059 A 
ATOM     91  C   UNL A   1      39.525  29.551  30.523  1.00  0.00     0.059 A 
ATOM     92  F   UNL A   1      41.777  29.248  31.101  1.00  0.00    -0.206 F 
ATOM     93  C   UNL A   1      38.550  29.687  29.535  1.00  0.00     0.060 A 
BRANCH  93  94
ATOM     94  S   UNL A   1      36.818  29.920  29.987  1.00  0.00     0.124 S 
ATOM     95  O   UNL A   1      36.711  29.082  31.176  1.00  0.00    -0.237 OA
ATOM     96  O   UNL A   1      36.755  31.361  30.214  1.00  0.00    -0.237 OA
ATOM     97  O   UNL A   1      36.097  29.445  28.811  1.00  0.00    -0.744 OA
ENDBRANCH  93  94
ENDBRANCH  61  86
BRANCH  73  98
ATOM     98  C   UNL A   1      46.849  33.422  28.620  1.00  0.00     0.058 A 
ATOM     99  C   UNL A   1      47.295  33.782  29.900  1.00  0.00     0.135 A 
ATOM    100  C   UNL A   1      46.675  34.446  27.674  1.00  0.00     0.135 A 
ATOM    101  F   UNL A   1      47.469  32.844  30.845  1.00  0.00    -0.206 F 
ATOM    102  C   UNL A   1      47.544  35.109  30.236  1.00  0.00     0.059 A 
ATOM    103  C   UNL A   1      46.945  35.776  27.980  1.00  0.00     0.059 A 
ATOM    104  F   UNL A   1      46.256  34.155  26.432  1.00  0.00    -0.206 F 
ATOM    105  C   UNL A   1      47.372  36.099  29.267  1.00  0.00     0.060 A 
BRANCH 105 106
ATOM    106  S   UNL A   1      47.745  37.811  29.706  1.00  0.00     0.124 S 
ATOM    107  O   UNL A   1      48.690  37.635  30.804  1.00  0.00    -0.237 OA
ATOM    108  O   UNL A   1      48.306  38.333  28.465  1.00  0.00    -0.237 OA
ATOM    109  O   UNL A   1      46.444  38.358  30.079  1.00  0.00    -0.744 OA
ENDBRANCH 105 106
ENDBRANCH  73  98
ENDBRANCH  47  48
ENDBRANCH  40  42
ENDBRANCH  39  40
ENDBRANCH  38  39
ENDBRANCH  37  38
ENDBRANCH  36  37
ENDBRANCH  35  36
ENDBRANCH  34  35
ENDBRANCH  33  34
ENDBRANCH   1  33
TORSDOF 27
ENDMDL
MODEL 2
REMARK VINA RESULT:      -9.9      1.087      7.665
REMARK SMILES Cn1c(SCC(=O)Nc2ccc(C(=O)OCCOCCOCCOCCOC(=O)c3ccc(-c4c5nc(c(-c6c(F)cc(S(=O)(=O)[O-])cc6F)c6ccc([nH]6)c(-c6c(F)cc(S(=O)(=O)[O-])cc6F)c6nc(c(-c7c(F)cc(S(=O)(=O)[O-])cc7F)c7ccc4[nH]7)C=C6)C=C5)cc3)cc2)nc2ccccc2c1=O
REMARK SMILES IDX 20 1 19 2 18 3 17 4 16 5 15 6 13 7 14 8 12 9 9 10 10 11
REMARK SMILES IDX 97 12 11 13 96 14 8 15 6 16 7 17 5 19 4 20 3 21 1 22 2 23
REMARK SMILES IDX 105 24 98 25 104 26 106 27 99 28 103 29 100 30 102 31 101 32
REMARK SMILES IDX 21 33 22 34 23 35 24 36 25 37 26 38 27 39 28 40 29 41 30 42
REMARK SMILES IDX 31 43 95 44 32 45 94 46 33 47 34 48 35 49 88 50 36 51 93 52
REMARK SMILES IDX 87 53 89 54 37 55 92 56 86 57 85 58 38 60 72 61 51 62 71 63
REMARK SMILES IDX 52 64 55 65 70 66 90 67 53 68 54 69 69 71 91 72 56 73 39 74
REMARK SMILES IDX 40 75 49 76 41 77 42 78 48 79 50 80 43 81 44 82 45 83 46 84
REMARK SMILES IDX 47 85 73 86 74 87 83 88 75 89 76 90 82 91 84 92 77 93 78 94
REMARK SMILES IDX 79 95 80 96 81 97 57 98 58 99 67 100 59 101 60 102 66 103
REMARK SMILES IDX 68 104 61 105 62 106 63 107 64 108 65 109
REMARK H PARENT 8 18 89 59 55 70
REMARK Flexibility Score: inf
ROOT
ATOM      1  C   UNL A   1      39.121  24.005  27.087  1.00  0.00     0.188 C 
ENDROOT
BRANCH   1   2
ATOM      2  C   UNL A   1      38.020  23.624  26.081  1.00  0.00     0.188 C 
BRANCH   2   3
ATOM      3  O   UNL A   1      38.057  22.267  25.660  1.00  0.00    -0.376 OA
BRANCH   3   4
ATOM      4  C   UNL A   1      37.162  21.897  24.619  1.00  0.00     0.202 C 
BRANCH   4   5
ATOM      5  C   UNL A   1      36.704  20.432  24.632  1.00  0.00     0.261 C 
BRANCH   5   6
ATOM      6  O   UNL A   1      35.618  20.158  25.527  1.00  0.00    -0.460 OA
BRANCH   6   7
ATOM      7  C   UNL A   1      34.417  19.876  24.974  1.00  0.00     0.338 C 
ATOM      8  O   UNL A   1      34.113  18.875  24.351  1.00  0.00    -0.246 OA
BRANCH   7   9
ATOM      9  C   UNL A   1      33.450  20.871  25.499  1.00  0.00     0.060 A 
ATOM     10  C   UNL A   1      31.824  23.014  26.261  1.00  0.00     0.041 A 
ATOM     11  C   UNL A   1      33.107  22.890  26.794  1.00  0.00     0.027 A 
ATOM     12  C   UNL A   1      31.330  22.027  25.400  1.00  0.00     0.027 A 
ATOM     13  C   UNL A   1      33.913  21.811  26.426  1.00  0.00     0.018 A 
ATOM     14  C   UNL A   1      32.150  20.971  24.994  1.00  0.00     0.018 A 
BRANCH  10  15
ATOM     15  N   UNL A   1      30.963  24.062  26.597  1.00  0.00    -0.325 N 
ATOM     16  C   UNL A   1      30.440  25.071  25.842  1.00  0.00     0.234 C 
ATOM     17  O   UNL A   1      29.793  25.936  26.441  1.00  0.00    -0.274 OA
ATOM     18  H   UNL A   1      30.685  24.073  27.541  1.00  0.00     0.169 HD
BRANCH  16  19
ATOM     19  C   UNL A   1      30.391  24.980  24.338  1.00  0.00     0.178 C 
BRANCH  19  20
ATOM     20  S   UNL A   1      31.356  26.026  23.269  1.00  0.00    -0.078 SA
BRANCH  20  21
ATOM     21  C   UNL A   1      30.988  27.724  23.390  1.00  0.00     0.171 A 
ATOM     22  C   UNL A   1      32.452  28.132  25.403  1.00  0.00     0.156 C 
ATOM     23  N   UNL A   1      31.454  28.517  24.423  1.00  0.00    -0.290 N 
ATOM     24  C   UNL A   1      30.958  29.812  24.599  1.00  0.00     0.261 A 
ATOM     25  N   UNL A   1      30.075  28.106  22.552  1.00  0.00    -0.224 NA
ATOM     26  C   UNL A   1      29.823  30.212  23.759  1.00  0.00     0.066 A 
ATOM     27  O   UNL A   1      31.387  30.609  25.432  1.00  0.00    -0.269 OA
ATOM     28  C   UNL A   1      29.440  29.339  22.749  1.00  0.00     0.079 A 
ATOM     29  C   UNL A   1      29.110  31.390  24.018  1.00  0.00     0.016 A 
ATOM     30  C   UNL A   1      28.316  29.667  21.981  1.00  0.00     0.029 A 
ATOM     31  C   UNL A   1      27.987  31.700  23.254  1.00  0.00     0.001 A 
ATOM     32  C   UNL A   1      27.591  30.838  22.233  1.00  0.00     0.002 A 
ENDBRANCH  20  21
ENDBRANCH  19  20
ENDBRANCH  16  19
ENDBRANCH  10  15
ENDBRANCH   7   9
ENDBRANCH   6   7
ENDBRANCH   5   6
ENDBRANCH   4   5
ENDBRANCH   3   4
ENDBRANCH   2   3
ENDBRANCH   1   2
BRANCH   1  33
ATOM     33  O   UNL A   1      40.451  24.116  26.613  1.00  0.00    -0.377 OA
BRANCH  33  34
ATOM     34  C   UNL A   1      41.307  22.977  26.650  1.00  0.00     0.188 C 
BRANCH  34  35
ATOM     35  C   UNL A   1      40.965  21.718  27.481  1.00  0.00     0.188 C 
BRANCH  35  36
ATOM     36  O   UNL A   1      41.984  20.728  27.519  1.00  0.00    -0.376 OA
BRANCH  36  37
ATOM     37  C   UNL A   1      41.646  19.461  26.976  1.00  0.00     0.202 C 
BRANCH  37  38
ATOM     38  C   UNL A   1      42.355  19.138  25.657  1.00  0.00     0.261 C 
BRANCH  38  39
ATOM     39  O   UNL A   1      43.773  19.357  25.653  1.00  0.00    -0.460 OA
BRANCH  39  40
ATOM     40  C   UNL A   1      44.298  20.078  24.637  1.00  0.00     0.338 C 
ATOM     41  O   UNL A   1      44.414  19.733  23.473  1.00  0.00    -0.246 OA
BRANCH  40  42
ATOM     42  C   UNL A   1      44.533  21.443  25.150  1.00  0.00     0.060 A 
ATOM     43  C   UNL A   1      45.049  21.626  26.436  1.00  0.00     0.016 A 
ATOM     44  C   UNL A   1      44.185  22.548  24.362  1.00  0.00     0.016 A 
ATOM     45  C   UNL A   1      45.237  22.918  26.925  1.00  0.00     0.010 A 
ATOM     46  C   UNL A   1      44.367  23.842  24.858  1.00  0.00     0.010 A 
ATOM     47  C   UNL A   1      44.914  24.035  26.135  1.00  0.00    -0.014 A 
BRANCH  47  48
ATOM     48  C   UNL A   1      45.331  25.386  26.586  1.00  0.00     0.031 A 
ATOM     49  C   UNL A   1      44.456  26.252  27.441  1.00  0.00     0.074 A 
ATOM     50  C   UNL A   1      46.553  25.814  26.213  1.00  0.00     0.049 A 
ATOM     51  N   UNL A   1      44.734  27.410  27.983  1.00  0.00    -0.248 NA
ATOM     52  C   UNL A   1      43.099  25.764  27.726  1.00  0.00     0.031 C 
ATOM     53  C   UNL A   1      47.478  25.061  25.361  1.00  0.00     0.029 A 
ATOM     54  N   UNL A   1      47.233  26.967  26.507  1.00  0.00    -0.354 N 
ATOM     55  C   UNL A   1      43.602  27.782  28.696  1.00  0.00     0.074 A 
ATOM     56  C   UNL A   1      42.614  26.745  28.478  1.00  0.00     0.031 C 
ATOM     57  C   UNL A   1      48.614  25.759  25.223  1.00  0.00     0.029 A 
ATOM     58  C   UNL A   1      48.492  27.016  25.955  1.00  0.00     0.049 A 
ATOM     59  H   UNL A   1      46.857  27.690  27.059  1.00  0.00     0.167 HD
ATOM     60  C   UNL A   1      43.419  28.879  29.473  1.00  0.00     0.037 A 
ATOM     61  C   UNL A   1      49.445  27.964  26.033  1.00  0.00     0.037 A 
ATOM     62  C   UNL A   1      44.407  29.913  29.670  1.00  0.00     0.049 A 
ATOM     63  C   UNL A   1      49.193  29.191  26.862  1.00  0.00     0.074 A 
ATOM     64  C   UNL A   1      44.321  31.044  30.465  1.00  0.00     0.029 A 
ATOM     65  N   UNL A   1      45.654  29.952  29.062  1.00  0.00    -0.354 N 
ATOM     66  N   UNL A   1      48.141  29.493  27.586  1.00  0.00    -0.248 NA
ATOM     67  C   UNL A   1      50.258  30.203  26.893  1.00  0.00     0.031 C 
ATOM     68  C   UNL A   1      45.492  31.789  30.301  1.00  0.00     0.029 A 
ATOM     69  C   UNL A   1      46.333  31.100  29.443  1.00  0.00     0.049 A 
ATOM     70  H   UNL A   1      46.006  29.266  28.449  1.00  0.00     0.167 HD
ATOM     71  C   UNL A   1      48.427  30.720  28.174  1.00  0.00     0.074 A 
ATOM     72  C   UNL A   1      49.756  31.094  27.737  1.00  0.00     0.031 C 
ATOM     73  C   UNL A   1      47.656  31.467  29.002  1.00  0.00     0.037 A 
BRANCH  60  74
ATOM     74  C   UNL A   1      42.109  29.025  30.200  1.00  0.00     0.058 A 
ATOM     75  C   UNL A   1      40.999  29.622  29.581  1.00  0.00     0.135 A 
ATOM     76  C   UNL A   1      41.922  28.465  31.474  1.00  0.00     0.135 A 
ATOM     77  F   UNL A   1      41.121  30.180  28.366  1.00  0.00    -0.206 F 
ATOM     78  C   UNL A   1      39.754  29.662  30.199  1.00  0.00     0.059 A 
ATOM     79  C   UNL A   1      40.680  28.473  32.103  1.00  0.00     0.059 A 
ATOM     80  F   UNL A   1      42.950  27.877  32.110  1.00  0.00    -0.206 F 
ATOM     81  C   UNL A   1      39.603  29.077  31.458  1.00  0.00     0.060 A 
BRANCH  81  82
ATOM     82  S   UNL A   1      37.968  29.109  32.227  1.00  0.00     0.124 S 
ATOM     83  O   UNL A   1      38.042  27.953  33.116  1.00  0.00    -0.237 OA
ATOM     84  O   UNL A   1      37.960  30.412  32.883  1.00  0.00    -0.237 OA
ATOM     85  O   UNL A   1      37.056  28.971  31.096  1.00  0.00    -0.744 OA
ENDBRANCH  81  82
ENDBRANCH  60  74
BRANCH  61  86
ATOM     86  C   UNL A   1      50.736  27.772  25.325  1.00  0.00     0.058 A 
ATOM     87  C   UNL A   1      50.823  27.918  23.934  1.00  0.00     0.135 A 
ATOM     88  C   UNL A   1      51.910  27.454  26.026  1.00  0.00     0.135 A 
ATOM     89  F   UNL A   1      49.726  28.219  23.221  1.00  0.00    -0.206 F 
ATOM     90  C   UNL A   1      52.024  27.736  23.257  1.00  0.00     0.059 A 
ATOM     91  C   UNL A   1      53.128  27.295  25.375  1.00  0.00     0.059 A 
ATOM     92  F   UNL A   1      51.883  27.324  27.361  1.00  0.00    -0.206 F 
ATOM     93  C   UNL A   1      53.172  27.426  23.987  1.00  0.00     0.060 A 
BRANCH  93  94
ATOM     94  S   UNL A   1      54.731  27.224  23.100  1.00  0.00     0.124 S 
ATOM     95  O   UNL A   1      54.272  26.706  21.816  1.00  0.00    -0.237 OA
ATOM     96  O   UNL A   1      55.254  28.587  23.089  1.00  0.00    -0.237 OA
ATOM     97  O   UNL A   1      55.472  26.282  23.933  1.00  0.00    -0.744 OA
ENDBRANCH  93  94
ENDBRANCH  61  86
BRANCH  73  98
ATOM     98  C   UNL A   1      48.229  32.765  29.501  1.00  0.00     0.058 A 
ATOM     99  C   UNL A   1      47.965  33.982  28.854  1.00  0.00     0.135 A 
ATOM    100  C   UNL A   1      49.002  32.801  30.674  1.00  0.00     0.135 A 
ATOM    101  F   UNL A   1      47.239  34.003  27.725  1.00  0.00    -0.206 F 
ATOM    102  C   UNL A   1      48.460  35.187  29.341  1.00  0.00     0.059 A 
ATOM    103  C   UNL A   1      49.485  33.999  31.194  1.00  0.00     0.059 A 
ATOM    104  F   UNL A   1      49.280  31.667  31.336  1.00  0.00    -0.206 F 
ATOM    105  C   UNL A   1      49.214  35.186  30.515  1.00  0.00     0.060 A 
BRANCH 105 106
ATOM    106  S   UNL A   1      49.810  36.765  31.158  1.00  0.00     0.124 S 
ATOM    107  O   UNL A   1      50.829  37.119  30.175  1.00  0.00    -0.237 OA
ATOM    108  O   UNL A   1      48.602  37.583  31.141  1.00  0.00    -0.237 OA
ATOM    109  O   UNL A   1      50.311  36.425  32.487  1.00  0.00    -0.744 OA
ENDBRANCH 105 106
ENDBRANCH  73  98
ENDBRANCH  47  48
ENDBRANCH  40  42
ENDBRANCH  39  40
ENDBRANCH  38  39
ENDBRANCH  37  38
ENDBRANCH  36  37
ENDBRANCH  35  36
ENDBRANCH  34  35
ENDBRANCH  33  34
ENDBRANCH   1  33
TORSDOF 27
ENDMDL
MODEL 3
REMARK VINA RESULT:      -9.4      5.695      7.663
REMARK SMILES Cn1c(SCC(=O)Nc2ccc(C(=O)OCCOCCOCCOCCOC(=O)c3ccc(-c4c5nc(c(-c6c(F)cc(S(=O)(=O)[O-])cc6F)c6ccc([nH]6)c(-c6c(F)cc(S(=O)(=O)[O-])cc6F)c6nc(c(-c7c(F)cc(S(=O)(=O)[O-])cc7F)c7ccc4[nH]7)C=C6)C=C5)cc3)cc2)nc2ccccc2c1=O
REMARK SMILES IDX 20 1 19 2 18 3 17 4 16 5 15 6 13 7 14 8 12 9 9 10 10 11
REMARK SMILES IDX 97 12 11 13 96 14 8 15 6 16 7 17 5 19 4 20 3 21 1 22 2 23
REMARK SMILES IDX 105 24 98 25 104 26 106 27 99 28 103 29 100 30 102 31 101 32
REMARK SMILES IDX 21 33 22 34 23 35 24 36 25 37 26 38 27 39 28 40 29 41 30 42
REMARK SMILES IDX 31 43 95 44 32 45 94 46 33 47 34 48 35 49 88 50 36 51 93 52
REMARK SMILES IDX 87 53 89 54 37 55 92 56 86 57 85 58 38 60 72 61 51 62 71 63
REMARK SMILES IDX 52 64 55 65 70 66 90 67 53 68 54 69 69 71 91 72 56 73 39 74
REMARK SMILES IDX 40 75 49 76 41 77 42 78 48 79 50 80 43 81 44 82 45 83 46 84
REMARK SMILES IDX 47 85 73 86 74 87 83 88 75 89 76 90 82 91 84 92 77 93 78 94
REMARK SMILES IDX 79 95 80 96 81 97 57 98 58 99 67 100 59 101 60 102 66 103
REMARK SMILES IDX 68 104 61 105 62 106 63 107 64 108 65 109
REMARK H PARENT 8 18 89 59 55 70
REMARK Flexibility Score: inf
ROOT
ATOM      1  C   UNL A   1      38.309  24.674  27.149  1.00  0.00     0.188 C 
ENDROOT
BRANCH   1   2
ATOM      2  C   UNL A   1      37.533  24.034  25.984  1.00  0.00     0.188 C 
BRANCH   2   3
ATOM      3  O   UNL A   1      37.818  22.657  25.777  1.00  0.00    -0.376 OA
BRANCH   3   4
ATOM      4  C   UNL A   1      37.182  22.033  24.669  1.00  0.00     0.202 C 
BRANCH   4   5
ATOM      5  C   UNL A   1      36.604  20.637  24.940  1.00  0.00     0.261 C 
BRANCH   5   6
ATOM      6  O   UNL A   1      35.303  20.641  25.542  1.00  0.00    -0.460 OA
BRANCH   6   7
ATOM      7  C   UNL A   1      34.302  20.046  24.854  1.00  0.00     0.338 C 
ATOM      8  O   UNL A   1      34.219  18.869  24.552  1.00  0.00    -0.246 OA
BRANCH   7   9
ATOM      9  C   UNL A   1      33.185  21.019  24.778  1.00  0.00     0.060 A 
ATOM     10  C   UNL A   1      31.365  23.138  24.652  1.00  0.00     0.041 A 
ATOM     11  C   UNL A   1      31.963  22.806  25.867  1.00  0.00     0.027 A 
ATOM     12  C   UNL A   1      31.626  22.365  23.515  1.00  0.00     0.027 A 
ATOM     13  C   UNL A   1      32.860  21.738  25.934  1.00  0.00     0.018 A 
ATOM     14  C   UNL A   1      32.556  21.324  23.567  1.00  0.00     0.018 A 
BRANCH  10  15
ATOM     15  N   UNL A   1      30.451  24.186  24.520  1.00  0.00    -0.325 N 
ATOM     16  C   UNL A   1      30.474  25.305  23.739  1.00  0.00     0.234 C 
ATOM     17  O   UNL A   1      29.572  26.129  23.919  1.00  0.00    -0.274 OA
ATOM     18  H   UNL A   1      29.651  24.102  25.088  1.00  0.00     0.169 HD
BRANCH  16  19
ATOM     19  C   UNL A   1      31.363  25.394  22.524  1.00  0.00     0.178 C 
BRANCH  19  20
ATOM     20  S   UNL A   1      32.235  26.875  22.064  1.00  0.00    -0.078 SA
BRANCH  20  21
ATOM     21  C   UNL A   1      31.533  28.348  22.672  1.00  0.00     0.171 A 
ATOM     22  C   UNL A   1      32.700  28.252  24.906  1.00  0.00     0.156 C 
ATOM     23  N   UNL A   1      31.740  28.796  23.964  1.00  0.00    -0.290 N 
ATOM     24  C   UNL A   1      30.988  29.858  24.474  1.00  0.00     0.261 A 
ATOM     25  N   UNL A   1      30.643  28.854  21.875  1.00  0.00    -0.224 NA
ATOM     26  C   UNL A   1      29.878  30.346  23.646  1.00  0.00     0.066 A 
ATOM     27  O   UNL A   1      31.174  30.372  25.575  1.00  0.00    -0.269 OA
ATOM     28  C   UNL A   1      29.766  29.830  22.362  1.00  0.00     0.079 A 
ATOM     29  C   UNL A   1      28.928  31.239  24.162  1.00  0.00     0.016 A 
ATOM     30  C   UNL A   1      28.674  30.228  21.581  1.00  0.00     0.029 A 
ATOM     31  C   UNL A   1      27.840  31.619  23.379  1.00  0.00     0.001 A 
ATOM     32  C   UNL A   1      27.715  31.115  22.085  1.00  0.00     0.002 A 
ENDBRANCH  20  21
ENDBRANCH  19  20
ENDBRANCH  16  19
ENDBRANCH  10  15
ENDBRANCH   7   9
ENDBRANCH   6   7
ENDBRANCH   5   6
ENDBRANCH   4   5
ENDBRANCH   3   4
ENDBRANCH   2   3
ENDBRANCH   1   2
BRANCH   1  33
ATOM     33  O   UNL A   1      39.538  25.317  26.861  1.00  0.00    -0.377 OA
BRANCH  33  34
ATOM     34  C   UNL A   1      40.763  24.693  27.240  1.00  0.00     0.188 C 
BRANCH  34  35
ATOM     35  C   UNL A   1      40.842  23.193  27.611  1.00  0.00     0.188 C 
BRANCH  35  36
ATOM     36  O   UNL A   1      42.039  22.799  28.267  1.00  0.00    -0.376 OA
BRANCH  36  37
ATOM     37  C   UNL A   1      43.059  22.261  27.439  1.00  0.00     0.202 C 
BRANCH  37  38
ATOM     38  C   UNL A   1      43.890  23.318  26.705  1.00  0.00     0.261 C 
BRANCH  38  39
ATOM     39  O   UNL A   1      44.670  24.179  27.548  1.00  0.00    -0.460 OA
BRANCH  39  40
ATOM     40  C   UNL A   1      44.918  25.434  27.111  1.00  0.00     0.338 C 
ATOM     41  O   UNL A   1      45.379  25.759  26.031  1.00  0.00    -0.246 OA
BRANCH  40  42
ATOM     42  C   UNL A   1      44.349  26.361  28.112  1.00  0.00     0.060 A 
ATOM     43  C   UNL A   1      43.607  25.861  29.184  1.00  0.00     0.016 A 
ATOM     44  C   UNL A   1      44.514  27.743  27.946  1.00  0.00     0.016 A 
ATOM     45  C   UNL A   1      43.046  26.745  30.106  1.00  0.00     0.010 A 
ATOM     46  C   UNL A   1      43.944  28.627  28.866  1.00  0.00     0.010 A 
ATOM     47  C   UNL A   1      43.224  28.132  29.964  1.00  0.00    -0.014 A 
BRANCH  47  48
ATOM     48  C   UNL A   1      42.814  29.032  31.070  1.00  0.00     0.031 A 
ATOM     49  C   UNL A   1      43.640  29.206  32.309  1.00  0.00     0.074 A 
ATOM     50  C   UNL A   1      41.664  29.718  30.919  1.00  0.00     0.049 A 
ATOM     51  N   UNL A   1      43.448  30.029  33.308  1.00  0.00    -0.248 NA
ATOM     52  C   UNL A   1      44.829  28.353  32.451  1.00  0.00     0.031 C 
ATOM     53  C   UNL A   1      40.771  29.605  29.762  1.00  0.00     0.029 A 
ATOM     54  N   UNL A   1      41.057  30.648  31.721  1.00  0.00    -0.354 N 
ATOM     55  C   UNL A   1      44.502  29.818  34.188  1.00  0.00     0.074 A 
ATOM     56  C   UNL A   1      45.306  28.752  33.624  1.00  0.00     0.031 C 
ATOM     57  C   UNL A   1      39.744  30.453  29.918  1.00  0.00     0.029 A 
ATOM     58  C   UNL A   1      39.892  31.151  31.191  1.00  0.00     0.049 A 
ATOM     59  H   UNL A   1      41.418  30.927  32.593  1.00  0.00     0.167 HD
ATOM     60  C   UNL A   1      44.777  30.469  35.345  1.00  0.00     0.037 A 
ATOM     61  C   UNL A   1      39.040  32.077  31.671  1.00  0.00     0.037 A 
ATOM     62  C   UNL A   1      43.958  31.519  35.904  1.00  0.00     0.049 A 
ATOM     63  C   UNL A   1      39.346  32.745  32.982  1.00  0.00     0.074 A 
ATOM     64  C   UNL A   1      44.175  32.258  37.055  1.00  0.00     0.029 A 
ATOM     65  N   UNL A   1      42.764  31.974  35.363  1.00  0.00    -0.354 N 
ATOM     66  N   UNL A   1      40.385  32.581  33.766  1.00  0.00    -0.248 NA
ATOM     67  C   UNL A   1      38.371  33.730  33.470  1.00  0.00     0.031 C 
ATOM     68  C   UNL A   1      43.092  33.123  37.236  1.00  0.00     0.029 A 
ATOM     69  C   UNL A   1      42.221  32.962  36.171  1.00  0.00     0.049 A 
ATOM     70  H   UNL A   1      42.360  31.644  34.527  1.00  0.00     0.167 HD
ATOM     71  C   UNL A   1      40.198  33.456  34.830  1.00  0.00     0.074 A 
ATOM     72  C   UNL A   1      38.957  34.160  34.579  1.00  0.00     0.031 C 
ATOM     73  C   UNL A   1      40.984  33.657  35.915  1.00  0.00     0.037 A 
BRANCH  60  74
ATOM     74  C   UNL A   1      46.027  30.093  36.094  1.00  0.00     0.058 A 
ATOM     75  C   UNL A   1      46.016  29.071  37.057  1.00  0.00     0.135 A 
ATOM     76  C   UNL A   1      47.265  30.672  35.770  1.00  0.00     0.135 A 
ATOM     77  F   UNL A   1      44.860  28.488  37.411  1.00  0.00    -0.206 F 
ATOM     78  C   UNL A   1      47.186  28.639  37.673  1.00  0.00     0.059 A 
ATOM     79  C   UNL A   1      48.451  30.240  36.357  1.00  0.00     0.059 A 
ATOM     80  F   UNL A   1      47.333  31.651  34.853  1.00  0.00    -0.206 F 
ATOM     81  C   UNL A   1      48.400  29.225  37.311  1.00  0.00     0.060 A 
BRANCH  81  82
ATOM     82  S   UNL A   1      49.911  28.623  38.098  1.00  0.00     0.124 S 
ATOM     83  O   UNL A   1      50.937  29.322  37.331  1.00  0.00    -0.237 OA
ATOM     84  O   UNL A   1      49.739  29.067  39.477  1.00  0.00    -0.237 OA
ATOM     85  O   UNL A   1      49.851  27.179  37.893  1.00  0.00    -0.744 OA
ENDBRANCH  81  82
ENDBRANCH  60  74
BRANCH  61  86
ATOM     86  C   UNL A   1      37.831  32.442  30.891  1.00  0.00     0.058 A 
ATOM     87  C   UNL A   1      37.871  33.473  29.942  1.00  0.00     0.135 A 
ATOM     88  C   UNL A   1      36.617  31.759  31.067  1.00  0.00     0.135 A 
ATOM     89  F   UNL A   1      39.009  34.155  29.740  1.00  0.00    -0.206 F 
ATOM     90  C   UNL A   1      36.746  33.830  29.207  1.00  0.00     0.059 A 
ATOM     91  C   UNL A   1      35.486  32.079  30.325  1.00  0.00     0.059 A 
ATOM     92  F   UNL A   1      36.534  30.751  31.949  1.00  0.00    -0.206 F 
ATOM     93  C   UNL A   1      35.557  33.125  29.405  1.00  0.00     0.060 A 
BRANCH  93  94
ATOM     94  S   UNL A   1      34.112  33.577  28.423  1.00  0.00     0.124 S 
ATOM     95  O   UNL A   1      33.264  34.211  29.425  1.00  0.00    -0.237 OA
ATOM     96  O   UNL A   1      34.691  34.466  27.420  1.00  0.00    -0.237 OA
ATOM     97  O   UNL A   1      33.637  32.294  27.914  1.00  0.00    -0.744 OA
ENDBRANCH  93  94
ENDBRANCH  61  86
BRANCH  73  98
ATOM     98  C   UNL A   1      40.535  34.687  36.917  1.00  0.00     0.058 A 
ATOM     99  C   UNL A   1      39.594  34.382  37.911  1.00  0.00     0.135 A 
ATOM    100  C   UNL A   1      41.097  35.975  36.918  1.00  0.00     0.135 A 
ATOM    101  F   UNL A   1      39.020  33.169  37.950  1.00  0.00    -0.206 F 
ATOM    102  C   UNL A   1      39.212  35.322  38.863  1.00  0.00     0.059 A 
ATOM    103  C   UNL A   1      40.750  36.921  37.878  1.00  0.00     0.059 A 
ATOM    104  F   UNL A   1      42.006  36.317  35.992  1.00  0.00    -0.206 F 
ATOM    105  C   UNL A   1      39.800  36.587  38.842  1.00  0.00     0.060 A 
BRANCH 105 106
ATOM    106  S   UNL A   1      39.327  37.780  40.113  1.00  0.00     0.124 S 
ATOM    107  O   UNL A   1      38.048  38.264  39.602  1.00  0.00    -0.237 OA
ATOM    108  O   UNL A   1      39.256  36.947  41.309  1.00  0.00    -0.237 OA
ATOM    109  O   UNL A   1      40.418  38.749  40.095  1.00  0.00    -0.744 OA
ENDBRANCH 105 106
ENDBRANCH  73  98
ENDBRANCH  47  48
ENDBRANCH  40  42
ENDBRANCH  39  40
ENDBRANCH  38  39
ENDBRANCH  37  38
ENDBRANCH  36  37
ENDBRANCH  35  36
ENDBRANCH  34  35
ENDBRANCH  33  34
ENDBRANCH   1  33
TORSDOF 27
ENDMDL
