MODEL 1
REMARK VINA RESULT:     -10.0      0.000      0.000
REMARK SMILES Cc1c(C(=O)OCCOCCOCCOCCOC(=O)c2ccc(-c3c4nc(c(-c5c(F)cc(S(=O)(=O)[O-])cc5F)c5ccc([nH]5)c(-c5c(F)cc(S(=O)(=O)[O-])cc5F)c5nc(c(-c6c(F)cc(S(=O)(=O)[O-])cc6F)c6ccc3[nH]6)C=C5)C=C4)cc2)cccc1-n1c(C)cc(/C=C2/C(=O)NC(=S)N=C2O)c1C
REMARK SMILES IDX 12 1 11 2 10 3 9 4 8 5 7 6 6 7 4 8 5 9 3 10 1 11 2 12 90 13
REMARK SMILES IDX 87 14 89 15 88 16 91 17 92 18 106 19 93 20 94 21 95 22
REMARK SMILES IDX 107 23 96 24 97 25 98 26 104 27 99 28 100 29 103 30 101 31
REMARK SMILES IDX 102 33 105 34 13 36 14 37 15 38 16 39 17 40 18 41 19 42
REMARK SMILES IDX 20 43 21 44 22 45 86 46 23 47 85 48 24 49 25 50 26 51 79 52
REMARK SMILES IDX 27 53 84 54 78 55 80 56 28 57 83 58 77 59 76 60 29 62 63 63
REMARK SMILES IDX 42 64 62 65 43 66 46 67 61 68 81 69 44 70 45 71 60 73 82 74
REMARK SMILES IDX 47 75 30 76 31 77 40 78 32 79 33 80 39 81 41 82 34 83 35 84
REMARK SMILES IDX 36 85 37 86 38 87 64 88 65 89 74 90 66 91 67 92 73 93 75 94
REMARK SMILES IDX 68 95 69 96 70 97 71 98 72 99 48 100 49 101 58 102 50 103
REMARK SMILES IDX 51 104 57 105 59 106 52 107 53 108 54 109 55 110 56 111
REMARK H PARENT 100 32 105 35 80 61 46 72
REMARK Flexibility Score: inf
ROOT
ATOM      1  O   UNL A   1      41.699  27.077  28.592  1.00  0.00    -0.377 OA
ENDROOT
BRANCH   1   2
ATOM      2  C   UNL A   1      40.747  27.778  29.374  1.00  0.00     0.188 C 
BRANCH   2   3
ATOM      3  C   UNL A   1      39.261  27.595  29.048  1.00  0.00     0.188 C 
BRANCH   3   4
ATOM      4  O   UNL A   1      38.503  28.697  28.580  1.00  0.00    -0.376 OA
BRANCH   4   5
ATOM      5  C   UNL A   1      37.529  29.186  29.497  1.00  0.00     0.202 C 
BRANCH   5   6
ATOM      6  C   UNL A   1      36.953  30.563  29.221  1.00  0.00     0.261 C 
BRANCH   6   7
ATOM      7  O   UNL A   1      35.680  30.416  28.607  1.00  0.00    -0.460 OA
BRANCH   7   8
ATOM      8  C   UNL A   1      35.254  31.488  27.934  1.00  0.00     0.338 C 
ATOM      9  O   UNL A   1      35.918  32.462  27.645  1.00  0.00    -0.246 OA
BRANCH   8  10
ATOM     10  C   UNL A   1      33.909  31.219  27.348  1.00  0.00     0.065 A 
ATOM     11  C   UNL A   1      34.305  28.976  26.094  1.00  0.00     0.047 C 
ATOM     12  C   UNL A   1      33.443  30.055  26.695  1.00  0.00    -0.012 A 
ATOM     13  C   UNL A   1      32.077  30.017  26.368  1.00  0.00     0.049 A 
ATOM     14  C   UNL A   1      33.097  32.371  27.374  1.00  0.00     0.016 A 
ATOM     15  C   UNL A   1      31.270  31.163  26.425  1.00  0.00     0.027 A 
ATOM     16  C   UNL A   1      31.803  32.359  26.877  1.00  0.00     0.003 A 
BRANCH  13  17
ATOM     17  N   UNL A   1      31.507  28.860  25.790  1.00  0.00    -0.318 N 
ATOM     18  C   UNL A   1      31.057  28.705  24.488  1.00  0.00     0.020 A 
ATOM     19  C   UNL A   1      31.354  27.657  26.465  1.00  0.00     0.027 A 
ATOM     20  C   UNL A   1      30.852  29.813  23.509  1.00  0.00     0.065 C 
ATOM     21  C   UNL A   1      30.942  27.342  24.282  1.00  0.00     0.031 A 
ATOM     22  C   UNL A   1      31.247  26.674  25.501  1.00  0.00    -0.003 A 
ATOM     23  C   UNL A   1      31.287  27.635  27.958  1.00  0.00     0.065 C 
BRANCH  22  24
ATOM     24  C   UNL A   1      31.263  25.254  25.640  1.00  0.00     0.029 C 
ATOM     25  C   UNL A   1      32.183  24.330  25.302  1.00  0.00     0.102 C 
ATOM     26  C   UNL A   1      31.855  22.929  25.667  1.00  0.00     0.262 C 
ATOM     27  C   UNL A   1      33.504  24.465  24.683  1.00  0.00     0.226 C 
ATOM     28  O   UNL A   1      30.726  22.517  25.905  1.00  0.00    -0.269 OA
ATOM     29  N   UNL A   1      32.945  22.103  25.719  1.00  0.00    -0.297 N 
ATOM     30  N   UNL A   1      34.460  23.611  24.718  1.00  0.00    -0.184 NA
ATOM     31  C   UNL A   1      34.229  22.419  25.350  1.00  0.00     0.203 C 
ATOM     32  H   UNL A   1      32.794  21.191  26.056  1.00  0.00     0.172 HD
ATOM     33  S   UNL A   1      35.420  21.268  25.611  1.00  0.00    -0.038 S 
BRANCH  27  34
ATOM     34  O   UNL A   1      33.709  25.543  23.926  1.00  0.00    -0.493 OA
ATOM     35  H   UNL A   1      33.515  25.516  23.010  1.00  0.00     0.295 HD
ENDBRANCH  27  34
ENDBRANCH  22  24
ENDBRANCH  13  17
ENDBRANCH   8  10
ENDBRANCH   7   8
ENDBRANCH   6   7
ENDBRANCH   5   6
ENDBRANCH   4   5
ENDBRANCH   3   4
ENDBRANCH   2   3
ENDBRANCH   1   2
BRANCH   1  36
ATOM     36  C   UNL A   1      41.244  26.010  27.760  1.00  0.00     0.188 C 
BRANCH  36  37
ATOM     37  C   UNL A   1      42.138  25.540  26.636  1.00  0.00     0.188 C 
BRANCH  37  38
ATOM     38  O   UNL A   1      41.486  24.392  26.090  1.00  0.00    -0.376 OA
BRANCH  38  39
ATOM     39  C   UNL A   1      42.186  23.170  26.189  1.00  0.00     0.202 C 
BRANCH  39  40
ATOM     40  C   UNL A   1      43.662  23.293  25.818  1.00  0.00     0.261 C 
BRANCH  40  41
ATOM     41  O   UNL A   1      44.519  22.697  26.825  1.00  0.00    -0.460 OA
BRANCH  41  42
ATOM     42  C   UNL A   1      45.646  23.370  27.216  1.00  0.00     0.338 C 
ATOM     43  O   UNL A   1      46.644  23.448  26.519  1.00  0.00    -0.246 OA
BRANCH  42  44
ATOM     44  C   UNL A   1      45.432  24.198  28.439  1.00  0.00     0.060 A 
ATOM     45  C   UNL A   1      46.417  25.049  28.965  1.00  0.00     0.016 A 
ATOM     46  C   UNL A   1      44.236  24.085  29.118  1.00  0.00     0.016 A 
ATOM     47  C   UNL A   1      46.292  25.600  30.264  1.00  0.00     0.010 A 
ATOM     48  C   UNL A   1      44.136  24.598  30.399  1.00  0.00     0.010 A 
ATOM     49  C   UNL A   1      45.171  25.312  31.032  1.00  0.00    -0.014 A 
BRANCH  49  50
ATOM     50  C   UNL A   1      44.966  25.601  32.480  1.00  0.00     0.031 A 
ATOM     51  C   UNL A   1      44.426  26.955  32.871  1.00  0.00     0.074 A 
ATOM     52  C   UNL A   1      44.881  24.588  33.385  1.00  0.00     0.049 A 
ATOM     53  N   UNL A   1      43.960  27.280  34.028  1.00  0.00    -0.248 NA
ATOM     54  C   UNL A   1      44.296  28.061  31.932  1.00  0.00     0.031 C 
ATOM     55  C   UNL A   1      44.086  24.587  34.610  1.00  0.00     0.029 A 
ATOM     56  N   UNL A   1      45.423  23.308  33.404  1.00  0.00    -0.354 N 
ATOM     57  C   UNL A   1      43.145  28.392  33.906  1.00  0.00     0.074 A 
ATOM     58  C   UNL A   1      43.462  28.877  32.584  1.00  0.00     0.031 C 
ATOM     59  C   UNL A   1      44.241  23.456  35.305  1.00  0.00     0.029 A 
ATOM     60  C   UNL A   1      45.359  22.790  34.712  1.00  0.00     0.049 A 
ATOM     61  H   UNL A   1      45.796  22.837  32.625  1.00  0.00     0.167 HD
ATOM     62  C   UNL A   1      42.225  28.652  34.898  1.00  0.00     0.037 A 
ATOM     63  C   UNL A   1      46.511  22.557  35.405  1.00  0.00     0.037 A 
ATOM     64  C   UNL A   1      42.410  27.715  36.055  1.00  0.00     0.049 A 
ATOM     65  C   UNL A   1      46.631  23.582  36.549  1.00  0.00     0.074 A 
ATOM     66  C   UNL A   1      41.607  26.837  36.770  1.00  0.00     0.029 A 
ATOM     67  N   UNL A   1      43.707  27.443  36.513  1.00  0.00    -0.354 N 
ATOM     68  N   UNL A   1      45.963  24.719  36.565  1.00  0.00    -0.248 NA
ATOM     69  C   UNL A   1      47.308  23.376  37.823  1.00  0.00     0.031 C 
ATOM     70  C   UNL A   1      42.434  26.041  37.626  1.00  0.00     0.029 A 
ATOM     71  C   UNL A   1      43.752  26.439  37.460  1.00  0.00     0.049 A 
ATOM     72  H   UNL A   1      44.505  27.921  36.193  1.00  0.00     0.167 HD
ATOM     73  C   UNL A   1      45.895  25.239  37.828  1.00  0.00     0.074 A 
ATOM     74  C   UNL A   1      46.898  24.450  38.537  1.00  0.00     0.031 C 
ATOM     75  C   UNL A   1      44.979  26.192  38.228  1.00  0.00     0.037 A 
BRANCH  62  76
ATOM     76  C   UNL A   1      41.018  29.636  34.794  1.00  0.00     0.058 A 
ATOM     77  C   UNL A   1      39.979  29.449  33.842  1.00  0.00     0.135 A 
ATOM     78  C   UNL A   1      40.814  30.795  35.582  1.00  0.00     0.135 A 
ATOM     79  F   UNL A   1      39.939  28.375  33.047  1.00  0.00    -0.206 F 
ATOM     80  C   UNL A   1      38.896  30.333  33.666  1.00  0.00     0.059 A 
ATOM     81  C   UNL A   1      39.738  31.689  35.431  1.00  0.00     0.059 A 
ATOM     82  F   UNL A   1      41.622  31.126  36.586  1.00  0.00    -0.206 F 
ATOM     83  C   UNL A   1      38.777  31.454  34.468  1.00  0.00     0.060 A 
BRANCH  83  84
ATOM     84  S   UNL A   1      37.341  32.535  34.297  1.00  0.00     0.124 S 
ATOM     85  O   UNL A   1      36.824  32.587  35.661  1.00  0.00    -0.237 OA
ATOM     86  O   UNL A   1      37.940  33.770  33.799  1.00  0.00    -0.237 OA
ATOM     87  O   UNL A   1      36.491  31.831  33.340  1.00  0.00    -0.744 OA
ENDBRANCH  83  84
ENDBRANCH  62  76
BRANCH  63  88
ATOM     88  C   UNL A   1      47.451  21.794  34.503  1.00  0.00     0.058 A 
ATOM     89  C   UNL A   1      48.662  22.486  34.209  1.00  0.00     0.135 A 
ATOM     90  C   UNL A   1      47.568  20.396  34.621  1.00  0.00     0.135 A 
ATOM     91  F   UNL A   1      48.642  23.824  34.069  1.00  0.00    -0.206 F 
ATOM     92  C   UNL A   1      49.920  21.875  34.280  1.00  0.00     0.059 A 
ATOM     93  C   UNL A   1      48.827  19.761  34.686  1.00  0.00     0.059 A 
ATOM     94  F   UNL A   1      46.483  19.660  34.906  1.00  0.00    -0.206 F 
ATOM     95  C   UNL A   1      49.997  20.520  34.583  1.00  0.00     0.060 A 
BRANCH  95  96
ATOM     96  S   UNL A   1      51.614  19.830  35.060  1.00  0.00     0.124 S 
ATOM     97  O   UNL A   1      52.154  20.875  35.919  1.00  0.00    -0.237 OA
ATOM     98  O   UNL A   1      51.247  18.582  35.728  1.00  0.00    -0.237 OA
ATOM     99  O   UNL A   1      52.289  19.653  33.782  1.00  0.00    -0.744 OA
ENDBRANCH  95  96
ENDBRANCH  63  88
BRANCH  75 100
ATOM    100  C   UNL A   1      45.156  27.083  39.432  1.00  0.00     0.058 A 
ATOM    101  C   UNL A   1      45.626  28.394  39.398  1.00  0.00     0.135 A 
ATOM    102  C   UNL A   1      44.785  26.599  40.718  1.00  0.00     0.135 A 
ATOM    103  F   UNL A   1      46.233  28.884  38.308  1.00  0.00    -0.206 F 
ATOM    104  C   UNL A   1      45.506  29.239  40.501  1.00  0.00     0.059 A 
ATOM    105  C   UNL A   1      44.728  27.396  41.843  1.00  0.00     0.059 A 
ATOM    106  F   UNL A   1      44.409  25.333  40.938  1.00  0.00    -0.206 F 
ATOM    107  C   UNL A   1      45.008  28.738  41.704  1.00  0.00     0.060 A 
BRANCH 107 108
ATOM    108  S   UNL A   1      44.690  29.846  43.077  1.00  0.00     0.124 S 
ATOM    109  O   UNL A   1      45.357  31.071  42.646  1.00  0.00    -0.237 OA
ATOM    110  O   UNL A   1      43.232  29.885  43.081  1.00  0.00    -0.237 OA
ATOM    111  O   UNL A   1      45.305  29.170  44.215  1.00  0.00    -0.744 OA
ENDBRANCH 107 108
ENDBRANCH  75 100
ENDBRANCH  49  50
ENDBRANCH  42  44
ENDBRANCH  41  42
ENDBRANCH  40  41
ENDBRANCH  39  40
ENDBRANCH  38  39
ENDBRANCH  37  38
ENDBRANCH  36  37
ENDBRANCH   1  36
TORSDOF 26
ENDMDL
MODEL 2
REMARK VINA RESULT:      -9.6      4.158      6.459
REMARK SMILES Cc1c(C(=O)OCCOCCOCCOCCOC(=O)c2ccc(-c3c4nc(c(-c5c(F)cc(S(=O)(=O)[O-])cc5F)c5ccc([nH]5)c(-c5c(F)cc(S(=O)(=O)[O-])cc5F)c5nc(c(-c6c(F)cc(S(=O)(=O)[O-])cc6F)c6ccc3[nH]6)C=C5)C=C4)cc2)cccc1-n1c(C)cc(/C=C2/C(=O)NC(=S)N=C2O)c1C
REMARK SMILES IDX 12 1 11 2 10 3 9 4 8 5 7 6 6 7 4 8 5 9 3 10 1 11 2 12 90 13
REMARK SMILES IDX 87 14 89 15 88 16 91 17 92 18 106 19 93 20 94 21 95 22
REMARK SMILES IDX 107 23 96 24 97 25 98 26 104 27 99 28 100 29 103 30 101 31
REMARK SMILES IDX 102 33 105 34 13 36 14 37 15 38 16 39 17 40 18 41 19 42
REMARK SMILES IDX 20 43 21 44 22 45 86 46 23 47 85 48 24 49 25 50 26 51 79 52
REMARK SMILES IDX 27 53 84 54 78 55 80 56 28 57 83 58 77 59 76 60 29 62 63 63
REMARK SMILES IDX 42 64 62 65 43 66 46 67 61 68 81 69 44 70 45 71 60 73 82 74
REMARK SMILES IDX 47 75 30 76 31 77 40 78 32 79 33 80 39 81 41 82 34 83 35 84
REMARK SMILES IDX 36 85 37 86 38 87 64 88 65 89 74 90 66 91 67 92 73 93 75 94
REMARK SMILES IDX 68 95 69 96 70 97 71 98 72 99 48 100 49 101 58 102 50 103
REMARK SMILES IDX 51 104 57 105 59 106 52 107 53 108 54 109 55 110 56 111
REMARK H PARENT 100 32 105 35 80 61 46 72
REMARK Flexibility Score: inf
ROOT
ATOM      1  O   UNL A   1      41.698  27.021  28.606  1.00  0.00    -0.377 OA
ENDROOT
BRANCH   1   2
ATOM      2  C   UNL A   1      40.851  27.655  29.550  1.00  0.00     0.188 C 
BRANCH   2   3
ATOM      3  C   UNL A   1      39.345  27.381  29.473  1.00  0.00     0.188 C 
BRANCH   3   4
ATOM      4  O   UNL A   1      38.461  28.412  29.070  1.00  0.00    -0.376 OA
BRANCH   4   5
ATOM      5  C   UNL A   1      37.746  29.037  30.131  1.00  0.00     0.202 C 
BRANCH   5   6
ATOM      6  C   UNL A   1      37.456  30.520  29.988  1.00  0.00     0.261 C 
BRANCH   6   7
ATOM      7  O   UNL A   1      38.688  31.224  29.897  1.00  0.00    -0.460 OA
BRANCH   7   8
ATOM      8  C   UNL A   1      38.609  32.529  30.171  1.00  0.00     0.338 C 
ATOM      9  O   UNL A   1      37.675  33.094  30.703  1.00  0.00    -0.246 OA
BRANCH   8  10
ATOM     10  C   UNL A   1      39.940  33.171  29.973  1.00  0.00     0.065 A 
ATOM     11  C   UNL A   1      41.526  31.512  31.196  1.00  0.00     0.047 C 
ATOM     12  C   UNL A   1      41.225  32.656  30.264  1.00  0.00    -0.012 A 
ATOM     13  C   UNL A   1      42.324  33.421  29.839  1.00  0.00     0.049 A 
ATOM     14  C   UNL A   1      39.810  34.512  29.560  1.00  0.00     0.016 A 
ATOM     15  C   UNL A   1      42.179  34.746  29.401  1.00  0.00     0.027 A 
ATOM     16  C   UNL A   1      40.917  35.310  29.319  1.00  0.00     0.003 A 
BRANCH  13  17
ATOM     17  N   UNL A   1      43.644  32.944  30.011  1.00  0.00    -0.318 N 
ATOM     18  C   UNL A   1      44.392  32.946  31.178  1.00  0.00     0.020 A 
ATOM     19  C   UNL A   1      44.384  32.344  29.003  1.00  0.00     0.027 A 
ATOM     20  C   UNL A   1      44.043  33.687  32.425  1.00  0.00     0.065 C 
ATOM     21  C   UNL A   1      45.436  32.065  30.964  1.00  0.00     0.031 A 
ATOM     22  C   UNL A   1      45.361  31.591  29.624  1.00  0.00    -0.003 A 
ATOM     23  C   UNL A   1      44.065  32.621  27.569  1.00  0.00     0.065 C 
BRANCH  22  24
ATOM     24  C   UNL A   1      46.264  30.635  29.073  1.00  0.00     0.029 C 
ATOM     25  C   UNL A   1      46.056  29.500  28.379  1.00  0.00     0.102 C 
ATOM     26  C   UNL A   1      47.276  28.791  27.918  1.00  0.00     0.262 C 
ATOM     27  C   UNL A   1      44.818  28.857  27.931  1.00  0.00     0.226 C 
ATOM     28  O   UNL A   1      48.393  28.941  28.399  1.00  0.00    -0.269 OA
ATOM     29  N   UNL A   1      47.054  27.927  26.880  1.00  0.00    -0.297 N 
ATOM     30  N   UNL A   1      44.697  27.997  26.986  1.00  0.00    -0.184 NA
ATOM     31  C   UNL A   1      45.835  27.583  26.350  1.00  0.00     0.203 C 
ATOM     32  H   UNL A   1      47.847  27.510  26.472  1.00  0.00     0.172 HD
ATOM     33  S   UNL A   1      45.827  26.584  25.003  1.00  0.00    -0.038 S 
BRANCH  27  34
ATOM     34  O   UNL A   1      43.715  29.116  28.632  1.00  0.00    -0.493 OA
ATOM     35  H   UNL A   1      43.311  29.960  28.575  1.00  0.00     0.295 HD
ENDBRANCH  27  34
ENDBRANCH  22  24
ENDBRANCH  13  17
ENDBRANCH   8  10
ENDBRANCH   7   8
ENDBRANCH   6   7
ENDBRANCH   5   6
ENDBRANCH   4   5
ENDBRANCH   3   4
ENDBRANCH   2   3
ENDBRANCH   1   2
BRANCH   1  36
ATOM     36  C   UNL A   1      41.166  25.955  27.820  1.00  0.00     0.188 C 
BRANCH  36  37
ATOM     37  C   UNL A   1      41.873  25.585  26.536  1.00  0.00     0.188 C 
BRANCH  37  38
ATOM     38  O   UNL A   1      41.270  24.360  26.114  1.00  0.00    -0.376 OA
BRANCH  38  39
ATOM     39  C   UNL A   1      42.098  23.216  26.137  1.00  0.00     0.202 C 
BRANCH  39  40
ATOM     40  C   UNL A   1      43.559  23.528  25.821  1.00  0.00     0.261 C 
BRANCH  40  41
ATOM     41  O   UNL A   1      44.463  22.746  26.642  1.00  0.00    -0.460 OA
BRANCH  41  42
ATOM     42  C   UNL A   1      45.622  23.326  27.085  1.00  0.00     0.338 C 
ATOM     43  O   UNL A   1      46.652  23.327  26.431  1.00  0.00    -0.246 OA
BRANCH  42  44
ATOM     44  C   UNL A   1      45.423  24.164  28.303  1.00  0.00     0.060 A 
ATOM     45  C   UNL A   1      46.419  25.008  28.819  1.00  0.00     0.016 A 
ATOM     46  C   UNL A   1      44.228  24.068  28.988  1.00  0.00     0.016 A 
ATOM     47  C   UNL A   1      46.306  25.569  30.115  1.00  0.00     0.010 A 
ATOM     48  C   UNL A   1      44.140  24.591  30.266  1.00  0.00     0.010 A 
ATOM     49  C   UNL A   1      45.186  25.298  30.890  1.00  0.00    -0.014 A 
BRANCH  49  50
ATOM     50  C   UNL A   1      44.990  25.599  32.337  1.00  0.00     0.031 A 
ATOM     51  C   UNL A   1      44.443  26.952  32.720  1.00  0.00     0.074 A 
ATOM     52  C   UNL A   1      44.920  24.593  33.252  1.00  0.00     0.049 A 
ATOM     53  N   UNL A   1      43.984  27.284  33.878  1.00  0.00    -0.248 NA
ATOM     54  C   UNL A   1      44.297  28.048  31.772  1.00  0.00     0.031 C 
ATOM     55  C   UNL A   1      44.135  24.598  34.483  1.00  0.00     0.029 A 
ATOM     56  N   UNL A   1      45.472  23.317  33.278  1.00  0.00    -0.354 N 
ATOM     57  C   UNL A   1      43.160  28.389  33.752  1.00  0.00     0.074 A 
ATOM     58  C   UNL A   1      43.462  28.865  32.424  1.00  0.00     0.031 C 
ATOM     59  C   UNL A   1      44.304  23.474  35.187  1.00  0.00     0.029 A 
ATOM     60  C   UNL A   1      45.422  22.811  34.591  1.00  0.00     0.049 A 
ATOM     61  H   UNL A   1      45.842  22.842  32.500  1.00  0.00     0.167 HD
ATOM     62  C   UNL A   1      42.246  28.651  34.750  1.00  0.00     0.037 A 
ATOM     63  C   UNL A   1      46.581  22.593  35.277  1.00  0.00     0.037 A 
ATOM     64  C   UNL A   1      42.447  27.726  35.913  1.00  0.00     0.049 A 
ATOM     65  C   UNL A   1      46.703  23.629  36.410  1.00  0.00     0.074 A 
ATOM     66  C   UNL A   1      41.657  26.849  36.643  1.00  0.00     0.029 A 
ATOM     67  N   UNL A   1      43.751  27.468  36.363  1.00  0.00    -0.354 N 
ATOM     68  N   UNL A   1      46.027  24.761  36.421  1.00  0.00    -0.248 NA
ATOM     69  C   UNL A   1      47.392  23.440  37.681  1.00  0.00     0.031 C 
ATOM     70  C   UNL A   1      42.496  26.067  37.499  1.00  0.00     0.029 A 
ATOM     71  C   UNL A   1      43.810  26.473  37.319  1.00  0.00     0.049 A 
ATOM     72  H   UNL A   1      44.542  27.949  36.032  1.00  0.00     0.167 HD
ATOM     73  C   UNL A   1      45.965  25.293  37.680  1.00  0.00     0.074 A 
ATOM     74  C   UNL A   1      46.979  24.517  38.388  1.00  0.00     0.031 C 
ATOM     75  C   UNL A   1      45.045  26.242  38.079  1.00  0.00     0.037 A 
BRANCH  62  76
ATOM     76  C   UNL A   1      41.031  29.625  34.647  1.00  0.00     0.058 A 
ATOM     77  C   UNL A   1      40.825  30.667  35.591  1.00  0.00     0.135 A 
ATOM     78  C   UNL A   1      40.015  29.594  33.661  1.00  0.00     0.135 A 
ATOM     79  F   UNL A   1      41.707  30.919  36.564  1.00  0.00    -0.206 F 
ATOM     80  C   UNL A   1      39.719  31.541  35.581  1.00  0.00     0.059 A 
ATOM     81  C   UNL A   1      38.905  30.458  33.624  1.00  0.00     0.059 A 
ATOM     82  F   UNL A   1      40.043  28.747  32.634  1.00  0.00    -0.206 F 
ATOM     83  C   UNL A   1      38.760  31.434  34.589  1.00  0.00     0.060 A 
BRANCH  83  84
ATOM     84  S   UNL A   1      37.392  32.612  34.530  1.00  0.00     0.124 S 
ATOM     85  O   UNL A   1      36.441  31.941  33.649  1.00  0.00    -0.237 OA
ATOM     86  O   UNL A   1      37.001  32.703  35.933  1.00  0.00    -0.237 OA
ATOM     87  O   UNL A   1      38.000  33.820  33.977  1.00  0.00    -0.744 OA
ENDBRANCH  83  84
ENDBRANCH  62  76
BRANCH  63  88
ATOM     88  C   UNL A   1      47.520  21.829  34.374  1.00  0.00     0.058 A 
ATOM     89  C   UNL A   1      48.719  22.530  34.057  1.00  0.00     0.135 A 
ATOM     90  C   UNL A   1      47.654  20.433  34.508  1.00  0.00     0.135 A 
ATOM     91  F   UNL A   1      48.682  23.865  33.900  1.00  0.00    -0.206 F 
ATOM     92  C   UNL A   1      49.985  21.934  34.122  1.00  0.00     0.059 A 
ATOM     93  C   UNL A   1      48.919  19.813  34.567  1.00  0.00     0.059 A 
ATOM     94  F   UNL A   1      46.579  19.689  34.816  1.00  0.00    -0.206 F 
ATOM     95  C   UNL A   1      50.080  20.584  34.442  1.00  0.00     0.060 A 
BRANCH  95  96
ATOM     96  S   UNL A   1      51.710  19.918  34.909  1.00  0.00     0.124 S 
ATOM     97  O   UNL A   1      52.313  21.043  35.610  1.00  0.00    -0.237 OA
ATOM     98  O   UNL A   1      51.361  18.764  35.737  1.00  0.00    -0.237 OA
ATOM     99  O   UNL A   1      52.310  19.578  33.626  1.00  0.00    -0.744 OA
ENDBRANCH  95  96
ENDBRANCH  63  88
BRANCH  75 100
ATOM    100  C   UNL A   1      45.225  27.145  39.273  1.00  0.00     0.058 A 
ATOM    101  C   UNL A   1      45.674  28.463  39.222  1.00  0.00     0.135 A 
ATOM    102  C   UNL A   1      44.881  26.665  40.568  1.00  0.00     0.135 A 
ATOM    103  F   UNL A   1      46.257  28.954  38.119  1.00  0.00    -0.206 F 
ATOM    104  C   UNL A   1      45.557  29.315  40.321  1.00  0.00     0.059 A 
ATOM    105  C   UNL A   1      44.828  27.470  41.688  1.00  0.00     0.059 A 
ATOM    106  F   UNL A   1      44.529  25.395  40.803  1.00  0.00    -0.206 F 
ATOM    107  C   UNL A   1      45.084  28.816  41.534  1.00  0.00     0.060 A 
BRANCH 107 108
ATOM    108  S   UNL A   1      44.769  29.930  42.903  1.00  0.00     0.124 S 
ATOM    109  O   UNL A   1      43.313  30.026  42.895  1.00  0.00    -0.237 OA
ATOM    110  O   UNL A   1      45.350  29.186  44.016  1.00  0.00    -0.237 OA
ATOM    111  O   UNL A   1      45.476  31.150  42.525  1.00  0.00    -0.744 OA
ENDBRANCH 107 108
ENDBRANCH  75 100
ENDBRANCH  49  50
ENDBRANCH  42  44
ENDBRANCH  41  42
ENDBRANCH  40  41
ENDBRANCH  39  40
ENDBRANCH  38  39
ENDBRANCH  37  38
ENDBRANCH  36  37
ENDBRANCH   1  36
TORSDOF 26
ENDMDL
MODEL 3
REMARK VINA RESULT:      -8.9      4.352      7.202
REMARK SMILES Cc1c(C(=O)OCCOCCOCCOCCOC(=O)c2ccc(-c3c4nc(c(-c5c(F)cc(S(=O)(=O)[O-])cc5F)c5ccc([nH]5)c(-c5c(F)cc(S(=O)(=O)[O-])cc5F)c5nc(c(-c6c(F)cc(S(=O)(=O)[O-])cc6F)c6ccc3[nH]6)C=C5)C=C4)cc2)cccc1-n1c(C)cc(/C=C2/C(=O)NC(=S)N=C2O)c1C
REMARK SMILES IDX 12 1 11 2 10 3 9 4 8 5 7 6 6 7 4 8 5 9 3 10 1 11 2 12 90 13
REMARK SMILES IDX 87 14 89 15 88 16 91 17 92 18 106 19 93 20 94 21 95 22
REMARK SMILES IDX 107 23 96 24 97 25 98 26 104 27 99 28 100 29 103 30 101 31
REMARK SMILES IDX 102 33 105 34 13 36 14 37 15 38 16 39 17 40 18 41 19 42
REMARK SMILES IDX 20 43 21 44 22 45 86 46 23 47 85 48 24 49 25 50 26 51 79 52
REMARK SMILES IDX 27 53 84 54 78 55 80 56 28 57 83 58 77 59 76 60 29 62 63 63
REMARK SMILES IDX 42 64 62 65 43 66 46 67 61 68 81 69 44 70 45 71 60 73 82 74
REMARK SMILES IDX 47 75 30 76 31 77 40 78 32 79 33 80 39 81 41 82 34 83 35 84
REMARK SMILES IDX 36 85 37 86 38 87 64 88 65 89 74 90 66 91 67 92 73 93 75 94
REMARK SMILES IDX 68 95 69 96 70 97 71 98 72 99 48 100 49 101 58 102 50 103
REMARK SMILES IDX 51 104 57 105 59 106 52 107 53 108 54 109 55 110 56 111
REMARK H PARENT 100 32 105 35 80 61 46 72
REMARK Flexibility Score: inf
ROOT
ATOM      1  O   UNL A   1      38.251  21.877  25.119  1.00  0.00    -0.377 OA
ENDROOT
BRANCH   1   2
ATOM      2  C   UNL A   1      36.934  22.005  25.625  1.00  0.00     0.188 C 
BRANCH   2   3
ATOM      3  C   UNL A   1      35.767  21.561  24.737  1.00  0.00     0.188 C 
BRANCH   3   4
ATOM      4  O   UNL A   1      35.386  20.196  24.707  1.00  0.00    -0.376 OA
BRANCH   4   5
ATOM      5  C   UNL A   1      33.998  19.958  24.916  1.00  0.00     0.202 C 
BRANCH   5   6
ATOM      6  C   UNL A   1      33.340  20.684  26.076  1.00  0.00     0.261 C 
BRANCH   6   7
ATOM      7  O   UNL A   1      32.440  21.656  25.561  1.00  0.00    -0.460 OA
BRANCH   7   8
ATOM      8  C   UNL A   1      32.502  22.850  26.156  1.00  0.00     0.338 C 
ATOM      9  O   UNL A   1      32.798  23.058  27.315  1.00  0.00    -0.246 OA
BRANCH   8  10
ATOM     10  C   UNL A   1      32.412  23.932  25.134  1.00  0.00     0.065 A 
ATOM     11  C   UNL A   1      30.817  25.632  26.287  1.00  0.00     0.047 C 
ATOM     12  C   UNL A   1      31.825  25.213  25.249  1.00  0.00    -0.012 A 
ATOM     13  C   UNL A   1      32.012  26.094  24.170  1.00  0.00     0.049 A 
ATOM     14  C   UNL A   1      32.880  23.496  23.879  1.00  0.00     0.016 A 
ATOM     15  C   UNL A   1      32.507  25.655  22.933  1.00  0.00     0.027 A 
ATOM     16  C   UNL A   1      32.888  24.333  22.774  1.00  0.00     0.003 A 
BRANCH  13  17
ATOM     17  N   UNL A   1      31.533  27.423  24.233  1.00  0.00    -0.318 N 
ATOM     18  C   UNL A   1      30.252  27.869  23.947  1.00  0.00     0.020 A 
ATOM     19  C   UNL A   1      32.302  28.500  24.650  1.00  0.00     0.027 A 
ATOM     20  C   UNL A   1      29.191  27.068  23.268  1.00  0.00     0.065 C 
ATOM     21  C   UNL A   1      30.155  29.133  24.498  1.00  0.00     0.031 A 
ATOM     22  C   UNL A   1      31.419  29.484  25.050  1.00  0.00    -0.003 A 
ATOM     23  C   UNL A   1      33.792  28.440  24.560  1.00  0.00     0.065 C 
BRANCH  22  24
ATOM     24  C   UNL A   1      31.669  30.711  25.733  1.00  0.00     0.029 C 
ATOM     25  C   UNL A   1      32.481  31.015  26.764  1.00  0.00     0.102 C 
ATOM     26  C   UNL A   1      32.509  32.444  27.165  1.00  0.00     0.262 C 
ATOM     27  C   UNL A   1      33.409  30.186  27.537  1.00  0.00     0.226 C 
ATOM     28  O   UNL A   1      31.635  33.260  26.897  1.00  0.00    -0.269 OA
ATOM     29  N   UNL A   1      33.622  32.795  27.881  1.00  0.00    -0.297 N 
ATOM     30  N   UNL A   1      34.398  30.596  28.245  1.00  0.00    -0.184 NA
ATOM     31  C   UNL A   1      34.595  31.946  28.347  1.00  0.00     0.203 C 
ATOM     32  H   UNL A   1      33.736  33.751  28.081  1.00  0.00     0.172 HD
ATOM     33  S   UNL A   1      35.924  32.628  29.107  1.00  0.00    -0.038 S 
BRANCH  27  34
ATOM     34  O   UNL A   1      33.152  28.879  27.589  1.00  0.00    -0.493 OA
ATOM     35  H   UNL A   1      33.686  28.317  28.116  1.00  0.00     0.295 HD
ENDBRANCH  27  34
ENDBRANCH  22  24
ENDBRANCH  13  17
ENDBRANCH   8  10
ENDBRANCH   7   8
ENDBRANCH   6   7
ENDBRANCH   5   6
ENDBRANCH   4   5
ENDBRANCH   3   4
ENDBRANCH   2   3
ENDBRANCH   1   2
BRANCH   1  36
ATOM     36  C   UNL A   1      39.236  21.240  25.933  1.00  0.00     0.188 C 
BRANCH  36  37
ATOM     37  C   UNL A   1      40.486  22.011  26.288  1.00  0.00     0.188 C 
BRANCH  37  38
ATOM     38  O   UNL A   1      40.159  22.735  27.475  1.00  0.00    -0.376 OA
BRANCH  38  39
ATOM     39  C   UNL A   1      40.407  24.125  27.447  1.00  0.00     0.202 C 
BRANCH  39  40
ATOM     40  C   UNL A   1      41.530  24.514  26.487  1.00  0.00     0.261 C 
BRANCH  40  41
ATOM     41  O   UNL A   1      42.222  25.709  26.930  1.00  0.00    -0.460 OA
BRANCH  41  42
ATOM     42  C   UNL A   1      41.812  26.925  26.453  1.00  0.00     0.338 C 
ATOM     43  O   UNL A   1      41.325  27.069  25.343  1.00  0.00    -0.246 OA
BRANCH  42  44
ATOM     44  C   UNL A   1      41.782  27.981  27.506  1.00  0.00     0.060 A 
ATOM     45  C   UNL A   1      42.945  28.528  28.071  1.00  0.00     0.016 A 
ATOM     46  C   UNL A   1      40.560  28.404  27.989  1.00  0.00     0.016 A 
ATOM     47  C   UNL A   1      42.889  29.313  29.249  1.00  0.00     0.010 A 
ATOM     48  C   UNL A   1      40.515  29.141  29.158  1.00  0.00     0.010 A 
ATOM     49  C   UNL A   1      41.664  29.564  29.855  1.00  0.00    -0.014 A 
BRANCH  49  50
ATOM     50  C   UNL A   1      41.423  30.160  31.199  1.00  0.00     0.031 A 
ATOM     51  C   UNL A   1      40.560  31.395  31.291  1.00  0.00     0.074 A 
ATOM     52  C   UNL A   1      41.623  29.428  32.329  1.00  0.00     0.049 A 
ATOM     53  N   UNL A   1      40.052  31.885  32.370  1.00  0.00    -0.248 NA
ATOM     54  C   UNL A   1      40.128  32.152  30.125  1.00  0.00     0.031 C 
ATOM     55  C   UNL A   1      40.881  29.551  33.582  1.00  0.00     0.029 A 
ATOM     56  N   UNL A   1      42.477  28.369  32.615  1.00  0.00    -0.354 N 
ATOM     57  C   UNL A   1      38.975  32.694  32.050  1.00  0.00     0.074 A 
ATOM     58  C   UNL A   1      39.126  32.881  30.628  1.00  0.00     0.031 C 
ATOM     59  C   UNL A   1      41.339  28.712  34.517  1.00  0.00     0.029 A 
ATOM     60  C   UNL A   1      42.578  28.209  34.010  1.00  0.00     0.049 A 
ATOM     61  H   UNL A   1      42.942  27.817  31.945  1.00  0.00     0.167 HD
ATOM     62  C   UNL A   1      38.040  32.970  33.025  1.00  0.00     0.037 A 
ATOM     63  C   UNL A   1      43.765  28.453  34.635  1.00  0.00     0.037 A 
ATOM     64  C   UNL A   1      38.487  32.440  34.356  1.00  0.00     0.049 A 
ATOM     65  C   UNL A   1      43.642  29.737  35.477  1.00  0.00     0.074 A 
ATOM     66  C   UNL A   1      37.953  31.610  35.332  1.00  0.00     0.029 A 
ATOM     67  N   UNL A   1      39.820  32.622  34.751  1.00  0.00    -0.354 N 
ATOM     68  N   UNL A   1      42.703  30.640  35.272  1.00  0.00    -0.248 NA
ATOM     69  C   UNL A   1      44.377  30.041  36.699  1.00  0.00     0.031 C 
ATOM     70  C   UNL A   1      38.977  31.290  36.281  1.00  0.00     0.029 A 
ATOM     71  C   UNL A   1      40.143  31.940  35.908  1.00  0.00     0.049 A 
ATOM     72  H   UNL A   1      40.460  33.180  34.254  1.00  0.00     0.167 HD
ATOM     73  C   UNL A   1      42.531  31.438  36.370  1.00  0.00     0.074 A 
ATOM     74  C   UNL A   1      43.719  31.129  37.160  1.00  0.00     0.031 C 
ATOM     75  C   UNL A   1      41.409  32.208  36.603  1.00  0.00     0.037 A 
BRANCH  62  76
ATOM     76  C   UNL A   1      36.618  33.568  32.789  1.00  0.00     0.058 A 
ATOM     77  C   UNL A   1      36.392  34.970  32.752  1.00  0.00     0.135 A 
ATOM     78  C   UNL A   1      35.422  32.832  32.606  1.00  0.00     0.135 A 
ATOM     79  F   UNL A   1      37.399  35.847  32.832  1.00  0.00    -0.206 F 
ATOM     80  C   UNL A   1      35.125  35.567  32.598  1.00  0.00     0.059 A 
ATOM     81  C   UNL A   1      34.146  33.403  32.443  1.00  0.00     0.059 A 
ATOM     82  F   UNL A   1      35.406  31.504  32.531  1.00  0.00    -0.206 F 
ATOM     83  C   UNL A   1      34.001  34.776  32.439  1.00  0.00     0.060 A 
BRANCH  83  84
ATOM     84  S   UNL A   1      32.392  35.545  32.154  1.00  0.00     0.124 S 
ATOM     85  O   UNL A   1      32.249  35.443  30.706  1.00  0.00    -0.237 OA
ATOM     86  O   UNL A   1      31.500  34.699  32.941  1.00  0.00    -0.237 OA
ATOM     87  O   UNL A   1      32.565  36.904  32.664  1.00  0.00    -0.744 OA
ENDBRANCH  83  84
ENDBRANCH  62  76
BRANCH  63  88
ATOM     88  C   UNL A   1      44.851  27.735  33.869  1.00  0.00     0.058 A 
ATOM     89  C   UNL A   1      44.755  26.314  33.921  1.00  0.00     0.135 A 
ATOM     90  C   UNL A   1      45.330  28.264  32.655  1.00  0.00     0.135 A 
ATOM     91  F   UNL A   1      44.317  25.722  35.046  1.00  0.00    -0.206 F 
ATOM     92  C   UNL A   1      44.879  25.505  32.785  1.00  0.00     0.059 A 
ATOM     93  C   UNL A   1      45.470  27.463  31.503  1.00  0.00     0.059 A 
ATOM     94  F   UNL A   1      45.445  29.593  32.509  1.00  0.00    -0.206 F 
ATOM     95  C   UNL A   1      45.175  26.097  31.562  1.00  0.00     0.060 A 
BRANCH  95  96
ATOM     96  S   UNL A   1      44.945  25.114  30.046  1.00  0.00     0.124 S 
ATOM     97  O   UNL A   1      46.297  24.646  29.774  1.00  0.00    -0.237 OA
ATOM     98  O   UNL A   1      43.989  24.091  30.468  1.00  0.00    -0.237 OA
ATOM     99  O   UNL A   1      44.409  26.083  29.100  1.00  0.00    -0.744 OA
ENDBRANCH  95  96
ENDBRANCH  63  88
BRANCH  75 100
ATOM    100  C   UNL A   1      41.376  33.397  37.530  1.00  0.00     0.058 A 
ATOM    101  C   UNL A   1      41.519  34.726  37.138  1.00  0.00     0.135 A 
ATOM    102  C   UNL A   1      41.140  33.190  38.919  1.00  0.00     0.135 A 
ATOM    103  F   UNL A   1      41.985  35.042  35.921  1.00  0.00    -0.206 F 
ATOM    104  C   UNL A   1      41.209  35.777  38.000  1.00  0.00     0.059 A 
ATOM    105  C   UNL A   1      40.903  34.217  39.810  1.00  0.00     0.059 A 
ATOM    106  F   UNL A   1      41.079  31.974  39.473  1.00  0.00    -0.206 F 
ATOM    107  C   UNL A   1      40.853  35.505  39.321  1.00  0.00     0.060 A 
BRANCH 107 108
ATOM    108  S   UNL A   1      40.289  36.828  40.392  1.00  0.00     0.124 S 
ATOM    109  O   UNL A   1      41.306  36.831  41.439  1.00  0.00    -0.237 OA
ATOM    110  O   UNL A   1      40.315  37.965  39.478  1.00  0.00    -0.237 OA
ATOM    111  O   UNL A   1      38.962  36.389  40.813  1.00  0.00    -0.744 OA
ENDBRANCH 107 108
ENDBRANCH  75 100
ENDBRANCH  49  50
ENDBRANCH  42  44
ENDBRANCH  41  42
ENDBRANCH  40  41
ENDBRANCH  39  40
ENDBRANCH  38  39
ENDBRANCH  37  38
ENDBRANCH  36  37
ENDBRANCH   1  36
TORSDOF 26
ENDMDL
