MODEL 1
REMARK VINA RESULT:      -7.7      0.000      0.000
REMARK SMILES CC(C)C[C@H](CNC(=O)NCC1(C)CCCC1)C(=O)OCCOCCOCCOCCOC(=O)c1ccc(-c2c3nc(c(-c4c(F)cc(S(=O)(=O)[O-])cc4F)c4ccc([nH]4)c(-c4c(F)cc(S(=O)(=O)[O-])cc4F)c4nc(c(-c5c(F)cc(S(=O)(=O)[O-])cc5F)c5ccc2[nH]5)C=C4)C=C3)cc1
REMARK SMILES IDX 25 1 24 2 23 3 22 4 21 5 20 6 18 7 19 8 5 9 4 10 2 11 1 12
REMARK SMILES IDX 3 13 6 14 7 15 8 16 9 18 10 19 11 21 12 22 13 23 14 24 17 25
REMARK SMILES IDX 15 26 16 27 26 28 27 29 28 30 29 31 30 32 31 33 32 34 33 35
REMARK SMILES IDX 34 36 35 37 36 38 100 39 37 40 99 41 38 42 39 43 40 44 93 45
REMARK SMILES IDX 41 46 98 47 92 48 94 49 42 50 97 51 91 52 90 53 43 55 77 56
REMARK SMILES IDX 56 57 76 58 57 59 60 60 75 61 95 62 58 63 59 64 74 66 96 67
REMARK SMILES IDX 61 68 44 69 45 70 54 71 46 72 47 73 53 74 55 75 48 76 49 77
REMARK SMILES IDX 50 78 51 79 52 80 78 81 79 82 88 83 80 84 81 85 87 86 89 87
REMARK SMILES IDX 82 88 83 89 84 90 85 91 86 92 62 93 63 94 72 95 64 96 65 97
REMARK SMILES IDX 71 98 73 99 66 100 67 101 68 102 69 103 70 104
REMARK H PARENT 7 17 10 20 94 54 60 65
REMARK Flexibility Score: inf
ROOT
ATOM      1  C   UNL A   1      35.012  29.965  27.981  1.00  0.00     0.188 C 
ENDROOT
BRANCH   1   2
ATOM      2  C   UNL A   1      34.599  29.293  26.664  1.00  0.00     0.188 C 
BRANCH   2   3
ATOM      3  O   UNL A   1      33.243  29.195  26.248  1.00  0.00    -0.376 OA
BRANCH   3   4
ATOM      4  C   UNL A   1      32.344  28.229  26.776  1.00  0.00     0.202 C 
BRANCH   4   5
ATOM      5  C   UNL A   1      31.845  27.047  25.940  1.00  0.00     0.261 C 
BRANCH   5   6
ATOM      6  O   UNL A   1      31.887  25.769  26.583  1.00  0.00    -0.463 OA
BRANCH   6   7
ATOM      7  C   UNL A   1      30.924  24.903  26.209  1.00  0.00     0.310 C 
ATOM      8  O   UNL A   1      29.741  24.987  26.526  1.00  0.00    -0.252 OA
BRANCH   7   9
ATOM      9  C   UNL A   1      31.446  23.751  25.377  1.00  0.00     0.119 C 
BRANCH   9  10
ATOM     10  C   UNL A   1      31.226  24.001  23.880  1.00  0.00     0.020 C 
BRANCH  10  11
ATOM     11  C   UNL A   1      32.482  24.344  23.060  1.00  0.00    -0.017 C 
ATOM     12  C   UNL A   1      32.913  23.189  22.145  1.00  0.00     0.007 C 
ATOM     13  C   UNL A   1      32.189  25.571  22.197  1.00  0.00     0.007 C 
ENDBRANCH  10  11
ENDBRANCH   9  10
BRANCH   9  14
ATOM     14  C   UNL A   1      31.151  22.321  25.901  1.00  0.00     0.133 C 
BRANCH  14  15
ATOM     15  N   UNL A   1      31.963  21.224  25.387  1.00  0.00    -0.337 N 
ATOM     16  C   UNL A   1      32.992  20.520  25.865  1.00  0.00     0.314 C 
ATOM     17  H   UNL A   1      31.692  20.938  24.484  1.00  0.00     0.165 HD
ATOM     18  O   UNL A   1      32.962  19.305  25.628  1.00  0.00    -0.249 OA
ATOM     19  N   UNL A   1      34.058  20.933  26.552  1.00  0.00    -0.338 N 
ATOM     20  H   UNL A   1      34.379  20.181  27.102  1.00  0.00     0.165 HD
BRANCH  19  21
ATOM     21  C   UNL A   1      34.942  22.100  26.797  1.00  0.00     0.124 C 
BRANCH  21  22
ATOM     22  C   UNL A   1      35.703  22.713  25.613  1.00  0.00    -0.015 C 
ATOM     23  C   UNL A   1      35.058  24.080  25.307  1.00  0.00     0.013 C 
ATOM     24  C   UNL A   1      37.219  23.001  25.815  1.00  0.00     0.008 C 
ATOM     25  C   UNL A   1      35.803  21.627  24.535  1.00  0.00     0.008 C 
ATOM     26  C   UNL A   1      38.019  21.780  25.357  1.00  0.00     0.001 C 
ATOM     27  C   UNL A   1      36.990  20.760  24.936  1.00  0.00     0.001 C 
ENDBRANCH  21  22
ENDBRANCH  19  21
ENDBRANCH  14  15
ENDBRANCH   9  14
ENDBRANCH   7   9
ENDBRANCH   6   7
ENDBRANCH   5   6
ENDBRANCH   4   5
ENDBRANCH   3   4
ENDBRANCH   2   3
ENDBRANCH   1   2
BRANCH   1  28
ATOM     28  O   UNL A   1      36.050  29.306  28.672  1.00  0.00    -0.377 OA
BRANCH  28  29
ATOM     29  C   UNL A   1      37.293  30.001  28.740  1.00  0.00     0.188 C 
BRANCH  29  30
ATOM     30  C   UNL A   1      38.304  29.763  27.595  1.00  0.00     0.188 C 
BRANCH  30  31
ATOM     31  O   UNL A   1      39.194  28.677  27.831  1.00  0.00    -0.376 OA
BRANCH  31  32
ATOM     32  C   UNL A   1      40.336  28.567  26.992  1.00  0.00     0.202 C 
BRANCH  32  33
ATOM     33  C   UNL A   1      40.912  27.155  26.791  1.00  0.00     0.261 C 
BRANCH  33  34
ATOM     34  O   UNL A   1      42.288  27.077  26.388  1.00  0.00    -0.460 OA
BRANCH  34  35
ATOM     35  C   UNL A   1      43.138  26.406  27.192  1.00  0.00     0.338 C 
ATOM     36  O   UNL A   1      43.792  25.418  26.901  1.00  0.00    -0.246 OA
BRANCH  35  37
ATOM     37  C   UNL A   1      43.319  27.195  28.429  1.00  0.00     0.060 A 
ATOM     38  C   UNL A   1      42.826  26.678  29.635  1.00  0.00     0.016 A 
ATOM     39  C   UNL A   1      43.955  28.439  28.400  1.00  0.00     0.016 A 
ATOM     40  C   UNL A   1      42.913  27.430  30.805  1.00  0.00     0.010 A 
ATOM     41  C   UNL A   1      44.017  29.204  29.567  1.00  0.00     0.010 A 
ATOM     42  C   UNL A   1      43.450  28.722  30.760  1.00  0.00    -0.014 A 
BRANCH  42  43
ATOM     43  C   UNL A   1      43.149  29.658  31.870  1.00  0.00     0.031 A 
ATOM     44  C   UNL A   1      41.896  30.489  31.762  1.00  0.00     0.074 A 
ATOM     45  C   UNL A   1      43.926  29.741  32.964  1.00  0.00     0.049 A 
ATOM     46  N   UNL A   1      41.412  31.381  32.584  1.00  0.00    -0.248 NA
ATOM     47  C   UNL A   1      41.080  30.279  30.553  1.00  0.00     0.031 C 
ATOM     48  C   UNL A   1      45.131  28.951  33.208  1.00  0.00     0.029 A 
ATOM     49  N   UNL A   1      43.811  30.536  34.076  1.00  0.00    -0.354 N 
ATOM     50  C   UNL A   1      40.245  31.846  31.989  1.00  0.00     0.074 A 
ATOM     51  C   UNL A   1      40.111  31.163  30.723  1.00  0.00     0.031 C 
ATOM     52  C   UNL A   1      45.647  29.306  34.399  1.00  0.00     0.029 A 
ATOM     53  C   UNL A   1      44.828  30.368  34.983  1.00  0.00     0.049 A 
ATOM     54  H   UNL A   1      43.068  31.168  34.211  1.00  0.00     0.167 HD
ATOM     55  C   UNL A   1      39.358  32.755  32.458  1.00  0.00     0.037 A 
ATOM     56  C   UNL A   1      45.074  31.010  36.144  1.00  0.00     0.037 A 
ATOM     57  C   UNL A   1      39.503  33.439  33.715  1.00  0.00     0.049 A 
ATOM     58  C   UNL A   1      44.115  32.075  36.613  1.00  0.00     0.074 A 
ATOM     59  C   UNL A   1      38.661  34.373  34.290  1.00  0.00     0.029 A 
ATOM     60  N   UNL A   1      40.571  33.272  34.586  1.00  0.00    -0.354 N 
ATOM     61  N   UNL A   1      43.005  32.497  36.052  1.00  0.00    -0.248 NA
ATOM     62  C   UNL A   1      44.439  32.749  37.878  1.00  0.00     0.031 C 
ATOM     63  C   UNL A   1      39.249  34.814  35.480  1.00  0.00     0.029 A 
ATOM     64  C   UNL A   1      40.423  34.104  35.682  1.00  0.00     0.049 A 
ATOM     65  H   UNL A   1      41.323  32.652  34.446  1.00  0.00     0.167 HD
ATOM     66  C   UNL A   1      42.479  33.455  36.915  1.00  0.00     0.074 A 
ATOM     67  C   UNL A   1      43.393  33.549  38.035  1.00  0.00     0.031 C 
ATOM     68  C   UNL A   1      41.339  34.182  36.796  1.00  0.00     0.037 A 
BRANCH  55  69
ATOM     69  C   UNL A   1      38.186  33.092  31.576  1.00  0.00     0.058 A 
ATOM     70  C   UNL A   1      36.918  32.517  31.766  1.00  0.00     0.135 A 
ATOM     71  C   UNL A   1      38.340  33.991  30.508  1.00  0.00     0.135 A 
ATOM     72  F   UNL A   1      36.717  31.634  32.757  1.00  0.00    -0.206 F 
ATOM     73  C   UNL A   1      35.861  32.784  30.903  1.00  0.00     0.059 A 
ATOM     74  C   UNL A   1      37.287  34.299  29.652  1.00  0.00     0.059 A 
ATOM     75  F   UNL A   1      39.530  34.567  30.276  1.00  0.00    -0.206 F 
ATOM     76  C   UNL A   1      36.057  33.673  29.844  1.00  0.00     0.060 A 
BRANCH  76  77
ATOM     77  S   UNL A   1      34.686  33.986  28.713  1.00  0.00     0.124 S 
ATOM     78  O   UNL A   1      34.513  35.428  28.856  1.00  0.00    -0.237 OA
ATOM     79  O   UNL A   1      35.228  33.537  27.434  1.00  0.00    -0.237 OA
ATOM     80  O   UNL A   1      33.605  33.167  29.254  1.00  0.00    -0.744 OA
ENDBRANCH  76  77
ENDBRANCH  55  69
BRANCH  56  81
ATOM     81  C   UNL A   1      46.272  30.651  36.949  1.00  0.00     0.058 A 
ATOM     82  C   UNL A   1      46.224  29.620  37.898  1.00  0.00     0.135 A 
ATOM     83  C   UNL A   1      47.495  31.321  36.775  1.00  0.00     0.135 A 
ATOM     84  F   UNL A   1      45.076  28.961  38.114  1.00  0.00    -0.206 F 
ATOM     85  C   UNL A   1      47.343  29.264  38.646  1.00  0.00     0.059 A 
ATOM     86  C   UNL A   1      48.633  30.965  37.491  1.00  0.00     0.059 A 
ATOM     87  F   UNL A   1      47.595  32.313  35.877  1.00  0.00    -0.206 F 
ATOM     88  C   UNL A   1      48.546  29.936  38.428  1.00  0.00     0.060 A 
BRANCH  88  89
ATOM     89  S   UNL A   1      50.007  29.412  39.351  1.00  0.00     0.124 S 
ATOM     90  O   UNL A   1      49.414  28.591  40.401  1.00  0.00    -0.237 OA
ATOM     91  O   UNL A   1      50.768  28.695  38.333  1.00  0.00    -0.237 OA
ATOM     92  O   UNL A   1      50.597  30.671  39.793  1.00  0.00    -0.744 OA
ENDBRANCH  88  89
ENDBRANCH  56  81
BRANCH  68  93
ATOM     93  C   UNL A   1      40.977  35.105  37.930  1.00  0.00     0.058 A 
ATOM     94  C   UNL A   1      40.197  34.682  39.017  1.00  0.00     0.135 A 
ATOM     95  C   UNL A   1      41.468  36.422  37.951  1.00  0.00     0.135 A 
ATOM     96  F   UNL A   1      39.699  33.435  39.049  1.00  0.00    -0.206 F 
ATOM     97  C   UNL A   1      39.890  35.540  40.070  1.00  0.00     0.059 A 
ATOM     98  C   UNL A   1      41.202  37.286  39.008  1.00  0.00     0.059 A 
ATOM     99  F   UNL A   1      42.232  36.874  36.944  1.00  0.00    -0.206 F 
ATOM    100  C   UNL A   1      40.399  36.841  40.056  1.00  0.00     0.060 A 
BRANCH 100 101
ATOM    101  S   UNL A   1      40.015  37.938  41.437  1.00  0.00     0.124 S 
ATOM    102  O   UNL A   1      41.327  38.498  41.741  1.00  0.00    -0.237 OA
ATOM    103  O   UNL A   1      39.053  38.862  40.844  1.00  0.00    -0.237 OA
ATOM    104  O   UNL A   1      39.468  37.037  42.447  1.00  0.00    -0.744 OA
ENDBRANCH 100 101
ENDBRANCH  68  93
ENDBRANCH  42  43
ENDBRANCH  35  37
ENDBRANCH  34  35
ENDBRANCH  33  34
ENDBRANCH  32  33
ENDBRANCH  31  32
ENDBRANCH  30  31
ENDBRANCH  29  30
ENDBRANCH  28  29
ENDBRANCH   1  28
TORSDOF 29
ENDMDL
MODEL 2
REMARK VINA RESULT:      -7.3      4.183     10.208
REMARK SMILES CC(C)C[C@H](CNC(=O)NCC1(C)CCCC1)C(=O)OCCOCCOCCOCCOC(=O)c1ccc(-c2c3nc(c(-c4c(F)cc(S(=O)(=O)[O-])cc4F)c4ccc([nH]4)c(-c4c(F)cc(S(=O)(=O)[O-])cc4F)c4nc(c(-c5c(F)cc(S(=O)(=O)[O-])cc5F)c5ccc2[nH]5)C=C4)C=C3)cc1
REMARK SMILES IDX 25 1 24 2 23 3 22 4 21 5 20 6 18 7 19 8 5 9 4 10 2 11 1 12
REMARK SMILES IDX 3 13 6 14 7 15 8 16 9 18 10 19 11 21 12 22 13 23 14 24 17 25
REMARK SMILES IDX 15 26 16 27 26 28 27 29 28 30 29 31 30 32 31 33 32 34 33 35
REMARK SMILES IDX 34 36 35 37 36 38 100 39 37 40 99 41 38 42 39 43 40 44 93 45
REMARK SMILES IDX 41 46 98 47 92 48 94 49 42 50 97 51 91 52 90 53 43 55 77 56
REMARK SMILES IDX 56 57 76 58 57 59 60 60 75 61 95 62 58 63 59 64 74 66 96 67
REMARK SMILES IDX 61 68 44 69 45 70 54 71 46 72 47 73 53 74 55 75 48 76 49 77
REMARK SMILES IDX 50 78 51 79 52 80 78 81 79 82 88 83 80 84 81 85 87 86 89 87
REMARK SMILES IDX 82 88 83 89 84 90 85 91 86 92 62 93 63 94 72 95 64 96 65 97
REMARK SMILES IDX 71 98 73 99 66 100 67 101 68 102 69 103 70 104
REMARK H PARENT 7 17 10 20 94 54 60 65
REMARK Flexibility Score: inf
ROOT
ATOM      1  C   UNL A   1      45.622  22.840  24.908  1.00  0.00     0.188 C 
ENDROOT
BRANCH   1   2
ATOM      2  C   UNL A   1      45.951  21.353  24.706  1.00  0.00     0.188 C 
BRANCH   2   3
ATOM      3  O   UNL A   1      45.308  20.321  25.444  1.00  0.00    -0.376 OA
BRANCH   3   4
ATOM      4  C   UNL A   1      44.096  19.713  25.019  1.00  0.00     0.202 C 
BRANCH   4   5
ATOM      5  C   UNL A   1      42.909  19.526  25.967  1.00  0.00     0.261 C 
BRANCH   5   6
ATOM      6  O   UNL A   1      41.787  20.383  25.735  1.00  0.00    -0.463 OA
BRANCH   6   7
ATOM      7  C   UNL A   1      41.412  21.142  26.785  1.00  0.00     0.310 C 
ATOM      8  O   UNL A   1      40.847  20.722  27.791  1.00  0.00    -0.252 OA
BRANCH   7   9
ATOM      9  C   UNL A   1      41.714  22.613  26.596  1.00  0.00     0.119 C 
BRANCH   9  10
ATOM     10  C   UNL A   1      42.977  23.024  27.363  1.00  0.00     0.020 C 
BRANCH  10  11
ATOM     11  C   UNL A   1      42.751  23.657  28.747  1.00  0.00    -0.017 C 
ATOM     12  C   UNL A   1      43.606  22.993  29.837  1.00  0.00     0.007 C 
ATOM     13  C   UNL A   1      43.112  25.141  28.677  1.00  0.00     0.007 C 
ENDBRANCH  10  11
ENDBRANCH   9  10
BRANCH   9  14
ATOM     14  C   UNL A   1      40.508  23.587  26.656  1.00  0.00     0.133 C 
BRANCH  14  15
ATOM     15  N   UNL A   1      40.546  24.775  25.811  1.00  0.00    -0.337 N 
ATOM     16  C   UNL A   1      40.903  26.047  26.004  1.00  0.00     0.314 C 
ATOM     17  H   UNL A   1      40.240  24.600  24.892  1.00  0.00     0.165 HD
ATOM     18  O   UNL A   1      41.535  26.570  25.075  1.00  0.00    -0.249 OA
ATOM     19  N   UNL A   1      40.671  26.846  27.046  1.00  0.00    -0.338 N 
ATOM     20  H   UNL A   1      41.387  27.523  27.080  1.00  0.00     0.165 HD
BRANCH  19  21
ATOM     21  C   UNL A   1      39.739  27.100  28.173  1.00  0.00     0.124 C 
BRANCH  21  22
ATOM     22  C   UNL A   1      40.116  28.155  29.222  1.00  0.00    -0.015 C 
ATOM     23  C   UNL A   1      41.458  28.778  28.788  1.00  0.00     0.013 C 
ATOM     24  C   UNL A   1      39.140  29.352  29.409  1.00  0.00     0.008 C 
ATOM     25  C   UNL A   1      39.959  27.496  30.597  1.00  0.00     0.008 C 
ATOM     26  C   UNL A   1      38.133  29.002  30.507  1.00  0.00     0.001 C 
ATOM     27  C   UNL A   1      38.476  27.595  30.932  1.00  0.00     0.001 C 
ENDBRANCH  21  22
ENDBRANCH  19  21
ENDBRANCH  14  15
ENDBRANCH   9  14
ENDBRANCH   7   9
ENDBRANCH   6   7
ENDBRANCH   5   6
ENDBRANCH   4   5
ENDBRANCH   3   4
ENDBRANCH   2   3
ENDBRANCH   1   2
BRANCH   1  28
ATOM     28  O   UNL A   1      46.662  23.594  25.489  1.00  0.00    -0.377 OA
BRANCH  28  29
ATOM     29  C   UNL A   1      47.150  24.685  24.711  1.00  0.00     0.188 C 
BRANCH  29  30
ATOM     30  C   UNL A   1      47.852  25.838  25.464  1.00  0.00     0.188 C 
BRANCH  30  31
ATOM     31  O   UNL A   1      47.068  27.023  25.559  1.00  0.00    -0.376 OA
BRANCH  31  32
ATOM     32  C   UNL A   1      47.058  27.707  26.806  1.00  0.00     0.202 C 
BRANCH  32  33
ATOM     33  C   UNL A   1      48.080  27.241  27.856  1.00  0.00     0.261 C 
BRANCH  33  34
ATOM     34  O   UNL A   1      47.640  27.249  29.223  1.00  0.00    -0.460 OA
BRANCH  34  35
ATOM     35  C   UNL A   1      46.627  26.424  29.559  1.00  0.00     0.338 C 
ATOM     36  O   UNL A   1      46.557  25.226  29.338  1.00  0.00    -0.246 OA
BRANCH  35  37
ATOM     37  C   UNL A   1      45.703  27.168  30.441  1.00  0.00     0.060 A 
ATOM     38  C   UNL A   1      45.671  28.566  30.357  1.00  0.00     0.016 A 
ATOM     39  C   UNL A   1      44.887  26.495  31.355  1.00  0.00     0.016 A 
ATOM     40  C   UNL A   1      44.867  29.301  31.226  1.00  0.00     0.010 A 
ATOM     41  C   UNL A   1      44.103  27.232  32.245  1.00  0.00     0.010 A 
ATOM     42  C   UNL A   1      44.131  28.639  32.216  1.00  0.00    -0.014 A 
BRANCH  42  43
ATOM     43  C   UNL A   1      43.642  29.415  33.381  1.00  0.00     0.031 A 
ATOM     44  C   UNL A   1      44.537  29.493  34.592  1.00  0.00     0.074 A 
ATOM     45  C   UNL A   1      42.471  30.073  33.359  1.00  0.00     0.049 A 
ATOM     46  N   UNL A   1      44.344  30.097  35.734  1.00  0.00    -0.248 NA
ATOM     47  C   UNL A   1      45.827  28.789  34.493  1.00  0.00     0.031 C 
ATOM     48  C   UNL A   1      41.547  30.118  32.228  1.00  0.00     0.029 A 
ATOM     49  N   UNL A   1      41.861  30.832  34.325  1.00  0.00    -0.354 N 
ATOM     50  C   UNL A   1      45.480  29.835  36.492  1.00  0.00     0.074 A 
ATOM     51  C   UNL A   1      46.341  28.993  35.694  1.00  0.00     0.031 C 
ATOM     52  C   UNL A   1      40.481  30.865  32.569  1.00  0.00     0.029 A 
ATOM     53  C   UNL A   1      40.635  31.323  33.950  1.00  0.00     0.049 A 
ATOM     54  H   UNL A   1      42.265  31.007  35.206  1.00  0.00     0.167 HD
ATOM     55  C   UNL A   1      45.784  30.265  37.740  1.00  0.00     0.037 A 
ATOM     56  C   UNL A   1      39.736  32.046  34.649  1.00  0.00     0.037 A 
ATOM     57  C   UNL A   1      44.917  31.095  38.533  1.00  0.00     0.049 A 
ATOM     58  C   UNL A   1      40.059  32.452  36.065  1.00  0.00     0.074 A 
ATOM     59  C   UNL A   1      45.129  31.594  39.805  1.00  0.00     0.029 A 
ATOM     60  N   UNL A   1      43.663  31.537  38.133  1.00  0.00    -0.354 N 
ATOM     61  N   UNL A   1      41.142  32.214  36.769  1.00  0.00    -0.248 NA
ATOM     62  C   UNL A   1      39.038  33.228  36.783  1.00  0.00     0.031 C 
ATOM     63  C   UNL A   1      43.979  32.288  40.197  1.00  0.00     0.029 A 
ATOM     64  C   UNL A   1      43.078  32.281  39.143  1.00  0.00     0.049 A 
ATOM     65  H   UNL A   1      43.251  31.349  37.259  1.00  0.00     0.167 HD
ATOM     66  C   UNL A   1      40.950  32.847  37.995  1.00  0.00     0.074 A 
ATOM     67  C   UNL A   1      39.646  33.476  37.935  1.00  0.00     0.031 C 
ATOM     68  C   UNL A   1      41.780  32.909  39.066  1.00  0.00     0.037 A 
BRANCH  55  69
ATOM     69  C   UNL A   1      47.086  29.796  38.332  1.00  0.00     0.058 A 
ATOM     70  C   UNL A   1      48.278  30.526  38.189  1.00  0.00     0.135 A 
ATOM     71  C   UNL A   1      47.145  28.583  39.037  1.00  0.00     0.135 A 
ATOM     72  F   UNL A   1      48.286  31.682  37.505  1.00  0.00    -0.206 F 
ATOM     73  C   UNL A   1      49.487  30.048  38.681  1.00  0.00     0.059 A 
ATOM     74  C   UNL A   1      48.338  28.102  39.568  1.00  0.00     0.059 A 
ATOM     75  F   UNL A   1      46.039  27.842  39.201  1.00  0.00    -0.206 F 
ATOM     76  C   UNL A   1      49.508  28.832  39.366  1.00  0.00     0.060 A 
BRANCH  76  77
ATOM     77  S   UNL A   1      51.090  28.208  39.971  1.00  0.00     0.124 S 
ATOM     78  O   UNL A   1      51.008  28.536  41.391  1.00  0.00    -0.237 OA
ATOM     79  O   UNL A   1      51.011  26.788  39.644  1.00  0.00    -0.237 OA
ATOM     80  O   UNL A   1      52.072  28.970  39.206  1.00  0.00    -0.744 OA
ENDBRANCH  76  77
ENDBRANCH  55  69
BRANCH  56  81
ATOM     81  C   UNL A   1      38.452  32.446  34.013  1.00  0.00     0.058 A 
ATOM     82  C   UNL A   1      38.242  33.760  33.569  1.00  0.00     0.135 A 
ATOM     83  C   UNL A   1      37.414  31.519  33.822  1.00  0.00     0.135 A 
ATOM     84  F   UNL A   1      39.196  34.686  33.745  1.00  0.00    -0.206 F 
ATOM     85  C   UNL A   1      37.051  34.142  32.959  1.00  0.00     0.059 A 
ATOM     86  C   UNL A   1      36.225  31.871  33.190  1.00  0.00     0.059 A 
ATOM     87  F   UNL A   1      37.565  30.248  34.226  1.00  0.00    -0.206 F 
ATOM     88  C   UNL A   1      36.052  33.187  32.764  1.00  0.00     0.060 A 
BRANCH  88  89
ATOM     89  S   UNL A   1      34.544  33.680  31.902  1.00  0.00     0.124 S 
ATOM     90  O   UNL A   1      34.925  34.979  31.359  1.00  0.00    -0.237 OA
ATOM     91  O   UNL A   1      34.385  32.603  30.929  1.00  0.00    -0.237 OA
ATOM     92  O   UNL A   1      33.542  33.709  32.963  1.00  0.00    -0.744 OA
ENDBRANCH  88  89
ENDBRANCH  56  81
BRANCH  68  93
ATOM     93  C   UNL A   1      41.337  33.733  40.247  1.00  0.00     0.058 A 
ATOM     94  C   UNL A   1      41.593  35.109  40.336  1.00  0.00     0.135 A 
ATOM     95  C   UNL A   1      40.593  33.138  41.281  1.00  0.00     0.135 A 
ATOM     96  F   UNL A   1      42.301  35.730  39.378  1.00  0.00    -0.206 F 
ATOM     97  C   UNL A   1      41.156  35.862  41.423  1.00  0.00     0.059 A 
ATOM     98  C   UNL A   1      40.118  33.877  42.360  1.00  0.00     0.059 A 
ATOM     99  F   UNL A   1      40.305  31.828  41.240  1.00  0.00    -0.206 F 
ATOM    100  C   UNL A   1      40.418  35.236  42.431  1.00  0.00     0.060 A 
BRANCH 100 101
ATOM    101  S   UNL A   1      39.836  36.226  43.823  1.00  0.00     0.124 S 
ATOM    102  O   UNL A   1      40.548  35.611  44.938  1.00  0.00    -0.237 OA
ATOM    103  O   UNL A   1      40.273  37.569  43.455  1.00  0.00    -0.237 OA
ATOM    104  O   UNL A   1      38.392  36.018  43.810  1.00  0.00    -0.744 OA
ENDBRANCH 100 101
ENDBRANCH  68  93
ENDBRANCH  42  43
ENDBRANCH  35  37
ENDBRANCH  34  35
ENDBRANCH  33  34
ENDBRANCH  32  33
ENDBRANCH  31  32
ENDBRANCH  30  31
ENDBRANCH  29  30
ENDBRANCH  28  29
ENDBRANCH   1  28
TORSDOF 29
ENDMDL
MODEL 3
REMARK VINA RESULT:      -7.1      4.221      6.154
REMARK SMILES CC(C)C[C@H](CNC(=O)NCC1(C)CCCC1)C(=O)OCCOCCOCCOCCOC(=O)c1ccc(-c2c3nc(c(-c4c(F)cc(S(=O)(=O)[O-])cc4F)c4ccc([nH]4)c(-c4c(F)cc(S(=O)(=O)[O-])cc4F)c4nc(c(-c5c(F)cc(S(=O)(=O)[O-])cc5F)c5ccc2[nH]5)C=C4)C=C3)cc1
REMARK SMILES IDX 25 1 24 2 23 3 22 4 21 5 20 6 18 7 19 8 5 9 4 10 2 11 1 12
REMARK SMILES IDX 3 13 6 14 7 15 8 16 9 18 10 19 11 21 12 22 13 23 14 24 17 25
REMARK SMILES IDX 15 26 16 27 26 28 27 29 28 30 29 31 30 32 31 33 32 34 33 35
REMARK SMILES IDX 34 36 35 37 36 38 100 39 37 40 99 41 38 42 39 43 40 44 93 45
REMARK SMILES IDX 41 46 98 47 92 48 94 49 42 50 97 51 91 52 90 53 43 55 77 56
REMARK SMILES IDX 56 57 76 58 57 59 60 60 75 61 95 62 58 63 59 64 74 66 96 67
REMARK SMILES IDX 61 68 44 69 45 70 54 71 46 72 47 73 53 74 55 75 48 76 49 77
REMARK SMILES IDX 50 78 51 79 52 80 78 81 79 82 88 83 80 84 81 85 87 86 89 87
REMARK SMILES IDX 82 88 83 89 84 90 85 91 86 92 62 93 63 94 72 95 64 96 65 97
REMARK SMILES IDX 71 98 73 99 66 100 67 101 68 102 69 103 70 104
REMARK H PARENT 7 17 10 20 94 54 60 65
REMARK Flexibility Score: inf
ROOT
ATOM      1  C   UNL A   1      41.928  24.847  26.530  1.00  0.00     0.188 C 
ENDROOT
BRANCH   1   2
ATOM      2  C   UNL A   1      40.539  25.472  26.338  1.00  0.00     0.188 C 
BRANCH   2   3
ATOM      3  O   UNL A   1      39.430  25.137  27.163  1.00  0.00    -0.376 OA
BRANCH   3   4
ATOM      4  C   UNL A   1      38.573  24.036  26.890  1.00  0.00     0.202 C 
BRANCH   4   5
ATOM      5  C   UNL A   1      37.292  24.193  26.066  1.00  0.00     0.261 C 
BRANCH   5   6
ATOM      6  O   UNL A   1      37.104  23.237  25.018  1.00  0.00    -0.463 OA
BRANCH   6   7
ATOM      7  C   UNL A   1      36.089  23.501  24.170  1.00  0.00     0.310 C 
ATOM      8  O   UNL A   1      36.114  23.298  22.959  1.00  0.00    -0.252 OA
BRANCH   7   9
ATOM      9  C   UNL A   1      34.893  24.133  24.849  1.00  0.00     0.119 C 
BRANCH   9  10
ATOM     10  C   UNL A   1      33.870  23.073  25.273  1.00  0.00     0.020 C 
BRANCH  10  11
ATOM     11  C   UNL A   1      33.333  23.189  26.711  1.00  0.00    -0.017 C 
ATOM     12  C   UNL A   1      31.850  23.587  26.747  1.00  0.00     0.007 C 
ATOM     13  C   UNL A   1      33.496  21.840  27.410  1.00  0.00     0.007 C 
ENDBRANCH  10  11
ENDBRANCH   9  10
BRANCH   9  14
ATOM     14  C   UNL A   1      34.334  25.432  24.211  1.00  0.00     0.133 C 
BRANCH  14  15
ATOM     15  N   UNL A   1      33.541  25.309  22.993  1.00  0.00    -0.337 N 
ATOM     16  C   UNL A   1      33.276  26.118  21.965  1.00  0.00     0.314 C 
ATOM     17  H   UNL A   1      33.102  24.431  22.910  1.00  0.00     0.165 HD
ATOM     18  O   UNL A   1      33.269  25.579  20.850  1.00  0.00    -0.249 OA
ATOM     19  N   UNL A   1      33.007  27.424  21.959  1.00  0.00    -0.338 N 
ATOM     20  H   UNL A   1      33.279  27.790  21.085  1.00  0.00     0.165 HD
BRANCH  19  21
ATOM     21  C   UNL A   1      32.449  28.533  22.774  1.00  0.00     0.124 C 
BRANCH  21  22
ATOM     22  C   UNL A   1      30.992  28.441  23.249  1.00  0.00    -0.015 C 
ATOM     23  C   UNL A   1      30.134  29.264  22.267  1.00  0.00     0.013 C 
ATOM     24  C   UNL A   1      30.345  27.027  23.289  1.00  0.00     0.008 C 
ATOM     25  C   UNL A   1      30.991  28.751  24.751  1.00  0.00     0.008 C 
ATOM     26  C   UNL A   1      30.560  26.423  24.678  1.00  0.00     0.001 C 
ATOM     27  C   UNL A   1      31.369  27.445  25.439  1.00  0.00     0.001 C 
ENDBRANCH  21  22
ENDBRANCH  19  21
ENDBRANCH  14  15
ENDBRANCH   9  14
ENDBRANCH   7   9
ENDBRANCH   6   7
ENDBRANCH   5   6
ENDBRANCH   4   5
ENDBRANCH   3   4
ENDBRANCH   2   3
ENDBRANCH   1   2
BRANCH   1  28
ATOM     28  O   UNL A   1      42.281  24.611  27.875  1.00  0.00    -0.377 OA
BRANCH  28  29
ATOM     29  C   UNL A   1      43.640  24.251  28.108  1.00  0.00     0.188 C 
BRANCH  29  30
ATOM     30  C   UNL A   1      44.228  23.099  27.262  1.00  0.00     0.188 C 
BRANCH  30  31
ATOM     31  O   UNL A   1      45.632  23.201  27.049  1.00  0.00    -0.376 OA
BRANCH  31  32
ATOM     32  C   UNL A   1      46.073  23.825  25.851  1.00  0.00     0.202 C 
BRANCH  32  33
ATOM     33  C   UNL A   1      46.578  25.273  25.973  1.00  0.00     0.261 C 
BRANCH  33  34
ATOM     34  O   UNL A   1      47.444  25.739  24.927  1.00  0.00    -0.460 OA
BRANCH  34  35
ATOM     35  C   UNL A   1      47.210  26.968  24.423  1.00  0.00     0.338 C 
ATOM     36  O   UNL A   1      47.282  27.302  23.251  1.00  0.00    -0.246 OA
BRANCH  35  37
ATOM     37  C   UNL A   1      46.634  27.803  25.497  1.00  0.00     0.060 A 
ATOM     38  C   UNL A   1      47.502  28.526  26.327  1.00  0.00     0.016 A 
ATOM     39  C   UNL A   1      45.252  27.862  25.696  1.00  0.00     0.016 A 
ATOM     40  C   UNL A   1      46.996  29.262  27.396  1.00  0.00     0.010 A 
ATOM     41  C   UNL A   1      44.746  28.578  26.784  1.00  0.00     0.010 A 
ATOM     42  C   UNL A   1      45.622  29.237  27.666  1.00  0.00    -0.014 A 
BRANCH  42  43
ATOM     43  C   UNL A   1      45.153  29.642  29.013  1.00  0.00     0.031 A 
ATOM     44  C   UNL A   1      44.623  31.044  29.174  1.00  0.00     0.074 A 
ATOM     45  C   UNL A   1      45.145  28.790  30.052  1.00  0.00     0.049 A 
ATOM     46  N   UNL A   1      44.161  31.645  30.238  1.00  0.00    -0.248 NA
ATOM     47  C   UNL A   1      44.616  31.879  27.961  1.00  0.00     0.031 C 
ATOM     48  C   UNL A   1      45.579  27.396  30.007  1.00  0.00     0.029 A 
ATOM     49  N   UNL A   1      44.754  28.981  31.354  1.00  0.00    -0.354 N 
ATOM     50  C   UNL A   1      43.822  32.929  29.826  1.00  0.00     0.074 A 
ATOM     51  C   UNL A   1      44.160  33.031  28.425  1.00  0.00     0.031 C 
ATOM     52  C   UNL A   1      45.434  26.857  31.231  1.00  0.00     0.029 A 
ATOM     53  C   UNL A   1      44.927  27.876  32.150  1.00  0.00     0.049 A 
ATOM     54  H   UNL A   1      44.384  29.832  31.685  1.00  0.00     0.167 HD
ATOM     55  C   UNL A   1      43.270  33.933  30.548  1.00  0.00     0.037 A 
ATOM     56  C   UNL A   1      44.713  27.715  33.472  1.00  0.00     0.037 A 
ATOM     57  C   UNL A   1      42.945  33.828  31.946  1.00  0.00     0.049 A 
ATOM     58  C   UNL A   1      44.169  28.868  34.277  1.00  0.00     0.074 A 
ATOM     59  C   UNL A   1      42.377  34.780  32.772  1.00  0.00     0.029 A 
ATOM     60  N   UNL A   1      43.176  32.704  32.728  1.00  0.00    -0.354 N 
ATOM     61  N   UNL A   1      43.836  30.074  33.876  1.00  0.00    -0.248 NA
ATOM     62  C   UNL A   1      43.968  28.639  35.714  1.00  0.00     0.031 C 
ATOM     63  C   UNL A   1      42.318  34.253  34.067  1.00  0.00     0.029 A 
ATOM     64  C   UNL A   1      42.785  32.947  34.034  1.00  0.00     0.049 A 
ATOM     65  H   UNL A   1      43.560  31.859  32.402  1.00  0.00     0.167 HD
ATOM     66  C   UNL A   1      43.347  30.731  35.002  1.00  0.00     0.074 A 
ATOM     67  C   UNL A   1      43.430  29.788  36.099  1.00  0.00     0.031 C 
ATOM     68  C   UNL A   1      42.866  31.995  35.115  1.00  0.00     0.037 A 
BRANCH  55  69
ATOM     69  C   UNL A   1      43.036  35.241  29.842  1.00  0.00     0.058 A 
ATOM     70  C   UNL A   1      41.852  35.506  29.133  1.00  0.00     0.135 A 
ATOM     71  C   UNL A   1      44.023  36.240  29.858  1.00  0.00     0.135 A 
ATOM     72  F   UNL A   1      40.882  34.580  29.064  1.00  0.00    -0.206 F 
ATOM     73  C   UNL A   1      41.677  36.692  28.427  1.00  0.00     0.059 A 
ATOM     74  C   UNL A   1      43.855  37.447  29.187  1.00  0.00     0.059 A 
ATOM     75  F   UNL A   1      45.176  36.040  30.516  1.00  0.00    -0.206 F 
ATOM     76  C   UNL A   1      42.687  37.655  28.456  1.00  0.00     0.060 A 
BRANCH  76  77
ATOM     77  S   UNL A   1      42.459  39.174  27.510  1.00  0.00     0.124 S 
ATOM     78  O   UNL A   1      41.650  39.971  28.427  1.00  0.00    -0.237 OA
ATOM     79  O   UNL A   1      43.832  39.631  27.317  1.00  0.00    -0.237 OA
ATOM     80  O   UNL A   1      41.777  38.724  26.301  1.00  0.00    -0.744 OA
ENDBRANCH  76  77
ENDBRANCH  55  69
BRANCH  56  81
ATOM     81  C   UNL A   1      45.001  26.404  34.114  1.00  0.00     0.058 A 
ATOM     82  C   UNL A   1      43.992  25.443  34.280  1.00  0.00     0.135 A 
ATOM     83  C   UNL A   1      46.292  26.077  34.559  1.00  0.00     0.135 A 
ATOM     84  F   UNL A   1      42.739  25.713  33.888  1.00  0.00    -0.206 F 
ATOM     85  C   UNL A   1      44.252  24.206  34.865  1.00  0.00     0.059 A 
ATOM     86  C   UNL A   1      46.582  24.838  35.121  1.00  0.00     0.059 A 
ATOM     87  F   UNL A   1      47.294  26.960  34.421  1.00  0.00    -0.206 F 
ATOM     88  C   UNL A   1      45.553  23.909  35.273  1.00  0.00     0.060 A 
BRANCH  88  89
ATOM     89  S   UNL A   1      45.890  22.273  35.959  1.00  0.00     0.124 S 
ATOM     90  O   UNL A   1      47.294  22.089  35.608  1.00  0.00    -0.237 OA
ATOM     91  O   UNL A   1      45.606  22.474  37.376  1.00  0.00    -0.237 OA
ATOM     92  O   UNL A   1      44.946  21.411  35.255  1.00  0.00    -0.744 OA
ENDBRANCH  88  89
ENDBRANCH  56  81
BRANCH  68  93
ATOM     93  C   UNL A   1      42.332  32.422  36.458  1.00  0.00     0.058 A 
ATOM     94  C   UNL A   1      43.165  32.937  37.463  1.00  0.00     0.135 A 
ATOM     95  C   UNL A   1      40.952  32.363  36.719  1.00  0.00     0.135 A 
ATOM     96  F   UNL A   1      44.491  33.014  37.270  1.00  0.00    -0.206 F 
ATOM     97  C   UNL A   1      42.653  33.350  38.691  1.00  0.00     0.059 A 
ATOM     98  C   UNL A   1      40.415  32.801  37.925  1.00  0.00     0.059 A 
ATOM     99  F   UNL A   1      40.108  31.894  35.787  1.00  0.00    -0.206 F 
ATOM    100  C   UNL A   1      41.276  33.278  38.912  1.00  0.00     0.060 A 
BRANCH 100 101
ATOM    101  S   UNL A   1      40.621  33.838  40.498  1.00  0.00     0.124 S 
ATOM    102  O   UNL A   1      41.133  32.815  41.405  1.00  0.00    -0.237 OA
ATOM    103  O   UNL A   1      41.219  35.162  40.633  1.00  0.00    -0.237 OA
ATOM    104  O   UNL A   1      39.176  33.827  40.294  1.00  0.00    -0.744 OA
ENDBRANCH 100 101
ENDBRANCH  68  93
ENDBRANCH  42  43
ENDBRANCH  35  37
ENDBRANCH  34  35
ENDBRANCH  33  34
ENDBRANCH  32  33
ENDBRANCH  31  32
ENDBRANCH  30  31
ENDBRANCH  29  30
ENDBRANCH  28  29
ENDBRANCH   1  28
TORSDOF 29
ENDMDL
