MODEL 1
REMARK VINA RESULT:      -9.9      0.000      0.000
REMARK SMILES O=C(OCCOCCOCCOCCOC(=O)c1ccc(-c2ccc(Cl)c3ccccc23)o1)c1ccc(-c2c3nc(c(-c4c(F)cc(S(=O)(=O)[O-])cc4F)c4ccc([nH]4)c(-c4c(F)cc(S(=O)(=O)[O-])cc4F)c4nc(c(-c5c(F)cc(S(=O)(=O)[O-])cc5F)c5ccc2[nH]5)C=C4)C=C3)cc1
REMARK SMILES IDX 8 1 7 2 6 3 5 4 4 5 3 6 2 7 1 8 34 9 35 10 99 11 36 12 98 13
REMARK SMILES IDX 37 14 38 15 39 16 92 17 40 18 97 19 91 20 93 21 41 22 96 23
REMARK SMILES IDX 90 24 89 25 42 27 76 28 55 29 75 30 56 31 59 32 74 33 94 34
REMARK SMILES IDX 57 35 58 36 73 38 95 39 60 40 43 41 44 42 53 43 45 44 46 45
REMARK SMILES IDX 52 46 54 47 47 48 48 49 49 50 50 51 51 52 77 53 78 54 87 55
REMARK SMILES IDX 79 56 80 57 86 58 88 59 81 60 82 61 83 62 84 63 85 64 61 65
REMARK SMILES IDX 62 66 71 67 63 68 64 69 70 70 72 71 65 72 66 73 67 74 68 75
REMARK SMILES IDX 69 76 9 77 10 78 11 79 12 80 13 81 14 82 15 83 16 84 17 85
REMARK SMILES IDX 18 86 19 87 33 88 20 89 21 90 22 91 23 92 32 93 24 94 27 95
REMARK SMILES IDX 31 96 25 97 28 98 30 99 26 100 29 101
REMARK H PARENT 93 26 59 37
REMARK Flexibility Score: inf
ROOT
ATOM      1  C   UNL A   1      30.422  25.528  25.392  1.00  0.00     0.188 C 
ENDROOT
BRANCH   1   2
ATOM      2  C   UNL A   1      31.566  26.294  26.051  1.00  0.00     0.188 C 
BRANCH   2   3
ATOM      3  O   UNL A   1      31.068  26.858  27.268  1.00  0.00    -0.376 OA
BRANCH   3   4
ATOM      4  C   UNL A   1      31.602  28.128  27.621  1.00  0.00     0.202 C 
BRANCH   4   5
ATOM      5  C   UNL A   1      32.841  28.532  26.818  1.00  0.00     0.261 C 
BRANCH   5   6
ATOM      6  O   UNL A   1      34.021  28.585  27.640  1.00  0.00    -0.460 OA
BRANCH   6   7
ATOM      7  C   UNL A   1      34.655  29.705  28.080  1.00  0.00     0.338 C 
ATOM      8  O   UNL A   1      33.990  30.692  28.388  1.00  0.00    -0.246 OA
BRANCH   7   9
ATOM      9  C   UNL A   1      36.130  29.754  28.275  1.00  0.00     0.060 A 
ATOM     10  C   UNL A   1      37.026  30.246  27.325  1.00  0.00     0.016 A 
ATOM     11  C   UNL A   1      36.638  29.316  29.507  1.00  0.00     0.016 A 
ATOM     12  C   UNL A   1      38.397  30.134  27.507  1.00  0.00     0.010 A 
ATOM     13  C   UNL A   1      38.019  29.269  29.727  1.00  0.00     0.010 A 
ATOM     14  C   UNL A   1      38.905  29.613  28.696  1.00  0.00    -0.014 A 
BRANCH  14  15
ATOM     15  C   UNL A   1      40.339  29.255  28.750  1.00  0.00     0.031 A 
ATOM     16  C   UNL A   1      41.289  30.247  29.362  1.00  0.00     0.074 A 
ATOM     17  C   UNL A   1      40.754  28.022  28.401  1.00  0.00     0.049 A 
ATOM     18  N   UNL A   1      42.590  30.204  29.455  1.00  0.00    -0.248 NA
ATOM     19  C   UNL A   1      40.687  31.457  29.950  1.00  0.00     0.031 C 
ATOM     20  C   UNL A   1      39.890  26.946  27.911  1.00  0.00     0.029 A 
ATOM     21  N   UNL A   1      41.999  27.454  28.446  1.00  0.00    -0.354 N 
ATOM     22  C   UNL A   1      42.964  31.404  30.049  1.00  0.00     0.074 A 
ATOM     23  C   UNL A   1      41.755  32.151  30.306  1.00  0.00     0.031 C 
ATOM     24  C   UNL A   1      40.625  25.832  27.752  1.00  0.00     0.029 A 
ATOM     25  C   UNL A   1      42.018  26.134  28.059  1.00  0.00     0.049 A 
ATOM     26  H   UNL A   1      42.805  27.944  28.730  1.00  0.00     0.167 HD
ATOM     27  C   UNL A   1      44.209  31.843  30.343  1.00  0.00     0.037 A 
ATOM     28  C   UNL A   1      43.054  25.280  27.949  1.00  0.00     0.037 A 
ATOM     29  C   UNL A   1      45.391  31.058  30.123  1.00  0.00     0.049 A 
ATOM     30  C   UNL A   1      44.432  25.791  28.275  1.00  0.00     0.074 A 
ATOM     31  C   UNL A   1      46.715  31.410  30.304  1.00  0.00     0.029 A 
ATOM     32  N   UNL A   1      45.378  29.737  29.693  1.00  0.00    -0.354 N 
ATOM     33  N   UNL A   1      44.789  26.975  28.717  1.00  0.00    -0.248 NA
ATOM     34  C   UNL A   1      45.551  24.863  28.068  1.00  0.00     0.031 C 
ATOM     35  C   UNL A   1      47.505  30.302  29.971  1.00  0.00     0.029 A 
ATOM     36  C   UNL A   1      46.670  29.253  29.613  1.00  0.00     0.049 A 
ATOM     37  H   UNL A   1      44.567  29.222  29.479  1.00  0.00     0.167 HD
ATOM     38  C   UNL A   1      46.172  26.934  28.845  1.00  0.00     0.074 A 
ATOM     39  C   UNL A   1      46.584  25.599  28.456  1.00  0.00     0.031 C 
ATOM     40  C   UNL A   1      47.029  27.910  29.235  1.00  0.00     0.037 A 
BRANCH  27  41
ATOM     41  C   UNL A   1      44.329  33.249  30.856  1.00  0.00     0.058 A 
ATOM     42  C   UNL A   1      44.157  33.567  32.213  1.00  0.00     0.135 A 
ATOM     43  C   UNL A   1      44.550  34.305  29.959  1.00  0.00     0.135 A 
ATOM     44  F   UNL A   1      43.908  32.598  33.108  1.00  0.00    -0.206 F 
ATOM     45  C   UNL A   1      44.158  34.887  32.655  1.00  0.00     0.059 A 
ATOM     46  C   UNL A   1      44.576  35.632  30.381  1.00  0.00     0.059 A 
ATOM     47  F   UNL A   1      44.709  34.057  28.649  1.00  0.00    -0.206 F 
ATOM     48  C   UNL A   1      44.354  35.913  31.728  1.00  0.00     0.060 A 
BRANCH  48  49
ATOM     49  S   UNL A   1      44.296  37.626  32.298  1.00  0.00     0.124 S 
ATOM     50  O   UNL A   1      45.694  37.861  32.649  1.00  0.00    -0.237 OA
ATOM     51  O   UNL A   1      43.811  38.336  31.119  1.00  0.00    -0.237 OA
ATOM     52  O   UNL A   1      43.366  37.576  33.422  1.00  0.00    -0.744 OA
ENDBRANCH  48  49
ENDBRANCH  27  41
BRANCH  28  53
ATOM     53  C   UNL A   1      42.834  23.883  27.486  1.00  0.00     0.058 A 
ATOM     54  C   UNL A   1      42.567  22.848  28.396  1.00  0.00     0.135 A 
ATOM     55  C   UNL A   1      42.876  23.552  26.122  1.00  0.00     0.135 A 
ATOM     56  F   UNL A   1      42.526  23.107  29.712  1.00  0.00    -0.206 F 
ATOM     57  C   UNL A   1      42.362  21.536  27.974  1.00  0.00     0.059 A 
ATOM     58  C   UNL A   1      42.649  22.254  25.673  1.00  0.00     0.059 A 
ATOM     59  F   UNL A   1      43.116  24.503  25.206  1.00  0.00    -0.206 F 
ATOM     60  C   UNL A   1      42.404  21.250  26.608  1.00  0.00     0.060 A 
BRANCH  60  61
ATOM     61  S   UNL A   1      42.089  19.559  26.056  1.00  0.00     0.124 S 
ATOM     62  O   UNL A   1      42.389  18.796  27.262  1.00  0.00    -0.237 OA
ATOM     63  O   UNL A   1      40.683  19.612  25.668  1.00  0.00    -0.237 OA
ATOM     64  O   UNL A   1      43.027  19.389  24.950  1.00  0.00    -0.744 OA
ENDBRANCH  60  61
ENDBRANCH  28  53
BRANCH  40  65
ATOM     65  C   UNL A   1      48.483  27.553  29.283  1.00  0.00     0.058 A 
ATOM     66  C   UNL A   1      49.357  27.914  28.248  1.00  0.00     0.135 A 
ATOM     67  C   UNL A   1      49.013  26.894  30.402  1.00  0.00     0.135 A 
ATOM     68  F   UNL A   1      48.890  28.542  27.158  1.00  0.00    -0.206 F 
ATOM     69  C   UNL A   1      50.712  27.614  28.311  1.00  0.00     0.059 A 
ATOM     70  C   UNL A   1      50.368  26.601  30.495  1.00  0.00     0.059 A 
ATOM     71  F   UNL A   1      48.213  26.540  31.421  1.00  0.00    -0.206 F 
ATOM     72  C   UNL A   1      51.207  26.956  29.439  1.00  0.00     0.060 A 
BRANCH  72  73
ATOM     73  S   UNL A   1      52.975  26.602  29.533  1.00  0.00     0.124 S 
ATOM     74  O   UNL A   1      53.200  25.901  28.273  1.00  0.00    -0.237 OA
ATOM     75  O   UNL A   1      53.561  27.936  29.630  1.00  0.00    -0.237 OA
ATOM     76  O   UNL A   1      53.090  25.786  30.738  1.00  0.00    -0.744 OA
ENDBRANCH  72  73
ENDBRANCH  40  65
ENDBRANCH  14  15
ENDBRANCH   7   9
ENDBRANCH   6   7
ENDBRANCH   5   6
ENDBRANCH   4   5
ENDBRANCH   3   4
ENDBRANCH   2   3
ENDBRANCH   1   2
BRANCH   1  77
ATOM     77  O   UNL A   1      29.335  26.363  24.981  1.00  0.00    -0.377 OA
BRANCH  77  78
ATOM     78  C   UNL A   1      29.217  26.576  23.581  1.00  0.00     0.188 C 
BRANCH  78  79
ATOM     79  C   UNL A   1      28.496  27.831  23.065  1.00  0.00     0.188 C 
BRANCH  79  80
ATOM     80  O   UNL A   1      28.938  29.110  23.484  1.00  0.00    -0.376 OA
BRANCH  80  81
ATOM     81  C   UNL A   1      30.160  29.627  22.961  1.00  0.00     0.202 C 
BRANCH  81  82
ATOM     82  C   UNL A   1      31.476  29.121  23.566  1.00  0.00     0.261 C 
BRANCH  82  83
ATOM     83  O   UNL A   1      32.339  28.580  22.545  1.00  0.00    -0.457 OA
BRANCH  83  84
ATOM     84  C   UNL A   1      33.400  27.831  22.967  1.00  0.00     0.374 C 
ATOM     85  O   UNL A   1      34.224  28.187  23.800  1.00  0.00    -0.242 OA
BRANCH  84  86
ATOM     86  C   UNL A   1      33.297  26.509  22.393  1.00  0.00     0.212 A 
ATOM     87  C   UNL A   1      32.809  26.047  21.184  1.00  0.00     0.059 A 
ATOM     88  O   UNL A   1      33.576  25.435  23.206  1.00  0.00    -0.449 OA
ATOM     89  C   UNL A   1      32.751  24.633  21.278  1.00  0.00     0.052 A 
ATOM     90  C   UNL A   1      33.172  24.309  22.550  1.00  0.00     0.135 A 
BRANCH  90  91
ATOM     91  C   UNL A   1      33.237  23.067  23.314  1.00  0.00     0.025 A 
ATOM     92  C   UNL A   1      32.024  22.426  23.601  1.00  0.00     0.014 A 
ATOM     93  C   UNL A   1      34.471  22.512  23.776  1.00  0.00    -0.006 A 
ATOM     94  C   UNL A   1      32.003  21.271  24.372  1.00  0.00     0.022 A 
ATOM     95  C   UNL A   1      34.449  21.318  24.553  1.00  0.00     0.001 A 
ATOM     96  C   UNL A   1      35.736  23.085  23.489  1.00  0.00     0.009 A 
ATOM     97  C   UNL A   1      33.196  20.727  24.851  1.00  0.00     0.048 A 
ATOM     98  C   UNL A   1      35.680  20.768  24.992  1.00  0.00     0.010 A 
ATOM     99  C   UNL A   1      36.933  22.517  23.931  1.00  0.00     0.001 A 
ATOM    100  Cl  UNL A   1      33.054  19.304  25.834  1.00  0.00    -0.084 Cl
ATOM    101  C   UNL A   1      36.906  21.355  24.682  1.00  0.00     0.001 A 
ENDBRANCH  90  91
ENDBRANCH  84  86
ENDBRANCH  83  84
ENDBRANCH  82  83
ENDBRANCH  81  82
ENDBRANCH  80  81
ENDBRANCH  79  80
ENDBRANCH  78  79
ENDBRANCH  77  78
ENDBRANCH   1  77
TORSDOF 24
ENDMDL
MODEL 2
REMARK VINA RESULT:      -9.6      1.057      2.065
REMARK SMILES O=C(OCCOCCOCCOCCOC(=O)c1ccc(-c2ccc(Cl)c3ccccc23)o1)c1ccc(-c2c3nc(c(-c4c(F)cc(S(=O)(=O)[O-])cc4F)c4ccc([nH]4)c(-c4c(F)cc(S(=O)(=O)[O-])cc4F)c4nc(c(-c5c(F)cc(S(=O)(=O)[O-])cc5F)c5ccc2[nH]5)C=C4)C=C3)cc1
REMARK SMILES IDX 8 1 7 2 6 3 5 4 4 5 3 6 2 7 1 8 34 9 35 10 99 11 36 12 98 13
REMARK SMILES IDX 37 14 38 15 39 16 92 17 40 18 97 19 91 20 93 21 41 22 96 23
REMARK SMILES IDX 90 24 89 25 42 27 76 28 55 29 75 30 56 31 59 32 74 33 94 34
REMARK SMILES IDX 57 35 58 36 73 38 95 39 60 40 43 41 44 42 53 43 45 44 46 45
REMARK SMILES IDX 52 46 54 47 47 48 48 49 49 50 50 51 51 52 77 53 78 54 87 55
REMARK SMILES IDX 79 56 80 57 86 58 88 59 81 60 82 61 83 62 84 63 85 64 61 65
REMARK SMILES IDX 62 66 71 67 63 68 64 69 70 70 72 71 65 72 66 73 67 74 68 75
REMARK SMILES IDX 69 76 9 77 10 78 11 79 12 80 13 81 14 82 15 83 16 84 17 85
REMARK SMILES IDX 18 86 19 87 33 88 20 89 21 90 22 91 23 92 32 93 24 94 27 95
REMARK SMILES IDX 31 96 25 97 28 98 30 99 26 100 29 101
REMARK H PARENT 93 26 59 37
REMARK Flexibility Score: inf
ROOT
ATOM      1  C   UNL A   1      29.744  26.609  24.555  1.00  0.00     0.188 C 
ENDROOT
BRANCH   1   2
ATOM      2  C   UNL A   1      30.899  26.247  25.486  1.00  0.00     0.188 C 
BRANCH   2   3
ATOM      3  O   UNL A   1      30.572  26.731  26.792  1.00  0.00    -0.376 OA
BRANCH   3   4
ATOM      4  C   UNL A   1      31.247  27.916  27.196  1.00  0.00     0.202 C 
BRANCH   4   5
ATOM      5  C   UNL A   1      32.633  28.092  26.571  1.00  0.00     0.261 C 
BRANCH   5   6
ATOM      6  O   UNL A   1      33.627  28.430  27.555  1.00  0.00    -0.460 OA
BRANCH   6   7
ATOM      7  C   UNL A   1      34.269  29.622  27.686  1.00  0.00     0.338 C 
ATOM      8  O   UNL A   1      33.625  30.665  27.606  1.00  0.00    -0.246 OA
BRANCH   7   9
ATOM      9  C   UNL A   1      35.722  29.707  27.999  1.00  0.00     0.060 A 
ATOM     10  C   UNL A   1      36.689  30.157  27.098  1.00  0.00     0.016 A 
ATOM     11  C   UNL A   1      36.131  29.351  29.292  1.00  0.00     0.016 A 
ATOM     12  C   UNL A   1      38.041  30.079  27.399  1.00  0.00     0.010 A 
ATOM     13  C   UNL A   1      37.489  29.340  29.628  1.00  0.00     0.010 A 
ATOM     14  C   UNL A   1      38.453  29.638  28.656  1.00  0.00    -0.014 A 
BRANCH  14  15
ATOM     15  C   UNL A   1      39.883  29.308  28.850  1.00  0.00     0.031 A 
ATOM     16  C   UNL A   1      40.739  30.299  29.588  1.00  0.00     0.074 A 
ATOM     17  C   UNL A   1      40.362  28.096  28.510  1.00  0.00     0.049 A 
ATOM     18  N   UNL A   1      42.024  30.280  29.815  1.00  0.00    -0.248 NA
ATOM     19  C   UNL A   1      40.050  31.478  30.145  1.00  0.00     0.031 C 
ATOM     20  C   UNL A   1      39.579  27.018  27.900  1.00  0.00     0.029 A 
ATOM     21  N   UNL A   1      41.608  27.553  28.669  1.00  0.00    -0.354 N 
ATOM     22  C   UNL A   1      42.305  31.468  30.480  1.00  0.00     0.074 A 
ATOM     23  C   UNL A   1      41.058  32.182  30.631  1.00  0.00     0.031 C 
ATOM     24  C   UNL A   1      40.353  25.926  27.786  1.00  0.00     0.029 A 
ATOM     25  C   UNL A   1      41.699  26.247  28.247  1.00  0.00     0.049 A 
ATOM     26  H   UNL A   1      42.368  28.049  29.050  1.00  0.00     0.167 HD
ATOM     27  C   UNL A   1      43.502  31.924  30.917  1.00  0.00     0.037 A 
ATOM     28  C   UNL A   1      42.761  25.418  28.221  1.00  0.00     0.037 A 
ATOM     29  C   UNL A   1      44.719  31.171  30.800  1.00  0.00     0.049 A 
ATOM     30  C   UNL A   1      44.085  25.946  28.706  1.00  0.00     0.074 A 
ATOM     31  C   UNL A   1      46.008  31.544  31.129  1.00  0.00     0.029 A 
ATOM     32  N   UNL A   1      44.782  29.864  30.332  1.00  0.00    -0.354 N 
ATOM     33  N   UNL A   1      44.365  27.123  29.217  1.00  0.00    -0.248 NA
ATOM     34  C   UNL A   1      45.241  25.049  28.590  1.00  0.00     0.031 C 
ATOM     35  C   UNL A   1      46.854  30.463  30.849  1.00  0.00     0.029 A 
ATOM     36  C   UNL A   1      46.087  29.410  30.373  1.00  0.00     0.049 A 
ATOM     37  H   UNL A   1      44.011  29.340  30.018  1.00  0.00     0.167 HD
ATOM     38  C   UNL A   1      45.727  27.106  29.489  1.00  0.00     0.074 A 
ATOM     39  C   UNL A   1      46.210  25.794  29.106  1.00  0.00     0.031 C 
ATOM     40  C   UNL A   1      46.515  28.087  29.996  1.00  0.00     0.037 A 
BRANCH  27  41
ATOM     41  C   UNL A   1      43.534  33.314  31.481  1.00  0.00     0.058 A 
ATOM     42  C   UNL A   1      43.751  34.444  30.676  1.00  0.00     0.135 A 
ATOM     43  C   UNL A   1      43.418  33.510  32.866  1.00  0.00     0.135 A 
ATOM     44  F   UNL A   1      43.903  34.309  29.349  1.00  0.00    -0.206 F 
ATOM     45  C   UNL A   1      43.892  35.714  31.229  1.00  0.00     0.059 A 
ATOM     46  C   UNL A   1      43.536  34.773  33.440  1.00  0.00     0.059 A 
ATOM     47  F   UNL A   1      43.223  32.462  33.683  1.00  0.00    -0.206 F 
ATOM     48  C   UNL A   1      43.797  35.865  32.614  1.00  0.00     0.060 A 
BRANCH  48  49
ATOM     49  S   UNL A   1      44.040  37.505  33.330  1.00  0.00     0.124 S 
ATOM     50  O   UNL A   1      42.938  37.570  34.286  1.00  0.00    -0.237 OA
ATOM     51  O   UNL A   1      45.375  37.402  33.911  1.00  0.00    -0.237 OA
ATOM     52  O   UNL A   1      43.928  38.396  32.180  1.00  0.00    -0.744 OA
ENDBRANCH  48  49
ENDBRANCH  27  41
BRANCH  28  53
ATOM     53  C   UNL A   1      42.624  24.032  27.696  1.00  0.00     0.058 A 
ATOM     54  C   UNL A   1      42.545  22.930  28.562  1.00  0.00     0.135 A 
ATOM     55  C   UNL A   1      42.559  23.779  26.317  1.00  0.00     0.135 A 
ATOM     56  F   UNL A   1      42.612  23.115  29.890  1.00  0.00    -0.206 F 
ATOM     57  C   UNL A   1      42.420  21.629  28.082  1.00  0.00     0.059 A 
ATOM     58  C   UNL A   1      42.407  22.490  25.813  1.00  0.00     0.059 A 
ATOM     59  F   UNL A   1      42.619  24.795  25.442  1.00  0.00    -0.206 F 
ATOM     60  C   UNL A   1      42.350  21.420  26.703  1.00  0.00     0.060 A 
BRANCH  60  61
ATOM     61  S   UNL A   1      42.137  19.737  26.081  1.00  0.00     0.124 S 
ATOM     62  O   UNL A   1      43.201  19.655  25.086  1.00  0.00    -0.237 OA
ATOM     63  O   UNL A   1      42.325  18.931  27.284  1.00  0.00    -0.237 OA
ATOM     64  O   UNL A   1      40.776  19.747  25.552  1.00  0.00    -0.744 OA
ENDBRANCH  60  61
ENDBRANCH  28  53
BRANCH  40  65
ATOM     65  C   UNL A   1      47.965  27.759  30.186  1.00  0.00     0.058 A 
ATOM     66  C   UNL A   1      48.458  27.330  31.427  1.00  0.00     0.135 A 
ATOM     67  C   UNL A   1      48.853  27.823  29.103  1.00  0.00     0.135 A 
ATOM     68  F   UNL A   1      47.642  27.258  32.490  1.00  0.00    -0.206 F 
ATOM     69  C   UNL A   1      49.795  26.992  31.592  1.00  0.00     0.059 A 
ATOM     70  C   UNL A   1      50.191  27.472  29.241  1.00  0.00     0.059 A 
ATOM     71  F   UNL A   1      48.420  28.219  27.894  1.00  0.00    -0.206 F 
ATOM     72  C   UNL A   1      50.653  27.067  30.493  1.00  0.00     0.060 A 
BRANCH  72  73
ATOM     73  S   UNL A   1      52.382  26.590  30.705  1.00  0.00     0.124 S 
ATOM     74  O   UNL A   1      52.897  27.704  31.495  1.00  0.00    -0.237 OA
ATOM     75  O   UNL A   1      52.275  25.313  31.403  1.00  0.00    -0.237 OA
ATOM     76  O   UNL A   1      52.877  26.508  29.334  1.00  0.00    -0.744 OA
ENDBRANCH  72  73
ENDBRANCH  40  65
ENDBRANCH  14  15
ENDBRANCH   7   9
ENDBRANCH   6   7
ENDBRANCH   5   6
ENDBRANCH   4   5
ENDBRANCH   3   4
ENDBRANCH   2   3
ENDBRANCH   1   2
BRANCH   1  77
ATOM     77  O   UNL A   1      29.719  27.990  24.182  1.00  0.00    -0.377 OA
BRANCH  77  78
ATOM     78  C   UNL A   1      29.919  28.259  22.802  1.00  0.00     0.188 C 
BRANCH  78  79
ATOM     79  C   UNL A   1      31.050  29.208  22.372  1.00  0.00     0.188 C 
BRANCH  79  80
ATOM     80  O   UNL A   1      32.343  29.047  22.927  1.00  0.00    -0.376 OA
BRANCH  80  81
ATOM     81  C   UNL A   1      33.239  28.108  22.338  1.00  0.00     0.202 C 
BRANCH  81  82
ATOM     82  C   UNL A   1      33.642  26.878  23.161  1.00  0.00     0.261 C 
BRANCH  82  83
ATOM     83  O   UNL A   1      34.041  25.790  22.302  1.00  0.00    -0.457 OA
BRANCH  83  84
ATOM     84  C   UNL A   1      33.071  25.238  21.515  1.00  0.00     0.374 C 
ATOM     85  O   UNL A   1      32.889  25.504  20.334  1.00  0.00    -0.242 OA
BRANCH  84  86
ATOM     86  C   UNL A   1      32.410  24.187  22.255  1.00  0.00     0.212 A 
ATOM     87  C   UNL A   1      31.272  24.167  23.043  1.00  0.00     0.059 A 
ATOM     88  O   UNL A   1      33.060  22.981  22.373  1.00  0.00    -0.449 OA
ATOM     89  C   UNL A   1      31.249  22.911  23.699  1.00  0.00     0.052 A 
ATOM     90  C   UNL A   1      32.390  22.244  23.306  1.00  0.00     0.135 A 
BRANCH  90  91
ATOM     91  C   UNL A   1      33.016  20.984  23.694  1.00  0.00     0.025 A 
ATOM     92  C   UNL A   1      32.236  19.825  23.603  1.00  0.00     0.014 A 
ATOM     93  C   UNL A   1      34.364  20.909  24.167  1.00  0.00    -0.006 A 
ATOM     94  C   UNL A   1      32.746  18.597  24.009  1.00  0.00     0.022 A 
ATOM     95  C   UNL A   1      34.891  19.648  24.568  1.00  0.00     0.001 A 
ATOM     96  C   UNL A   1      35.223  22.035  24.249  1.00  0.00     0.009 A 
ATOM     97  C   UNL A   1      34.051  18.509  24.494  1.00  0.00     0.048 A 
ATOM     98  C   UNL A   1      36.234  19.583  25.021  1.00  0.00     0.010 A 
ATOM     99  C   UNL A   1      36.543  21.939  24.693  1.00  0.00     0.001 A 
ATOM    100  Cl  UNL A   1      34.577  16.937  25.009  1.00  0.00    -0.084 Cl
ATOM    101  C   UNL A   1      37.051  20.711  25.077  1.00  0.00     0.001 A 
ENDBRANCH  90  91
ENDBRANCH  84  86
ENDBRANCH  83  84
ENDBRANCH  82  83
ENDBRANCH  81  82
ENDBRANCH  80  81
ENDBRANCH  79  80
ENDBRANCH  78  79
ENDBRANCH  77  78
ENDBRANCH   1  77
TORSDOF 24
ENDMDL
MODEL 3
REMARK VINA RESULT:      -8.8      1.537      3.008
REMARK SMILES O=C(OCCOCCOCCOCCOC(=O)c1ccc(-c2ccc(Cl)c3ccccc23)o1)c1ccc(-c2c3nc(c(-c4c(F)cc(S(=O)(=O)[O-])cc4F)c4ccc([nH]4)c(-c4c(F)cc(S(=O)(=O)[O-])cc4F)c4nc(c(-c5c(F)cc(S(=O)(=O)[O-])cc5F)c5ccc2[nH]5)C=C4)C=C3)cc1
REMARK SMILES IDX 8 1 7 2 6 3 5 4 4 5 3 6 2 7 1 8 34 9 35 10 99 11 36 12 98 13
REMARK SMILES IDX 37 14 38 15 39 16 92 17 40 18 97 19 91 20 93 21 41 22 96 23
REMARK SMILES IDX 90 24 89 25 42 27 76 28 55 29 75 30 56 31 59 32 74 33 94 34
REMARK SMILES IDX 57 35 58 36 73 38 95 39 60 40 43 41 44 42 53 43 45 44 46 45
REMARK SMILES IDX 52 46 54 47 47 48 48 49 49 50 50 51 51 52 77 53 78 54 87 55
REMARK SMILES IDX 79 56 80 57 86 58 88 59 81 60 82 61 83 62 84 63 85 64 61 65
REMARK SMILES IDX 62 66 71 67 63 68 64 69 70 70 72 71 65 72 66 73 67 74 68 75
REMARK SMILES IDX 69 76 9 77 10 78 11 79 12 80 13 81 14 82 15 83 16 84 17 85
REMARK SMILES IDX 18 86 19 87 33 88 20 89 21 90 22 91 23 92 32 93 24 94 27 95
REMARK SMILES IDX 31 96 25 97 28 98 30 99 26 100 29 101
REMARK H PARENT 93 26 59 37
REMARK Flexibility Score: inf
ROOT
ATOM      1  C   UNL A   1      29.984  25.971  24.895  1.00  0.00     0.188 C 
ENDROOT
BRANCH   1   2
ATOM      2  C   UNL A   1      30.821  25.190  25.905  1.00  0.00     0.188 C 
BRANCH   2   3
ATOM      3  O   UNL A   1      31.298  26.118  26.884  1.00  0.00    -0.376 OA
BRANCH   3   4
ATOM      4  C   UNL A   1      31.569  27.431  26.408  1.00  0.00     0.202 C 
BRANCH   4   5
ATOM      5  C   UNL A   1      33.059  27.752  26.270  1.00  0.00     0.261 C 
BRANCH   5   6
ATOM      6  O   UNL A   1      33.614  28.263  27.495  1.00  0.00    -0.460 OA
BRANCH   6   7
ATOM      7  C   UNL A   1      34.247  29.454  27.667  1.00  0.00     0.338 C 
ATOM      8  O   UNL A   1      33.594  30.494  27.630  1.00  0.00    -0.246 OA
BRANCH   7   9
ATOM      9  C   UNL A   1      35.701  29.540  27.973  1.00  0.00     0.060 A 
ATOM     10  C   UNL A   1      36.666  29.977  27.064  1.00  0.00     0.016 A 
ATOM     11  C   UNL A   1      36.113  29.200  29.270  1.00  0.00     0.016 A 
ATOM     12  C   UNL A   1      38.019  29.899  27.362  1.00  0.00     0.010 A 
ATOM     13  C   UNL A   1      37.473  29.190  29.602  1.00  0.00     0.010 A 
ATOM     14  C   UNL A   1      38.434  29.474  28.622  1.00  0.00    -0.014 A 
BRANCH  14  15
ATOM     15  C   UNL A   1      39.864  29.143  28.816  1.00  0.00     0.031 A 
ATOM     16  C   UNL A   1      40.725  30.140  29.540  1.00  0.00     0.074 A 
ATOM     17  C   UNL A   1      40.339  27.926  28.488  1.00  0.00     0.049 A 
ATOM     18  N   UNL A   1      42.010  30.122  29.764  1.00  0.00    -0.248 NA
ATOM     19  C   UNL A   1      40.039  31.327  30.086  1.00  0.00     0.031 C 
ATOM     20  C   UNL A   1      39.553  26.843  27.893  1.00  0.00     0.029 A 
ATOM     21  N   UNL A   1      41.585  27.382  28.649  1.00  0.00    -0.354 N 
ATOM     22  C   UNL A   1      42.295  31.316  30.415  1.00  0.00     0.074 A 
ATOM     23  C   UNL A   1      41.050  32.034  30.562  1.00  0.00     0.031 C 
ATOM     24  C   UNL A   1      40.324  25.748  27.789  1.00  0.00     0.029 A 
ATOM     25  C   UNL A   1      41.672  26.071  28.242  1.00  0.00     0.049 A 
ATOM     26  H   UNL A   1      42.347  27.882  29.023  1.00  0.00     0.167 HD
ATOM     27  C   UNL A   1      43.494  31.774  30.843  1.00  0.00     0.037 A 
ATOM     28  C   UNL A   1      42.732  25.240  28.223  1.00  0.00     0.037 A 
ATOM     29  C   UNL A   1      44.709  31.017  30.730  1.00  0.00     0.049 A 
ATOM     30  C   UNL A   1      44.058  25.771  28.697  1.00  0.00     0.074 A 
ATOM     31  C   UNL A   1      46.000  31.392  31.052  1.00  0.00     0.029 A 
ATOM     32  N   UNL A   1      44.769  29.705  30.277  1.00  0.00    -0.354 N 
ATOM     33  N   UNL A   1      44.343  26.953  29.194  1.00  0.00    -0.248 NA
ATOM     34  C   UNL A   1      45.213  24.870  28.588  1.00  0.00     0.031 C 
ATOM     35  C   UNL A   1      46.844  30.306  30.781  1.00  0.00     0.029 A 
ATOM     36  C   UNL A   1      46.072  29.249  30.320  1.00  0.00     0.049 A 
ATOM     37  H   UNL A   1      43.996  29.179  29.972  1.00  0.00     0.167 HD
ATOM     38  C   UNL A   1      45.706  26.936  29.462  1.00  0.00     0.074 A 
ATOM     39  C   UNL A   1      46.184  25.619  29.093  1.00  0.00     0.031 C 
ATOM     40  C   UNL A   1      46.497  27.921  29.956  1.00  0.00     0.037 A 
BRANCH  27  41
ATOM     41  C   UNL A   1      43.531  33.171  31.392  1.00  0.00     0.058 A 
ATOM     42  C   UNL A   1      43.726  34.293  30.570  1.00  0.00     0.135 A 
ATOM     43  C   UNL A   1      43.442  33.382  32.776  1.00  0.00     0.135 A 
ATOM     44  F   UNL A   1      43.853  34.144  29.242  1.00  0.00    -0.206 F 
ATOM     45  C   UNL A   1      43.872  35.570  31.106  1.00  0.00     0.059 A 
ATOM     46  C   UNL A   1      43.565  34.651  33.334  1.00  0.00     0.059 A 
ATOM     47  F   UNL A   1      43.267  32.341  33.608  1.00  0.00    -0.206 F 
ATOM     48  C   UNL A   1      43.804  35.735  32.491  1.00  0.00     0.060 A 
BRANCH  48  49
ATOM     49  S   UNL A   1      44.054  37.384  33.185  1.00  0.00     0.124 S 
ATOM     50  O   UNL A   1      45.366  37.239  33.810  1.00  0.00    -0.237 OA
ATOM     51  O   UNL A   1      44.008  38.236  32.000  1.00  0.00    -0.237 OA
ATOM     52  O   UNL A   1      42.932  37.537  34.105  1.00  0.00    -0.744 OA
ENDBRANCH  48  49
ENDBRANCH  27  41
BRANCH  28  53
ATOM     53  C   UNL A   1      42.591  23.849  27.714  1.00  0.00     0.058 A 
ATOM     54  C   UNL A   1      42.473  22.761  28.592  1.00  0.00     0.135 A 
ATOM     55  C   UNL A   1      42.560  23.576  26.337  1.00  0.00     0.135 A 
ATOM     56  F   UNL A   1      42.506  22.964  29.919  1.00  0.00    -0.206 F 
ATOM     57  C   UNL A   1      42.343  21.454  28.127  1.00  0.00     0.059 A 
ATOM     58  C   UNL A   1      42.405  22.282  25.847  1.00  0.00     0.059 A 
ATOM     59  F   UNL A   1      42.658  24.578  25.450  1.00  0.00    -0.206 F 
ATOM     60  C   UNL A   1      42.309  21.226  26.750  1.00  0.00     0.060 A 
BRANCH  60  61
ATOM     61  S   UNL A   1      42.090  19.537  26.146  1.00  0.00     0.124 S 
ATOM     62  O   UNL A   1      42.919  19.545  24.946  1.00  0.00    -0.237 OA
ATOM     63  O   UNL A   1      42.590  18.738  27.261  1.00  0.00    -0.237 OA
ATOM     64  O   UNL A   1      40.650  19.448  25.921  1.00  0.00    -0.744 OA
ENDBRANCH  60  61
ENDBRANCH  28  53
BRANCH  40  65
ATOM     65  C   UNL A   1      47.946  27.593  30.146  1.00  0.00     0.058 A 
ATOM     66  C   UNL A   1      48.871  27.743  29.102  1.00  0.00     0.135 A 
ATOM     67  C   UNL A   1      48.420  27.177  31.399  1.00  0.00     0.135 A 
ATOM     68  F   UNL A   1      48.459  28.134  27.886  1.00  0.00    -0.206 F 
ATOM     69  C   UNL A   1      50.220  27.472  29.290  1.00  0.00     0.059 A 
ATOM     70  C   UNL A   1      49.768  26.919  31.615  1.00  0.00     0.059 A 
ATOM     71  F   UNL A   1      47.570  27.031  32.429  1.00  0.00    -0.206 F 
ATOM     72  C   UNL A   1      50.658  27.059  30.551  1.00  0.00     0.060 A 
BRANCH  72  73
ATOM     73  S   UNL A   1      52.418  26.745  30.800  1.00  0.00     0.124 S 
ATOM     74  O   UNL A   1      52.396  25.410  31.389  1.00  0.00    -0.237 OA
ATOM     75  O   UNL A   1      52.952  26.831  29.444  1.00  0.00    -0.237 OA
ATOM     76  O   UNL A   1      52.828  27.822  31.696  1.00  0.00    -0.744 OA
ENDBRANCH  72  73
ENDBRANCH  40  65
ENDBRANCH  14  15
ENDBRANCH   7   9
ENDBRANCH   6   7
ENDBRANCH   5   6
ENDBRANCH   4   5
ENDBRANCH   3   4
ENDBRANCH   2   3
ENDBRANCH   1   2
BRANCH   1  77
ATOM     77  O   UNL A   1      30.377  25.757  23.536  1.00  0.00    -0.377 OA
BRANCH  77  78
ATOM     78  C   UNL A   1      30.730  24.422  23.200  1.00  0.00     0.188 C 
BRANCH  78  79
ATOM     79  C   UNL A   1      32.194  24.085  22.879  1.00  0.00     0.188 C 
BRANCH  79  80
ATOM     80  O   UNL A   1      33.180  25.098  22.974  1.00  0.00    -0.376 OA
BRANCH  80  81
ATOM     81  C   UNL A   1      34.046  25.118  24.106  1.00  0.00     0.202 C 
BRANCH  81  82
ATOM     82  C   UNL A   1      35.159  24.065  24.183  1.00  0.00     0.261 C 
BRANCH  82  83
ATOM     83  O   UNL A   1      35.434  23.704  25.552  1.00  0.00    -0.457 OA
BRANCH  83  84
ATOM     84  C   UNL A   1      36.744  23.507  25.887  1.00  0.00     0.374 C 
ATOM     85  O   UNL A   1      37.443  24.311  26.490  1.00  0.00    -0.242 OA
BRANCH  84  86
ATOM     86  C   UNL A   1      37.112  22.150  25.556  1.00  0.00     0.212 A 
ATOM     87  C   UNL A   1      38.237  21.600  24.967  1.00  0.00     0.059 A 
ATOM     88  O   UNL A   1      36.148  21.177  25.680  1.00  0.00    -0.449 OA
ATOM     89  C   UNL A   1      37.931  20.244  24.684  1.00  0.00     0.052 A 
ATOM     90  C   UNL A   1      36.626  20.048  25.082  1.00  0.00     0.135 A 
BRANCH  90  91
ATOM     91  C   UNL A   1      35.684  18.939  24.966  1.00  0.00     0.025 A 
ATOM     92  C   UNL A   1      36.136  17.670  25.351  1.00  0.00     0.014 A 
ATOM     93  C   UNL A   1      34.354  19.108  24.468  1.00  0.00    -0.006 A 
ATOM     94  C   UNL A   1      35.314  16.557  25.215  1.00  0.00     0.022 A 
ATOM     95  C   UNL A   1      33.507  17.970  24.344  1.00  0.00     0.001 A 
ATOM     96  C   UNL A   1      33.818  20.368  24.098  1.00  0.00     0.009 A 
ATOM     97  C   UNL A   1      34.021  16.701  24.710  1.00  0.00     0.048 A 
ATOM     98  C   UNL A   1      32.185  18.152  23.864  1.00  0.00     0.010 A 
ATOM     99  C   UNL A   1      32.510  20.517  23.633  1.00  0.00     0.001 A 
ATOM    100  Cl  UNL A   1      33.092  15.244  24.546  1.00  0.00    -0.084 Cl
ATOM    101  C   UNL A   1      31.690  19.409  23.519  1.00  0.00     0.001 A 
ENDBRANCH  90  91
ENDBRANCH  84  86
ENDBRANCH  83  84
ENDBRANCH  82  83
ENDBRANCH  81  82
ENDBRANCH  80  81
ENDBRANCH  79  80
ENDBRANCH  78  79
ENDBRANCH  77  78
ENDBRANCH   1  77
TORSDOF 24
ENDMDL
