MODEL 1
REMARK VINA RESULT:     -10.9      0.000      0.000
REMARK SMILES O=C(OCCOCCOCCOCCOC(=O)c1nccnc1C(=O)Nc1n[nH]c2ncccc12)c1ccc(-c2c3nc(c(-c4c(F)cc(S(=O)(=O)[O-])cc4F)c4ccc([nH]4)c(-c4c(F)cc(S(=O)(=O)[O-])cc4F)c4nc(c(-c5c(F)cc(S(=O)(=O)[O-])cc5F)c5ccc2[nH]5)C=C4)C=C3)cc1
REMARK SMILES IDX 8 1 7 2 6 3 5 4 4 5 3 6 2 7 1 8 36 9 37 10 101 11 38 12
REMARK SMILES IDX 100 13 39 14 40 15 41 16 94 17 42 18 99 19 93 20 95 21 43 22
REMARK SMILES IDX 98 23 92 24 91 25 44 27 78 28 57 29 77 30 58 31 61 32 76 33
REMARK SMILES IDX 96 34 59 35 60 36 75 38 97 39 62 40 45 41 46 42 55 43 47 44
REMARK SMILES IDX 48 45 54 46 56 47 49 48 50 49 51 50 52 51 53 52 79 53 80 54
REMARK SMILES IDX 89 55 81 56 82 57 88 58 90 59 83 60 84 61 85 62 86 63 87 64
REMARK SMILES IDX 63 65 64 66 73 67 65 68 66 69 72 70 74 71 67 72 68 73 69 74
REMARK SMILES IDX 70 75 71 76 9 77 10 78 11 79 12 80 13 81 14 82 15 83 16 84
REMARK SMILES IDX 17 85 18 86 19 87 23 88 20 89 22 90 21 91 24 92 25 93 26 94
REMARK SMILES IDX 27 96 28 97 35 98 29 99 30 100 34 101 31 103 33 104 32 105
REMARK H PARENT 95 26 61 37 26 95 29 102
REMARK Flexibility Score: inf
ROOT
ATOM      1  C   UNL A   1      31.747  30.083  26.008  1.00  0.00     0.188 C 
ENDROOT
BRANCH   1   2
ATOM      2  C   UNL A   1      32.531  30.144  27.298  1.00  0.00     0.188 C 
BRANCH   2   3
ATOM      3  O   UNL A   1      33.521  31.153  27.218  1.00  0.00    -0.376 OA
BRANCH   3   4
ATOM      4  C   UNL A   1      34.544  31.266  28.173  1.00  0.00     0.202 C 
BRANCH   4   5
ATOM      5  C   UNL A   1      35.653  30.243  28.034  1.00  0.00     0.261 C 
BRANCH   5   6
ATOM      6  O   UNL A   1      35.818  29.428  29.210  1.00  0.00    -0.460 OA
BRANCH   6   7
ATOM      7  C   UNL A   1      36.761  29.558  30.186  1.00  0.00     0.338 C 
ATOM      8  O   UNL A   1      36.410  29.605  31.362  1.00  0.00    -0.246 OA
BRANCH   7   9
ATOM      9  C   UNL A   1      38.215  29.573  29.880  1.00  0.00     0.060 A 
ATOM     10  C   UNL A   1      38.736  29.957  28.655  1.00  0.00     0.016 A 
ATOM     11  C   UNL A   1      39.134  29.351  30.901  1.00  0.00     0.016 A 
ATOM     12  C   UNL A   1      40.024  29.731  28.278  1.00  0.00     0.010 A 
ATOM     13  C   UNL A   1      40.504  29.392  30.614  1.00  0.00     0.010 A 
ATOM     14  C   UNL A   1      40.934  29.509  29.281  1.00  0.00    -0.014 A 
BRANCH  14  15
ATOM     15  C   UNL A   1      42.294  29.238  28.827  1.00  0.00     0.031 A 
ATOM     16  C   UNL A   1      42.545  27.855  28.342  1.00  0.00     0.074 A 
ATOM     17  C   UNL A   1      43.167  30.248  28.648  1.00  0.00     0.049 A 
ATOM     18  N   UNL A   1      43.668  27.298  28.005  1.00  0.00    -0.248 NA
ATOM     19  C   UNL A   1      41.364  26.978  28.215  1.00  0.00     0.031 C 
ATOM     20  C   UNL A   1      42.894  31.674  28.889  1.00  0.00     0.029 A 
ATOM     21  N   UNL A   1      44.451  30.237  28.185  1.00  0.00    -0.354 N 
ATOM     22  C   UNL A   1      43.336  25.994  27.677  1.00  0.00     0.074 A 
ATOM     23  C   UNL A   1      41.918  25.829  27.873  1.00  0.00     0.031 C 
ATOM     24  C   UNL A   1      43.985  32.391  28.579  1.00  0.00     0.029 A 
ATOM     25  C   UNL A   1      45.053  31.474  28.217  1.00  0.00     0.049 A 
ATOM     26  H   UNL A   1      44.902  29.425  27.860  1.00  0.00     0.167 HD
ATOM     27  C   UNL A   1      44.168  25.029  27.244  1.00  0.00     0.037 A 
ATOM     28  C   UNL A   1      46.348  31.792  28.042  1.00  0.00     0.037 A 
ATOM     29  C   UNL A   1      45.570  25.256  27.055  1.00  0.00     0.049 A 
ATOM     30  C   UNL A   1      47.287  30.658  27.718  1.00  0.00     0.074 A 
ATOM     31  C   UNL A   1      46.553  24.352  26.714  1.00  0.00     0.029 A 
ATOM     32  N   UNL A   1      46.182  26.498  27.189  1.00  0.00    -0.354 N 
ATOM     33  N   UNL A   1      47.009  29.388  27.524  1.00  0.00    -0.248 NA
ATOM     34  C   UNL A   1      48.708  30.990  27.599  1.00  0.00     0.031 C 
ATOM     35  C   UNL A   1      47.772  25.036  26.704  1.00  0.00     0.029 A 
ATOM     36  C   UNL A   1      47.538  26.381  26.958  1.00  0.00     0.049 A 
ATOM     37  H   UNL A   1      45.719  27.336  27.415  1.00  0.00     0.167 HD
ATOM     38  C   UNL A   1      48.218  28.772  27.230  1.00  0.00     0.074 A 
ATOM     39  C   UNL A   1      49.221  29.821  27.244  1.00  0.00     0.031 C 
ATOM     40  C   UNL A   1      48.489  27.467  26.977  1.00  0.00     0.037 A 
BRANCH  27  41
ATOM     41  C   UNL A   1      43.584  23.667  27.044  1.00  0.00     0.058 A 
ATOM     42  C   UNL A   1      43.299  22.810  28.118  1.00  0.00     0.135 A 
ATOM     43  C   UNL A   1      43.340  23.200  25.744  1.00  0.00     0.135 A 
ATOM     44  F   UNL A   1      43.578  23.183  29.377  1.00  0.00    -0.206 F 
ATOM     45  C   UNL A   1      42.788  21.535  27.909  1.00  0.00     0.059 A 
ATOM     46  C   UNL A   1      42.797  21.943  25.513  1.00  0.00     0.059 A 
ATOM     47  F   UNL A   1      43.640  23.965  24.683  1.00  0.00    -0.206 F 
ATOM     48  C   UNL A   1      42.526  21.118  26.603  1.00  0.00     0.060 A 
BRANCH  48  49
ATOM     49  S   UNL A   1      41.794  19.488  26.356  1.00  0.00     0.124 S 
ATOM     50  O   UNL A   1      42.410  19.077  25.099  1.00  0.00    -0.237 OA
ATOM     51  O   UNL A   1      42.241  18.772  27.546  1.00  0.00    -0.237 OA
ATOM     52  O   UNL A   1      40.363  19.764  26.293  1.00  0.00    -0.744 OA
ENDBRANCH  48  49
ENDBRANCH  27  41
BRANCH  28  53
ATOM     53  C   UNL A   1      46.839  33.181  28.272  1.00  0.00     0.058 A 
ATOM     54  C   UNL A   1      46.894  34.126  27.237  1.00  0.00     0.135 A 
ATOM     55  C   UNL A   1      47.322  33.577  29.532  1.00  0.00     0.135 A 
ATOM     56  F   UNL A   1      46.451  33.804  26.012  1.00  0.00    -0.206 F 
ATOM     57  C   UNL A   1      47.446  35.390  27.428  1.00  0.00     0.059 A 
ATOM     58  C   UNL A   1      47.841  34.847  29.759  1.00  0.00     0.059 A 
ATOM     59  F   UNL A   1      47.289  32.723  30.569  1.00  0.00    -0.206 F 
ATOM     60  C   UNL A   1      47.920  35.740  28.694  1.00  0.00     0.060 A 
BRANCH  60  61
ATOM     61  S   UNL A   1      48.639  37.380  28.932  1.00  0.00     0.124 S 
ATOM     62  O   UNL A   1      50.037  37.054  29.183  1.00  0.00    -0.237 OA
ATOM     63  O   UNL A   1      48.352  38.025  27.654  1.00  0.00    -0.237 OA
ATOM     64  O   UNL A   1      47.900  37.909  30.074  1.00  0.00    -0.744 OA
ENDBRANCH  60  61
ENDBRANCH  28  53
BRANCH  40  65
ATOM     65  C   UNL A   1      49.913  27.125  26.646  1.00  0.00     0.058 A 
ATOM     66  C   UNL A   1      50.843  26.784  27.639  1.00  0.00     0.135 A 
ATOM     67  C   UNL A   1      50.335  27.103  25.307  1.00  0.00     0.135 A 
ATOM     68  F   UNL A   1      50.487  26.790  28.933  1.00  0.00    -0.206 F 
ATOM     69  C   UNL A   1      52.159  26.481  27.319  1.00  0.00     0.059 A 
ATOM     70  C   UNL A   1      51.633  26.755  24.961  1.00  0.00     0.059 A 
ATOM     71  F   UNL A   1      49.476  27.402  24.319  1.00  0.00    -0.206 F 
ATOM     72  C   UNL A   1      52.543  26.468  25.976  1.00  0.00     0.060 A 
BRANCH  72  73
ATOM     73  S   UNL A   1      54.252  26.060  25.576  1.00  0.00     0.124 S 
ATOM     74  O   UNL A   1      54.094  24.792  24.874  1.00  0.00    -0.237 OA
ATOM     75  O   UNL A   1      54.655  27.197  24.753  1.00  0.00    -0.237 OA
ATOM     76  O   UNL A   1      54.897  25.979  26.883  1.00  0.00    -0.744 OA
ENDBRANCH  72  73
ENDBRANCH  40  65
ENDBRANCH  14  15
ENDBRANCH   7   9
ENDBRANCH   6   7
ENDBRANCH   5   6
ENDBRANCH   4   5
ENDBRANCH   3   4
ENDBRANCH   2   3
ENDBRANCH   1   2
BRANCH   1  77
ATOM     77  O   UNL A   1      32.592  30.018  24.868  1.00  0.00    -0.377 OA
BRANCH  77  78
ATOM     78  C   UNL A   1      32.570  28.807  24.105  1.00  0.00     0.188 C 
BRANCH  78  79
ATOM     79  C   UNL A   1      31.283  27.982  23.850  1.00  0.00     0.188 C 
BRANCH  79  80
ATOM     80  O   UNL A   1      30.598  27.331  24.906  1.00  0.00    -0.376 OA
BRANCH  80  81
ATOM     81  C   UNL A   1      29.661  26.292  24.549  1.00  0.00     0.202 C 
BRANCH  81  82
ATOM     82  C   UNL A   1      30.350  24.739  24.349  1.00  0.00     0.261 C 
BRANCH  82  83
ATOM     83  O   UNL A   1      31.851  24.049  23.029  1.00  0.00    -0.458 OA
BRANCH  83  84
ATOM     84  C   UNL A   1      33.192  23.811  22.532  1.00  0.00     0.359 C 
ATOM     85  O   UNL A   1      33.385  23.638  21.332  1.00  0.00    -0.244 OA
BRANCH  84  86
ATOM     86  C   UNL A   1      34.389  23.703  23.482  1.00  0.00     0.179 A 
ATOM     87  N   UNL A   1      35.593  23.637  22.823  1.00  0.00    -0.245 NA
ATOM     88  C   UNL A   1      34.353  23.611  24.878  1.00  0.00     0.161 A 
ATOM     89  C   UNL A   1      36.704  23.473  23.583  1.00  0.00     0.132 A 
ATOM     90  N   UNL A   1      35.494  23.439  25.629  1.00  0.00    -0.247 NA
ATOM     91  C   UNL A   1      36.659  23.379  24.958  1.00  0.00     0.132 A 
BRANCH  88  92
ATOM     92  C   UNL A   1      33.124  23.658  25.720  1.00  0.00     0.278 C 
ATOM     93  O   UNL A   1      32.839  24.652  26.384  1.00  0.00    -0.267 OA
ATOM     94  N   UNL A   1      32.318  22.563  25.767  1.00  0.00    -0.303 N 
ATOM     95  H   UNL A   1      31.360  22.700  25.950  1.00  0.00     0.172 HD
BRANCH  94  96
ATOM     96  C   UNL A   1      32.765  21.271  25.571  1.00  0.00     0.164 A 
ATOM     97  N   UNL A   1      33.111  20.325  26.970  1.00  0.00    -0.155 NA
ATOM     98  C   UNL A   1      32.557  20.049  24.021  1.00  0.00     0.063 A 
ATOM     99  N   UNL A   1      32.931  18.540  26.490  1.00  0.00    -0.259 N 
ATOM    100  C   UNL A   1      32.671  18.385  24.689  1.00  0.00     0.157 A 
ATOM    101  C   UNL A   1      32.275  20.044  22.645  1.00  0.00     0.017 A 
ATOM    102  H   UNL A   1      32.969  17.783  27.118  1.00  0.00     0.192 HD
ATOM    103  N   UNL A   1      32.741  17.273  23.943  1.00  0.00    -0.237 NA
ATOM    104  C   UNL A   1      32.384  18.806  21.975  1.00  0.00     0.021 A 
ATOM    105  C   UNL A   1      32.624  17.565  22.617  1.00  0.00     0.113 A 
ENDBRANCH  94  96
ENDBRANCH  88  92
ENDBRANCH  84  86
ENDBRANCH  83  84
ENDBRANCH  82  83
ENDBRANCH  81  82
ENDBRANCH  80  81
ENDBRANCH  79  80
ENDBRANCH  78  79
ENDBRANCH  77  78
ENDBRANCH   1  77
TORSDOF 25
ENDMDL
MODEL 2
REMARK VINA RESULT:     -10.0      1.448      8.386
REMARK SMILES O=C(OCCOCCOCCOCCOC(=O)c1nccnc1C(=O)Nc1n[nH]c2ncccc12)c1ccc(-c2c3nc(c(-c4c(F)cc(S(=O)(=O)[O-])cc4F)c4ccc([nH]4)c(-c4c(F)cc(S(=O)(=O)[O-])cc4F)c4nc(c(-c5c(F)cc(S(=O)(=O)[O-])cc5F)c5ccc2[nH]5)C=C4)C=C3)cc1
REMARK SMILES IDX 8 1 7 2 6 3 5 4 4 5 3 6 2 7 1 8 36 9 37 10 101 11 38 12
REMARK SMILES IDX 100 13 39 14 40 15 41 16 94 17 42 18 99 19 93 20 95 21 43 22
REMARK SMILES IDX 98 23 92 24 91 25 44 27 78 28 57 29 77 30 58 31 61 32 76 33
REMARK SMILES IDX 96 34 59 35 60 36 75 38 97 39 62 40 45 41 46 42 55 43 47 44
REMARK SMILES IDX 48 45 54 46 56 47 49 48 50 49 51 50 52 51 53 52 79 53 80 54
REMARK SMILES IDX 89 55 81 56 82 57 88 58 90 59 83 60 84 61 85 62 86 63 87 64
REMARK SMILES IDX 63 65 64 66 73 67 65 68 66 69 72 70 74 71 67 72 68 73 69 74
REMARK SMILES IDX 70 75 71 76 9 77 10 78 11 79 12 80 13 81 14 82 15 83 16 84
REMARK SMILES IDX 17 85 18 86 19 87 23 88 20 89 22 90 21 91 24 92 25 93 26 94
REMARK SMILES IDX 27 96 28 97 35 98 29 99 30 100 34 101 31 103 33 104 32 105
REMARK H PARENT 95 26 61 37 26 95 29 102
REMARK Flexibility Score: inf
ROOT
ATOM      1  C   UNL A   1      31.416  29.102  24.756  1.00  0.00     0.188 C 
ENDROOT
BRANCH   1   2
ATOM      2  C   UNL A   1      31.835  29.147  26.206  1.00  0.00     0.188 C 
BRANCH   2   3
ATOM      3  O   UNL A   1      32.720  30.230  26.424  1.00  0.00    -0.376 OA
BRANCH   3   4
ATOM      4  C   UNL A   1      33.380  30.416  27.650  1.00  0.00     0.202 C 
BRANCH   4   5
ATOM      5  C   UNL A   1      34.892  30.370  27.565  1.00  0.00     0.261 C 
BRANCH   5   6
ATOM      6  O   UNL A   1      35.501  29.727  28.701  1.00  0.00    -0.460 OA
BRANCH   6   7
ATOM      7  C   UNL A   1      36.456  30.235  29.530  1.00  0.00     0.338 C 
ATOM      8  O   UNL A   1      36.116  30.825  30.553  1.00  0.00    -0.246 OA
BRANCH   7   9
ATOM      9  C   UNL A   1      37.907  30.036  29.277  1.00  0.00     0.060 A 
ATOM     10  C   UNL A   1      38.463  29.989  28.008  1.00  0.00     0.016 A 
ATOM     11  C   UNL A   1      38.800  30.056  30.343  1.00  0.00     0.016 A 
ATOM     12  C   UNL A   1      39.728  29.554  27.754  1.00  0.00     0.010 A 
ATOM     13  C   UNL A   1      40.169  29.895  30.097  1.00  0.00     0.010 A 
ATOM     14  C   UNL A   1      40.611  29.570  28.803  1.00  0.00    -0.014 A 
BRANCH  14  15
ATOM     15  C   UNL A   1      41.944  29.062  28.491  1.00  0.00     0.031 A 
ATOM     16  C   UNL A   1      43.057  30.032  28.666  1.00  0.00     0.074 A 
ATOM     17  C   UNL A   1      42.143  27.744  28.296  1.00  0.00     0.049 A 
ATOM     18  N   UNL A   1      44.309  29.906  28.347  1.00  0.00    -0.248 NA
ATOM     19  C   UNL A   1      42.712  31.326  29.289  1.00  0.00     0.031 C 
ATOM     20  C   UNL A   1      41.106  26.701  28.347  1.00  0.00     0.029 A 
ATOM     21  N   UNL A   1      43.291  27.049  28.053  1.00  0.00    -0.354 N 
ATOM     22  C   UNL A   1      44.888  31.118  28.684  1.00  0.00     0.074 A 
ATOM     23  C   UNL A   1      43.857  31.978  29.210  1.00  0.00     0.031 C 
ATOM     24  C   UNL A   1      41.673  25.504  28.131  1.00  0.00     0.029 A 
ATOM     25  C   UNL A   1      43.081  25.707  27.831  1.00  0.00     0.049 A 
ATOM     26  H   UNL A   1      44.184  27.465  28.039  1.00  0.00     0.167 HD
ATOM     27  C   UNL A   1      46.183  31.462  28.559  1.00  0.00     0.037 A 
ATOM     28  C   UNL A   1      43.935  24.780  27.363  1.00  0.00     0.037 A 
ATOM     29  C   UNL A   1      47.167  30.558  28.041  1.00  0.00     0.049 A 
ATOM     30  C   UNL A   1      45.342  25.238  27.076  1.00  0.00     0.074 A 
ATOM     31  C   UNL A   1      48.497  30.796  27.767  1.00  0.00     0.029 A 
ATOM     32  N   UNL A   1      46.913  29.227  27.727  1.00  0.00    -0.354 N 
ATOM     33  N   UNL A   1      45.880  26.422  27.273  1.00  0.00    -0.248 NA
ATOM     34  C   UNL A   1      46.254  24.250  26.497  1.00  0.00     0.031 C 
ATOM     35  C   UNL A   1      49.033  29.624  27.225  1.00  0.00     0.029 A 
ATOM     36  C   UNL A   1      48.059  28.633  27.239  1.00  0.00     0.049 A 
ATOM     37  H   UNL A   1      46.046  28.776  27.835  1.00  0.00     0.167 HD
ATOM     38  C   UNL A   1      47.204  26.312  26.870  1.00  0.00     0.074 A 
ATOM     39  C   UNL A   1      47.386  24.936  26.446  1.00  0.00     0.031 C 
ATOM     40  C   UNL A   1      48.183  27.251  26.840  1.00  0.00     0.037 A 
BRANCH  27  41
ATOM     41  C   UNL A   1      46.550  32.869  28.906  1.00  0.00     0.058 A 
ATOM     42  C   UNL A   1      46.962  33.238  30.197  1.00  0.00     0.135 A 
ATOM     43  C   UNL A   1      46.450  33.874  27.933  1.00  0.00     0.135 A 
ATOM     44  F   UNL A   1      47.010  32.326  31.181  1.00  0.00    -0.206 F 
ATOM     45  C   UNL A   1      47.267  34.557  30.508  1.00  0.00     0.059 A 
ATOM     46  C   UNL A   1      46.782  35.193  28.213  1.00  0.00     0.059 A 
ATOM     47  F   UNL A   1      46.014  33.579  26.699  1.00  0.00    -0.206 F 
ATOM     48  C   UNL A   1      47.188  35.524  29.504  1.00  0.00     0.060 A 
BRANCH  48  49
ATOM     49  S   UNL A   1      47.657  37.217  29.909  1.00  0.00     0.124 S 
ATOM     50  O   UNL A   1      47.259  37.306  31.310  1.00  0.00    -0.237 OA
ATOM     51  O   UNL A   1      49.094  37.203  29.657  1.00  0.00    -0.237 OA
ATOM     52  O   UNL A   1      46.867  38.020  28.981  1.00  0.00    -0.744 OA
ENDBRANCH  48  49
ENDBRANCH  27  41
BRANCH  28  53
ATOM     53  C   UNL A   1      43.474  23.400  27.038  1.00  0.00     0.058 A 
ATOM     54  C   UNL A   1      43.321  22.421  28.030  1.00  0.00     0.135 A 
ATOM     55  C   UNL A   1      43.229  23.014  25.708  1.00  0.00     0.135 A 
ATOM     56  F   UNL A   1      43.544  22.728  29.317  1.00  0.00    -0.206 F 
ATOM     57  C   UNL A   1      42.988  21.105  27.715  1.00  0.00     0.059 A 
ATOM     58  C   UNL A   1      42.856  21.718  25.371  1.00  0.00     0.059 A 
ATOM     59  F   UNL A   1      43.348  23.907  24.711  1.00  0.00    -0.206 F 
ATOM     60  C   UNL A   1      42.760  20.763  26.380  1.00  0.00     0.060 A 
BRANCH  60  61
ATOM     61  S   UNL A   1      42.333  19.055  25.980  1.00  0.00     0.124 S 
ATOM     62  O   UNL A   1      43.215  18.788  24.850  1.00  0.00    -0.237 OA
ATOM     63  O   UNL A   1      42.658  18.361  27.223  1.00  0.00    -0.237 OA
ATOM     64  O   UNL A   1      40.909  19.129  25.665  1.00  0.00    -0.744 OA
ENDBRANCH  60  61
ENDBRANCH  28  53
BRANCH  40  65
ATOM     65  C   UNL A   1      49.540  26.797  26.386  1.00  0.00     0.058 A 
ATOM     66  C   UNL A   1      50.475  26.251  27.277  1.00  0.00     0.135 A 
ATOM     67  C   UNL A   1      49.888  26.876  25.027  1.00  0.00     0.135 A 
ATOM     68  F   UNL A   1      50.190  26.154  28.586  1.00  0.00    -0.206 F 
ATOM     69  C   UNL A   1      51.730  25.845  26.845  1.00  0.00     0.059 A 
ATOM     70  C   UNL A   1      51.118  26.429  24.566  1.00  0.00     0.059 A 
ATOM     71  F   UNL A   1      49.019  27.371  24.132  1.00  0.00    -0.206 F 
ATOM     72  C   UNL A   1      52.040  25.937  25.486  1.00  0.00     0.060 A 
BRANCH  72  73
ATOM     73  S   UNL A   1      53.669  25.394  24.939  1.00  0.00     0.124 S 
ATOM     74  O   UNL A   1      53.692  24.015  25.414  1.00  0.00    -0.237 OA
ATOM     75  O   UNL A   1      53.582  25.568  23.493  1.00  0.00    -0.237 OA
ATOM     76  O   UNL A   1      54.580  26.308  25.622  1.00  0.00    -0.744 OA
ENDBRANCH  72  73
ENDBRANCH  40  65
ENDBRANCH  14  15
ENDBRANCH   7   9
ENDBRANCH   6   7
ENDBRANCH   5   6
ENDBRANCH   4   5
ENDBRANCH   3   4
ENDBRANCH   2   3
ENDBRANCH   1   2
BRANCH   1  77
ATOM     77  O   UNL A   1      32.440  29.562  23.886  1.00  0.00    -0.377 OA
BRANCH  77  78
ATOM     78  C   UNL A   1      33.610  28.747  23.763  1.00  0.00     0.188 C 
BRANCH  78  79
ATOM     79  C   UNL A   1      33.743  27.594  22.735  1.00  0.00     0.188 C 
BRANCH  79  80
ATOM     80  O   UNL A   1      32.681  27.255  21.859  1.00  0.00    -0.376 OA
BRANCH  80  81
ATOM     81  C   UNL A   1      32.719  25.950  21.242  1.00  0.00     0.202 C 
BRANCH  81  82
ATOM     82  C   UNL A   1      31.780  24.755  22.029  1.00  0.00     0.261 C 
BRANCH  82  83
ATOM     83  O   UNL A   1      32.308  22.852  22.782  1.00  0.00    -0.458 OA
BRANCH  83  84
ATOM     84  C   UNL A   1      32.213  21.665  23.610  1.00  0.00     0.359 C 
ATOM     85  O   UNL A   1      31.767  20.621  23.143  1.00  0.00    -0.244 OA
BRANCH  84  86
ATOM     86  C   UNL A   1      32.599  21.691  25.092  1.00  0.00     0.179 A 
ATOM     87  N   UNL A   1      31.858  22.586  25.824  1.00  0.00    -0.245 NA
ATOM     88  C   UNL A   1      33.625  20.966  25.709  1.00  0.00     0.161 A 
ATOM     89  C   UNL A   1      32.176  22.723  27.135  1.00  0.00     0.132 A 
ATOM     90  N   UNL A   1      33.935  21.127  27.041  1.00  0.00    -0.247 NA
ATOM     91  C   UNL A   1      33.192  22.008  27.734  1.00  0.00     0.132 A 
BRANCH  88  92
ATOM     92  C   UNL A   1      34.512  19.973  25.038  1.00  0.00     0.278 C 
ATOM     93  O   UNL A   1      34.347  18.764  25.185  1.00  0.00    -0.267 OA
ATOM     94  N   UNL A   1      35.539  20.424  24.269  1.00  0.00    -0.303 N 
ATOM     95  H   UNL A   1      35.849  19.854  23.528  1.00  0.00     0.172 HD
BRANCH  94  96
ATOM     96  C   UNL A   1      36.170  21.637  24.465  1.00  0.00     0.164 A 
ATOM     97  N   UNL A   1      35.272  23.069  24.126  1.00  0.00    -0.155 NA
ATOM     98  C   UNL A   1      37.718  22.122  25.610  1.00  0.00     0.063 A 
ATOM     99  N   UNL A   1      36.002  24.436  25.150  1.00  0.00    -0.259 N 
ATOM    100  C   UNL A   1      37.525  23.868  25.983  1.00  0.00     0.157 A 
ATOM    101  C   UNL A   1      38.823  21.562  26.272  1.00  0.00     0.017 A 
ATOM    102  H   UNL A   1      35.620  25.340  25.233  1.00  0.00     0.192 HD
ATOM    103  N   UNL A   1      38.450  24.618  26.599  1.00  0.00    -0.237 NA
ATOM    104  C   UNL A   1      39.723  22.462  26.883  1.00  0.00     0.021 A 
ATOM    105  C   UNL A   1      39.516  23.861  26.983  1.00  0.00     0.113 A 
ENDBRANCH  94  96
ENDBRANCH  88  92
ENDBRANCH  84  86
ENDBRANCH  83  84
ENDBRANCH  82  83
ENDBRANCH  81  82
ENDBRANCH  80  81
ENDBRANCH  79  80
ENDBRANCH  78  79
ENDBRANCH  77  78
ENDBRANCH   1  77
TORSDOF 25
ENDMDL
MODEL 3
REMARK VINA RESULT:      -9.6      3.029      8.846
REMARK SMILES O=C(OCCOCCOCCOCCOC(=O)c1nccnc1C(=O)Nc1n[nH]c2ncccc12)c1ccc(-c2c3nc(c(-c4c(F)cc(S(=O)(=O)[O-])cc4F)c4ccc([nH]4)c(-c4c(F)cc(S(=O)(=O)[O-])cc4F)c4nc(c(-c5c(F)cc(S(=O)(=O)[O-])cc5F)c5ccc2[nH]5)C=C4)C=C3)cc1
REMARK SMILES IDX 8 1 7 2 6 3 5 4 4 5 3 6 2 7 1 8 36 9 37 10 101 11 38 12
REMARK SMILES IDX 100 13 39 14 40 15 41 16 94 17 42 18 99 19 93 20 95 21 43 22
REMARK SMILES IDX 98 23 92 24 91 25 44 27 78 28 57 29 77 30 58 31 61 32 76 33
REMARK SMILES IDX 96 34 59 35 60 36 75 38 97 39 62 40 45 41 46 42 55 43 47 44
REMARK SMILES IDX 48 45 54 46 56 47 49 48 50 49 51 50 52 51 53 52 79 53 80 54
REMARK SMILES IDX 89 55 81 56 82 57 88 58 90 59 83 60 84 61 85 62 86 63 87 64
REMARK SMILES IDX 63 65 64 66 73 67 65 68 66 69 72 70 74 71 67 72 68 73 69 74
REMARK SMILES IDX 70 75 71 76 9 77 10 78 11 79 12 80 13 81 14 82 15 83 16 84
REMARK SMILES IDX 17 85 18 86 19 87 23 88 20 89 22 90 21 91 24 92 25 93 26 94
REMARK SMILES IDX 27 96 28 97 35 98 29 99 30 100 34 101 31 103 33 104 32 105
REMARK H PARENT 95 26 61 37 26 95 29 102
REMARK Flexibility Score: inf
ROOT
ATOM      1  C   UNL A   1      34.752  29.939  27.484  1.00  0.00     0.188 C 
ENDROOT
BRANCH   1   2
ATOM      2  C   UNL A   1      34.783  31.447  27.557  1.00  0.00     0.188 C 
BRANCH   2   3
ATOM      3  O   UNL A   1      33.730  31.916  28.381  1.00  0.00    -0.376 OA
BRANCH   3   4
ATOM      4  C   UNL A   1      33.289  33.248  28.335  1.00  0.00     0.202 C 
BRANCH   4   5
ATOM      5  C   UNL A   1      34.204  34.239  29.025  1.00  0.00     0.261 C 
BRANCH   5   6
ATOM      6  O   UNL A   1      34.291  34.031  30.448  1.00  0.00    -0.460 OA
BRANCH   6   7
ATOM      7  C   UNL A   1      34.917  33.011  31.101  1.00  0.00     0.338 C 
ATOM      8  O   UNL A   1      34.319  32.405  31.987  1.00  0.00    -0.246 OA
BRANCH   7   9
ATOM      9  C   UNL A   1      36.281  32.555  30.728  1.00  0.00     0.060 A 
ATOM     10  C   UNL A   1      36.976  31.574  31.418  1.00  0.00     0.016 A 
ATOM     11  C   UNL A   1      36.852  32.997  29.539  1.00  0.00     0.016 A 
ATOM     12  C   UNL A   1      38.306  31.334  31.252  1.00  0.00     0.010 A 
ATOM     13  C   UNL A   1      38.126  32.544  29.178  1.00  0.00     0.010 A 
ATOM     14  C   UNL A   1      38.874  31.770  30.082  1.00  0.00    -0.014 A 
BRANCH  14  15
ATOM     15  C   UNL A   1      40.307  31.520  29.965  1.00  0.00     0.031 A 
ATOM     16  C   UNL A   1      41.191  32.623  30.424  1.00  0.00     0.074 A 
ATOM     17  C   UNL A   1      40.762  30.284  29.684  1.00  0.00     0.049 A 
ATOM     18  N   UNL A   1      42.479  32.735  30.322  1.00  0.00    -0.248 NA
ATOM     19  C   UNL A   1      40.529  33.760  31.097  1.00  0.00     0.031 C 
ATOM     20  C   UNL A   1      39.929  29.093  29.451  1.00  0.00     0.029 A 
ATOM     21  N   UNL A   1      42.039  29.812  29.583  1.00  0.00    -0.354 N 
ATOM     22  C   UNL A   1      42.776  33.972  30.869  1.00  0.00     0.074 A 
ATOM     23  C   UNL A   1      41.540  34.588  31.283  1.00  0.00     0.031 C 
ATOM     24  C   UNL A   1      40.724  28.035  29.227  1.00  0.00     0.029 A 
ATOM     25  C   UNL A   1      42.105  28.492  29.201  1.00  0.00     0.049 A 
ATOM     26  H   UNL A   1      42.835  30.362  29.767  1.00  0.00     0.167 HD
ATOM     27  C   UNL A   1      43.994  34.528  31.008  1.00  0.00     0.037 A 
ATOM     28  C   UNL A   1      43.171  27.775  28.806  1.00  0.00     0.037 A 
ATOM     29  C   UNL A   1      45.191  33.860  30.590  1.00  0.00     0.049 A 
ATOM     30  C   UNL A   1      44.504  28.479  28.817  1.00  0.00     0.074 A 
ATOM     31  C   UNL A   1      46.485  34.335  30.579  1.00  0.00     0.029 A 
ATOM     32  N   UNL A   1      45.228  32.555  30.111  1.00  0.00    -0.354 N 
ATOM     33  N   UNL A   1      44.787  29.699  29.218  1.00  0.00    -0.248 NA
ATOM     34  C   UNL A   1      45.655  27.725  28.318  1.00  0.00     0.031 C 
ATOM     35  C   UNL A   1      47.297  33.337  30.032  1.00  0.00     0.029 A 
ATOM     36  C   UNL A   1      46.523  32.212  29.779  1.00  0.00     0.049 A 
ATOM     37  H   UNL A   1      44.446  31.964  30.021  1.00  0.00     0.167 HD
ATOM     38  C   UNL A   1      46.157  29.849  29.047  1.00  0.00     0.074 A 
ATOM     39  C   UNL A   1      46.643  28.582  28.534  1.00  0.00     0.031 C 
ATOM     40  C   UNL A   1      46.949  30.927  29.280  1.00  0.00     0.037 A 
BRANCH  27  41
ATOM     41  C   UNL A   1      44.049  35.921  31.547  1.00  0.00     0.058 A 
ATOM     42  C   UNL A   1      43.901  37.049  30.723  1.00  0.00     0.135 A 
ATOM     43  C   UNL A   1      44.290  36.130  32.913  1.00  0.00     0.135 A 
ATOM     44  F   UNL A   1      43.735  36.904  29.398  1.00  0.00    -0.206 F 
ATOM     45  C   UNL A   1      43.988  38.336  31.238  1.00  0.00     0.059 A 
ATOM     46  C   UNL A   1      44.347  37.407  33.454  1.00  0.00     0.059 A 
ATOM     47  F   UNL A   1      44.485  35.085  33.732  1.00  0.00    -0.206 F 
ATOM     48  C   UNL A   1      44.195  38.503  32.608  1.00  0.00     0.060 A 
BRANCH  48  49
ATOM     49  S   UNL A   1      44.233  40.181  33.268  1.00  0.00     0.124 S 
ATOM     50  O   UNL A   1      43.661  39.987  34.597  1.00  0.00    -0.237 OA
ATOM     51  O   UNL A   1      45.658  40.491  33.230  1.00  0.00    -0.237 OA
ATOM     52  O   UNL A   1      43.403  40.933  32.333  1.00  0.00    -0.744 OA
ENDBRANCH  48  49
ENDBRANCH  27  41
BRANCH  28  53
ATOM     53  C   UNL A   1      43.017  26.390  28.275  1.00  0.00     0.058 A 
ATOM     54  C   UNL A   1      43.244  25.263  29.079  1.00  0.00     0.135 A 
ATOM     55  C   UNL A   1      42.692  26.165  26.926  1.00  0.00     0.135 A 
ATOM     56  F   UNL A   1      43.562  25.414  30.373  1.00  0.00    -0.206 F 
ATOM     57  C   UNL A   1      43.198  23.972  28.558  1.00  0.00     0.059 A 
ATOM     58  C   UNL A   1      42.600  24.885  26.391  1.00  0.00     0.059 A 
ATOM     59  F   UNL A   1      42.453  27.201  26.106  1.00  0.00    -0.206 F 
ATOM     60  C   UNL A   1      42.877  23.793  27.210  1.00  0.00     0.060 A 
BRANCH  60  61
ATOM     61  S   UNL A   1      42.825  22.117  26.542  1.00  0.00     0.124 S 
ATOM     62  O   UNL A   1      42.265  21.371  27.662  1.00  0.00    -0.237 OA
ATOM     63  O   UNL A   1      41.953  22.279  25.382  1.00  0.00    -0.237 OA
ATOM     64  O   UNL A   1      44.224  21.834  26.232  1.00  0.00    -0.744 OA
ENDBRANCH  60  61
ENDBRANCH  28  53
BRANCH  40  65
ATOM     65  C   UNL A   1      48.419  30.750  29.032  1.00  0.00     0.058 A 
ATOM     66  C   UNL A   1      49.282  30.250  30.019  1.00  0.00     0.135 A 
ATOM     67  C   UNL A   1      48.958  31.051  27.771  1.00  0.00     0.135 A 
ATOM     68  F   UNL A   1      48.813  29.948  31.240  1.00  0.00    -0.206 F 
ATOM     69  C   UNL A   1      50.641  30.102  29.779  1.00  0.00     0.059 A 
ATOM     70  C   UNL A   1      50.306  30.863  27.494  1.00  0.00     0.059 A 
ATOM     71  F   UNL A   1      48.170  31.512  26.788  1.00  0.00    -0.206 F 
ATOM     72  C   UNL A   1      51.142  30.410  28.512  1.00  0.00     0.060 A 
BRANCH  72  73
ATOM     73  S   UNL A   1      52.906  30.201  28.213  1.00  0.00     0.124 S 
ATOM     74  O   UNL A   1      53.433  30.185  29.573  1.00  0.00    -0.237 OA
ATOM     75  O   UNL A   1      52.949  28.928  27.499  1.00  0.00    -0.237 OA
ATOM     76  O   UNL A   1      53.258  31.372  27.417  1.00  0.00    -0.744 OA
ENDBRANCH  72  73
ENDBRANCH  40  65
ENDBRANCH  14  15
ENDBRANCH   7   9
ENDBRANCH   6   7
ENDBRANCH   5   6
ENDBRANCH   4   5
ENDBRANCH   3   4
ENDBRANCH   2   3
ENDBRANCH   1   2
BRANCH   1  77
ATOM     77  O   UNL A   1      33.429  29.431  27.407  1.00  0.00    -0.377 OA
BRANCH  77  78
ATOM     78  C   UNL A   1      33.144  28.498  26.359  1.00  0.00     0.188 C 
BRANCH  78  79
ATOM     79  C   UNL A   1      32.810  28.923  24.906  1.00  0.00     0.188 C 
BRANCH  79  80
ATOM     80  O   UNL A   1      32.407  27.977  23.930  1.00  0.00    -0.376 OA
BRANCH  80  81
ATOM     81  C   UNL A   1      33.172  27.917  22.707  1.00  0.00     0.202 C 
BRANCH  81  82
ATOM     82  C   UNL A   1      33.412  26.342  22.084  1.00  0.00     0.261 C 
BRANCH  82  83
ATOM     83  O   UNL A   1      32.518  24.496  22.602  1.00  0.00    -0.458 OA
BRANCH  83  84
ATOM     84  C   UNL A   1      31.484  23.592  23.065  1.00  0.00     0.359 C 
ATOM     85  O   UNL A   1      30.339  24.000  23.236  1.00  0.00    -0.244 OA
BRANCH  84  86
ATOM     86  C   UNL A   1      31.794  22.133  23.412  1.00  0.00     0.179 A 
ATOM     87  N   UNL A   1      31.904  21.329  22.303  1.00  0.00    -0.245 NA
ATOM     88  C   UNL A   1      31.907  21.576  24.691  1.00  0.00     0.161 A 
ATOM     89  C   UNL A   1      32.113  20.007  22.519  1.00  0.00     0.132 A 
ATOM     90  N   UNL A   1      32.114  20.228  24.886  1.00  0.00    -0.247 NA
ATOM     91  C   UNL A   1      32.219  19.465  23.783  1.00  0.00     0.132 A 
BRANCH  88  92
ATOM     92  C   UNL A   1      31.800  22.323  25.976  1.00  0.00     0.278 C 
ATOM     93  O   UNL A   1      30.717  22.726  26.395  1.00  0.00    -0.267 OA
ATOM     94  N   UNL A   1      32.934  22.582  26.682  1.00  0.00    -0.303 N 
ATOM     95  H   UNL A   1      32.859  22.682  27.659  1.00  0.00     0.172 HD
BRANCH  94  96
ATOM     96  C   UNL A   1      34.183  22.711  26.107  1.00  0.00     0.164 A 
ATOM     97  N   UNL A   1      35.001  24.216  26.304  1.00  0.00    -0.155 NA
ATOM     98  C   UNL A   1      35.515  21.336  25.579  1.00  0.00     0.063 A 
ATOM     99  N   UNL A   1      36.821  23.882  26.150  1.00  0.00    -0.259 N 
ATOM    100  C   UNL A   1      37.113  22.154  25.637  1.00  0.00     0.157 A 
ATOM    101  C   UNL A   1      35.633  19.972  25.270  1.00  0.00     0.017 A 
ATOM    102  H   UNL A   1      37.530  24.543  26.322  1.00  0.00     0.192 HD
ATOM    103  N   UNL A   1      38.257  21.612  25.192  1.00  0.00    -0.237 NA
ATOM    104  C   UNL A   1      36.894  19.528  24.813  1.00  0.00     0.021 A 
ATOM    105  C   UNL A   1      38.061  20.331  24.774  1.00  0.00     0.113 A 
ENDBRANCH  94  96
ENDBRANCH  88  92
ENDBRANCH  84  86
ENDBRANCH  83  84
ENDBRANCH  82  83
ENDBRANCH  81  82
ENDBRANCH  80  81
ENDBRANCH  79  80
ENDBRANCH  78  79
ENDBRANCH  77  78
ENDBRANCH   1  77
TORSDOF 25
ENDMDL
