MODEL 1
REMARK VINA RESULT:      -8.8      0.000      0.000
REMARK SMILES CC[C@@H]1CCCC[C@@]1(O)[C@H](F)C(=O)OCCOCCOCCOCCOC(=O)c1ccc(-c2c3nc(c(-c4c(F)cc(S(=O)(=O)[O-])cc4F)c4ccc([nH]4)c(-c4c(F)cc(S(=O)(=O)[O-])cc4F)c4nc(c(-c5c(F)cc(S(=O)(=O)[O-])cc5F)c5ccc2[nH]5)C=C4)C=C3)cc1
REMARK SMILES IDX 21 1 20 2 19 3 18 4 17 5 16 6 15 7 14 8 12 9 13 10 10 11
REMARK SMILES IDX 11 12 8 13 3 14 4 15 5 16 7 17 6 18 2 19 1 20 9 21 22 23
REMARK SMILES IDX 23 24 24 25 25 26 26 27 27 28 28 29 29 30 30 31 94 32 31 33
REMARK SMILES IDX 93 34 32 35 33 36 34 37 87 38 35 39 92 40 86 41 88 42 36 43
REMARK SMILES IDX 91 44 85 45 84 46 37 48 71 49 50 50 70 51 51 52 54 53 69 54
REMARK SMILES IDX 89 55 52 56 53 57 68 59 90 60 55 61 38 62 39 63 48 64 40 65
REMARK SMILES IDX 41 66 47 67 49 68 42 69 43 70 44 71 45 72 46 73 72 74 73 75
REMARK SMILES IDX 82 76 74 77 75 78 81 79 83 80 76 81 77 82 78 83 79 84 80 85
REMARK SMILES IDX 56 86 57 87 66 88 58 89 59 90 65 91 67 92 60 93 61 94 62 95
REMARK SMILES IDX 63 96 64 97
REMARK H PARENT 9 22 88 47 54 58
REMARK Flexibility Score: inf
ROOT
ATOM      1  C   UNL A   1      40.629  20.581  26.511  1.00  0.00     0.188 C 
ENDROOT
BRANCH   1   2
ATOM      2  O   UNL A   1      39.439  20.686  25.737  1.00  0.00    -0.377 OA
BRANCH   2   3
ATOM      3  C   UNL A   1      38.743  21.906  25.846  1.00  0.00     0.188 C 
BRANCH   3   4
ATOM      4  C   UNL A   1      37.335  21.853  25.230  1.00  0.00     0.188 C 
BRANCH   4   5
ATOM      5  O   UNL A   1      37.011  22.507  24.007  1.00  0.00    -0.376 OA
BRANCH   5   6
ATOM      6  C   UNL A   1      35.707  22.989  23.700  1.00  0.00     0.202 C 
BRANCH   6   7
ATOM      7  C   UNL A   1      34.531  22.959  24.685  1.00  0.00     0.261 C 
BRANCH   7   8
ATOM      8  O   UNL A   1      33.338  23.542  24.188  1.00  0.00    -0.461 OA
BRANCH   8   9
ATOM      9  C   UNL A   1      32.510  24.099  25.113  1.00  0.00     0.343 C 
ATOM     10  O   UNL A   1      32.481  23.829  26.308  1.00  0.00    -0.249 OA
BRANCH   9  11
ATOM     11  C   UNL A   1      31.737  25.232  24.471  1.00  0.00     0.307 C 
ATOM     12  F   UNL A   1      30.463  24.844  24.173  1.00  0.00    -0.232 F 
BRANCH  11  13
ATOM     13  C   UNL A   1      31.634  26.511  25.323  1.00  0.00     0.110 C 
ATOM     14  C   UNL A   1      33.069  27.040  25.577  1.00  0.00     0.024 C 
ATOM     15  C   UNL A   1      33.696  27.633  24.293  1.00  0.00     0.007 C 
ATOM     16  C   UNL A   1      32.812  28.618  23.535  1.00  0.00     0.001 C 
ATOM     17  C   UNL A   1      30.758  27.557  24.583  1.00  0.00     0.039 C 
ATOM     18  C   UNL A   1      31.398  28.104  23.306  1.00  0.00     0.003 C 
BRANCH  14  19
ATOM     19  C   UNL A   1      33.248  27.941  26.819  1.00  0.00     0.003 C 
ATOM     20  C   UNL A   1      34.455  28.860  26.880  1.00  0.00     0.004 C 
ENDBRANCH  14  19
BRANCH  13  21
ATOM     21  O   UNL A   1      31.018  26.183  26.573  1.00  0.00    -0.386 OA
ATOM     22  H   UNL A   1      30.290  25.559  26.421  1.00  0.00     0.211 HD
ENDBRANCH  13  21
ENDBRANCH  11  13
ENDBRANCH   9  11
ENDBRANCH   8   9
ENDBRANCH   7   8
ENDBRANCH   6   7
ENDBRANCH   5   6
ENDBRANCH   4   5
ENDBRANCH   3   4
ENDBRANCH   2   3
ENDBRANCH   1   2
BRANCH   1  23
ATOM     23  C   UNL A   1      40.795  21.503  27.748  1.00  0.00     0.188 C 
BRANCH  23  24
ATOM     24  O   UNL A   1      41.823  22.481  27.651  1.00  0.00    -0.376 OA
BRANCH  24  25
ATOM     25  C   UNL A   1      43.005  22.168  26.930  1.00  0.00     0.202 C 
BRANCH  25  26
ATOM     26  C   UNL A   1      43.684  23.289  26.121  1.00  0.00     0.261 C 
BRANCH  26  27
ATOM     27  O   UNL A   1      43.621  24.606  26.684  1.00  0.00    -0.460 OA
BRANCH  27  28
ATOM     28  C   UNL A   1      42.757  25.478  26.125  1.00  0.00     0.338 C 
ATOM     29  O   UNL A   1      42.329  25.453  24.981  1.00  0.00    -0.246 OA
BRANCH  28  30
ATOM     30  C   UNL A   1      42.245  26.358  27.195  1.00  0.00     0.060 A 
ATOM     31  C   UNL A   1      42.763  27.655  27.310  1.00  0.00     0.016 A 
ATOM     32  C   UNL A   1      41.257  25.909  28.073  1.00  0.00     0.016 A 
ATOM     33  C   UNL A   1      42.321  28.496  28.332  1.00  0.00     0.010 A 
ATOM     34  C   UNL A   1      40.834  26.742  29.111  1.00  0.00     0.010 A 
ATOM     35  C   UNL A   1      41.391  28.024  29.266  1.00  0.00    -0.014 A 
BRANCH  35  36
ATOM     36  C   UNL A   1      41.160  28.785  30.518  1.00  0.00     0.031 A 
ATOM     37  C   UNL A   1      40.040  29.791  30.540  1.00  0.00     0.074 A 
ATOM     38  C   UNL A   1      41.910  28.578  31.615  1.00  0.00     0.049 A 
ATOM     39  N   UNL A   1      39.684  30.617  31.487  1.00  0.00    -0.248 NA
ATOM     40  C   UNL A   1      39.213  29.874  29.325  1.00  0.00     0.031 C 
ATOM     41  C   UNL A   1      42.989  27.599  31.728  1.00  0.00     0.029 A 
ATOM     42  N   UNL A   1      41.881  29.192  32.841  1.00  0.00    -0.354 N 
ATOM     43  C   UNL A   1      38.601  31.327  30.980  1.00  0.00     0.074 A 
ATOM     44  C   UNL A   1      38.377  30.855  29.631  1.00  0.00     0.031 C 
ATOM     45  C   UNL A   1      43.532  27.691  32.955  1.00  0.00     0.029 A 
ATOM     46  C   UNL A   1      42.864  28.759  33.698  1.00  0.00     0.049 A 
ATOM     47  H   UNL A   1      41.219  29.879  33.084  1.00  0.00     0.167 HD
ATOM     48  C   UNL A   1      37.857  32.281  31.587  1.00  0.00     0.037 A 
ATOM     49  C   UNL A   1      43.201  29.197  34.929  1.00  0.00     0.037 A 
ATOM     50  C   UNL A   1      38.090  32.747  32.928  1.00  0.00     0.049 A 
ATOM     51  C   UNL A   1      42.407  30.315  35.557  1.00  0.00     0.074 A 
ATOM     52  C   UNL A   1      37.385  33.699  33.642  1.00  0.00     0.029 A 
ATOM     53  N   UNL A   1      39.113  32.304  33.755  1.00  0.00    -0.354 N 
ATOM     54  N   UNL A   1      41.373  30.966  35.076  1.00  0.00    -0.248 NA
ATOM     55  C   UNL A   1      42.823  30.756  36.896  1.00  0.00     0.031 C 
ATOM     56  C   UNL A   1      38.018  33.877  34.876  1.00  0.00     0.029 A 
ATOM     57  C   UNL A   1      39.075  32.985  34.961  1.00  0.00     0.049 A 
ATOM     58  H   UNL A   1      39.768  31.608  33.519  1.00  0.00     0.167 HD
ATOM     59  C   UNL A   1      40.995  31.868  36.068  1.00  0.00     0.074 A 
ATOM     60  C   UNL A   1      41.906  31.673  37.176  1.00  0.00     0.031 C 
ATOM     61  C   UNL A   1      39.983  32.773  36.062  1.00  0.00     0.037 A 
BRANCH  48  62
ATOM     62  C   UNL A   1      36.743  32.908  30.792  1.00  0.00     0.058 A 
ATOM     63  C   UNL A   1      35.401  32.539  30.973  1.00  0.00     0.135 A 
ATOM     64  C   UNL A   1      37.023  33.919  29.857  1.00  0.00     0.135 A 
ATOM     65  F   UNL A   1      35.077  31.564  31.838  1.00  0.00    -0.206 F 
ATOM     66  C   UNL A   1      34.379  33.130  30.237  1.00  0.00     0.059 A 
ATOM     67  C   UNL A   1      36.013  34.546  29.134  1.00  0.00     0.059 A 
ATOM     68  F   UNL A   1      38.289  34.308  29.640  1.00  0.00    -0.206 F 
ATOM     69  C   UNL A   1      34.695  34.135  29.321  1.00  0.00     0.060 A 
BRANCH  69  70
ATOM     70  S   UNL A   1      33.355  34.899  28.383  1.00  0.00     0.124 S 
ATOM     71  O   UNL A   1      32.759  35.774  29.388  1.00  0.00    -0.237 OA
ATOM     72  O   UNL A   1      34.073  35.571  27.305  1.00  0.00    -0.237 OA
ATOM     73  O   UNL A   1      32.535  33.764  27.975  1.00  0.00    -0.744 OA
ENDBRANCH  69  70
ENDBRANCH  48  62
BRANCH  49  74
ATOM     74  C   UNL A   1      44.357  28.588  35.645  1.00  0.00     0.058 A 
ATOM     75  C   UNL A   1      45.657  29.086  35.481  1.00  0.00     0.135 A 
ATOM     76  C   UNL A   1      44.183  27.491  36.505  1.00  0.00     0.135 A 
ATOM     77  F   UNL A   1      45.880  30.124  34.660  1.00  0.00    -0.206 F 
ATOM     78  C   UNL A   1      46.746  28.513  36.131  1.00  0.00     0.059 A 
ATOM     79  C   UNL A   1      45.251  26.919  37.189  1.00  0.00     0.059 A 
ATOM     80  F   UNL A   1      42.958  26.979  36.701  1.00  0.00    -0.206 F 
ATOM     81  C   UNL A   1      46.531  27.432  36.988  1.00  0.00     0.060 A 
BRANCH  81  82
ATOM     82  S   UNL A   1      47.944  26.728  37.865  1.00  0.00     0.124 S 
ATOM     83  O   UNL A   1      48.013  27.580  39.046  1.00  0.00    -0.237 OA
ATOM     84  O   UNL A   1      47.505  25.353  38.093  1.00  0.00    -0.237 OA
ATOM     85  O   UNL A   1      49.040  26.877  36.913  1.00  0.00    -0.744 OA
ENDBRANCH  81  82
ENDBRANCH  49  74
BRANCH  61  86
ATOM     86  C   UNL A   1      39.770  33.592  37.307  1.00  0.00     0.058 A 
ATOM     87  C   UNL A   1      40.479  34.779  37.550  1.00  0.00     0.135 A 
ATOM     88  C   UNL A   1      38.792  33.213  38.244  1.00  0.00     0.135 A 
ATOM     89  F   UNL A   1      41.427  35.186  36.691  1.00  0.00    -0.206 F 
ATOM     90  C   UNL A   1      40.246  35.546  38.687  1.00  0.00     0.059 A 
ATOM     91  C   UNL A   1      38.520  33.982  39.371  1.00  0.00     0.059 A 
ATOM     92  F   UNL A   1      38.074  32.095  38.057  1.00  0.00    -0.206 F 
ATOM     93  C   UNL A   1      39.261  35.142  39.591  1.00  0.00     0.060 A 
BRANCH  93  94
ATOM     94  S   UNL A   1      38.945  36.165  41.044  1.00  0.00     0.124 S 
ATOM     95  O   UNL A   1      40.247  36.149  41.703  1.00  0.00    -0.237 OA
ATOM     96  O   UNL A   1      38.553  37.439  40.448  1.00  0.00    -0.237 OA
ATOM     97  O   UNL A   1      37.880  35.450  41.740  1.00  0.00    -0.744 OA
ENDBRANCH  93  94
ENDBRANCH  61  86
ENDBRANCH  35  36
ENDBRANCH  28  30
ENDBRANCH  27  28
ENDBRANCH  26  27
ENDBRANCH  25  26
ENDBRANCH  24  25
ENDBRANCH  23  24
ENDBRANCH   1  23
TORSDOF 26
ENDMDL
MODEL 2
REMARK VINA RESULT:      -8.5      6.167     11.752
REMARK SMILES CC[C@@H]1CCCC[C@@]1(O)[C@H](F)C(=O)OCCOCCOCCOCCOC(=O)c1ccc(-c2c3nc(c(-c4c(F)cc(S(=O)(=O)[O-])cc4F)c4ccc([nH]4)c(-c4c(F)cc(S(=O)(=O)[O-])cc4F)c4nc(c(-c5c(F)cc(S(=O)(=O)[O-])cc5F)c5ccc2[nH]5)C=C4)C=C3)cc1
REMARK SMILES IDX 21 1 20 2 19 3 18 4 17 5 16 6 15 7 14 8 12 9 13 10 10 11
REMARK SMILES IDX 11 12 8 13 3 14 4 15 5 16 7 17 6 18 2 19 1 20 9 21 22 23
REMARK SMILES IDX 23 24 24 25 25 26 26 27 27 28 28 29 29 30 30 31 94 32 31 33
REMARK SMILES IDX 93 34 32 35 33 36 34 37 87 38 35 39 92 40 86 41 88 42 36 43
REMARK SMILES IDX 91 44 85 45 84 46 37 48 71 49 50 50 70 51 51 52 54 53 69 54
REMARK SMILES IDX 89 55 52 56 53 57 68 59 90 60 55 61 38 62 39 63 48 64 40 65
REMARK SMILES IDX 41 66 47 67 49 68 42 69 43 70 44 71 45 72 46 73 72 74 73 75
REMARK SMILES IDX 82 76 74 77 75 78 81 79 83 80 76 81 77 82 78 83 79 84 80 85
REMARK SMILES IDX 56 86 57 87 66 88 58 89 59 90 65 91 67 92 60 93 61 94 62 95
REMARK SMILES IDX 63 96 64 97
REMARK H PARENT 9 22 88 47 54 58
REMARK Flexibility Score: inf
ROOT
ATOM      1  C   UNL A   1      33.235  30.768  26.647  1.00  0.00     0.188 C 
ENDROOT
BRANCH   1   2
ATOM      2  O   UNL A   1      31.858  30.454  26.819  1.00  0.00    -0.377 OA
BRANCH   2   3
ATOM      3  C   UNL A   1      31.584  29.260  27.514  1.00  0.00     0.188 C 
BRANCH   3   4
ATOM      4  C   UNL A   1      31.942  27.999  26.708  1.00  0.00     0.188 C 
BRANCH   4   5
ATOM      5  O   UNL A   1      31.188  26.794  26.801  1.00  0.00    -0.376 OA
BRANCH   5   6
ATOM      6  C   UNL A   1      31.289  25.734  25.856  1.00  0.00     0.202 C 
BRANCH   6   7
ATOM      7  C   UNL A   1      30.994  24.264  26.185  1.00  0.00     0.261 C 
BRANCH   7   8
ATOM      8  O   UNL A   1      32.004  23.621  26.944  1.00  0.00    -0.461 OA
BRANCH   8   9
ATOM      9  C   UNL A   1      33.286  23.843  26.550  1.00  0.00     0.343 C 
ATOM     10  O   UNL A   1      33.848  24.931  26.508  1.00  0.00    -0.249 OA
BRANCH   9  11
ATOM     11  C   UNL A   1      33.975  22.513  26.326  1.00  0.00     0.307 C 
ATOM     12  F   UNL A   1      33.406  21.536  27.088  1.00  0.00    -0.232 F 
BRANCH  11  13
ATOM     13  C   UNL A   1      33.965  22.015  24.868  1.00  0.00     0.110 C 
ATOM     14  C   UNL A   1      34.462  23.169  23.959  1.00  0.00     0.024 C 
ATOM     15  C   UNL A   1      35.977  23.425  24.135  1.00  0.00     0.007 C 
ATOM     16  C   UNL A   1      36.857  22.181  24.071  1.00  0.00     0.001 C 
ATOM     17  C   UNL A   1      34.866  20.757  24.745  1.00  0.00     0.039 C 
ATOM     18  C   UNL A   1      36.354  21.043  24.948  1.00  0.00     0.003 C 
BRANCH  14  19
ATOM     19  C   UNL A   1      34.019  23.104  22.480  1.00  0.00     0.003 C 
ATOM     20  C   UNL A   1      32.861  23.977  22.031  1.00  0.00     0.004 C 
ENDBRANCH  14  19
BRANCH  13  21
ATOM     21  O   UNL A   1      32.623  21.668  24.509  1.00  0.00    -0.386 OA
ATOM     22  H   UNL A   1      32.135  22.472  24.267  1.00  0.00     0.211 HD
ENDBRANCH  13  21
ENDBRANCH  11  13
ENDBRANCH   9  11
ENDBRANCH   8   9
ENDBRANCH   7   8
ENDBRANCH   6   7
ENDBRANCH   5   6
ENDBRANCH   4   5
ENDBRANCH   3   4
ENDBRANCH   2   3
ENDBRANCH   1   2
BRANCH   1  23
ATOM     23  C   UNL A   1      34.009  31.395  27.837  1.00  0.00     0.188 C 
BRANCH  23  24
ATOM     24  O   UNL A   1      34.797  32.536  27.525  1.00  0.00    -0.376 OA
BRANCH  24  25
ATOM     25  C   UNL A   1      35.157  33.430  28.568  1.00  0.00     0.202 C 
BRANCH  25  26
ATOM     26  C   UNL A   1      36.646  33.559  28.938  1.00  0.00     0.261 C 
BRANCH  26  27
ATOM     27  O   UNL A   1      37.017  33.107  30.247  1.00  0.00    -0.460 OA
BRANCH  27  28
ATOM     28  C   UNL A   1      36.780  31.813  30.546  1.00  0.00     0.338 C 
ATOM     29  O   UNL A   1      35.723  31.331  30.922  1.00  0.00    -0.246 OA
BRANCH  28  30
ATOM     30  C   UNL A   1      37.965  31.030  30.142  1.00  0.00     0.060 A 
ATOM     31  C   UNL A   1      38.877  30.625  31.126  1.00  0.00     0.016 A 
ATOM     32  C   UNL A   1      38.172  30.692  28.803  1.00  0.00     0.016 A 
ATOM     33  C   UNL A   1      40.021  29.913  30.768  1.00  0.00     0.010 A 
ATOM     34  C   UNL A   1      39.331  30.002  28.442  1.00  0.00     0.010 A 
ATOM     35  C   UNL A   1      40.277  29.642  29.418  1.00  0.00    -0.014 A 
BRANCH  35  36
ATOM     36  C   UNL A   1      41.624  29.175  29.007  1.00  0.00     0.031 A 
ATOM     37  C   UNL A   1      42.742  30.181  28.971  1.00  0.00     0.074 A 
ATOM     38  C   UNL A   1      41.855  27.888  28.691  1.00  0.00     0.049 A 
ATOM     39  N   UNL A   1      43.982  30.032  28.587  1.00  0.00    -0.248 NA
ATOM     40  C   UNL A   1      42.412  31.541  29.429  1.00  0.00     0.031 C 
ATOM     41  C   UNL A   1      40.863  26.816  28.735  1.00  0.00     0.029 A 
ATOM     42  N   UNL A   1      43.002  27.271  28.260  1.00  0.00    -0.354 N 
ATOM     43  C   UNL A   1      44.578  31.279  28.745  1.00  0.00     0.074 A 
ATOM     44  C   UNL A   1      43.556  32.180  29.232  1.00  0.00     0.031 C 
ATOM     45  C   UNL A   1      41.442  25.672  28.328  1.00  0.00     0.029 A 
ATOM     46  C   UNL A   1      42.832  25.941  27.961  1.00  0.00     0.049 A 
ATOM     47  H   UNL A   1      43.864  27.738  28.172  1.00  0.00     0.167 HD
ATOM     48  C   UNL A   1      45.862  31.637  28.512  1.00  0.00     0.037 A 
ATOM     49  C   UNL A   1      43.695  25.052  27.426  1.00  0.00     0.037 A 
ATOM     50  C   UNL A   1      46.871  30.734  28.025  1.00  0.00     0.049 A 
ATOM     51  C   UNL A   1      45.100  25.492  27.102  1.00  0.00     0.074 A 
ATOM     52  C   UNL A   1      48.205  30.992  27.769  1.00  0.00     0.029 A 
ATOM     53  N   UNL A   1      46.655  29.400  27.708  1.00  0.00    -0.354 N 
ATOM     54  N   UNL A   1      45.659  26.668  27.273  1.00  0.00    -0.248 NA
ATOM     55  C   UNL A   1      45.995  24.484  26.514  1.00  0.00     0.031 C 
ATOM     56  C   UNL A   1      48.781  29.833  27.240  1.00  0.00     0.029 A 
ATOM     57  C   UNL A   1      47.824  28.831  27.232  1.00  0.00     0.049 A 
ATOM     58  H   UNL A   1      45.796  28.928  27.807  1.00  0.00     0.167 HD
ATOM     59  C   UNL A   1      46.978  26.530  26.847  1.00  0.00     0.074 A 
ATOM     60  C   UNL A   1      47.134  25.156  26.418  1.00  0.00     0.031 C 
ATOM     61  C   UNL A   1      47.969  27.457  26.817  1.00  0.00     0.037 A 
BRANCH  48  62
ATOM     62  C   UNL A   1      46.240  33.074  28.749  1.00  0.00     0.058 A 
ATOM     63  C   UNL A   1      46.710  33.525  29.993  1.00  0.00     0.135 A 
ATOM     64  C   UNL A   1      46.159  34.009  27.703  1.00  0.00     0.135 A 
ATOM     65  F   UNL A   1      46.788  32.680  31.034  1.00  0.00    -0.206 F 
ATOM     66  C   UNL A   1      47.062  34.855  30.198  1.00  0.00     0.059 A 
ATOM     67  C   UNL A   1      46.537  35.337  27.878  1.00  0.00     0.059 A 
ATOM     68  F   UNL A   1      45.712  33.634  26.495  1.00  0.00    -0.206 F 
ATOM     69  C   UNL A   1      46.974  35.753  29.133  1.00  0.00     0.060 A 
BRANCH  69  70
ATOM     70  S   UNL A   1      47.445  37.473  29.415  1.00  0.00     0.124 S 
ATOM     71  O   UNL A   1      48.883  37.348  29.635  1.00  0.00    -0.237 OA
ATOM     72  O   UNL A   1      47.050  38.113  28.166  1.00  0.00    -0.237 OA
ATOM     73  O   UNL A   1      46.664  37.853  30.587  1.00  0.00    -0.744 OA
ENDBRANCH  69  70
ENDBRANCH  48  62
BRANCH  49  74
ATOM     74  C   UNL A   1      43.250  23.658  27.147  1.00  0.00     0.058 A 
ATOM     75  C   UNL A   1      43.024  23.216  25.835  1.00  0.00     0.135 A 
ATOM     76  C   UNL A   1      43.036  22.741  28.189  1.00  0.00     0.135 A 
ATOM     77  F   UNL A   1      43.199  24.057  24.804  1.00  0.00    -0.206 F 
ATOM     78  C   UNL A   1      42.590  21.922  25.565  1.00  0.00     0.059 A 
ATOM     79  C   UNL A   1      42.631  21.433  27.943  1.00  0.00     0.059 A 
ATOM     80  F   UNL A   1      43.242  23.110  29.463  1.00  0.00    -0.206 F 
ATOM     81  C   UNL A   1      42.402  21.035  26.626  1.00  0.00     0.060 A 
BRANCH  81  82
ATOM     82  S   UNL A   1      41.887  19.343  26.261  1.00  0.00     0.124 S 
ATOM     83  O   UNL A   1      40.436  19.478  26.224  1.00  0.00    -0.237 OA
ATOM     84  O   UNL A   1      42.539  19.097  24.978  1.00  0.00    -0.237 OA
ATOM     85  O   UNL A   1      42.422  18.579  27.384  1.00  0.00    -0.744 OA
ENDBRANCH  81  82
ENDBRANCH  49  74
BRANCH  61  86
ATOM     86  C   UNL A   1      49.330  27.011  26.350  1.00  0.00     0.058 A 
ATOM     87  C   UNL A   1      50.277  26.462  27.229  1.00  0.00     0.135 A 
ATOM     88  C   UNL A   1      49.665  27.076  24.986  1.00  0.00     0.135 A 
ATOM     89  F   UNL A   1      50.012  26.379  28.541  1.00  0.00    -0.206 F 
ATOM     90  C   UNL A   1      51.517  26.021  26.777  1.00  0.00     0.059 A 
ATOM     91  C   UNL A   1      50.886  26.610  24.509  1.00  0.00     0.059 A 
ATOM     92  F   UNL A   1      48.793  27.579  24.099  1.00  0.00    -0.206 F 
ATOM     93  C   UNL A   1      51.811  26.094  25.414  1.00  0.00     0.060 A 
BRANCH  93  94
ATOM     94  S   UNL A   1      53.410  25.485  24.838  1.00  0.00     0.124 S 
ATOM     95  O   UNL A   1      53.353  25.810  23.416  1.00  0.00    -0.237 OA
ATOM     96  O   UNL A   1      54.348  26.274  25.632  1.00  0.00    -0.237 OA
ATOM     97  O   UNL A   1      53.368  24.062  25.158  1.00  0.00    -0.744 OA
ENDBRANCH  93  94
ENDBRANCH  61  86
ENDBRANCH  35  36
ENDBRANCH  28  30
ENDBRANCH  27  28
ENDBRANCH  26  27
ENDBRANCH  25  26
ENDBRANCH  24  25
ENDBRANCH  23  24
ENDBRANCH   1  23
TORSDOF 26
ENDMDL
MODEL 3
REMARK VINA RESULT:      -8.3      1.036      8.314
REMARK SMILES CC[C@@H]1CCCC[C@@]1(O)[C@H](F)C(=O)OCCOCCOCCOCCOC(=O)c1ccc(-c2c3nc(c(-c4c(F)cc(S(=O)(=O)[O-])cc4F)c4ccc([nH]4)c(-c4c(F)cc(S(=O)(=O)[O-])cc4F)c4nc(c(-c5c(F)cc(S(=O)(=O)[O-])cc5F)c5ccc2[nH]5)C=C4)C=C3)cc1
REMARK SMILES IDX 21 1 20 2 19 3 18 4 17 5 16 6 15 7 14 8 12 9 13 10 10 11
REMARK SMILES IDX 11 12 8 13 3 14 4 15 5 16 7 17 6 18 2 19 1 20 9 21 22 23
REMARK SMILES IDX 23 24 24 25 25 26 26 27 27 28 28 29 29 30 30 31 94 32 31 33
REMARK SMILES IDX 93 34 32 35 33 36 34 37 87 38 35 39 92 40 86 41 88 42 36 43
REMARK SMILES IDX 91 44 85 45 84 46 37 48 71 49 50 50 70 51 51 52 54 53 69 54
REMARK SMILES IDX 89 55 52 56 53 57 68 59 90 60 55 61 38 62 39 63 48 64 40 65
REMARK SMILES IDX 41 66 47 67 49 68 42 69 43 70 44 71 45 72 46 73 72 74 73 75
REMARK SMILES IDX 82 76 74 77 75 78 81 79 83 80 76 81 77 82 78 83 79 84 80 85
REMARK SMILES IDX 56 86 57 87 66 88 58 89 59 90 65 91 67 92 60 93 61 94 62 95
REMARK SMILES IDX 63 96 64 97
REMARK H PARENT 9 22 88 47 54 58
REMARK Flexibility Score: inf
ROOT
ATOM      1  C   UNL A   1      40.295  20.967  26.418  1.00  0.00     0.188 C 
ENDROOT
BRANCH   1   2
ATOM      2  O   UNL A   1      39.116  21.682  26.063  1.00  0.00    -0.377 OA
BRANCH   2   3
ATOM      3  C   UNL A   1      38.147  20.950  25.349  1.00  0.00     0.188 C 
BRANCH   3   4
ATOM      4  C   UNL A   1      37.027  21.835  24.777  1.00  0.00     0.188 C 
BRANCH   4   5
ATOM      5  O   UNL A   1      35.766  21.984  25.423  1.00  0.00    -0.376 OA
BRANCH   5   6
ATOM      6  C   UNL A   1      34.883  23.072  25.172  1.00  0.00     0.202 C 
BRANCH   6   7
ATOM      7  C   UNL A   1      34.511  23.565  23.767  1.00  0.00     0.261 C 
BRANCH   7   8
ATOM      8  O   UNL A   1      34.058  24.908  23.719  1.00  0.00    -0.461 OA
BRANCH   8   9
ATOM      9  C   UNL A   1      33.317  25.254  22.634  1.00  0.00     0.343 C 
ATOM     10  O   UNL A   1      33.650  25.122  21.462  1.00  0.00    -0.249 OA
BRANCH   9  11
ATOM     11  C   UNL A   1      31.936  25.679  23.088  1.00  0.00     0.307 C 
ATOM     12  F   UNL A   1      31.844  25.656  24.449  1.00  0.00    -0.232 F 
BRANCH  11  13
ATOM     13  C   UNL A   1      31.506  27.085  22.628  1.00  0.00     0.110 C 
ATOM     14  C   UNL A   1      30.300  27.531  23.496  1.00  0.00     0.024 C 
ATOM     15  C   UNL A   1      30.728  27.853  24.947  1.00  0.00     0.007 C 
ATOM     16  C   UNL A   1      31.941  28.768  25.078  1.00  0.00     0.001 C 
ATOM     17  C   UNL A   1      32.704  28.062  22.762  1.00  0.00     0.039 C 
ATOM     18  C   UNL A   1      33.114  28.339  24.209  1.00  0.00     0.003 C 
BRANCH  14  19
ATOM     19  C   UNL A   1      29.381  28.606  22.875  1.00  0.00     0.003 C 
ATOM     20  C   UNL A   1      29.701  30.068  23.129  1.00  0.00     0.004 C 
ENDBRANCH  14  19
BRANCH  13  21
ATOM     21  O   UNL A   1      31.106  27.018  21.255  1.00  0.00    -0.386 OA
ATOM     22  H   UNL A   1      30.415  27.678  21.087  1.00  0.00     0.211 HD
ENDBRANCH  13  21
ENDBRANCH  11  13
ENDBRANCH   9  11
ENDBRANCH   8   9
ENDBRANCH   7   8
ENDBRANCH   6   7
ENDBRANCH   5   6
ENDBRANCH   4   5
ENDBRANCH   3   4
ENDBRANCH   2   3
ENDBRANCH   1   2
BRANCH   1  23
ATOM     23  C   UNL A   1      40.920  21.213  27.817  1.00  0.00     0.188 C 
BRANCH  23  24
ATOM     24  O   UNL A   1      41.876  22.263  27.886  1.00  0.00    -0.376 OA
BRANCH  24  25
ATOM     25  C   UNL A   1      43.184  22.037  27.381  1.00  0.00     0.202 C 
BRANCH  25  26
ATOM     26  C   UNL A   1      43.726  22.993  26.303  1.00  0.00     0.261 C 
BRANCH  26  27
ATOM     27  O   UNL A   1      43.767  24.384  26.651  1.00  0.00    -0.460 OA
BRANCH  27  28
ATOM     28  C   UNL A   1      42.927  25.211  25.997  1.00  0.00     0.338 C 
ATOM     29  O   UNL A   1      42.548  25.106  24.840  1.00  0.00    -0.246 OA
BRANCH  28  30
ATOM     30  C   UNL A   1      42.369  26.160  26.981  1.00  0.00     0.060 A 
ATOM     31  C   UNL A   1      42.839  27.480  26.991  1.00  0.00     0.016 A 
ATOM     32  C   UNL A   1      41.382  25.753  27.882  1.00  0.00     0.016 A 
ATOM     33  C   UNL A   1      42.353  28.388  27.932  1.00  0.00     0.010 A 
ATOM     34  C   UNL A   1      40.915  26.656  28.840  1.00  0.00     0.010 A 
ATOM     35  C   UNL A   1      41.425  27.965  28.891  1.00  0.00    -0.014 A 
BRANCH  35  36
ATOM     36  C   UNL A   1      41.149  28.821  30.071  1.00  0.00     0.031 A 
ATOM     37  C   UNL A   1      41.996  28.630  31.300  1.00  0.00     0.074 A 
ATOM     38  C   UNL A   1      40.184  29.758  30.048  1.00  0.00     0.049 A 
ATOM     39  N   UNL A   1      41.907  29.207  32.468  1.00  0.00    -0.248 NA
ATOM     40  C   UNL A   1      43.090  27.650  31.193  1.00  0.00     0.031 C 
ATOM     41  C   UNL A   1      39.332  30.067  28.901  1.00  0.00     0.029 A 
ATOM     42  N   UNL A   1      39.754  30.615  31.029  1.00  0.00    -0.354 N 
ATOM     43  C   UNL A   1      42.924  28.655  33.240  1.00  0.00     0.074 A 
ATOM     44  C   UNL A   1      43.597  27.675  32.416  1.00  0.00     0.031 C 
ATOM     45  C   UNL A   1      38.468  31.036  29.251  1.00  0.00     0.029 A 
ATOM     46  C   UNL A   1      38.680  31.387  30.654  1.00  0.00     0.049 A 
ATOM     47  H   UNL A   1      40.174  30.671  31.917  1.00  0.00     0.167 HD
ATOM     48  C   UNL A   1      43.268  28.944  34.517  1.00  0.00     0.037 A 
ATOM     49  C   UNL A   1      37.940  32.256  31.373  1.00  0.00     0.037 A 
ATOM     50  C   UNL A   1      42.589  29.918  35.329  1.00  0.00     0.049 A 
ATOM     51  C   UNL A   1      38.293  32.506  32.818  1.00  0.00     0.074 A 
ATOM     52  C   UNL A   1      42.867  30.297  36.630  1.00  0.00     0.029 A 
ATOM     53  N   UNL A   1      41.489  30.661  34.923  1.00  0.00    -0.354 N 
ATOM     54  N   UNL A   1      39.267  31.993  33.532  1.00  0.00    -0.248 NA
ATOM     55  C   UNL A   1      37.447  33.457  33.555  1.00  0.00     0.031 C 
ATOM     56  C   UNL A   1      41.899  31.222  37.032  1.00  0.00     0.029 A 
ATOM     57  C   UNL A   1      41.059  31.474  35.959  1.00  0.00     0.049 A 
ATOM     58  H   UNL A   1      41.075  30.616  34.031  1.00  0.00     0.167 HD
ATOM     59  C   UNL A   1      39.172  32.583  34.790  1.00  0.00     0.074 A 
ATOM     60  C   UNL A   1      38.051  33.498  34.735  1.00  0.00     0.031 C 
ATOM     61  C   UNL A   1      39.946  32.389  35.888  1.00  0.00     0.037 A 
BRANCH  48  62
ATOM     62  C   UNL A   1      44.408  28.172  35.124  1.00  0.00     0.058 A 
ATOM     63  C   UNL A   1      44.202  26.986  35.846  1.00  0.00     0.135 A 
ATOM     64  C   UNL A   1      45.731  28.611  34.952  1.00  0.00     0.135 A 
ATOM     65  F   UNL A   1      42.957  26.529  36.060  1.00  0.00    -0.206 F 
ATOM     66  C   UNL A   1      45.265  26.277  36.398  1.00  0.00     0.059 A 
ATOM     67  C   UNL A   1      46.811  27.900  35.468  1.00  0.00     0.059 A 
ATOM     68  F   UNL A   1      45.985  29.741  34.275  1.00  0.00    -0.206 F 
ATOM     69  C   UNL A   1      46.566  26.742  36.201  1.00  0.00     0.060 A 
BRANCH  69  70
ATOM     70  S   UNL A   1      47.933  25.803  36.915  1.00  0.00     0.124 S 
ATOM     71  O   UNL A   1      47.846  26.186  38.321  1.00  0.00    -0.237 OA
ATOM     72  O   UNL A   1      47.559  24.427  36.610  1.00  0.00    -0.237 OA
ATOM     73  O   UNL A   1      49.102  26.307  36.202  1.00  0.00    -0.744 OA
ENDBRANCH  69  70
ENDBRANCH  48  62
BRANCH  49  74
ATOM     74  C   UNL A   1      36.778  32.943  30.743  1.00  0.00     0.058 A 
ATOM     75  C   UNL A   1      35.463  32.525  30.994  1.00  0.00     0.135 A 
ATOM     76  C   UNL A   1      36.960  34.030  29.872  1.00  0.00     0.135 A 
ATOM     77  F   UNL A   1      35.234  31.482  31.806  1.00  0.00    -0.206 F 
ATOM     78  C   UNL A   1      34.371  33.147  30.395  1.00  0.00     0.059 A 
ATOM     79  C   UNL A   1      35.885  34.688  29.285  1.00  0.00     0.059 A 
ATOM     80  F   UNL A   1      38.198  34.474  29.602  1.00  0.00    -0.206 F 
ATOM     81  C   UNL A   1      34.593  34.233  29.546  1.00  0.00     0.060 A 
BRANCH  81  82
ATOM     82  S   UNL A   1      33.167  35.065  28.814  1.00  0.00     0.124 S 
ATOM     83  O   UNL A   1      32.282  35.200  29.965  1.00  0.00    -0.237 OA
ATOM     84  O   UNL A   1      33.762  36.303  28.316  1.00  0.00    -0.237 OA
ATOM     85  O   UNL A   1      32.725  34.133  27.783  1.00  0.00    -0.744 OA
ENDBRANCH  81  82
ENDBRANCH  49  74
BRANCH  61  86
ATOM     86  C   UNL A   1      39.643  33.213  37.112  1.00  0.00     0.058 A 
ATOM     87  C   UNL A   1      38.704  32.804  38.072  1.00  0.00     0.135 A 
ATOM     88  C   UNL A   1      40.352  34.401  37.357  1.00  0.00     0.135 A 
ATOM     89  F   UNL A   1      37.995  31.680  37.887  1.00  0.00    -0.206 F 
ATOM     90  C   UNL A   1      38.459  33.557  39.216  1.00  0.00     0.059 A 
ATOM     91  C   UNL A   1      40.148  35.152  38.511  1.00  0.00     0.059 A 
ATOM     92  F   UNL A   1      41.272  34.834  36.480  1.00  0.00    -0.206 F 
ATOM     93  C   UNL A   1      39.190  34.728  39.430  1.00  0.00     0.060 A 
BRANCH  93  94
ATOM     94  S   UNL A   1      38.888  35.675  40.936  1.00  0.00     0.124 S 
ATOM     95  O   UNL A   1      37.799  34.919  41.546  1.00  0.00    -0.237 OA
ATOM     96  O   UNL A   1      40.176  35.593  41.619  1.00  0.00    -0.237 OA
ATOM     97  O   UNL A   1      38.531  37.001  40.440  1.00  0.00    -0.744 OA
ENDBRANCH  93  94
ENDBRANCH  61  86
ENDBRANCH  35  36
ENDBRANCH  28  30
ENDBRANCH  27  28
ENDBRANCH  26  27
ENDBRANCH  25  26
ENDBRANCH  24  25
ENDBRANCH  23  24
ENDBRANCH   1  23
TORSDOF 26
ENDMDL
