MODEL 1
REMARK VINA RESULT:      -9.7      0.000      0.000
REMARK SMILES O=C(OCCOCCOCCOCCOC(=O)c1ccc(C[NH2+][C@@H]2CCCc3sccc32)nc1)c1ccc(-c2c3nc(c(-c4c(F)cc(S(=O)(=O)[O-])cc4F)c4ccc([nH]4)c(-c4c(F)cc(S(=O)(=O)[O-])cc4F)c4nc(c(-c5c(F)cc(S(=O)(=O)[O-])cc5F)c5ccc2[nH]5)C=C4)C=C3)cc1
REMARK SMILES IDX 9 1 8 2 7 3 6 4 5 5 4 6 3 7 2 8 1 9 35 10 36 11 100 12 37 13
REMARK SMILES IDX 99 14 38 15 39 16 40 17 93 18 41 19 98 20 92 21 94 22 42 23
REMARK SMILES IDX 97 24 91 25 90 26 43 28 77 29 56 30 76 31 57 32 60 33 75 34
REMARK SMILES IDX 95 35 58 36 59 37 74 39 96 40 61 41 44 42 45 43 54 44 46 45
REMARK SMILES IDX 47 46 53 47 55 48 48 49 49 50 50 51 51 52 52 53 78 54 79 55
REMARK SMILES IDX 88 56 80 57 81 58 87 59 89 60 82 61 83 62 84 63 85 64 86 65
REMARK SMILES IDX 62 66 63 67 72 68 64 69 65 70 71 71 73 72 66 73 67 74 68 75
REMARK SMILES IDX 69 76 70 77 10 78 11 79 12 80 13 81 14 82 15 83 16 84 17 85
REMARK SMILES IDX 18 86 19 87 34 88 20 89 33 90 21 91 22 92 23 93 24 96 25 97
REMARK SMILES IDX 32 98 26 99 28 100 31 101 27 102 29 103 30 104
REMARK H PARENT 94 27 60 38 23 94 23 95
REMARK Flexibility Score: inf
ROOT
ATOM      1  O   UNL A   1      37.513  23.822  26.697  1.00  0.00    -0.377 OA
ENDROOT
BRANCH   1   2
ATOM      2  C   UNL A   1      38.912  23.855  26.404  1.00  0.00     0.188 C 
BRANCH   2   3
ATOM      3  C   UNL A   1      39.718  22.689  26.981  1.00  0.00     0.188 C 
BRANCH   3   4
ATOM      4  O   UNL A   1      40.747  22.316  26.070  1.00  0.00    -0.376 OA
BRANCH   4   5
ATOM      5  C   UNL A   1      42.091  22.497  26.503  1.00  0.00     0.202 C 
BRANCH   5   6
ATOM      6  C   UNL A   1      42.818  23.716  25.926  1.00  0.00     0.261 C 
BRANCH   6   7
ATOM      7  O   UNL A   1      41.956  24.842  25.679  1.00  0.00    -0.460 OA
BRANCH   7   8
ATOM      8  C   UNL A   1      42.271  26.158  25.810  1.00  0.00     0.338 C 
ATOM      9  O   UNL A   1      42.582  26.806  24.814  1.00  0.00    -0.246 OA
BRANCH   8  10
ATOM     10  C   UNL A   1      42.212  26.855  27.123  1.00  0.00     0.060 A 
ATOM     11  C   UNL A   1      41.520  26.360  28.222  1.00  0.00     0.016 A 
ATOM     12  C   UNL A   1      42.950  28.035  27.287  1.00  0.00     0.016 A 
ATOM     13  C   UNL A   1      41.383  27.093  29.384  1.00  0.00     0.010 A 
ATOM     14  C   UNL A   1      42.910  28.730  28.501  1.00  0.00     0.010 A 
ATOM     15  C   UNL A   1      42.075  28.288  29.538  1.00  0.00    -0.014 A 
BRANCH  15  16
ATOM     16  C   UNL A   1      41.779  29.102  30.736  1.00  0.00     0.031 A 
ATOM     17  C   UNL A   1      40.552  29.968  30.716  1.00  0.00     0.074 A 
ATOM     18  C   UNL A   1      42.496  28.927  31.864  1.00  0.00     0.049 A 
ATOM     19  N   UNL A   1      40.123  30.815  31.610  1.00  0.00    -0.248 NA
ATOM     20  C   UNL A   1      39.688  29.865  29.525  1.00  0.00     0.031 C 
ATOM     21  C   UNL A   1      43.631  28.008  32.011  1.00  0.00     0.029 A 
ATOM     22  N   UNL A   1      42.354  29.472  33.112  1.00  0.00    -0.354 N 
ATOM     23  C   UNL A   1      38.967  31.371  31.075  1.00  0.00     0.074 A 
ATOM     24  C   UNL A   1      38.767  30.782  29.772  1.00  0.00     0.031 C 
ATOM     25  C   UNL A   1      44.049  28.021  33.286  1.00  0.00     0.029 A 
ATOM     26  C   UNL A   1      43.280  29.014  34.023  1.00  0.00     0.049 A 
ATOM     27  H   UNL A   1      41.657  30.129  33.337  1.00  0.00     0.167 HD
ATOM     28  C   UNL A   1      38.149  32.293  31.631  1.00  0.00     0.037 A 
ATOM     29  C   UNL A   1      43.503  29.392  35.295  1.00  0.00     0.037 A 
ATOM     30  C   UNL A   1      38.366  32.841  32.941  1.00  0.00     0.049 A 
ATOM     31  C   UNL A   1      42.623  30.472  35.865  1.00  0.00     0.074 A 
ATOM     32  C   UNL A   1      37.677  33.849  33.587  1.00  0.00     0.029 A 
ATOM     33  N   UNL A   1      39.353  32.401  33.816  1.00  0.00    -0.354 N 
ATOM     34  N   UNL A   1      41.605  31.084  35.304  1.00  0.00    -0.248 NA
ATOM     35  C   UNL A   1      42.929  30.931  37.225  1.00  0.00     0.031 C 
ATOM     36  C   UNL A   1      38.265  34.035  34.844  1.00  0.00     0.029 A 
ATOM     37  C   UNL A   1      39.292  33.114  34.997  1.00  0.00     0.049 A 
ATOM     38  H   UNL A   1      40.001  31.685  33.622  1.00  0.00     0.167 HD
ATOM     39  C   UNL A   1      41.147  31.999  36.242  1.00  0.00     0.074 A 
ATOM     40  C   UNL A   1      41.979  31.835  37.419  1.00  0.00     0.031 C 
ATOM     41  C   UNL A   1      40.142  32.906  36.143  1.00  0.00     0.037 A 
BRANCH  28  42
ATOM     42  C   UNL A   1      36.999  32.784  30.797  1.00  0.00     0.058 A 
ATOM     43  C   UNL A   1      37.131  33.861  29.907  1.00  0.00     0.135 A 
ATOM     44  C   UNL A   1      35.732  32.191  30.921  1.00  0.00     0.135 A 
ATOM     45  F   UNL A   1      38.312  34.490  29.778  1.00  0.00    -0.206 F 
ATOM     46  C   UNL A   1      36.044  34.349  29.189  1.00  0.00     0.059 A 
ATOM     47  C   UNL A   1      34.636  32.647  30.194  1.00  0.00     0.059 A 
ATOM     48  F   UNL A   1      35.544  31.169  31.771  1.00  0.00    -0.206 F 
ATOM     49  C   UNL A   1      34.799  33.737  29.342  1.00  0.00     0.060 A 
BRANCH  49  50
ATOM     50  S   UNL A   1      33.394  34.393  28.416  1.00  0.00     0.124 S 
ATOM     51  O   UNL A   1      34.037  35.413  27.595  1.00  0.00    -0.237 OA
ATOM     52  O   UNL A   1      32.914  33.214  27.702  1.00  0.00    -0.237 OA
ATOM     53  O   UNL A   1      32.504  34.896  29.459  1.00  0.00    -0.744 OA
ENDBRANCH  49  50
ENDBRANCH  28  42
BRANCH  29  54
ATOM     54  C   UNL A   1      44.641  28.819  36.070  1.00  0.00     0.058 A 
ATOM     55  C   UNL A   1      44.478  27.714  36.917  1.00  0.00     0.135 A 
ATOM     56  C   UNL A   1      45.926  29.387  35.989  1.00  0.00     0.135 A 
ATOM     57  F   UNL A   1      43.274  27.134  37.040  1.00  0.00    -0.206 F 
ATOM     58  C   UNL A   1      45.535  27.208  37.673  1.00  0.00     0.059 A 
ATOM     59  C   UNL A   1      47.004  28.879  36.707  1.00  0.00     0.059 A 
ATOM     60  F   UNL A   1      46.147  30.440  35.187  1.00  0.00    -0.206 F 
ATOM     61  C   UNL A   1      46.794  27.801  37.563  1.00  0.00     0.060 A 
BRANCH  61  62
ATOM     62  S   UNL A   1      48.165  27.138  38.534  1.00  0.00     0.124 S 
ATOM     63  O   UNL A   1      48.847  28.359  38.947  1.00  0.00    -0.237 OA
ATOM     64  O   UNL A   1      47.472  26.406  39.589  1.00  0.00    -0.237 OA
ATOM     65  O   UNL A   1      48.885  26.307  37.573  1.00  0.00    -0.744 OA
ENDBRANCH  61  62
ENDBRANCH  29  54
BRANCH  41  66
ATOM     66  C   UNL A   1      39.885  33.758  37.350  1.00  0.00     0.058 A 
ATOM     67  C   UNL A   1      40.583  34.956  37.562  1.00  0.00     0.135 A 
ATOM     68  C   UNL A   1      38.903  33.387  38.281  1.00  0.00     0.135 A 
ATOM     69  F   UNL A   1      41.536  35.346  36.700  1.00  0.00    -0.206 F 
ATOM     70  C   UNL A   1      40.334  35.747  38.676  1.00  0.00     0.059 A 
ATOM     71  C   UNL A   1      38.618  34.176  39.387  1.00  0.00     0.059 A 
ATOM     72  F   UNL A   1      38.202  32.254  38.110  1.00  0.00    -0.206 F 
ATOM     73  C   UNL A   1      39.351  35.348  39.584  1.00  0.00     0.060 A 
BRANCH  73  74
ATOM     74  S   UNL A   1      39.019  36.394  41.015  1.00  0.00     0.124 S 
ATOM     75  O   UNL A   1      40.331  36.443  41.651  1.00  0.00    -0.237 OA
ATOM     76  O   UNL A   1      38.566  37.636  40.397  1.00  0.00    -0.237 OA
ATOM     77  O   UNL A   1      37.994  35.654  41.744  1.00  0.00    -0.744 OA
ENDBRANCH  73  74
ENDBRANCH  41  66
ENDBRANCH  15  16
ENDBRANCH   8  10
ENDBRANCH   7   8
ENDBRANCH   6   7
ENDBRANCH   5   6
ENDBRANCH   4   5
ENDBRANCH   3   4
ENDBRANCH   2   3
ENDBRANCH   1   2
BRANCH   1  78
ATOM     78  C   UNL A   1      36.656  23.480  25.609  1.00  0.00     0.188 C 
BRANCH  78  79
ATOM     79  C   UNL A   1      36.532  21.997  25.197  1.00  0.00     0.188 C 
BRANCH  79  80
ATOM     80  O   UNL A   1      35.324  21.664  24.522  1.00  0.00    -0.376 OA
BRANCH  80  81
ATOM     81  C   UNL A   1      34.564  20.620  25.128  1.00  0.00     0.202 C 
BRANCH  81  82
ATOM     82  C   UNL A   1      33.055  20.901  25.188  1.00  0.00     0.261 C 
BRANCH  82  83
ATOM     83  O   UNL A   1      32.663  21.874  26.173  1.00  0.00    -0.460 OA
BRANCH  83  84
ATOM     84  C   UNL A   1      31.482  22.507  26.002  1.00  0.00     0.339 C 
ATOM     85  O   UNL A   1      30.366  22.026  26.095  1.00  0.00    -0.246 OA
BRANCH  84  86
ATOM     86  C   UNL A   1      31.772  23.950  25.935  1.00  0.00     0.078 A 
ATOM     87  C   UNL A   1      33.070  24.462  25.936  1.00  0.00     0.019 A 
ATOM     88  C   UNL A   1      30.715  24.835  26.087  1.00  0.00     0.127 A 
ATOM     89  C   UNL A   1      33.263  25.831  26.130  1.00  0.00     0.031 A 
ATOM     90  N   UNL A   1      30.880  26.162  26.298  1.00  0.00    -0.254 NA
ATOM     91  C   UNL A   1      32.150  26.648  26.333  1.00  0.00     0.094 A 
BRANCH  91  92
ATOM     92  C   UNL A   1      32.315  28.141  26.575  1.00  0.00     0.318 C 
BRANCH  92  93
ATOM     93  N   UNL A   1      33.157  28.735  25.545  1.00  0.00    -0.335 N 
ATOM     94  H   UNL A   1      33.895  28.065  25.325  1.00  0.00     0.347 HD
ATOM     95  H   UNL A   1      33.487  29.615  25.942  1.00  0.00     0.347 HD
BRANCH  93  96
ATOM     96  C   UNL A   1      32.504  29.098  24.300  1.00  0.00     0.215 C 
ATOM     97  C   UNL A   1      31.051  29.471  24.689  1.00  0.00     0.071 C 
ATOM     98  C   UNL A   1      32.530  27.938  23.324  1.00  0.00     0.023 A 
ATOM     99  C   UNL A   1      30.110  29.492  23.481  1.00  0.00     0.012 C 
ATOM    100  C   UNL A   1      31.387  27.519  22.663  1.00  0.00     0.014 A 
ATOM    101  C   UNL A   1      33.659  27.163  22.899  1.00  0.00     0.022 A 
ATOM    102  C   UNL A   1      30.019  28.105  22.832  1.00  0.00     0.047 C 
ATOM    103  S   UNL A   1      31.658  26.200  21.620  1.00  0.00    -0.148 S 
ATOM    104  C   UNL A   1      33.323  26.180  21.994  1.00  0.00     0.065 A 
ENDBRANCH  93  96
ENDBRANCH  92  93
ENDBRANCH  91  92
ENDBRANCH  84  86
ENDBRANCH  83  84
ENDBRANCH  82  83
ENDBRANCH  81  82
ENDBRANCH  80  81
ENDBRANCH  79  80
ENDBRANCH  78  79
ENDBRANCH   1  78
TORSDOF 26
ENDMDL
MODEL 2
REMARK VINA RESULT:      -9.5      1.445      8.194
REMARK SMILES O=C(OCCOCCOCCOCCOC(=O)c1ccc(C[NH2+][C@@H]2CCCc3sccc32)nc1)c1ccc(-c2c3nc(c(-c4c(F)cc(S(=O)(=O)[O-])cc4F)c4ccc([nH]4)c(-c4c(F)cc(S(=O)(=O)[O-])cc4F)c4nc(c(-c5c(F)cc(S(=O)(=O)[O-])cc5F)c5ccc2[nH]5)C=C4)C=C3)cc1
REMARK SMILES IDX 9 1 8 2 7 3 6 4 5 5 4 6 3 7 2 8 1 9 35 10 36 11 100 12 37 13
REMARK SMILES IDX 99 14 38 15 39 16 40 17 93 18 41 19 98 20 92 21 94 22 42 23
REMARK SMILES IDX 97 24 91 25 90 26 43 28 77 29 56 30 76 31 57 32 60 33 75 34
REMARK SMILES IDX 95 35 58 36 59 37 74 39 96 40 61 41 44 42 45 43 54 44 46 45
REMARK SMILES IDX 47 46 53 47 55 48 48 49 49 50 50 51 51 52 52 53 78 54 79 55
REMARK SMILES IDX 88 56 80 57 81 58 87 59 89 60 82 61 83 62 84 63 85 64 86 65
REMARK SMILES IDX 62 66 63 67 72 68 64 69 65 70 71 71 73 72 66 73 67 74 68 75
REMARK SMILES IDX 69 76 70 77 10 78 11 79 12 80 13 81 14 82 15 83 16 84 17 85
REMARK SMILES IDX 18 86 19 87 34 88 20 89 33 90 21 91 22 92 23 93 24 96 25 97
REMARK SMILES IDX 32 98 26 99 28 100 31 101 27 102 29 103 30 104
REMARK H PARENT 94 27 60 38 23 94 23 95
REMARK Flexibility Score: inf
ROOT
ATOM      1  O   UNL A   1      37.569  23.461  26.139  1.00  0.00    -0.377 OA
ENDROOT
BRANCH   1   2
ATOM      2  C   UNL A   1      38.946  23.593  26.503  1.00  0.00     0.188 C 
BRANCH   2   3
ATOM      3  C   UNL A   1      39.642  22.282  26.874  1.00  0.00     0.188 C 
BRANCH   3   4
ATOM      4  O   UNL A   1      40.483  21.863  25.803  1.00  0.00    -0.376 OA
BRANCH   4   5
ATOM      5  C   UNL A   1      41.799  21.441  26.143  1.00  0.00     0.202 C 
BRANCH   5   6
ATOM      6  C   UNL A   1      42.919  22.440  25.832  1.00  0.00     0.261 C 
BRANCH   6   7
ATOM      7  O   UNL A   1      42.444  23.733  25.414  1.00  0.00    -0.460 OA
BRANCH   7   8
ATOM      8  C   UNL A   1      43.014  24.939  25.678  1.00  0.00     0.338 C 
ATOM      9  O   UNL A   1      43.963  25.319  24.997  1.00  0.00    -0.246 OA
BRANCH   8  10
ATOM     10  C   UNL A   1      42.498  25.839  26.744  1.00  0.00     0.060 A 
ATOM     11  C   UNL A   1      42.749  27.205  26.780  1.00  0.00     0.016 A 
ATOM     12  C   UNL A   1      41.655  25.299  27.724  1.00  0.00     0.016 A 
ATOM     13  C   UNL A   1      42.359  27.987  27.849  1.00  0.00     0.010 A 
ATOM     14  C   UNL A   1      41.159  26.108  28.754  1.00  0.00     0.010 A 
ATOM     15  C   UNL A   1      41.561  27.448  28.850  1.00  0.00    -0.014 A 
BRANCH  15  16
ATOM     16  C   UNL A   1      41.297  28.284  30.041  1.00  0.00     0.031 A 
ATOM     17  C   UNL A   1      42.261  28.203  31.189  1.00  0.00     0.074 A 
ATOM     18  C   UNL A   1      40.320  29.212  30.010  1.00  0.00     0.049 A 
ATOM     19  N   UNL A   1      42.207  28.781  32.357  1.00  0.00    -0.248 NA
ATOM     20  C   UNL A   1      43.452  27.354  30.995  1.00  0.00     0.031 C 
ATOM     21  C   UNL A   1      39.412  29.447  28.880  1.00  0.00     0.029 A 
ATOM     22  N   UNL A   1      39.953  30.161  30.925  1.00  0.00    -0.354 N 
ATOM     23  C   UNL A   1      43.329  28.337  33.047  1.00  0.00     0.074 A 
ATOM     24  C   UNL A   1      44.040  27.428  32.178  1.00  0.00     0.031 C 
ATOM     25  C   UNL A   1      38.628  30.502  29.154  1.00  0.00     0.029 A 
ATOM     26  C   UNL A   1      38.909  30.956  30.509  1.00  0.00     0.049 A 
ATOM     27  H   UNL A   1      40.394  30.266  31.799  1.00  0.00     0.167 HD
ATOM     28  C   UNL A   1      43.725  28.666  34.298  1.00  0.00     0.037 A 
ATOM     29  C   UNL A   1      38.229  31.911  31.171  1.00  0.00     0.037 A 
ATOM     30  C   UNL A   1      43.005  29.592  35.126  1.00  0.00     0.049 A 
ATOM     31  C   UNL A   1      38.645  32.206  32.587  1.00  0.00     0.074 A 
ATOM     32  C   UNL A   1      43.236  29.943  36.442  1.00  0.00     0.029 A 
ATOM     33  N   UNL A   1      41.911  30.335  34.696  1.00  0.00    -0.354 N 
ATOM     34  N   UNL A   1      39.636  31.688  33.277  1.00  0.00    -0.248 NA
ATOM     35  C   UNL A   1      37.847  33.193  33.324  1.00  0.00     0.031 C 
ATOM     36  C   UNL A   1      42.263  30.878  36.816  1.00  0.00     0.029 A 
ATOM     37  C   UNL A   1      41.455  31.143  35.719  1.00  0.00     0.049 A 
ATOM     38  H   UNL A   1      41.519  30.290  33.794  1.00  0.00     0.167 HD
ATOM     39  C   UNL A   1      39.582  32.286  34.529  1.00  0.00     0.074 A 
ATOM     40  C   UNL A   1      38.480  33.231  34.487  1.00  0.00     0.031 C 
ATOM     41  C   UNL A   1      40.356  32.071  35.623  1.00  0.00     0.037 A 
BRANCH  28  42
ATOM     42  C   UNL A   1      44.948  27.976  34.835  1.00  0.00     0.058 A 
ATOM     43  C   UNL A   1      44.872  26.750  35.514  1.00  0.00     0.135 A 
ATOM     44  C   UNL A   1      46.212  28.574  34.704  1.00  0.00     0.135 A 
ATOM     45  F   UNL A   1      43.683  26.153  35.701  1.00  0.00    -0.206 F 
ATOM     46  C   UNL A   1      46.002  26.153  36.065  1.00  0.00     0.059 A 
ATOM     47  C   UNL A   1      47.358  27.982  35.227  1.00  0.00     0.059 A 
ATOM     48  F   UNL A   1      46.339  29.755  34.080  1.00  0.00    -0.206 F 
ATOM     49  C   UNL A   1      47.241  26.779  35.919  1.00  0.00     0.060 A 
BRANCH  49  50
ATOM     50  S   UNL A   1      48.695  26.001  36.655  1.00  0.00     0.124 S 
ATOM     51  O   UNL A   1      49.528  25.770  35.479  1.00  0.00    -0.237 OA
ATOM     52  O   UNL A   1      49.168  27.031  37.574  1.00  0.00    -0.237 OA
ATOM     53  O   UNL A   1      48.155  24.801  37.286  1.00  0.00    -0.744 OA
ENDBRANCH  49  50
ENDBRANCH  28  42
BRANCH  29  54
ATOM     54  C   UNL A   1      37.054  32.581  30.545  1.00  0.00     0.058 A 
ATOM     55  C   UNL A   1      37.200  33.663  29.664  1.00  0.00     0.135 A 
ATOM     56  C   UNL A   1      35.744  32.157  30.834  1.00  0.00     0.135 A 
ATOM     57  F   UNL A   1      38.425  34.116  29.355  1.00  0.00    -0.206 F 
ATOM     58  C   UNL A   1      36.096  34.314  29.114  1.00  0.00     0.059 A 
ATOM     59  C   UNL A   1      34.629  32.768  30.272  1.00  0.00     0.059 A 
ATOM     60  F   UNL A   1      35.541  31.119  31.662  1.00  0.00    -0.206 F 
ATOM     61  C   UNL A   1      34.814  33.860  29.428  1.00  0.00     0.060 A 
BRANCH  61  62
ATOM     62  S   UNL A   1      33.385  34.698  28.707  1.00  0.00     0.124 S 
ATOM     63  O   UNL A   1      34.013  35.844  28.061  1.00  0.00    -0.237 OA
ATOM     64  O   UNL A   1      32.846  33.677  27.813  1.00  0.00    -0.237 OA
ATOM     65  O   UNL A   1      32.555  35.003  29.869  1.00  0.00    -0.744 OA
ENDBRANCH  61  62
ENDBRANCH  29  54
BRANCH  41  66
ATOM     66  C   UNL A   1      40.044  32.892  36.838  1.00  0.00     0.058 A 
ATOM     67  C   UNL A   1      40.766  34.056  37.139  1.00  0.00     0.135 A 
ATOM     68  C   UNL A   1      38.987  32.528  37.685  1.00  0.00     0.135 A 
ATOM     69  F   UNL A   1      41.791  34.439  36.360  1.00  0.00    -0.206 F 
ATOM     70  C   UNL A   1      40.467  34.819  38.260  1.00  0.00     0.059 A 
ATOM     71  C   UNL A   1      38.653  33.291  38.796  1.00  0.00     0.059 A 
ATOM     72  F   UNL A   1      38.261  31.427  37.427  1.00  0.00    -0.206 F 
ATOM     73  C   UNL A   1      39.409  34.428  39.084  1.00  0.00     0.060 A 
BRANCH  73  74
ATOM     74  S   UNL A   1      39.014  35.439  40.524  1.00  0.00     0.124 S 
ATOM     75  O   UNL A   1      38.960  36.774  39.939  1.00  0.00    -0.237 OA
ATOM     76  O   UNL A   1      37.736  34.881  40.955  1.00  0.00    -0.237 OA
ATOM     77  O   UNL A   1      40.134  35.192  41.427  1.00  0.00    -0.744 OA
ENDBRANCH  73  74
ENDBRANCH  41  66
ENDBRANCH  15  16
ENDBRANCH   8  10
ENDBRANCH   7   8
ENDBRANCH   6   7
ENDBRANCH   5   6
ENDBRANCH   4   5
ENDBRANCH   3   4
ENDBRANCH   2   3
ENDBRANCH   1   2
BRANCH   1  78
ATOM     78  C   UNL A   1      37.309  23.211  24.760  1.00  0.00     0.188 C 
BRANCH  78  79
ATOM     79  C   UNL A   1      37.011  21.764  24.309  1.00  0.00     0.188 C 
BRANCH  79  80
ATOM     80  O   UNL A   1      35.630  21.428  24.255  1.00  0.00    -0.376 OA
BRANCH  80  81
ATOM     81  C   UNL A   1      35.250  20.310  25.056  1.00  0.00     0.202 C 
BRANCH  81  82
ATOM     82  C   UNL A   1      33.946  20.518  25.841  1.00  0.00     0.261 C 
BRANCH  82  83
ATOM     83  O   UNL A   1      34.053  21.421  26.955  1.00  0.00    -0.460 OA
BRANCH  83  84
ATOM     84  C   UNL A   1      33.024  22.265  27.186  1.00  0.00     0.339 C 
ATOM     85  O   UNL A   1      32.517  22.535  28.261  1.00  0.00    -0.246 OA
BRANCH  84  86
ATOM     86  C   UNL A   1      32.784  23.006  25.935  1.00  0.00     0.078 A 
ATOM     87  C   UNL A   1      31.733  22.705  25.068  1.00  0.00     0.019 A 
ATOM     88  C   UNL A   1      33.759  23.893  25.506  1.00  0.00     0.127 A 
ATOM     89  C   UNL A   1      31.720  23.270  23.791  1.00  0.00     0.031 A 
ATOM     90  N   UNL A   1      33.778  24.434  24.265  1.00  0.00    -0.254 NA
ATOM     91  C   UNL A   1      32.769  24.108  23.413  1.00  0.00     0.094 A 
BRANCH  91  92
ATOM     92  C   UNL A   1      32.809  24.725  22.022  1.00  0.00     0.318 C 
BRANCH  92  93
ATOM     93  N   UNL A   1      31.713  25.669  21.851  1.00  0.00    -0.335 N 
ATOM     94  H   UNL A   1      30.902  25.295  22.344  1.00  0.00     0.347 HD
ATOM     95  H   UNL A   1      31.592  25.760  20.842  1.00  0.00     0.347 HD
BRANCH  93  96
ATOM     96  C   UNL A   1      31.937  27.020  22.331  1.00  0.00     0.215 C 
ATOM     97  C   UNL A   1      33.413  27.343  21.982  1.00  0.00     0.071 C 
ATOM     98  C   UNL A   1      31.696  27.104  23.825  1.00  0.00     0.023 A 
ATOM     99  C   UNL A   1      33.945  28.552  22.757  1.00  0.00     0.012 C 
ATOM    100  C   UNL A   1      32.612  27.698  24.677  1.00  0.00     0.014 A 
ATOM    101  C   UNL A   1      30.544  26.672  24.562  1.00  0.00     0.022 A 
ATOM    102  C   UNL A   1      33.927  28.287  24.267  1.00  0.00     0.047 C 
ATOM    103  S   UNL A   1      32.128  27.674  26.310  1.00  0.00    -0.148 S 
ATOM    104  C   UNL A   1      30.657  26.904  25.916  1.00  0.00     0.065 A 
ENDBRANCH  93  96
ENDBRANCH  92  93
ENDBRANCH  91  92
ENDBRANCH  84  86
ENDBRANCH  83  84
ENDBRANCH  82  83
ENDBRANCH  81  82
ENDBRANCH  80  81
ENDBRANCH  79  80
ENDBRANCH  78  79
ENDBRANCH   1  78
TORSDOF 26
ENDMDL
MODEL 3
REMARK VINA RESULT:      -9.2      1.119      8.057
REMARK SMILES O=C(OCCOCCOCCOCCOC(=O)c1ccc(C[NH2+][C@@H]2CCCc3sccc32)nc1)c1ccc(-c2c3nc(c(-c4c(F)cc(S(=O)(=O)[O-])cc4F)c4ccc([nH]4)c(-c4c(F)cc(S(=O)(=O)[O-])cc4F)c4nc(c(-c5c(F)cc(S(=O)(=O)[O-])cc5F)c5ccc2[nH]5)C=C4)C=C3)cc1
REMARK SMILES IDX 9 1 8 2 7 3 6 4 5 5 4 6 3 7 2 8 1 9 35 10 36 11 100 12 37 13
REMARK SMILES IDX 99 14 38 15 39 16 40 17 93 18 41 19 98 20 92 21 94 22 42 23
REMARK SMILES IDX 97 24 91 25 90 26 43 28 77 29 56 30 76 31 57 32 60 33 75 34
REMARK SMILES IDX 95 35 58 36 59 37 74 39 96 40 61 41 44 42 45 43 54 44 46 45
REMARK SMILES IDX 47 46 53 47 55 48 48 49 49 50 50 51 51 52 52 53 78 54 79 55
REMARK SMILES IDX 88 56 80 57 81 58 87 59 89 60 82 61 83 62 84 63 85 64 86 65
REMARK SMILES IDX 62 66 63 67 72 68 64 69 65 70 71 71 73 72 66 73 67 74 68 75
REMARK SMILES IDX 69 76 70 77 10 78 11 79 12 80 13 81 14 82 15 83 16 84 17 85
REMARK SMILES IDX 18 86 19 87 34 88 20 89 33 90 21 91 22 92 23 93 24 96 25 97
REMARK SMILES IDX 32 98 26 99 28 100 31 101 27 102 29 103 30 104
REMARK H PARENT 94 27 60 38 23 94 23 95
REMARK Flexibility Score: inf
ROOT
ATOM      1  O   UNL A   1      37.479  23.602  26.187  1.00  0.00    -0.377 OA
ENDROOT
BRANCH   1   2
ATOM      2  C   UNL A   1      38.842  23.853  26.537  1.00  0.00     0.188 C 
BRANCH   2   3
ATOM      3  C   UNL A   1      39.625  22.622  26.998  1.00  0.00     0.188 C 
BRANCH   3   4
ATOM      4  O   UNL A   1      40.553  22.234  25.989  1.00  0.00    -0.376 OA
BRANCH   4   5
ATOM      5  C   UNL A   1      41.840  21.808  26.423  1.00  0.00     0.202 C 
BRANCH   5   6
ATOM      6  C   UNL A   1      42.993  22.777  26.140  1.00  0.00     0.261 C 
BRANCH   6   7
ATOM      7  O   UNL A   1      42.572  24.023  25.555  1.00  0.00    -0.460 OA
BRANCH   7   8
ATOM      8  C   UNL A   1      43.091  25.257  25.796  1.00  0.00     0.338 C 
ATOM      9  O   UNL A   1      44.010  25.672  25.093  1.00  0.00    -0.246 OA
BRANCH   8  10
ATOM     10  C   UNL A   1      42.555  26.144  26.863  1.00  0.00     0.060 A 
ATOM     11  C   UNL A   1      42.794  27.512  26.913  1.00  0.00     0.016 A 
ATOM     12  C   UNL A   1      41.704  25.589  27.828  1.00  0.00     0.016 A 
ATOM     13  C   UNL A   1      42.385  28.282  27.983  1.00  0.00     0.010 A 
ATOM     14  C   UNL A   1      41.189  26.386  28.858  1.00  0.00     0.010 A 
ATOM     15  C   UNL A   1      41.578  27.729  28.970  1.00  0.00    -0.014 A 
BRANCH  15  16
ATOM     16  C   UNL A   1      41.293  28.553  30.164  1.00  0.00     0.031 A 
ATOM     17  C   UNL A   1      42.250  28.480  31.318  1.00  0.00     0.074 A 
ATOM     18  C   UNL A   1      40.301  29.465  30.132  1.00  0.00     0.049 A 
ATOM     19  N   UNL A   1      42.180  29.050  32.489  1.00  0.00    -0.248 NA
ATOM     20  C   UNL A   1      43.457  27.653  31.127  1.00  0.00     0.031 C 
ATOM     21  C   UNL A   1      39.397  29.691  28.997  1.00  0.00     0.029 A 
ATOM     22  N   UNL A   1      39.912  30.402  31.050  1.00  0.00    -0.354 N 
ATOM     23  C   UNL A   1      43.304  28.621  33.184  1.00  0.00     0.074 A 
ATOM     24  C   UNL A   1      44.036  27.730  32.314  1.00  0.00     0.031 C 
ATOM     25  C   UNL A   1      38.594  30.731  29.272  1.00  0.00     0.029 A 
ATOM     26  C   UNL A   1      38.858  31.182  30.632  1.00  0.00     0.049 A 
ATOM     27  H   UNL A   1      40.346  30.509  31.928  1.00  0.00     0.167 HD
ATOM     28  C   UNL A   1      43.687  28.949  34.439  1.00  0.00     0.037 A 
ATOM     29  C   UNL A   1      38.158  32.121  31.295  1.00  0.00     0.037 A 
ATOM     30  C   UNL A   1      42.946  29.858  35.268  1.00  0.00     0.049 A 
ATOM     31  C   UNL A   1      38.560  32.415  32.716  1.00  0.00     0.074 A 
ATOM     32  C   UNL A   1      43.163  30.204  36.588  1.00  0.00     0.029 A 
ATOM     33  N   UNL A   1      41.843  30.585  34.835  1.00  0.00    -0.354 N 
ATOM     34  N   UNL A   1      39.555  31.909  33.410  1.00  0.00    -0.248 NA
ATOM     35  C   UNL A   1      37.741  33.383  33.453  1.00  0.00     0.031 C 
ATOM     36  C   UNL A   1      42.172  31.121  36.960  1.00  0.00     0.029 A 
ATOM     37  C   UNL A   1      41.367  31.379  35.860  1.00  0.00     0.049 A 
ATOM     38  H   UNL A   1      41.457  30.540  33.930  1.00  0.00     0.167 HD
ATOM     39  C   UNL A   1      39.482  32.499  34.665  1.00  0.00     0.074 A 
ATOM     40  C   UNL A   1      38.366  33.425  34.621  1.00  0.00     0.031 C 
ATOM     41  C   UNL A   1      40.253  32.290  35.762  1.00  0.00     0.037 A 
BRANCH  28  42
ATOM     42  C   UNL A   1      44.917  28.277  34.980  1.00  0.00     0.058 A 
ATOM     43  C   UNL A   1      46.195  28.840  34.841  1.00  0.00     0.135 A 
ATOM     44  C   UNL A   1      44.819  27.028  35.614  1.00  0.00     0.135 A 
ATOM     45  F   UNL A   1      46.351  30.015  34.209  1.00  0.00    -0.206 F 
ATOM     46  C   UNL A   1      47.335  28.178  35.288  1.00  0.00     0.059 A 
ATOM     47  C   UNL A   1      45.943  26.359  36.091  1.00  0.00     0.059 A 
ATOM     48  F   UNL A   1      43.624  26.435  35.758  1.00  0.00    -0.206 F 
ATOM     49  C   UNL A   1      47.199  26.935  35.909  1.00  0.00     0.060 A 
BRANCH  49  50
ATOM     50  S   UNL A   1      48.688  26.080  36.468  1.00  0.00     0.124 S 
ATOM     51  O   UNL A   1      48.618  26.287  37.911  1.00  0.00    -0.237 OA
ATOM     52  O   UNL A   1      48.453  24.714  36.012  1.00  0.00    -0.237 OA
ATOM     53  O   UNL A   1      49.764  26.790  35.784  1.00  0.00    -0.744 OA
ENDBRANCH  49  50
ENDBRANCH  28  42
BRANCH  29  54
ATOM     54  C   UNL A   1      36.976  32.776  30.665  1.00  0.00     0.058 A 
ATOM     55  C   UNL A   1      37.110  33.858  29.783  1.00  0.00     0.135 A 
ATOM     56  C   UNL A   1      35.671  32.335  30.953  1.00  0.00     0.135 A 
ATOM     57  F   UNL A   1      38.330  34.326  29.477  1.00  0.00    -0.206 F 
ATOM     58  C   UNL A   1      36.000  34.494  29.230  1.00  0.00     0.059 A 
ATOM     59  C   UNL A   1      34.549  32.932  30.387  1.00  0.00     0.059 A 
ATOM     60  F   UNL A   1      35.478  31.297  31.781  1.00  0.00    -0.206 F 
ATOM     61  C   UNL A   1      34.722  34.025  29.541  1.00  0.00     0.060 A 
BRANCH  61  62
ATOM     62  S   UNL A   1      33.285  34.843  28.816  1.00  0.00     0.124 S 
ATOM     63  O   UNL A   1      32.466  35.094  29.996  1.00  0.00    -0.237 OA
ATOM     64  O   UNL A   1      33.881  36.018  28.189  1.00  0.00    -0.237 OA
ATOM     65  O   UNL A   1      32.764  33.843  27.887  1.00  0.00    -0.744 OA
ENDBRANCH  61  62
ENDBRANCH  29  54
BRANCH  41  66
ATOM     66  C   UNL A   1      39.920  33.098  36.980  1.00  0.00     0.058 A 
ATOM     67  C   UNL A   1      38.893  32.715  37.854  1.00  0.00     0.135 A 
ATOM     68  C   UNL A   1      40.664  34.246  37.292  1.00  0.00     0.135 A 
ATOM     69  F   UNL A   1      38.150  31.627  37.592  1.00  0.00    -0.206 F 
ATOM     70  C   UNL A   1      38.595  33.461  38.987  1.00  0.00     0.059 A 
ATOM     71  C   UNL A   1      40.402  34.992  38.434  1.00  0.00     0.059 A 
ATOM     72  F   UNL A   1      41.665  34.642  36.489  1.00  0.00    -0.206 F 
ATOM     73  C   UNL A   1      39.355  34.599  39.268  1.00  0.00     0.060 A 
BRANCH  73  74
ATOM     74  S   UNL A   1      38.975  35.548  40.753  1.00  0.00     0.124 S 
ATOM     75  O   UNL A   1      40.193  35.368  41.535  1.00  0.00    -0.237 OA
ATOM     76  O   UNL A   1      38.755  36.889  40.219  1.00  0.00    -0.237 OA
ATOM     77  O   UNL A   1      37.785  34.889  41.281  1.00  0.00    -0.744 OA
ENDBRANCH  73  74
ENDBRANCH  41  66
ENDBRANCH  15  16
ENDBRANCH   8  10
ENDBRANCH   7   8
ENDBRANCH   6   7
ENDBRANCH   5   6
ENDBRANCH   4   5
ENDBRANCH   3   4
ENDBRANCH   2   3
ENDBRANCH   1   2
BRANCH   1  78
ATOM     78  C   UNL A   1      37.234  23.291  24.817  1.00  0.00     0.188 C 
BRANCH  78  79
ATOM     79  C   UNL A   1      37.063  21.812  24.408  1.00  0.00     0.188 C 
BRANCH  79  80
ATOM     80  O   UNL A   1      35.716  21.401  24.201  1.00  0.00    -0.376 OA
BRANCH  80  81
ATOM     81  C   UNL A   1      35.291  20.305  25.009  1.00  0.00     0.202 C 
BRANCH  81  82
ATOM     82  C   UNL A   1      33.839  19.869  24.756  1.00  0.00     0.261 C 
BRANCH  82  83
ATOM     83  O   UNL A   1      32.850  20.866  25.065  1.00  0.00    -0.460 OA
BRANCH  83  84
ATOM     84  C   UNL A   1      32.480  21.716  24.082  1.00  0.00     0.339 C 
ATOM     85  O   UNL A   1      31.995  21.429  23.002  1.00  0.00    -0.246 OA
BRANCH  84  86
ATOM     86  C   UNL A   1      32.528  23.076  24.646  1.00  0.00     0.078 A 
ATOM     87  C   UNL A   1      33.587  23.533  25.433  1.00  0.00     0.019 A 
ATOM     88  C   UNL A   1      31.384  23.855  24.566  1.00  0.00     0.127 A 
ATOM     89  C   UNL A   1      33.446  24.728  26.139  1.00  0.00     0.031 A 
ATOM     90  N   UNL A   1      31.218  25.006  25.260  1.00  0.00    -0.254 NA
ATOM     91  C   UNL A   1      32.241  25.426  26.052  1.00  0.00     0.094 A 
BRANCH  91  92
ATOM     92  C   UNL A   1      32.033  26.720  26.826  1.00  0.00     0.318 C 
BRANCH  92  93
ATOM     93  N   UNL A   1      33.235  27.541  26.779  1.00  0.00    -0.335 N 
ATOM     94  H   UNL A   1      33.963  26.997  26.315  1.00  0.00     0.347 HD
ATOM     95  H   UNL A   1      33.436  27.779  27.750  1.00  0.00     0.347 HD
BRANCH  93  96
ATOM     96  C   UNL A   1      33.128  28.813  26.089  1.00  0.00     0.215 C 
ATOM     97  C   UNL A   1      32.126  29.652  26.923  1.00  0.00     0.071 C 
ATOM     98  C   UNL A   1      32.629  28.613  24.671  1.00  0.00     0.023 A 
ATOM     99  C   UNL A   1      31.583  30.855  26.146  1.00  0.00     0.012 C 
ATOM    100  C   UNL A   1      31.581  29.360  24.157  1.00  0.00     0.014 A 
ATOM    101  C   UNL A   1      33.144  27.728  23.667  1.00  0.00     0.022 A 
ATOM    102  C   UNL A   1      30.806  30.402  24.904  1.00  0.00     0.047 C 
ATOM    103  S   UNL A   1      31.195  28.959  22.548  1.00  0.00    -0.148 S 
ATOM    104  C   UNL A   1      32.448  27.803  22.480  1.00  0.00     0.065 A 
ENDBRANCH  93  96
ENDBRANCH  92  93
ENDBRANCH  91  92
ENDBRANCH  84  86
ENDBRANCH  83  84
ENDBRANCH  82  83
ENDBRANCH  81  82
ENDBRANCH  80  81
ENDBRANCH  79  80
ENDBRANCH  78  79
ENDBRANCH   1  78
TORSDOF 26
ENDMDL
