MODEL 1
REMARK VINA RESULT:      -9.3      0.000      0.000
REMARK SMILES O=C(OCCOCCOCCOCCOC(=O)c1cccc2cccc(C(=O)NC3COC3)c12)c1ccc(-c2c3nc(c(-c4c(F)cc(S(=O)(=O)[O-])cc4F)c4ccc([nH]4)c(-c4c(F)cc(S(=O)(=O)[O-])cc4F)c4nc(c(-c5c(F)cc(S(=O)(=O)[O-])cc5F)c5ccc2[nH]5)C=C4)C=C3)cc1
REMARK SMILES IDX 8 1 7 2 6 3 5 4 4 5 3 6 2 7 1 8 35 9 36 10 100 11 37 12
REMARK SMILES IDX 99 13 38 14 39 15 40 16 93 17 41 18 98 19 92 20 94 21 42 22
REMARK SMILES IDX 97 23 91 24 90 25 43 27 77 28 56 29 76 30 57 31 60 32 75 33
REMARK SMILES IDX 95 34 58 35 59 36 74 38 96 39 61 40 44 41 45 42 54 43 46 44
REMARK SMILES IDX 47 45 53 46 55 47 48 48 49 49 50 50 51 51 52 52 78 53 79 54
REMARK SMILES IDX 88 55 80 56 81 57 87 58 89 59 82 60 83 61 84 62 85 63 86 64
REMARK SMILES IDX 62 65 63 66 72 67 64 68 65 69 71 70 73 71 66 72 67 73 68 74
REMARK SMILES IDX 69 75 70 76 9 77 10 78 11 79 12 80 13 81 14 82 15 83 16 84
REMARK SMILES IDX 17 85 18 86 19 87 34 88 20 89 22 90 26 91 21 92 23 93 25 94
REMARK SMILES IDX 24 95 27 96 28 97 29 98 30 100 31 101 33 102 32 103
REMARK H PARENT 94 26 60 37 29 99
REMARK Flexibility Score: inf
ROOT
ATOM      1  C   UNL A   1      46.276  40.463  25.367  1.00  0.00     0.188 C 
ENDROOT
BRANCH   1   2
ATOM      2  C   UNL A   1      46.003  39.427  26.423  1.00  0.00     0.188 C 
BRANCH   2   3
ATOM      3  O   UNL A   1      46.610  39.814  27.631  1.00  0.00    -0.376 OA
BRANCH   3   4
ATOM      4  C   UNL A   1      47.970  39.488  27.836  1.00  0.00     0.202 C 
BRANCH   4   5
ATOM      5  C   UNL A   1      48.164  38.067  27.309  1.00  0.00     0.261 C 
BRANCH   5   6
ATOM      6  O   UNL A   1      49.291  37.394  27.920  1.00  0.00    -0.460 OA
BRANCH   6   7
ATOM      7  C   UNL A   1      49.658  36.091  27.772  1.00  0.00     0.338 C 
ATOM      8  O   UNL A   1      50.847  35.853  27.548  1.00  0.00    -0.246 OA
BRANCH   7   9
ATOM      9  C   UNL A   1      48.725  34.906  27.916  1.00  0.00     0.060 A 
ATOM     10  C   UNL A   1      48.487  34.168  29.086  1.00  0.00     0.016 A 
ATOM     11  C   UNL A   1      47.961  34.578  26.781  1.00  0.00     0.016 A 
ATOM     12  C   UNL A   1      47.495  33.193  29.155  1.00  0.00     0.010 A 
ATOM     13  C   UNL A   1      47.029  33.534  26.809  1.00  0.00     0.010 A 
ATOM     14  C   UNL A   1      46.818  32.826  27.997  1.00  0.00    -0.014 A 
BRANCH  14  15
ATOM     15  C   UNL A   1      46.235  31.474  27.968  1.00  0.00     0.031 A 
ATOM     16  C   UNL A   1      47.175  30.373  27.564  1.00  0.00     0.074 A 
ATOM     17  C   UNL A   1      44.983  31.232  28.386  1.00  0.00     0.049 A 
ATOM     18  N   UNL A   1      46.944  29.107  27.370  1.00  0.00    -0.248 NA
ATOM     19  C   UNL A   1      48.587  30.761  27.364  1.00  0.00     0.031 C 
ATOM     20  C   UNL A   1      44.064  32.230  28.937  1.00  0.00     0.029 A 
ATOM     21  N   UNL A   1      44.272  30.063  28.423  1.00  0.00    -0.354 N 
ATOM     22  C   UNL A   1      48.169  28.559  27.007  1.00  0.00     0.074 A 
ATOM     23  C   UNL A   1      49.144  29.619  27.008  1.00  0.00     0.031 C 
ATOM     24  C   UNL A   1      42.900  31.627  29.245  1.00  0.00     0.029 A 
ATOM     25  C   UNL A   1      42.976  30.220  28.858  1.00  0.00     0.049 A 
ATOM     26  H   UNL A   1      44.651  29.194  28.163  1.00  0.00     0.167 HD
ATOM     27  C   UNL A   1      48.446  27.277  26.682  1.00  0.00     0.037 A 
ATOM     28  C   UNL A   1      41.970  29.324  28.888  1.00  0.00     0.037 A 
ATOM     29  C   UNL A   1      47.437  26.258  26.662  1.00  0.00     0.049 A 
ATOM     30  C   UNL A   1      42.268  27.923  28.406  1.00  0.00     0.074 A 
ATOM     31  C   UNL A   1      47.548  24.938  26.277  1.00  0.00     0.029 A 
ATOM     32  N   UNL A   1      46.116  26.465  27.042  1.00  0.00    -0.354 N 
ATOM     33  N   UNL A   1      43.410  27.421  27.989  1.00  0.00    -0.248 NA
ATOM     34  C   UNL A   1      41.150  26.973  28.382  1.00  0.00     0.031 C 
ATOM     35  C   UNL A   1      46.277  24.360  26.373  1.00  0.00     0.029 A 
ATOM     36  C   UNL A   1      45.392  25.301  26.881  1.00  0.00     0.049 A 
ATOM     37  H   UNL A   1      45.751  27.317  27.376  1.00  0.00     0.167 HD
ATOM     38  C   UNL A   1      43.155  26.090  27.676  1.00  0.00     0.074 A 
ATOM     39  C   UNL A   1      41.750  25.866  27.964  1.00  0.00     0.031 C 
ATOM     40  C   UNL A   1      43.993  25.136  27.197  1.00  0.00     0.037 A 
BRANCH  27  41
ATOM     41  C   UNL A   1      49.850  26.969  26.243  1.00  0.00     0.058 A 
ATOM     42  C   UNL A   1      50.184  26.754  24.895  1.00  0.00     0.135 A 
ATOM     43  C   UNL A   1      50.867  26.824  27.199  1.00  0.00     0.135 A 
ATOM     44  F   UNL A   1      49.240  26.833  23.943  1.00  0.00    -0.206 F 
ATOM     45  C   UNL A   1      51.470  26.380  24.515  1.00  0.00     0.059 A 
ATOM     46  C   UNL A   1      52.167  26.478  26.839  1.00  0.00     0.059 A 
ATOM     47  F   UNL A   1      50.599  26.989  28.503  1.00  0.00    -0.206 F 
ATOM     48  C   UNL A   1      52.455  26.243  25.495  1.00  0.00     0.060 A 
BRANCH  48  49
ATOM     49  S   UNL A   1      54.115  25.749  24.989  1.00  0.00     0.124 S 
ATOM     50  O   UNL A   1      54.929  26.319  26.059  1.00  0.00    -0.237 OA
ATOM     51  O   UNL A   1      54.016  24.294  24.977  1.00  0.00    -0.237 OA
ATOM     52  O   UNL A   1      54.273  26.376  23.680  1.00  0.00    -0.744 OA
ENDBRANCH  48  49
ENDBRANCH  27  41
BRANCH  28  53
ATOM     53  C   UNL A   1      40.602  29.729  29.321  1.00  0.00     0.058 A 
ATOM     54  C   UNL A   1      40.302  29.993  30.667  1.00  0.00     0.135 A 
ATOM     55  C   UNL A   1      39.556  29.859  28.391  1.00  0.00     0.135 A 
ATOM     56  F   UNL A   1      41.255  29.871  31.602  1.00  0.00    -0.206 F 
ATOM     57  C   UNL A   1      39.019  30.356  31.075  1.00  0.00     0.059 A 
ATOM     58  C   UNL A   1      38.274  30.248  28.770  1.00  0.00     0.059 A 
ATOM     59  F   UNL A   1      39.781  29.623  27.088  1.00  0.00    -0.206 F 
ATOM     60  C   UNL A   1      38.011  30.484  30.117  1.00  0.00     0.060 A 
BRANCH  60  61
ATOM     61  S   UNL A   1      36.360  30.990  30.647  1.00  0.00     0.124 S 
ATOM     62  O   UNL A   1      36.010  29.926  31.580  1.00  0.00    -0.237 OA
ATOM     63  O   UNL A   1      36.615  32.301  31.237  1.00  0.00    -0.237 OA
ATOM     64  O   UNL A   1      35.598  31.011  29.402  1.00  0.00    -0.744 OA
ENDBRANCH  60  61
ENDBRANCH  28  53
BRANCH  40  65
ATOM     65  C   UNL A   1      43.423  23.762  27.001  1.00  0.00     0.058 A 
ATOM     66  C   UNL A   1      43.336  22.842  28.056  1.00  0.00     0.135 A 
ATOM     67  C   UNL A   1      42.876  23.401  25.758  1.00  0.00     0.135 A 
ATOM     68  F   UNL A   1      43.847  23.142  29.261  1.00  0.00    -0.206 F 
ATOM     69  C   UNL A   1      42.743  21.598  27.879  1.00  0.00     0.059 A 
ATOM     70  C   UNL A   1      42.249  22.177  25.570  1.00  0.00     0.059 A 
ATOM     71  F   UNL A   1      42.920  24.257  24.726  1.00  0.00    -0.206 F 
ATOM     72  C   UNL A   1      42.197  21.278  26.633  1.00  0.00     0.060 A 
BRANCH  72  73
ATOM     73  S   UNL A   1      41.387  19.680  26.434  1.00  0.00     0.124 S 
ATOM     74  O   UNL A   1      41.552  19.100  27.762  1.00  0.00    -0.237 OA
ATOM     75  O   UNL A   1      40.026  20.063  26.072  1.00  0.00    -0.237 OA
ATOM     76  O   UNL A   1      42.155  19.040  25.369  1.00  0.00    -0.744 OA
ENDBRANCH  72  73
ENDBRANCH  40  65
ENDBRANCH  14  15
ENDBRANCH   7   9
ENDBRANCH   6   7
ENDBRANCH   5   6
ENDBRANCH   4   5
ENDBRANCH   3   4
ENDBRANCH   2   3
ENDBRANCH   1   2
BRANCH   1  77
ATOM     77  O   UNL A   1      46.139  41.800  25.848  1.00  0.00    -0.377 OA
BRANCH  77  78
ATOM     78  C   UNL A   1      46.041  42.878  24.911  1.00  0.00     0.188 C 
BRANCH  78  79
ATOM     79  C   UNL A   1      45.297  42.600  23.581  1.00  0.00     0.188 C 
BRANCH  79  80
ATOM     80  O   UNL A   1      46.063  42.978  22.420  1.00  0.00    -0.376 OA
BRANCH  80  81
ATOM     81  C   UNL A   1      45.624  42.490  21.145  1.00  0.00     0.202 C 
BRANCH  81  82
ATOM     82  C   UNL A   1      46.547  42.989  19.968  1.00  0.00     0.261 C 
BRANCH  82  83
ATOM     83  O   UNL A   1      45.926  43.946  19.034  1.00  0.00    -0.460 OA
BRANCH  83  84
ATOM     84  C   UNL A   1      45.242  45.053  19.501  1.00  0.00     0.338 C 
ATOM     85  O   UNL A   1      45.693  45.896  20.241  1.00  0.00    -0.246 OA
BRANCH  84  86
ATOM     86  C   UNL A   1      43.803  45.129  18.960  1.00  0.00     0.068 A 
ATOM     87  C   UNL A   1      42.945  44.081  19.295  1.00  0.00     0.016 A 
ATOM     88  C   UNL A   1      43.305  46.186  18.089  1.00  0.00     0.009 A 
ATOM     89  C   UNL A   1      41.648  44.052  18.774  1.00  0.00     0.002 A 
ATOM     90  C   UNL A   1      41.953  46.204  17.678  1.00  0.00    -0.017 A 
ATOM     91  C   UNL A   1      44.075  47.170  17.438  1.00  0.00     0.048 A 
ATOM     92  C   UNL A   1      41.152  45.111  18.007  1.00  0.00     0.009 A 
ATOM     93  C   UNL A   1      41.445  47.242  16.847  1.00  0.00     0.009 A 
ATOM     94  C   UNL A   1      43.597  48.229  16.650  1.00  0.00     0.014 A 
ATOM     95  C   UNL A   1      42.253  48.273  16.366  1.00  0.00     0.001 A 
BRANCH  91  96
ATOM     96  C   UNL A   1      45.468  46.881  17.277  1.00  0.00     0.252 C 
ATOM     97  O   UNL A   1      45.808  45.882  16.661  1.00  0.00    -0.269 OA
ATOM     98  N   UNL A   1      46.352  47.790  17.786  1.00  0.00    -0.345 N 
ATOM     99  H   UNL A   1      47.203  47.732  17.293  1.00  0.00     0.164 HD
BRANCH  98 100
ATOM    100  C   UNL A   1      46.457  48.832  18.832  1.00  0.00     0.134 C 
ATOM    101  C   UNL A   1      46.702  50.292  18.532  1.00  0.00     0.187 C 
ATOM    102  C   UNL A   1      47.447  49.004  19.967  1.00  0.00     0.187 C 
ATOM    103  O   UNL A   1      47.614  50.411  19.659  1.00  0.00    -0.377 OA
ENDBRANCH  98 100
ENDBRANCH  91  96
ENDBRANCH  84  86
ENDBRANCH  83  84
ENDBRANCH  82  83
ENDBRANCH  81  82
ENDBRANCH  80  81
ENDBRANCH  79  80
ENDBRANCH  78  79
ENDBRANCH  77  78
ENDBRANCH   1  77
TORSDOF 25
ENDMDL
MODEL 2
REMARK VINA RESULT:      -9.3      7.545     14.932
REMARK SMILES O=C(OCCOCCOCCOCCOC(=O)c1cccc2cccc(C(=O)NC3COC3)c12)c1ccc(-c2c3nc(c(-c4c(F)cc(S(=O)(=O)[O-])cc4F)c4ccc([nH]4)c(-c4c(F)cc(S(=O)(=O)[O-])cc4F)c4nc(c(-c5c(F)cc(S(=O)(=O)[O-])cc5F)c5ccc2[nH]5)C=C4)C=C3)cc1
REMARK SMILES IDX 8 1 7 2 6 3 5 4 4 5 3 6 2 7 1 8 35 9 36 10 100 11 37 12
REMARK SMILES IDX 99 13 38 14 39 15 40 16 93 17 41 18 98 19 92 20 94 21 42 22
REMARK SMILES IDX 97 23 91 24 90 25 43 27 77 28 56 29 76 30 57 31 60 32 75 33
REMARK SMILES IDX 95 34 58 35 59 36 74 38 96 39 61 40 44 41 45 42 54 43 46 44
REMARK SMILES IDX 47 45 53 46 55 47 48 48 49 49 50 50 51 51 52 52 78 53 79 54
REMARK SMILES IDX 88 55 80 56 81 57 87 58 89 59 82 60 83 61 84 62 85 63 86 64
REMARK SMILES IDX 62 65 63 66 72 67 64 68 65 69 71 70 73 71 66 72 67 73 68 74
REMARK SMILES IDX 69 75 70 76 9 77 10 78 11 79 12 80 13 81 14 82 15 83 16 84
REMARK SMILES IDX 17 85 18 86 19 87 34 88 20 89 22 90 26 91 21 92 23 93 25 94
REMARK SMILES IDX 24 95 27 96 28 97 29 98 30 100 31 101 33 102 32 103
REMARK H PARENT 94 26 60 37 29 99
REMARK Flexibility Score: inf
ROOT
ATOM      1  C   UNL A   1      36.195  33.494  34.319  1.00  0.00     0.188 C 
ENDROOT
BRANCH   1   2
ATOM      2  C   UNL A   1      35.596  32.694  33.196  1.00  0.00     0.188 C 
BRANCH   2   3
ATOM      3  O   UNL A   1      35.347  33.536  32.098  1.00  0.00    -0.376 OA
BRANCH   3   4
ATOM      4  C   UNL A   1      35.923  33.204  30.851  1.00  0.00     0.202 C 
BRANCH   4   5
ATOM      5  C   UNL A   1      34.976  32.209  30.181  1.00  0.00     0.261 C 
BRANCH   5   6
ATOM      6  O   UNL A   1      35.666  31.055  29.645  1.00  0.00    -0.460 OA
BRANCH   6   7
ATOM      7  C   UNL A   1      36.610  30.293  30.263  1.00  0.00     0.338 C 
ATOM      8  O   UNL A   1      36.277  29.679  31.279  1.00  0.00    -0.246 OA
BRANCH   7   9
ATOM      9  C   UNL A   1      38.027  30.097  29.764  1.00  0.00     0.060 A 
ATOM     10  C   UNL A   1      38.428  29.929  28.429  1.00  0.00     0.016 A 
ATOM     11  C   UNL A   1      39.043  30.184  30.735  1.00  0.00     0.016 A 
ATOM     12  C   UNL A   1      39.770  29.911  28.058  1.00  0.00     0.010 A 
ATOM     13  C   UNL A   1      40.393  30.069  30.386  1.00  0.00     0.010 A 
ATOM     14  C   UNL A   1      40.750  29.907  29.044  1.00  0.00    -0.014 A 
BRANCH  14  15
ATOM     15  C   UNL A   1      42.054  29.326  28.682  1.00  0.00     0.031 A 
ATOM     16  C   UNL A   1      43.221  30.273  28.732  1.00  0.00     0.074 A 
ATOM     17  C   UNL A   1      42.204  28.015  28.437  1.00  0.00     0.049 A 
ATOM     18  N   UNL A   1      44.465  30.085  28.398  1.00  0.00    -0.248 NA
ATOM     19  C   UNL A   1      42.939  31.628  29.251  1.00  0.00     0.031 C 
ATOM     20  C   UNL A   1      41.143  27.010  28.521  1.00  0.00     0.029 A 
ATOM     21  N   UNL A   1      43.316  27.302  28.079  1.00  0.00    -0.354 N 
ATOM     22  C   UNL A   1      45.102  31.296  28.645  1.00  0.00     0.074 A 
ATOM     23  C   UNL A   1      44.119  32.214  29.159  1.00  0.00     0.031 C 
ATOM     24  C   UNL A   1      41.658  25.806  28.207  1.00  0.00     0.029 A 
ATOM     25  C   UNL A   1      43.064  25.970  27.845  1.00  0.00     0.049 A 
ATOM     26  H   UNL A   1      44.210  27.704  27.997  1.00  0.00     0.167 HD
ATOM     27  C   UNL A   1      46.398  31.613  28.440  1.00  0.00     0.037 A 
ATOM     28  C   UNL A   1      43.882  25.020  27.350  1.00  0.00     0.037 A 
ATOM     29  C   UNL A   1      47.338  30.677  27.895  1.00  0.00     0.049 A 
ATOM     30  C   UNL A   1      45.298  25.424  27.012  1.00  0.00     0.074 A 
ATOM     31  C   UNL A   1      48.660  30.876  27.555  1.00  0.00     0.029 A 
ATOM     32  N   UNL A   1      47.034  29.352  27.602  1.00  0.00    -0.354 N 
ATOM     33  N   UNL A   1      45.883  26.592  27.173  1.00  0.00    -0.248 NA
ATOM     34  C   UNL A   1      46.160  24.398  26.414  1.00  0.00     0.031 C 
ATOM     35  C   UNL A   1      49.142  29.683  27.005  1.00  0.00     0.029 A 
ATOM     36  C   UNL A   1      48.139  28.723  27.065  1.00  0.00     0.049 A 
ATOM     37  H   UNL A   1      46.160  28.926  27.755  1.00  0.00     0.167 HD
ATOM     38  C   UNL A   1      47.188  26.435  26.721  1.00  0.00     0.074 A 
ATOM     39  C   UNL A   1      47.307  25.054  26.289  1.00  0.00     0.031 C 
ATOM     40  C   UNL A   1      48.200  27.338  26.663  1.00  0.00     0.037 A 
BRANCH  27  41
ATOM     41  C   UNL A   1      46.809  33.032  28.716  1.00  0.00     0.058 A 
ATOM     42  C   UNL A   1      46.730  34.039  27.739  1.00  0.00     0.135 A 
ATOM     43  C   UNL A   1      47.352  33.375  29.965  1.00  0.00     0.135 A 
ATOM     44  F   UNL A   1      46.264  33.757  26.512  1.00  0.00    -0.206 F 
ATOM     45  C   UNL A   1      47.200  35.327  27.982  1.00  0.00     0.059 A 
ATOM     46  C   UNL A   1      47.801  34.663  30.239  1.00  0.00     0.059 A 
ATOM     47  F   UNL A   1      47.477  32.446  30.925  1.00  0.00    -0.206 F 
ATOM     48  C   UNL A   1      47.735  35.629  29.237  1.00  0.00     0.060 A 
BRANCH  48  49
ATOM     49  S   UNL A   1      48.347  37.301  29.535  1.00  0.00     0.124 S 
ATOM     50  O   UNL A   1      48.082  37.943  28.251  1.00  0.00    -0.237 OA
ATOM     51  O   UNL A   1      47.513  37.742  30.648  1.00  0.00    -0.237 OA
ATOM     52  O   UNL A   1      49.756  37.096  29.854  1.00  0.00    -0.744 OA
ENDBRANCH  48  49
ENDBRANCH  27  41
BRANCH  28  53
ATOM     53  C   UNL A   1      43.377  23.641  27.090  1.00  0.00     0.058 A 
ATOM     54  C   UNL A   1      43.035  23.212  25.798  1.00  0.00     0.135 A 
ATOM     55  C   UNL A   1      43.222  22.717  28.138  1.00  0.00     0.135 A 
ATOM     56  F   UNL A   1      43.147  24.055  24.761  1.00  0.00    -0.206 F 
ATOM     57  C   UNL A   1      42.547  21.929  25.556  1.00  0.00     0.059 A 
ATOM     58  C   UNL A   1      42.764  21.420  27.917  1.00  0.00     0.059 A 
ATOM     59  F   UNL A   1      43.535  23.066  29.395  1.00  0.00    -0.206 F 
ATOM     60  C   UNL A   1      42.419  21.037  26.623  1.00  0.00     0.060 A 
BRANCH  60  61
ATOM     61  S   UNL A   1      41.821  19.364  26.297  1.00  0.00     0.124 S 
ATOM     62  O   UNL A   1      42.289  18.648  27.478  1.00  0.00    -0.237 OA
ATOM     63  O   UNL A   1      40.379  19.566  26.200  1.00  0.00    -0.237 OA
ATOM     64  O   UNL A   1      42.481  19.008  25.044  1.00  0.00    -0.744 OA
ENDBRANCH  60  61
ENDBRANCH  28  53
BRANCH  40  65
ATOM     65  C   UNL A   1      49.526  26.848  26.160  1.00  0.00     0.058 A 
ATOM     66  C   UNL A   1      49.922  27.026  24.827  1.00  0.00     0.135 A 
ATOM     67  C   UNL A   1      50.444  26.271  27.055  1.00  0.00     0.135 A 
ATOM     68  F   UNL A   1      49.077  27.571  23.937  1.00  0.00    -0.206 F 
ATOM     69  C   UNL A   1      51.180  26.630  24.391  1.00  0.00     0.059 A 
ATOM     70  C   UNL A   1      51.717  25.900  26.647  1.00  0.00     0.059 A 
ATOM     71  F   UNL A   1      50.115  26.098  28.344  1.00  0.00    -0.206 F 
ATOM     72  C   UNL A   1      52.073  26.074  25.310  1.00  0.00     0.060 A 
BRANCH  72  73
ATOM     73  S   UNL A   1      53.719  25.611  24.740  1.00  0.00     0.124 S 
ATOM     74  O   UNL A   1      53.680  24.159  24.879  1.00  0.00    -0.237 OA
ATOM     75  O   UNL A   1      53.729  26.118  23.372  1.00  0.00    -0.237 OA
ATOM     76  O   UNL A   1      54.608  26.307  25.667  1.00  0.00    -0.744 OA
ENDBRANCH  72  73
ENDBRANCH  40  65
ENDBRANCH  14  15
ENDBRANCH   7   9
ENDBRANCH   6   7
ENDBRANCH   5   6
ENDBRANCH   4   5
ENDBRANCH   3   4
ENDBRANCH   2   3
ENDBRANCH   1   2
BRANCH   1  77
ATOM     77  O   UNL A   1      36.694  32.680  35.380  1.00  0.00    -0.377 OA
BRANCH  77  78
ATOM     78  C   UNL A   1      38.018  32.904  35.877  1.00  0.00     0.188 C 
BRANCH  78  79
ATOM     79  C   UNL A   1      39.168  32.954  34.841  1.00  0.00     0.188 C 
BRANCH  79  80
ATOM     80  O   UNL A   1      40.438  32.549  35.392  1.00  0.00    -0.376 OA
BRANCH  80  81
ATOM     81  C   UNL A   1      40.644  31.150  35.632  1.00  0.00     0.202 C 
BRANCH  81  82
ATOM     82  C   UNL A   1      41.760  30.546  34.697  1.00  0.00     0.261 C 
BRANCH  82  83
ATOM     83  O   UNL A   1      42.129  29.145  34.969  1.00  0.00    -0.460 OA
BRANCH  83  84
ATOM     84  C   UNL A   1      41.466  28.103  34.347  1.00  0.00     0.338 C 
ATOM     85  O   UNL A   1      40.534  28.220  33.585  1.00  0.00    -0.246 OA
BRANCH  84  86
ATOM     86  C   UNL A   1      42.052  26.728  34.714  1.00  0.00     0.068 A 
ATOM     87  C   UNL A   1      41.656  26.177  35.934  1.00  0.00     0.016 A 
ATOM     88  C   UNL A   1      43.019  26.001  33.902  1.00  0.00     0.009 A 
ATOM     89  C   UNL A   1      42.209  24.966  36.360  1.00  0.00     0.002 A 
ATOM     90  C   UNL A   1      43.469  24.720  34.291  1.00  0.00    -0.017 A 
ATOM     91  C   UNL A   1      43.726  26.502  32.791  1.00  0.00     0.048 A 
ATOM     92  C   UNL A   1      43.074  24.236  35.538  1.00  0.00     0.009 A 
ATOM     93  C   UNL A   1      44.396  23.986  33.498  1.00  0.00     0.009 A 
ATOM     94  C   UNL A   1      44.611  25.790  31.965  1.00  0.00     0.014 A 
ATOM     95  C   UNL A   1      44.935  24.501  32.319  1.00  0.00     0.001 A 
BRANCH  91  96
ATOM     96  C   UNL A   1      43.824  27.926  32.690  1.00  0.00     0.252 C 
ATOM     97  O   UNL A   1      43.145  28.519  31.864  1.00  0.00    -0.269 OA
ATOM     98  N   UNL A   1      44.649  28.555  33.579  1.00  0.00    -0.345 N 
ATOM     99  H   UNL A   1      44.348  29.484  33.706  1.00  0.00     0.164 HD
BRANCH  98 100
ATOM    100  C   UNL A   1      45.845  28.305  34.414  1.00  0.00     0.134 C 
ATOM    101  C   UNL A   1      47.261  28.420  33.899  1.00  0.00     0.187 C 
ATOM    102  C   UNL A   1      46.314  27.052  35.127  1.00  0.00     0.187 C 
ATOM    103  O   UNL A   1      47.667  27.233  34.636  1.00  0.00    -0.377 OA
ENDBRANCH  98 100
ENDBRANCH  91  96
ENDBRANCH  84  86
ENDBRANCH  83  84
ENDBRANCH  82  83
ENDBRANCH  81  82
ENDBRANCH  80  81
ENDBRANCH  79  80
ENDBRANCH  78  79
ENDBRANCH  77  78
ENDBRANCH   1  77
TORSDOF 25
ENDMDL
MODEL 3
REMARK VINA RESULT:      -9.2      3.308      9.155
REMARK SMILES O=C(OCCOCCOCCOCCOC(=O)c1cccc2cccc(C(=O)NC3COC3)c12)c1ccc(-c2c3nc(c(-c4c(F)cc(S(=O)(=O)[O-])cc4F)c4ccc([nH]4)c(-c4c(F)cc(S(=O)(=O)[O-])cc4F)c4nc(c(-c5c(F)cc(S(=O)(=O)[O-])cc5F)c5ccc2[nH]5)C=C4)C=C3)cc1
REMARK SMILES IDX 8 1 7 2 6 3 5 4 4 5 3 6 2 7 1 8 35 9 36 10 100 11 37 12
REMARK SMILES IDX 99 13 38 14 39 15 40 16 93 17 41 18 98 19 92 20 94 21 42 22
REMARK SMILES IDX 97 23 91 24 90 25 43 27 77 28 56 29 76 30 57 31 60 32 75 33
REMARK SMILES IDX 95 34 58 35 59 36 74 38 96 39 61 40 44 41 45 42 54 43 46 44
REMARK SMILES IDX 47 45 53 46 55 47 48 48 49 49 50 50 51 51 52 52 78 53 79 54
REMARK SMILES IDX 88 55 80 56 81 57 87 58 89 59 82 60 83 61 84 62 85 63 86 64
REMARK SMILES IDX 62 65 63 66 72 67 64 68 65 69 71 70 73 71 66 72 67 73 68 74
REMARK SMILES IDX 69 75 70 76 9 77 10 78 11 79 12 80 13 81 14 82 15 83 16 84
REMARK SMILES IDX 17 85 18 86 19 87 34 88 20 89 22 90 26 91 21 92 23 93 25 94
REMARK SMILES IDX 24 95 27 96 28 97 29 98 30 100 31 101 33 102 32 103
REMARK H PARENT 94 26 60 37 29 99
REMARK Flexibility Score: inf
ROOT
ATOM      1  C   UNL A   1      42.538  42.022  24.717  1.00  0.00     0.188 C 
ENDROOT
BRANCH   1   2
ATOM      2  C   UNL A   1      43.710  41.452  25.469  1.00  0.00     0.188 C 
BRANCH   2   3
ATOM      3  O   UNL A   1      43.249  40.732  26.584  1.00  0.00    -0.376 OA
BRANCH   3   4
ATOM      4  C   UNL A   1      41.855  40.577  26.757  1.00  0.00     0.202 C 
BRANCH   4   5
ATOM      5  C   UNL A   1      41.530  39.122  26.423  1.00  0.00     0.261 C 
BRANCH   5   6
ATOM      6  O   UNL A   1      41.525  38.268  27.591  1.00  0.00    -0.460 OA
BRANCH   6   7
ATOM      7  C   UNL A   1      42.590  37.906  28.359  1.00  0.00     0.338 C 
ATOM      8  O   UNL A   1      42.861  38.611  29.333  1.00  0.00    -0.246 OA
BRANCH   7   9
ATOM      9  C   UNL A   1      43.436  36.669  28.138  1.00  0.00     0.060 A 
ATOM     10  C   UNL A   1      44.049  35.887  29.130  1.00  0.00     0.016 A 
ATOM     11  C   UNL A   1      43.537  36.217  26.809  1.00  0.00     0.016 A 
ATOM     12  C   UNL A   1      44.678  34.680  28.835  1.00  0.00     0.010 A 
ATOM     13  C   UNL A   1      44.251  35.057  26.488  1.00  0.00     0.010 A 
ATOM     14  C   UNL A   1      44.842  34.303  27.506  1.00  0.00    -0.014 A 
BRANCH  14  15
ATOM     15  C   UNL A   1      45.956  33.387  27.209  1.00  0.00     0.031 A 
ATOM     16  C   UNL A   1      45.599  31.926  27.168  1.00  0.00     0.074 A 
ATOM     17  C   UNL A   1      47.177  33.836  26.883  1.00  0.00     0.049 A 
ATOM     18  N   UNL A   1      46.362  30.884  27.013  1.00  0.00    -0.248 NA
ATOM     19  C   UNL A   1      44.164  31.602  27.311  1.00  0.00     0.031 C 
ATOM     20  C   UNL A   1      47.556  35.244  26.751  1.00  0.00     0.029 A 
ATOM     21  N   UNL A   1      48.325  33.150  26.590  1.00  0.00    -0.354 N 
ATOM     22  C   UNL A   1      45.507  29.789  27.061  1.00  0.00     0.074 A 
ATOM     23  C   UNL A   1      44.169  30.283  27.256  1.00  0.00     0.031 C 
ATOM     24  C   UNL A   1      48.858  35.315  26.416  1.00  0.00     0.029 A 
ATOM     25  C   UNL A   1      49.412  33.963  26.368  1.00  0.00     0.049 A 
ATOM     26  H   UNL A   1      48.368  32.168  26.543  1.00  0.00     0.167 HD
ATOM     27  C   UNL A   1      45.823  28.479  26.968  1.00  0.00     0.037 A 
ATOM     28  C   UNL A   1      50.706  33.632  26.194  1.00  0.00     0.037 A 
ATOM     29  C   UNL A   1      47.175  28.028  26.806  1.00  0.00     0.049 A 
ATOM     30  C   UNL A   1      51.060  32.163  26.213  1.00  0.00     0.074 A 
ATOM     31  C   UNL A   1      47.659  26.737  26.778  1.00  0.00     0.029 A 
ATOM     32  N   UNL A   1      48.265  28.878  26.654  1.00  0.00    -0.354 N 
ATOM     33  N   UNL A   1      50.260  31.125  26.336  1.00  0.00    -0.248 NA
ATOM     34  C   UNL A   1      52.480  31.816  26.088  1.00  0.00     0.031 C 
ATOM     35  C   UNL A   1      49.052  26.808  26.663  1.00  0.00     0.029 A 
ATOM     36  C   UNL A   1      49.427  28.141  26.552  1.00  0.00     0.049 A 
ATOM     37  H   UNL A   1      48.215  29.861  26.624  1.00  0.00     0.167 HD
ATOM     38  C   UNL A   1      51.077  30.001  26.277  1.00  0.00     0.074 A 
ATOM     39  C   UNL A   1      52.432  30.490  26.097  1.00  0.00     0.031 C 
ATOM     40  C   UNL A   1      50.750  28.686  26.362  1.00  0.00     0.037 A 
BRANCH  27  41
ATOM     41  C   UNL A   1      44.705  27.490  27.137  1.00  0.00     0.058 A 
ATOM     42  C   UNL A   1      44.332  26.989  28.396  1.00  0.00     0.135 A 
ATOM     43  C   UNL A   1      44.037  26.986  26.010  1.00  0.00     0.135 A 
ATOM     44  F   UNL A   1      44.969  27.399  29.504  1.00  0.00    -0.206 F 
ATOM     45  C   UNL A   1      43.355  26.005  28.527  1.00  0.00     0.059 A 
ATOM     46  C   UNL A   1      43.038  26.023  26.120  1.00  0.00     0.059 A 
ATOM     47  F   UNL A   1      44.372  27.408  24.781  1.00  0.00    -0.206 F 
ATOM     48  C   UNL A   1      42.715  25.528  27.381  1.00  0.00     0.060 A 
BRANCH  48  49
ATOM     49  S   UNL A   1      41.457  24.246  27.565  1.00  0.00     0.124 S 
ATOM     50  O   UNL A   1      41.927  23.543  28.755  1.00  0.00    -0.237 OA
ATOM     51  O   UNL A   1      40.238  25.030  27.734  1.00  0.00    -0.237 OA
ATOM     52  O   UNL A   1      41.549  23.496  26.317  1.00  0.00    -0.744 OA
ENDBRANCH  48  49
ENDBRANCH  27  41
BRANCH  28  53
ATOM     53  C   UNL A   1      51.750  34.687  26.054  1.00  0.00     0.058 A 
ATOM     54  C   UNL A   1      52.344  35.290  27.174  1.00  0.00     0.135 A 
ATOM     55  C   UNL A   1      52.177  35.121  24.787  1.00  0.00     0.135 A 
ATOM     56  F   UNL A   1      51.967  34.929  28.409  1.00  0.00    -0.206 F 
ATOM     57  C   UNL A   1      53.309  36.289  27.044  1.00  0.00     0.059 A 
ATOM     58  C   UNL A   1      53.159  36.095  24.632  1.00  0.00     0.059 A 
ATOM     59  F   UNL A   1      51.649  34.580  23.678  1.00  0.00    -0.206 F 
ATOM     60  C   UNL A   1      53.714  36.682  25.767  1.00  0.00     0.060 A 
BRANCH  60  61
ATOM     61  S   UNL A   1      54.990  37.950  25.606  1.00  0.00     0.124 S 
ATOM     62  O   UNL A   1      54.201  39.174  25.667  1.00  0.00    -0.237 OA
ATOM     63  O   UNL A   1      55.841  37.679  26.760  1.00  0.00    -0.237 OA
ATOM     64  O   UNL A   1      55.595  37.656  24.310  1.00  0.00    -0.744 OA
ENDBRANCH  60  61
ENDBRANCH  28  53
BRANCH  40  65
ATOM     65  C   UNL A   1      51.865  27.693  26.215  1.00  0.00     0.058 A 
ATOM     66  C   UNL A   1      52.540  27.170  27.328  1.00  0.00     0.135 A 
ATOM     67  C   UNL A   1      52.197  27.196  24.944  1.00  0.00     0.135 A 
ATOM     68  F   UNL A   1      52.257  27.617  28.562  1.00  0.00    -0.206 F 
ATOM     69  C   UNL A   1      53.523  26.200  27.183  1.00  0.00     0.059 A 
ATOM     70  C   UNL A   1      53.152  26.202  24.780  1.00  0.00     0.059 A 
ATOM     71  F   UNL A   1      51.564  27.654  23.852  1.00  0.00    -0.206 F 
ATOM     72  C   UNL A   1      53.817  25.718  25.905  1.00  0.00     0.060 A 
BRANCH  72  73
ATOM     73  S   UNL A   1      55.061  24.423  25.738  1.00  0.00     0.124 S 
ATOM     74  O   UNL A   1      54.316  23.394  25.021  1.00  0.00    -0.237 OA
ATOM     75  O   UNL A   1      56.110  25.094  24.979  1.00  0.00    -0.237 OA
ATOM     76  O   UNL A   1      55.403  24.101  27.121  1.00  0.00    -0.744 OA
ENDBRANCH  72  73
ENDBRANCH  40  65
ENDBRANCH  14  15
ENDBRANCH   7   9
ENDBRANCH   6   7
ENDBRANCH   5   6
ENDBRANCH   4   5
ENDBRANCH   3   4
ENDBRANCH   2   3
ENDBRANCH   1   2
BRANCH   1  77
ATOM     77  O   UNL A   1      42.913  42.644  23.488  1.00  0.00    -0.377 OA
BRANCH  77  78
ATOM     78  C   UNL A   1      41.950  43.428  22.774  1.00  0.00     0.188 C 
BRANCH  78  79
ATOM     79  C   UNL A   1      42.149  43.579  21.245  1.00  0.00     0.188 C 
BRANCH  79  80
ATOM     80  O   UNL A   1      40.943  43.329  20.496  1.00  0.00    -0.376 OA
BRANCH  80  81
ATOM     81  C   UNL A   1      40.952  43.641  19.096  1.00  0.00     0.202 C 
BRANCH  81  82
ATOM     82  C   UNL A   1      42.248  43.106  18.377  1.00  0.00     0.261 C 
BRANCH  82  83
ATOM     83  O   UNL A   1      43.339  44.084  18.218  1.00  0.00    -0.460 OA
BRANCH  83  84
ATOM     84  C   UNL A   1      43.494  44.789  17.038  1.00  0.00     0.338 C 
ATOM     85  O   UNL A   1      43.882  44.327  15.990  1.00  0.00    -0.246 OA
BRANCH  84  86
ATOM     86  C   UNL A   1      43.099  46.270  17.179  1.00  0.00     0.068 A 
ATOM     87  C   UNL A   1      42.050  46.724  16.379  1.00  0.00     0.016 A 
ATOM     88  C   UNL A   1      43.777  47.225  18.047  1.00  0.00     0.009 A 
ATOM     89  C   UNL A   1      41.692  48.075  16.404  1.00  0.00     0.002 A 
ATOM     90  C   UNL A   1      43.316  48.556  18.152  1.00  0.00    -0.017 A 
ATOM     91  C   UNL A   1      44.998  47.026  18.720  1.00  0.00     0.048 A 
ATOM     92  C   UNL A   1      42.292  48.966  17.299  1.00  0.00     0.009 A 
ATOM     93  C   UNL A   1      43.952  49.495  19.012  1.00  0.00     0.009 A 
ATOM     94  C   UNL A   1      45.625  47.916  19.607  1.00  0.00     0.014 A 
ATOM     95  C   UNL A   1      45.079  49.167  19.768  1.00  0.00     0.001 A 
BRANCH  91  96
ATOM     96  C   UNL A   1      45.845  45.992  18.208  1.00  0.00     0.252 C 
ATOM     97  O   UNL A   1      46.313  46.098  17.084  1.00  0.00    -0.269 OA
ATOM     98  N   UNL A   1      46.127  44.950  19.046  1.00  0.00    -0.345 N 
ATOM     99  H   UNL A   1      46.985  44.542  18.786  1.00  0.00     0.164 HD
BRANCH  98 100
ATOM    100  C   UNL A   1      45.572  44.231  20.214  1.00  0.00     0.134 C 
ATOM    101  C   UNL A   1      45.767  44.684  21.642  1.00  0.00     0.187 C 
ATOM    102  C   UNL A   1      45.829  42.829  20.731  1.00  0.00     0.187 C 
ATOM    103  O   UNL A   1      45.967  43.315  22.091  1.00  0.00    -0.377 OA
ENDBRANCH  98 100
ENDBRANCH  91  96
ENDBRANCH  84  86
ENDBRANCH  83  84
ENDBRANCH  82  83
ENDBRANCH  81  82
ENDBRANCH  80  81
ENDBRANCH  79  80
ENDBRANCH  78  79
ENDBRANCH  77  78
ENDBRANCH   1  77
TORSDOF 25
ENDMDL
