MODEL 1
REMARK VINA RESULT:     -11.2      0.000      0.000
REMARK SMILES Cc1ccccc1/[NH+]=C1\S[C@@H](CC(=O)Nc2ccc(C(=O)OCCOCCOCCOCCOC(=O)c3ccc(-c4c5nc(c(-c6c(F)cc(S(=O)(=O)[O-])cc6F)c6ccc([nH]6)c(-c6c(F)cc(S(=O)(=O)[O-])cc6F)c6nc(c(-c7c(F)cc(S(=O)(=O)[O-])cc7F)c7ccc4[nH]7)C=C6)C=C5)cc3)cc2)C(=O)N1C
REMARK SMILES IDX 27 1 26 2 25 3 24 4 23 5 22 6 20 7 21 8 19 9 16 10 17 11
REMARK SMILES IDX 104 12 18 13 103 14 15 15 13 16 14 17 12 19 11 20 8 21 9 22
REMARK SMILES IDX 10 24 107 25 105 26 108 27 106 28 7 29 1 30 2 31 3 32 4 33
REMARK SMILES IDX 6 34 5 35 28 36 29 37 30 38 31 39 32 40 33 41 34 42 35 43
REMARK SMILES IDX 36 44 37 45 38 46 102 47 39 48 101 49 40 50 41 51 42 52
REMARK SMILES IDX 95 53 43 54 100 55 94 56 96 57 44 58 99 59 93 60 92 61 45 63
REMARK SMILES IDX 79 64 58 65 78 66 59 67 62 68 77 69 97 70 60 71 61 72 76 74
REMARK SMILES IDX 98 75 63 76 46 77 47 78 56 79 48 80 49 81 55 82 57 83 50 84
REMARK SMILES IDX 51 85 52 86 53 87 54 88 80 89 81 90 90 91 82 92 83 93 89 94
REMARK SMILES IDX 91 95 84 96 85 97 86 98 87 99 88 100 64 101 65 102 74 103
REMARK SMILES IDX 66 104 67 105 73 106 75 107 68 108 69 109 70 110 71 111
REMARK SMILES IDX 72 112
REMARK H PARENT 15 18 8 23 96 62 62 73
REMARK Flexibility Score: inf
ROOT
ATOM      1  C   UNL A   1      45.474  19.421  24.812  1.00  0.00     0.188 C 
ENDROOT
BRANCH   1   2
ATOM      2  C   UNL A   1      43.844  18.808  24.729  1.00  0.00     0.188 C 
BRANCH   2   3
ATOM      3  O   UNL A   1      42.407  18.803  25.830  1.00  0.00    -0.376 OA
BRANCH   3   4
ATOM      4  C   UNL A   1      41.908  19.755  27.282  1.00  0.00     0.202 C 
BRANCH   4   5
ATOM      5  C   UNL A   1      40.840  21.339  27.355  1.00  0.00     0.261 C 
BRANCH   5   6
ATOM      6  O   UNL A   1      39.513  21.807  26.232  1.00  0.00    -0.460 OA
BRANCH   6   7
ATOM      7  C   UNL A   1      38.371  21.280  25.510  1.00  0.00     0.338 C 
ATOM      8  O   UNL A   1      38.157  20.180  24.986  1.00  0.00    -0.246 OA
BRANCH   7   9
ATOM      9  C   UNL A   1      37.058  21.921  25.422  1.00  0.00     0.060 A 
ATOM     10  C   UNL A   1      34.461  23.015  25.315  1.00  0.00     0.041 A 
ATOM     11  C   UNL A   1      35.469  23.400  26.186  1.00  0.00     0.027 A 
ATOM     12  C   UNL A   1      34.764  21.996  24.437  1.00  0.00     0.027 A 
ATOM     13  C   UNL A   1      36.777  22.977  26.200  1.00  0.00     0.018 A 
ATOM     14  C   UNL A   1      36.048  21.432  24.518  1.00  0.00     0.018 A 
BRANCH  10  15
ATOM     15  N   UNL A   1      33.173  23.579  25.411  1.00  0.00    -0.326 N 
ATOM     16  C   UNL A   1      32.792  24.894  25.573  1.00  0.00     0.226 C 
ATOM     17  O   UNL A   1      31.614  25.144  25.850  1.00  0.00    -0.275 OA
ATOM     18  H   UNL A   1      32.431  22.934  25.354  1.00  0.00     0.169 HD
BRANCH  16  19
ATOM     19  C   UNL A   1      33.752  26.061  25.332  1.00  0.00     0.128 C 
BRANCH  19  20
ATOM     20  C   UNL A   1      33.178  27.136  24.400  1.00  0.00     0.183 C 
ATOM     21  N   UNL A   1      30.274  28.159  22.268  1.00  0.00    -0.234 N 
ATOM     22  C   UNL A   1      31.032  27.517  23.071  1.00  0.00     0.319 C 
ATOM     23  H   UNL A   1      30.364  27.846  21.338  1.00  0.00     0.313 HD
ATOM     24  S   UNL A   1      31.380  27.411  24.756  1.00  0.00    -0.022 SA
ATOM     25  N   UNL A   1      31.880  26.670  22.481  1.00  0.00    -0.193 N 
ATOM     26  C   UNL A   1      33.171  26.765  22.916  1.00  0.00     0.324 C 
ATOM     27  C   UNL A   1      31.296  25.611  21.731  1.00  0.00     0.301 C 
ATOM     28  O   UNL A   1      34.171  26.547  22.246  1.00  0.00    -0.245 OA
BRANCH  21  29
ATOM     29  C   UNL A   1      29.360  29.183  22.392  1.00  0.00     0.128 A 
ATOM     30  C   UNL A   1      27.457  27.897  23.502  1.00  0.00     0.049 C 
ATOM     31  C   UNL A   1      28.069  29.125  22.918  1.00  0.00    -0.004 A 
ATOM     32  C   UNL A   1      27.295  30.294  22.945  1.00  0.00     0.008 A 
ATOM     33  C   UNL A   1      27.835  31.530  22.598  1.00  0.00     0.001 A 
ATOM     34  C   UNL A   1      29.903  30.446  22.081  1.00  0.00     0.052 A 
ATOM     35  C   UNL A   1      29.159  31.615  22.201  1.00  0.00     0.004 A 
ENDBRANCH  21  29
ENDBRANCH  19  20
ENDBRANCH  16  19
ENDBRANCH  10  15
ENDBRANCH   7   9
ENDBRANCH   6   7
ENDBRANCH   5   6
ENDBRANCH   4   5
ENDBRANCH   3   4
ENDBRANCH   2   3
ENDBRANCH   1   2
BRANCH   1  36
ATOM     36  O   UNL A   1      45.993  20.772  24.911  1.00  0.00    -0.377 OA
BRANCH  36  37
ATOM     37  C   UNL A   1      45.613  21.927  24.173  1.00  0.00     0.188 C 
BRANCH  37  38
ATOM     38  C   UNL A   1      45.219  23.051  25.049  1.00  0.00     0.188 C 
BRANCH  38  39
ATOM     39  O   UNL A   1      44.169  22.668  25.915  1.00  0.00    -0.376 OA
BRANCH  39  40
ATOM     40  C   UNL A   1      43.420  23.752  26.417  1.00  0.00     0.202 C 
BRANCH  40  41
ATOM     41  C   UNL A   1      44.303  24.990  26.637  1.00  0.00     0.261 C 
BRANCH  41  42
ATOM     42  O   UNL A   1      44.042  25.514  27.964  1.00  0.00    -0.460 OA
BRANCH  42  43
ATOM     43  C   UNL A   1      44.702  26.677  28.298  1.00  0.00     0.338 C 
ATOM     44  O   UNL A   1      45.158  27.453  27.500  1.00  0.00    -0.246 OA
BRANCH  43  45
ATOM     45  C   UNL A   1      44.819  26.738  29.795  1.00  0.00     0.060 A 
ATOM     46  C   UNL A   1      44.158  25.887  30.671  1.00  0.00     0.016 A 
ATOM     47  C   UNL A   1      45.462  27.787  30.383  1.00  0.00     0.016 A 
ATOM     48  C   UNL A   1      43.748  26.345  31.971  1.00  0.00     0.010 A 
ATOM     49  C   UNL A   1      45.117  28.130  31.701  1.00  0.00     0.010 A 
ATOM     50  C   UNL A   1      43.924  27.677  32.384  1.00  0.00    -0.014 A 
BRANCH  50  51
ATOM     51  C   UNL A   1      42.654  28.710  33.276  1.00  0.00     0.031 A 
ATOM     52  C   UNL A   1      41.048  29.573  32.470  1.00  0.00     0.074 A 
ATOM     53  C   UNL A   1      43.145  28.931  34.552  1.00  0.00     0.049 A 
ATOM     54  N   UNL A   1      41.000  30.907  32.098  1.00  0.00    -0.248 NA
ATOM     55  C   UNL A   1      39.873  29.087  31.469  1.00  0.00     0.031 C 
ATOM     56  C   UNL A   1      42.500  29.328  35.800  1.00  0.00     0.029 A 
ATOM     57  N   UNL A   1      44.495  28.902  34.954  1.00  0.00    -0.354 N 
ATOM     58  C   UNL A   1      39.932  31.343  31.368  1.00  0.00     0.074 A 
ATOM     59  C   UNL A   1      39.471  30.154  30.769  1.00  0.00     0.031 C 
ATOM     60  C   UNL A   1      43.422  29.682  36.698  1.00  0.00     0.029 A 
ATOM     61  C   UNL A   1      44.698  29.700  36.076  1.00  0.00     0.049 A 
ATOM     62  H   UNL A   1      45.201  28.387  34.502  1.00  0.00     0.167 HD
ATOM     63  C   UNL A   1      39.411  32.609  31.429  1.00  0.00     0.037 A 
ATOM     64  C   UNL A   1      45.592  30.718  36.083  1.00  0.00     0.037 A 
ATOM     65  C   UNL A   1      39.971  33.419  32.538  1.00  0.00     0.049 A 
ATOM     66  C   UNL A   1      45.122  32.142  35.721  1.00  0.00     0.074 A 
ATOM     67  C   UNL A   1      39.448  33.824  33.759  1.00  0.00     0.029 A 
ATOM     68  N   UNL A   1      41.337  33.728  32.620  1.00  0.00    -0.354 N 
ATOM     69  N   UNL A   1      43.978  32.513  35.168  1.00  0.00    -0.248 NA
ATOM     70  C   UNL A   1      45.933  33.303  36.093  1.00  0.00     0.031 C 
ATOM     71  C   UNL A   1      40.516  34.255  34.601  1.00  0.00     0.029 A 
ATOM     72  C   UNL A   1      41.717  34.126  33.912  1.00  0.00     0.049 A 
ATOM     73  H   UNL A   1      41.958  33.672  31.859  1.00  0.00     0.167 HD
ATOM     74  C   UNL A   1      43.967  33.902  34.957  1.00  0.00     0.074 A 
ATOM     75  C   UNL A   1      45.156  34.322  35.689  1.00  0.00     0.031 C 
ATOM     76  C   UNL A   1      43.057  34.667  34.228  1.00  0.00     0.037 A 
BRANCH  63  77
ATOM     77  C   UNL A   1      38.080  32.848  30.699  1.00  0.00     0.058 A 
ATOM     78  C   UNL A   1      37.967  33.515  29.467  1.00  0.00     0.135 A 
ATOM     79  C   UNL A   1      36.834  32.495  31.273  1.00  0.00     0.135 A 
ATOM     80  F   UNL A   1      39.039  33.761  28.705  1.00  0.00    -0.206 F 
ATOM     81  C   UNL A   1      36.737  33.952  28.946  1.00  0.00     0.059 A 
ATOM     82  C   UNL A   1      35.603  32.998  30.831  1.00  0.00     0.059 A 
ATOM     83  F   UNL A   1      36.775  31.621  32.293  1.00  0.00    -0.206 F 
ATOM     84  C   UNL A   1      35.564  33.740  29.663  1.00  0.00     0.060 A 
BRANCH  84  85
ATOM     85  S   UNL A   1      33.996  34.373  29.022  1.00  0.00     0.124 S 
ATOM     86  O   UNL A   1      34.409  35.574  28.303  1.00  0.00    -0.237 OA
ATOM     87  O   UNL A   1      33.539  33.263  28.194  1.00  0.00    -0.237 OA
ATOM     88  O   UNL A   1      33.206  34.617  30.226  1.00  0.00    -0.744 OA
ENDBRANCH  84  85
ENDBRANCH  63  77
BRANCH  64  89
ATOM     89  C   UNL A   1      46.959  30.075  36.189  1.00  0.00     0.058 A 
ATOM     90  C   UNL A   1      47.184  29.374  37.409  1.00  0.00     0.135 A 
ATOM     91  C   UNL A   1      47.554  29.527  35.044  1.00  0.00     0.135 A 
ATOM     92  F   UNL A   1      46.685  29.862  38.558  1.00  0.00    -0.206 F 
ATOM     93  C   UNL A   1      47.653  28.061  37.428  1.00  0.00     0.059 A 
ATOM     94  C   UNL A   1      48.072  28.221  35.049  1.00  0.00     0.059 A 
ATOM     95  F   UNL A   1      47.443  30.160  33.868  1.00  0.00    -0.206 F 
ATOM     96  C   UNL A   1      48.009  27.466  36.224  1.00  0.00     0.060 A 
BRANCH  96  97
ATOM     97  S   UNL A   1      48.113  25.653  36.178  1.00  0.00     0.124 S 
ATOM     98  O   UNL A   1      46.912  25.242  36.894  1.00  0.00    -0.237 OA
ATOM     99  O   UNL A   1      48.102  25.422  34.734  1.00  0.00    -0.237 OA
ATOM    100  O   UNL A   1      49.376  25.386  36.855  1.00  0.00    -0.744 OA
ENDBRANCH  96  97
ENDBRANCH  64  89
BRANCH  76 101
ATOM    101  C   UNL A   1      43.241  36.158  33.792  1.00  0.00     0.058 A 
ATOM    102  C   UNL A   1      43.518  36.616  32.490  1.00  0.00     0.135 A 
ATOM    103  C   UNL A   1      43.008  37.224  34.719  1.00  0.00     0.135 A 
ATOM    104  F   UNL A   1      43.599  35.787  31.445  1.00  0.00    -0.206 F 
ATOM    105  C   UNL A   1      43.654  37.975  32.166  1.00  0.00     0.059 A 
ATOM    106  C   UNL A   1      43.070  38.579  34.403  1.00  0.00     0.059 A 
ATOM    107  F   UNL A   1      42.666  37.017  35.996  1.00  0.00    -0.206 F 
ATOM    108  C   UNL A   1      43.425  38.951  33.126  1.00  0.00     0.060 A 
BRANCH 108 109
ATOM    109  S   UNL A   1      43.494  40.693  32.686  1.00  0.00     0.124 S 
ATOM    110  O   UNL A   1      44.597  41.161  33.517  1.00  0.00    -0.237 OA
ATOM    111  O   UNL A   1      43.759  40.642  31.251  1.00  0.00    -0.237 OA
ATOM    112  O   UNL A   1      42.171  41.189  33.052  1.00  0.00    -0.744 OA
ENDBRANCH 108 109
ENDBRANCH  76 101
ENDBRANCH  50  51
ENDBRANCH  43  45
ENDBRANCH  42  43
ENDBRANCH  41  42
ENDBRANCH  40  41
ENDBRANCH  39  40
ENDBRANCH  38  39
ENDBRANCH  37  38
ENDBRANCH  36  37
ENDBRANCH   1  36
TORSDOF 27
ENDMDL
MODEL 2
REMARK VINA RESULT:     -11.1      4.918     12.222
REMARK SMILES Cc1ccccc1/[NH+]=C1\S[C@@H](CC(=O)Nc2ccc(C(=O)OCCOCCOCCOCCOC(=O)c3ccc(-c4c5nc(c(-c6c(F)cc(S(=O)(=O)[O-])cc6F)c6ccc([nH]6)c(-c6c(F)cc(S(=O)(=O)[O-])cc6F)c6nc(c(-c7c(F)cc(S(=O)(=O)[O-])cc7F)c7ccc4[nH]7)C=C6)C=C5)cc3)cc2)C(=O)N1C
REMARK SMILES IDX 27 1 26 2 25 3 24 4 23 5 22 6 20 7 21 8 19 9 16 10 17 11
REMARK SMILES IDX 104 12 18 13 103 14 15 15 13 16 14 17 12 19 11 20 8 21 9 22
REMARK SMILES IDX 10 24 107 25 105 26 108 27 106 28 7 29 1 30 2 31 3 32 4 33
REMARK SMILES IDX 6 34 5 35 28 36 29 37 30 38 31 39 32 40 33 41 34 42 35 43
REMARK SMILES IDX 36 44 37 45 38 46 102 47 39 48 101 49 40 50 41 51 42 52
REMARK SMILES IDX 95 53 43 54 100 55 94 56 96 57 44 58 99 59 93 60 92 61 45 63
REMARK SMILES IDX 79 64 58 65 78 66 59 67 62 68 77 69 97 70 60 71 61 72 76 74
REMARK SMILES IDX 98 75 63 76 46 77 47 78 56 79 48 80 49 81 55 82 57 83 50 84
REMARK SMILES IDX 51 85 52 86 53 87 54 88 80 89 81 90 90 91 82 92 83 93 89 94
REMARK SMILES IDX 91 95 84 96 85 97 86 98 87 99 88 100 64 101 65 102 74 103
REMARK SMILES IDX 66 104 67 105 73 106 75 107 68 108 69 109 70 110 71 111
REMARK SMILES IDX 72 112
REMARK H PARENT 15 18 8 23 96 62 62 73
REMARK Flexibility Score: inf
ROOT
ATOM      1  C   UNL A   1      34.758  24.308  24.999  1.00  0.00     0.188 C 
ENDROOT
BRANCH   1   2
ATOM      2  C   UNL A   1      33.224  25.131  24.900  1.00  0.00     0.188 C 
BRANCH   2   3
ATOM      3  O   UNL A   1      32.381  26.413  25.861  1.00  0.00    -0.376 OA
BRANCH   3   4
ATOM      4  C   UNL A   1      32.764  28.113  26.334  1.00  0.00     0.202 C 
BRANCH   4   5
ATOM      5  C   UNL A   1      34.475  28.895  26.677  1.00  0.00     0.261 C 
BRANCH   5   6
ATOM      6  O   UNL A   1      34.838  30.274  27.777  1.00  0.00    -0.460 OA
BRANCH   6   7
ATOM      7  C   UNL A   1      34.465  31.642  28.075  1.00  0.00     0.338 C 
ATOM      8  O   UNL A   1      33.486  32.325  27.750  1.00  0.00    -0.246 OA
BRANCH   7   9
ATOM      9  C   UNL A   1      35.118  32.500  29.066  1.00  0.00     0.060 A 
ATOM     10  C   UNL A   1      36.411  34.013  31.064  1.00  0.00     0.041 A 
ATOM     11  C   UNL A   1      36.884  33.793  29.778  1.00  0.00     0.027 A 
ATOM     12  C   UNL A   1      35.207  33.423  31.385  1.00  0.00     0.027 A 
ATOM     13  C   UNL A   1      36.239  33.161  28.741  1.00  0.00     0.018 A 
ATOM     14  C   UNL A   1      34.584  32.642  30.397  1.00  0.00     0.018 A 
BRANCH  10  15
ATOM     15  N   UNL A   1      37.187  34.720  32.004  1.00  0.00    -0.326 N 
ATOM     16  C   UNL A   1      37.880  34.263  33.105  1.00  0.00     0.226 C 
ATOM     17  O   UNL A   1      38.317  35.084  33.918  1.00  0.00    -0.275 OA
ATOM     18  H   UNL A   1      37.243  35.692  31.851  1.00  0.00     0.169 HD
BRANCH  16  19
ATOM     19  C   UNL A   1      38.207  32.782  33.309  1.00  0.00     0.128 C 
BRANCH  19  20
ATOM     20  C   UNL A   1      39.214  32.237  32.287  1.00  0.00     0.183 C 
ATOM     21  N   UNL A   1      40.729  29.170  30.764  1.00  0.00    -0.234 N 
ATOM     22  C   UNL A   1      40.004  29.953  31.465  1.00  0.00     0.319 C 
ATOM     23  H   UNL A   1      41.533  28.870  31.247  1.00  0.00     0.313 HD
ATOM     24  S   UNL A   1      38.498  30.787  31.381  1.00  0.00    -0.022 SA
ATOM     25  N   UNL A   1      40.544  30.315  32.634  1.00  0.00    -0.193 N 
ATOM     26  C   UNL A   1      40.492  31.655  32.890  1.00  0.00     0.324 C 
ATOM     27  C   UNL A   1      40.811  29.266  33.558  1.00  0.00     0.301 C 
ATOM     28  O   UNL A   1      41.312  32.292  33.538  1.00  0.00    -0.245 OA
BRANCH  21  29
ATOM     29  C   UNL A   1      40.654  28.643  29.492  1.00  0.00     0.128 A 
ATOM     30  C   UNL A   1      42.737  29.719  28.485  1.00  0.00     0.049 C 
ATOM     31  C   UNL A   1      41.513  28.868  28.416  1.00  0.00    -0.004 A 
ATOM     32  C   UNL A   1      41.252  28.232  27.194  1.00  0.00     0.008 A 
ATOM     33  C   UNL A   1      40.247  27.275  27.076  1.00  0.00     0.001 A 
ATOM     34  C   UNL A   1      39.667  27.645  29.366  1.00  0.00     0.052 A 
ATOM     35  C   UNL A   1      39.474  26.949  28.178  1.00  0.00     0.004 A 
ENDBRANCH  21  29
ENDBRANCH  19  20
ENDBRANCH  16  19
ENDBRANCH  10  15
ENDBRANCH   7   9
ENDBRANCH   6   7
ENDBRANCH   5   6
ENDBRANCH   4   5
ENDBRANCH   3   4
ENDBRANCH   2   3
ENDBRANCH   1   2
BRANCH   1  36
ATOM     36  O   UNL A   1      35.134  23.035  25.582  1.00  0.00    -0.377 OA
BRANCH  36  37
ATOM     37  C   UNL A   1      36.247  22.207  25.268  1.00  0.00     0.188 C 
BRANCH  37  38
ATOM     38  C   UNL A   1      37.523  22.764  25.766  1.00  0.00     0.188 C 
BRANCH  38  39
ATOM     39  O   UNL A   1      38.608  21.932  25.405  1.00  0.00    -0.376 OA
BRANCH  39  40
ATOM     40  C   UNL A   1      39.450  21.594  26.484  1.00  0.00     0.202 C 
BRANCH  40  41
ATOM     41  C   UNL A   1      40.740  22.428  26.473  1.00  0.00     0.261 C 
BRANCH  41  42
ATOM     42  O   UNL A   1      41.745  21.736  27.258  1.00  0.00    -0.460 OA
BRANCH  42  43
ATOM     43  C   UNL A   1      42.997  22.312  27.283  1.00  0.00     0.338 C 
ATOM     44  O   UNL A   1      43.894  22.022  26.538  1.00  0.00    -0.246 OA
BRANCH  43  45
ATOM     45  C   UNL A   1      43.050  23.270  28.441  1.00  0.00     0.060 A 
ATOM     46  C   UNL A   1      42.373  24.482  28.490  1.00  0.00     0.016 A 
ATOM     47  C   UNL A   1      43.943  23.065  29.451  1.00  0.00     0.016 A 
ATOM     48  C   UNL A   1      42.925  25.603  29.201  1.00  0.00     0.010 A 
ATOM     49  C   UNL A   1      44.368  24.172  30.203  1.00  0.00     0.010 A 
ATOM     50  C   UNL A   1      44.193  25.553  29.808  1.00  0.00    -0.014 A 
BRANCH  50  51
ATOM     51  C   UNL A   1      45.487  26.892  29.719  1.00  0.00     0.031 A 
ATOM     52  C   UNL A   1      46.908  27.080  28.333  1.00  0.00     0.074 A 
ATOM     53  C   UNL A   1      45.402  27.607  30.902  1.00  0.00     0.049 A 
ATOM     54  N   UNL A   1      48.214  26.656  28.511  1.00  0.00    -0.248 NA
ATOM     55  C   UNL A   1      46.940  27.016  26.716  1.00  0.00     0.031 C 
ATOM     56  C   UNL A   1      45.857  28.941  31.281  1.00  0.00     0.029 A 
ATOM     57  N   UNL A   1      44.891  27.147  32.132  1.00  0.00    -0.354 N 
ATOM     58  C   UNL A   1      49.049  26.641  27.432  1.00  0.00     0.074 A 
ATOM     59  C   UNL A   1      48.146  26.564  26.354  1.00  0.00     0.031 C 
ATOM     60  C   UNL A   1      45.795  29.085  32.607  1.00  0.00     0.029 A 
ATOM     61  C   UNL A   1      45.458  27.839  33.198  1.00  0.00     0.049 A 
ATOM     62  H   UNL A   1      44.222  26.431  32.226  1.00  0.00     0.167 HD
ATOM     63  C   UNL A   1      50.403  26.848  27.491  1.00  0.00     0.037 A 
ATOM     64  C   UNL A   1      46.120  27.206  34.197  1.00  0.00     0.037 A 
ATOM     65  C   UNL A   1      50.865  27.321  28.818  1.00  0.00     0.049 A 
ATOM     66  C   UNL A   1      47.649  27.025  34.097  1.00  0.00     0.074 A 
ATOM     67  C   UNL A   1      51.290  28.561  29.275  1.00  0.00     0.029 A 
ATOM     68  N   UNL A   1      50.699  26.555  29.982  1.00  0.00    -0.354 N 
ATOM     69  N   UNL A   1      48.429  27.204  33.042  1.00  0.00    -0.248 NA
ATOM     70  C   UNL A   1      48.435  26.719  35.293  1.00  0.00     0.031 C 
ATOM     71  C   UNL A   1      51.258  28.567  30.701  1.00  0.00     0.029 A 
ATOM     72  C   UNL A   1      50.814  27.327  31.149  1.00  0.00     0.049 A 
ATOM     73  H   UNL A   1      50.522  25.587  29.980  1.00  0.00     0.167 HD
ATOM     74  C   UNL A   1      49.759  26.882  33.360  1.00  0.00     0.074 A 
ATOM     75  C   UNL A   1      49.688  26.729  34.809  1.00  0.00     0.031 C 
ATOM     76  C   UNL A   1      50.851  26.738  32.505  1.00  0.00     0.037 A 
BRANCH  63  77
ATOM     77  C   UNL A   1      51.139  27.010  26.151  1.00  0.00     0.058 A 
ATOM     78  C   UNL A   1      51.092  28.174  25.363  1.00  0.00     0.135 A 
ATOM     79  C   UNL A   1      51.852  25.943  25.551  1.00  0.00     0.135 A 
ATOM     80  F   UNL A   1      50.617  29.326  25.848  1.00  0.00    -0.206 F 
ATOM     81  C   UNL A   1      51.549  28.214  24.035  1.00  0.00     0.059 A 
ATOM     82  C   UNL A   1      52.229  25.920  24.202  1.00  0.00     0.059 A 
ATOM     83  F   UNL A   1      52.222  24.875  26.279  1.00  0.00    -0.206 F 
ATOM     84  C   UNL A   1      52.063  27.065  23.441  1.00  0.00     0.060 A 
BRANCH  84  85
ATOM     85  S   UNL A   1      52.577  27.106  21.709  1.00  0.00     0.124 S 
ATOM     86  O   UNL A   1      52.648  28.537  21.432  1.00  0.00    -0.237 OA
ATOM     87  O   UNL A   1      53.856  26.406  21.756  1.00  0.00    -0.237 OA
ATOM     88  O   UNL A   1      51.505  26.397  21.015  1.00  0.00    -0.744 OA
ENDBRANCH  84  85
ENDBRANCH  63  77
BRANCH  64  89
ATOM     89  C   UNL A   1      45.057  26.569  35.067  1.00  0.00     0.058 A 
ATOM     90  C   UNL A   1      45.263  25.184  35.327  1.00  0.00     0.135 A 
ATOM     91  C   UNL A   1      44.481  27.313  36.106  1.00  0.00     0.135 A 
ATOM     92  F   UNL A   1      45.769  24.395  34.363  1.00  0.00    -0.206 F 
ATOM     93  C   UNL A   1      45.234  24.665  36.621  1.00  0.00     0.059 A 
ATOM     94  C   UNL A   1      44.400  26.797  37.410  1.00  0.00     0.059 A 
ATOM     95  F   UNL A   1      44.196  28.609  35.919  1.00  0.00    -0.206 F 
ATOM     96  C   UNL A   1      44.886  25.512  37.667  1.00  0.00     0.060 A 
BRANCH  96  97
ATOM     97  S   UNL A   1      45.342  25.002  39.349  1.00  0.00     0.124 S 
ATOM     98  O   UNL A   1      46.789  25.171  39.358  1.00  0.00    -0.237 OA
ATOM     99  O   UNL A   1      44.584  25.973  40.137  1.00  0.00    -0.237 OA
ATOM    100  O   UNL A   1      44.865  23.625  39.409  1.00  0.00    -0.744 OA
ENDBRANCH  96  97
ENDBRANCH  64  89
BRANCH  76 101
ATOM    101  C   UNL A   1      52.236  26.108  32.870  1.00  0.00     0.058 A 
ATOM    102  C   UNL A   1      53.229  26.692  33.679  1.00  0.00     0.135 A 
ATOM    103  C   UNL A   1      52.553  24.768  32.480  1.00  0.00     0.135 A 
ATOM    104  F   UNL A   1      53.053  27.870  34.285  1.00  0.00    -0.206 F 
ATOM    105  C   UNL A   1      54.445  26.060  33.980  1.00  0.00     0.059 A 
ATOM    106  C   UNL A   1      53.723  24.096  32.825  1.00  0.00     0.059 A 
ATOM    107  F   UNL A   1      51.722  24.002  31.763  1.00  0.00    -0.206 F 
ATOM    108  C   UNL A   1      54.684  24.760  33.552  1.00  0.00     0.060 A 
BRANCH 108 109
ATOM    109  S   UNL A   1      56.196  23.911  34.028  1.00  0.00     0.124 S 
ATOM    110  O   UNL A   1      56.494  23.148  32.821  1.00  0.00    -0.237 OA
ATOM    111  O   UNL A   1      57.100  25.020  34.316  1.00  0.00    -0.237 OA
ATOM    112  O   UNL A   1      55.794  23.125  35.190  1.00  0.00    -0.744 OA
ENDBRANCH 108 109
ENDBRANCH  76 101
ENDBRANCH  50  51
ENDBRANCH  43  45
ENDBRANCH  42  43
ENDBRANCH  41  42
ENDBRANCH  40  41
ENDBRANCH  39  40
ENDBRANCH  38  39
ENDBRANCH  37  38
ENDBRANCH  36  37
ENDBRANCH   1  36
TORSDOF 27
ENDMDL
MODEL 3
REMARK VINA RESULT:     -11.0      4.714     11.094
REMARK SMILES Cc1ccccc1/[NH+]=C1\S[C@@H](CC(=O)Nc2ccc(C(=O)OCCOCCOCCOCCOC(=O)c3ccc(-c4c5nc(c(-c6c(F)cc(S(=O)(=O)[O-])cc6F)c6ccc([nH]6)c(-c6c(F)cc(S(=O)(=O)[O-])cc6F)c6nc(c(-c7c(F)cc(S(=O)(=O)[O-])cc7F)c7ccc4[nH]7)C=C6)C=C5)cc3)cc2)C(=O)N1C
REMARK SMILES IDX 27 1 26 2 25 3 24 4 23 5 22 6 20 7 21 8 19 9 16 10 17 11
REMARK SMILES IDX 104 12 18 13 103 14 15 15 13 16 14 17 12 19 11 20 8 21 9 22
REMARK SMILES IDX 10 24 107 25 105 26 108 27 106 28 7 29 1 30 2 31 3 32 4 33
REMARK SMILES IDX 6 34 5 35 28 36 29 37 30 38 31 39 32 40 33 41 34 42 35 43
REMARK SMILES IDX 36 44 37 45 38 46 102 47 39 48 101 49 40 50 41 51 42 52
REMARK SMILES IDX 95 53 43 54 100 55 94 56 96 57 44 58 99 59 93 60 92 61 45 63
REMARK SMILES IDX 79 64 58 65 78 66 59 67 62 68 77 69 97 70 60 71 61 72 76 74
REMARK SMILES IDX 98 75 63 76 46 77 47 78 56 79 48 80 49 81 55 82 57 83 50 84
REMARK SMILES IDX 51 85 52 86 53 87 54 88 80 89 81 90 90 91 82 92 83 93 89 94
REMARK SMILES IDX 91 95 84 96 85 97 86 98 87 99 88 100 64 101 65 102 74 103
REMARK SMILES IDX 66 104 67 105 73 106 75 107 68 108 69 109 70 110 71 111
REMARK SMILES IDX 72 112
REMARK H PARENT 15 18 8 23 96 62 62 73
REMARK Flexibility Score: inf
ROOT
ATOM      1  C   UNL A   1      37.222  34.580  32.459  1.00  0.00     0.188 C 
ENDROOT
BRANCH   1   2
ATOM      2  C   UNL A   1      37.506  33.059  31.655  1.00  0.00     0.188 C 
BRANCH   2   3
ATOM      3  O   UNL A   1      37.336  32.441  29.963  1.00  0.00    -0.376 OA
BRANCH   3   4
ATOM      4  C   UNL A   1      36.815  30.878  29.220  1.00  0.00     0.202 C 
BRANCH   4   5
ATOM      5  C   UNL A   1      35.785  30.601  27.633  1.00  0.00     0.261 C 
BRANCH   5   6
ATOM      6  O   UNL A   1      33.992  30.664  27.477  1.00  0.00    -0.460 OA
BRANCH   6   7
ATOM      7  C   UNL A   1      32.857  29.964  26.909  1.00  0.00     0.338 C 
ATOM      8  O   UNL A   1      31.678  29.865  27.271  1.00  0.00    -0.246 OA
BRANCH   7   9
ATOM      9  C   UNL A   1      32.820  29.352  25.580  1.00  0.00     0.060 A 
ATOM     10  C   UNL A   1      32.753  28.023  23.093  1.00  0.00     0.041 A 
ATOM     11  C   UNL A   1      31.702  28.720  23.670  1.00  0.00     0.027 A 
ATOM     12  C   UNL A   1      33.926  27.972  23.817  1.00  0.00     0.027 A 
ATOM     13  C   UNL A   1      31.722  29.474  24.819  1.00  0.00     0.018 A 
ATOM     14  C   UNL A   1      33.943  28.607  25.069  1.00  0.00     0.018 A 
BRANCH  10  15
ATOM     15  N   UNL A   1      32.576  27.328  21.881  1.00  0.00    -0.326 N 
ATOM     16  C   UNL A   1      32.143  26.039  21.653  1.00  0.00     0.226 C 
ATOM     17  O   UNL A   1      32.267  25.558  20.522  1.00  0.00    -0.275 OA
ATOM     18  H   UNL A   1      32.796  27.842  21.070  1.00  0.00     0.169 HD
BRANCH  16  19
ATOM     19  C   UNL A   1      31.430  25.213  22.727  1.00  0.00     0.128 C 
BRANCH  19  20
ATOM     20  C   UNL A   1      32.333  24.852  23.913  1.00  0.00     0.183 C 
ATOM     21  N   UNL A   1      34.734  22.351  25.329  1.00  0.00    -0.234 N 
ATOM     22  C   UNL A   1      33.930  22.964  24.549  1.00  0.00     0.319 C 
ATOM     23  H   UNL A   1      34.282  21.661  25.867  1.00  0.00     0.313 HD
ATOM     24  S   UNL A   1      33.947  24.165  23.313  1.00  0.00    -0.022 SA
ATOM     25  N   UNL A   1      32.641  22.653  24.721  1.00  0.00    -0.193 N 
ATOM     26  C   UNL A   1      31.805  23.729  24.806  1.00  0.00     0.324 C 
ATOM     27  C   UNL A   1      32.283  21.294  24.492  1.00  0.00     0.301 C 
ATOM     28  O   UNL A   1      30.769  23.782  25.456  1.00  0.00    -0.245 OA
BRANCH  21  29
ATOM     29  C   UNL A   1      36.084  22.423  25.596  1.00  0.00     0.128 A 
ATOM     30  C   UNL A   1      36.779  20.098  24.808  1.00  0.00     0.049 C 
ATOM     31  C   UNL A   1      37.053  21.438  25.405  1.00  0.00    -0.004 A 
ATOM     32  C   UNL A   1      38.383  21.717  25.752  1.00  0.00     0.008 A 
ATOM     33  C   UNL A   1      38.777  22.995  26.140  1.00  0.00     0.001 A 
ATOM     34  C   UNL A   1      36.506  23.719  25.954  1.00  0.00     0.052 A 
ATOM     35  C   UNL A   1      37.842  24.014  26.204  1.00  0.00     0.004 A 
ENDBRANCH  21  29
ENDBRANCH  19  20
ENDBRANCH  16  19
ENDBRANCH  10  15
ENDBRANCH   7   9
ENDBRANCH   6   7
ENDBRANCH   5   6
ENDBRANCH   4   5
ENDBRANCH   3   4
ENDBRANCH   2   3
ENDBRANCH   1   2
BRANCH   1  36
ATOM     36  O   UNL A   1      36.002  35.218  32.914  1.00  0.00    -0.377 OA
BRANCH  36  37
ATOM     37  C   UNL A   1      35.195  34.894  34.040  1.00  0.00     0.188 C 
BRANCH  37  38
ATOM     38  C   UNL A   1      35.758  33.783  34.837  1.00  0.00     0.188 C 
BRANCH  38  39
ATOM     39  O   UNL A   1      36.931  34.193  35.511  1.00  0.00    -0.376 OA
BRANCH  39  40
ATOM     40  C   UNL A   1      37.443  33.227  36.403  1.00  0.00     0.202 C 
BRANCH  40  41
ATOM     41  C   UNL A   1      38.839  32.751  35.974  1.00  0.00     0.261 C 
BRANCH  41  42
ATOM     42  O   UNL A   1      39.759  33.868  36.072  1.00  0.00    -0.460 OA
BRANCH  42  43
ATOM     43  C   UNL A   1      41.070  33.551  36.356  1.00  0.00     0.338 C 
ATOM     44  O   UNL A   1      41.413  32.781  37.213  1.00  0.00    -0.246 OA
BRANCH  43  45
ATOM     45  C   UNL A   1      41.957  34.393  35.482  1.00  0.00     0.060 A 
ATOM     46  C   UNL A   1      41.566  35.582  34.878  1.00  0.00     0.016 A 
ATOM     47  C   UNL A   1      43.170  33.915  35.084  1.00  0.00     0.016 A 
ATOM     48  C   UNL A   1      42.113  35.974  33.608  1.00  0.00     0.010 A 
ATOM     49  C   UNL A   1      43.729  34.412  33.897  1.00  0.00     0.010 A 
ATOM     50  C   UNL A   1      43.000  35.152  32.889  1.00  0.00    -0.014 A 
BRANCH  50  51
ATOM     51  C   UNL A   1      42.920  34.819  31.057  1.00  0.00     0.031 A 
ATOM     52  C   UNL A   1      42.912  33.031  30.174  1.00  0.00     0.074 A 
ATOM     53  C   UNL A   1      43.073  36.041  30.423  1.00  0.00     0.049 A 
ATOM     54  N   UNL A   1      44.039  32.440  29.629  1.00  0.00    -0.248 NA
ATOM     55  C   UNL A   1      42.105  31.648  30.407  1.00  0.00     0.031 C 
ATOM     56  C   UNL A   1      42.746  36.499  29.076  1.00  0.00     0.029 A 
ATOM     57  N   UNL A   1      43.702  37.189  30.943  1.00  0.00    -0.354 N 
ATOM     58  C   UNL A   1      43.968  31.135  29.238  1.00  0.00     0.074 A 
ATOM     59  C   UNL A   1      42.900  30.646  30.016  1.00  0.00     0.031 C 
ATOM     60  C   UNL A   1      43.331  37.676  28.839  1.00  0.00     0.029 A 
ATOM     61  C   UNL A   1      44.194  37.995  29.921  1.00  0.00     0.049 A 
ATOM     62  H   UNL A   1      43.783  37.395  31.902  1.00  0.00     0.167 HD
ATOM     63  C   UNL A   1      44.682  30.591  28.202  1.00  0.00     0.037 A 
ATOM     64  C   UNL A   1      45.502  38.342  29.844  1.00  0.00     0.037 A 
ATOM     65  C   UNL A   1      45.383  31.606  27.379  1.00  0.00     0.049 A 
ATOM     66  C   UNL A   1      46.467  37.477  29.006  1.00  0.00     0.074 A 
ATOM     67  C   UNL A   1      45.136  32.118  26.112  1.00  0.00     0.029 A 
ATOM     68  N   UNL A   1      46.365  32.452  27.915  1.00  0.00    -0.354 N 
ATOM     69  N   UNL A   1      46.261  36.271  28.502  1.00  0.00    -0.248 NA
ATOM     70  C   UNL A   1      47.758  38.017  28.579  1.00  0.00     0.031 C 
ATOM     71  C   UNL A   1      45.876  33.326  25.948  1.00  0.00     0.029 A 
ATOM     72  C   UNL A   1      46.595  33.580  27.111  1.00  0.00     0.049 A 
ATOM     73  H   UNL A   1      46.840  32.275  28.759  1.00  0.00     0.167 HD
ATOM     74  C   UNL A   1      47.416  35.813  27.846  1.00  0.00     0.074 A 
ATOM     75  C   UNL A   1      48.240  37.016  27.824  1.00  0.00     0.031 C 
ATOM     76  C   UNL A   1      47.695  34.536  27.359  1.00  0.00     0.037 A 
BRANCH  63  77
ATOM     77  C   UNL A   1      44.307  29.163  27.775  1.00  0.00     0.058 A 
ATOM     78  C   UNL A   1      44.865  28.002  28.338  1.00  0.00     0.135 A 
ATOM     79  C   UNL A   1      43.428  28.907  26.694  1.00  0.00     0.135 A 
ATOM     80  F   UNL A   1      45.572  28.046  29.473  1.00  0.00    -0.206 F 
ATOM     81  C   UNL A   1      44.711  26.727  27.767  1.00  0.00     0.059 A 
ATOM     82  C   UNL A   1      43.332  27.669  26.046  1.00  0.00     0.059 A 
ATOM     83  F   UNL A   1      42.610  29.871  26.236  1.00  0.00    -0.206 F 
ATOM     84  C   UNL A   1      43.990  26.577  26.586  1.00  0.00     0.060 A 
BRANCH  84  85
ATOM     85  S   UNL A   1      43.860  24.946  25.817  1.00  0.00     0.124 S 
ATOM     86  O   UNL A   1      44.836  25.028  24.734  1.00  0.00    -0.237 OA
ATOM     87  O   UNL A   1      44.213  24.062  26.922  1.00  0.00    -0.237 OA
ATOM     88  O   UNL A   1      42.466  24.878  25.386  1.00  0.00    -0.744 OA
ENDBRANCH  84  85
ENDBRANCH  63  77
BRANCH  64  89
ATOM     89  C   UNL A   1      45.716  39.406  30.899  1.00  0.00     0.058 A 
ATOM     90  C   UNL A   1      45.462  40.734  30.452  1.00  0.00     0.135 A 
ATOM     91  C   UNL A   1      45.386  39.130  32.233  1.00  0.00     0.135 A 
ATOM     92  F   UNL A   1      45.794  41.089  29.199  1.00  0.00    -0.206 F 
ATOM     93  C   UNL A   1      44.627  41.601  31.157  1.00  0.00     0.059 A 
ATOM     94  C   UNL A   1      44.581  40.007  32.979  1.00  0.00     0.059 A 
ATOM     95  F   UNL A   1      45.653  37.922  32.749  1.00  0.00    -0.206 F 
ATOM     96  C   UNL A   1      44.121  41.185  32.382  1.00  0.00     0.060 A 
BRANCH  96  97
ATOM     97  S   UNL A   1      42.666  42.057  33.032  1.00  0.00     0.124 S 
ATOM     98  O   UNL A   1      43.257  43.159  33.781  1.00  0.00    -0.237 OA
ATOM     99  O   UNL A   1      41.996  42.423  31.785  1.00  0.00    -0.237 OA
ATOM    100  O   UNL A   1      42.006  41.032  33.831  1.00  0.00    -0.744 OA
ENDBRANCH  96  97
ENDBRANCH  64  89
BRANCH  76 101
ATOM    101  C   UNL A   1      49.093  34.008  26.894  1.00  0.00     0.058 A 
ATOM    102  C   UNL A   1      49.716  34.276  25.661  1.00  0.00     0.135 A 
ATOM    103  C   UNL A   1      49.930  33.273  27.792  1.00  0.00     0.135 A 
ATOM    104  F   UNL A   1      49.172  35.089  24.750  1.00  0.00    -0.206 F 
ATOM    105  C   UNL A   1      50.983  33.782  25.316  1.00  0.00     0.059 A 
ATOM    106  C   UNL A   1      51.218  32.832  27.496  1.00  0.00     0.059 A 
ATOM    107  F   UNL A   1      49.564  32.964  29.042  1.00  0.00    -0.206 F 
ATOM    108  C   UNL A   1      51.730  33.063  26.240  1.00  0.00     0.060 A 
BRANCH 108 109
ATOM    109  S   UNL A   1      53.397  32.522  25.837  1.00  0.00     0.124 S 
ATOM    110  O   UNL A   1      54.177  33.186  26.875  1.00  0.00    -0.237 OA
ATOM    111  O   UNL A   1      53.291  31.070  25.956  1.00  0.00    -0.237 OA
ATOM    112  O   UNL A   1      53.597  33.018  24.480  1.00  0.00    -0.744 OA
ENDBRANCH 108 109
ENDBRANCH  76 101
ENDBRANCH  50  51
ENDBRANCH  43  45
ENDBRANCH  42  43
ENDBRANCH  41  42
ENDBRANCH  40  41
ENDBRANCH  39  40
ENDBRANCH  38  39
ENDBRANCH  37  38
ENDBRANCH  36  37
ENDBRANCH   1  36
TORSDOF 27
ENDMDL
