MODEL 1
REMARK VINA RESULT:      -9.0      0.000      0.000
REMARK SMILES Cc1c(CC(=O)N[C@@H](CCO)C(=O)OCCOCCOCCOCCOC(=O)c2ccc(-c3c4nc(c(-c5c(F)cc(S(=O)(=O)[O-])cc5F)c5ccc([nH]5)c(-c5c(F)cc(S(=O)(=O)[O-])cc5F)c5nc(c(-c6c(F)cc(S(=O)(=O)[O-])cc6F)c6ccc3[nH]6)C=C5)C=C4)cc2)cc(-c2ccc(S(C)(=O)=O)cc2)n1-c1ccc(F)cc1
REMARK SMILES IDX 19 1 18 2 17 3 16 4 15 5 14 6 12 7 13 8 8 9 7 10 5 11 6 12
REMARK SMILES IDX 4 14 3 15 1 16 2 17 107 18 95 19 96 20 108 21 109 22 114 23
REMARK SMILES IDX 110 24 113 25 111 26 112 27 97 28 98 29 106 30 99 31 105 32
REMARK SMILES IDX 100 33 101 34 102 35 103 36 104 37 9 38 10 39 11 40 20 42
REMARK SMILES IDX 21 43 22 44 23 45 24 46 25 47 26 48 27 49 28 50 29 51 30 52
REMARK SMILES IDX 94 53 31 54 93 55 32 56 33 57 34 58 87 59 35 60 92 61 86 62
REMARK SMILES IDX 88 63 36 64 91 65 85 66 84 67 37 69 71 70 50 71 70 72 51 73
REMARK SMILES IDX 54 74 69 75 89 76 52 77 53 78 68 80 90 81 55 82 38 83 39 84
REMARK SMILES IDX 48 85 40 86 41 87 47 88 49 89 42 90 43 91 44 92 45 93 46 94
REMARK SMILES IDX 72 95 73 96 82 97 74 98 75 99 81 100 83 101 76 102 77 103
REMARK SMILES IDX 78 104 79 105 80 106 56 107 57 108 66 109 58 110 59 111
REMARK SMILES IDX 65 112 67 113 60 114 61 115 62 116 63 117 64 118
REMARK H PARENT 7 13 11 41 88 68 54 79
REMARK Flexibility Score: inf
ROOT
ATOM      1  C   UNL A   1      35.838  31.156  28.681  1.00  0.00     0.188 C 
ENDROOT
BRANCH   1   2
ATOM      2  C   UNL A   1      34.800  31.792  27.735  1.00  0.00     0.188 C 
BRANCH   2   3
ATOM      3  O   UNL A   1      33.545  31.204  27.414  1.00  0.00    -0.376 OA
BRANCH   3   4
ATOM      4  C   UNL A   1      33.475  29.850  27.012  1.00  0.00     0.202 C 
BRANCH   4   5
ATOM      5  C   UNL A   1      32.263  29.480  26.153  1.00  0.00     0.261 C 
BRANCH   5   6
ATOM      6  O   UNL A   1      31.834  28.113  26.299  1.00  0.00    -0.462 OA
BRANCH   6   7
ATOM      7  C   UNL A   1      31.292  27.554  25.183  1.00  0.00     0.328 C 
ATOM      8  O   UNL A   1      30.823  26.422  25.115  1.00  0.00    -0.250 OA
BRANCH   7   9
ATOM      9  C   UNL A   1      31.419  28.454  23.942  1.00  0.00     0.194 C 
BRANCH   9  10
ATOM     10  N   UNL A   1      32.677  28.439  23.184  1.00  0.00    -0.342 N 
ATOM     11  C   UNL A   1      33.294  27.419  22.516  1.00  0.00     0.225 C 
ATOM     12  O   UNL A   1      34.390  27.658  22.002  1.00  0.00    -0.275 OA
ATOM     13  H   UNL A   1      33.150  29.302  23.151  1.00  0.00     0.164 HD
BRANCH  11  14
ATOM     14  C   UNL A   1      32.626  26.062  22.325  1.00  0.00     0.137 C 
BRANCH  14  15
ATOM     15  C   UNL A   1      33.157  25.001  23.234  1.00  0.00    -0.017 A 
ATOM     16  C   UNL A   1      31.117  23.422  23.395  1.00  0.00     0.065 C 
ATOM     17  C   UNL A   1      32.543  23.819  23.617  1.00  0.00     0.024 A 
ATOM     18  N   UNL A   1      33.480  23.042  24.292  1.00  0.00    -0.314 N 
ATOM     19  C   UNL A   1      34.426  25.026  23.863  1.00  0.00     0.033 A 
ATOM     20  C   UNL A   1      34.653  23.787  24.430  1.00  0.00     0.053 A 
BRANCH  18  21
ATOM     21  C   UNL A   1      33.307  21.694  24.713  1.00  0.00     0.046 A 
ATOM     22  C   UNL A   1      33.100  20.688  23.759  1.00  0.00     0.029 A 
ATOM     23  C   UNL A   1      33.287  21.392  26.081  1.00  0.00     0.029 A 
ATOM     24  C   UNL A   1      32.877  19.377  24.179  1.00  0.00     0.041 A 
ATOM     25  C   UNL A   1      33.047  20.080  26.492  1.00  0.00     0.041 A 
ATOM     26  C   UNL A   1      32.846  19.087  25.539  1.00  0.00     0.123 A 
ATOM     27  F   UNL A   1      32.611  17.830  25.937  1.00  0.00    -0.207 F 
ENDBRANCH  18  21
BRANCH  20  28
ATOM     28  C   UNL A   1      35.949  23.277  24.891  1.00  0.00    -0.001 A 
ATOM     29  C   UNL A   1      36.432  22.046  24.420  1.00  0.00     0.011 A 
ATOM     30  C   UNL A   1      36.743  24.040  25.755  1.00  0.00     0.011 A 
ATOM     31  C   UNL A   1      37.666  21.557  24.847  1.00  0.00     0.021 A 
ATOM     32  C   UNL A   1      37.980  23.558  26.188  1.00  0.00     0.021 A 
ATOM     33  C   UNL A   1      38.424  22.310  25.748  1.00  0.00     0.067 A 
BRANCH  33  34
ATOM     34  S   UNL A   1      39.969  21.649  26.319  1.00  0.00     0.175 S 
ATOM     35  C   UNL A   1      39.917  19.958  25.781  1.00  0.00     0.163 C 
ATOM     36  O   UNL A   1      41.022  22.324  25.615  1.00  0.00    -0.224 OA
ATOM     37  O   UNL A   1      39.928  21.633  27.783  1.00  0.00    -0.224 OA
ENDBRANCH  33  34
ENDBRANCH  20  28
ENDBRANCH  14  15
ENDBRANCH  11  14
ENDBRANCH   9  10
BRANCH   9  38
ATOM     38  C   UNL A   1      30.234  28.198  22.995  1.00  0.00     0.065 C 
BRANCH  38  39
ATOM     39  C   UNL A   1      29.845  29.393  22.124  1.00  0.00     0.159 C 
BRANCH  39  40
ATOM     40  O   UNL A   1      30.985  30.110  21.683  1.00  0.00    -0.396 OA
ATOM     41  H   UNL A   1      30.927  31.028  21.989  1.00  0.00     0.210 HD
ENDBRANCH  39  40
ENDBRANCH  38  39
ENDBRANCH   9  38
ENDBRANCH   7   9
ENDBRANCH   6   7
ENDBRANCH   5   6
ENDBRANCH   4   5
ENDBRANCH   3   4
ENDBRANCH   2   3
ENDBRANCH   1   2
BRANCH   1  42
ATOM     42  O   UNL A   1      37.194  31.383  28.348  1.00  0.00    -0.377 OA
BRANCH  42  43
ATOM     43  C   UNL A   1      38.122  30.469  28.930  1.00  0.00     0.188 C 
BRANCH  43  44
ATOM     44  C   UNL A   1      38.370  30.823  30.396  1.00  0.00     0.188 C 
BRANCH  44  45
ATOM     45  O   UNL A   1      39.742  30.909  30.769  1.00  0.00    -0.376 OA
BRANCH  45  46
ATOM     46  C   UNL A   1      40.731  30.543  29.800  1.00  0.00     0.202 C 
BRANCH  46  47
ATOM     47  C   UNL A   1      42.190  30.383  30.272  1.00  0.00     0.261 C 
BRANCH  47  48
ATOM     48  O   UNL A   1      43.070  31.534  30.084  1.00  0.00    -0.460 OA
BRANCH  48  49
ATOM     49  C   UNL A   1      44.157  31.299  29.290  1.00  0.00     0.338 C 
ATOM     50  O   UNL A   1      44.292  31.765  28.168  1.00  0.00    -0.246 OA
BRANCH  49  51
ATOM     51  C   UNL A   1      45.216  30.418  29.906  1.00  0.00     0.060 A 
ATOM     52  C   UNL A   1      45.422  29.141  29.383  1.00  0.00     0.016 A 
ATOM     53  C   UNL A   1      45.760  30.686  31.174  1.00  0.00     0.016 A 
ATOM     54  C   UNL A   1      46.132  28.157  30.125  1.00  0.00     0.010 A 
ATOM     55  C   UNL A   1      46.438  29.674  31.941  1.00  0.00     0.010 A 
ATOM     56  C   UNL A   1      46.608  28.365  31.454  1.00  0.00    -0.014 A 
BRANCH  56  57
ATOM     57  C   UNL A   1      46.672  27.119  32.369  1.00  0.00     0.031 A 
ATOM     58  C   UNL A   1      45.258  26.803  32.741  1.00  0.00     0.074 A 
ATOM     59  C   UNL A   1      47.611  26.269  32.912  1.00  0.00     0.049 A 
ATOM     60  N   UNL A   1      44.424  27.671  33.246  1.00  0.00    -0.248 NA
ATOM     61  C   UNL A   1      44.645  25.551  32.286  1.00  0.00     0.031 C 
ATOM     62  C   UNL A   1      49.066  26.290  32.735  1.00  0.00     0.029 A 
ATOM     63  N   UNL A   1      47.461  25.142  33.754  1.00  0.00    -0.354 N 
ATOM     64  C   UNL A   1      43.278  26.953  33.487  1.00  0.00     0.074 A 
ATOM     65  C   UNL A   1      43.387  25.756  32.673  1.00  0.00     0.031 C 
ATOM     66  C   UNL A   1      49.644  25.208  33.331  1.00  0.00     0.029 A 
ATOM     67  C   UNL A   1      48.642  24.397  34.017  1.00  0.00     0.049 A 
ATOM     68  H   UNL A   1      46.589  24.889  34.135  1.00  0.00     0.167 HD
ATOM     69  C   UNL A   1      42.651  27.075  34.689  1.00  0.00     0.037 A 
ATOM     70  C   UNL A   1      48.820  23.242  34.752  1.00  0.00     0.037 A 
ATOM     71  C   UNL A   1      42.619  25.848  35.435  1.00  0.00     0.049 A 
ATOM     72  C   UNL A   1      47.609  23.008  35.564  1.00  0.00     0.074 A 
ATOM     73  C   UNL A   1      42.213  24.552  35.191  1.00  0.00     0.029 A 
ATOM     74  N   UNL A   1      43.454  25.797  36.530  1.00  0.00    -0.354 N 
ATOM     75  N   UNL A   1      47.354  23.664  36.651  1.00  0.00    -0.248 NA
ATOM     76  C   UNL A   1      46.662  21.942  35.241  1.00  0.00     0.031 C 
ATOM     77  C   UNL A   1      43.118  23.716  35.901  1.00  0.00     0.029 A 
ATOM     78  C   UNL A   1      43.960  24.520  36.660  1.00  0.00     0.049 A 
ATOM     79  H   UNL A   1      43.659  26.552  37.127  1.00  0.00     0.167 HD
ATOM     80  C   UNL A   1      46.047  23.392  36.918  1.00  0.00     0.074 A 
ATOM     81  C   UNL A   1      45.744  22.184  36.178  1.00  0.00     0.031 C 
ATOM     82  C   UNL A   1      45.244  24.406  37.315  1.00  0.00     0.037 A 
BRANCH  69  83
ATOM     83  C   UNL A   1      42.688  28.425  35.332  1.00  0.00     0.058 A 
ATOM     84  C   UNL A   1      43.804  28.785  36.095  1.00  0.00     0.135 A 
ATOM     85  C   UNL A   1      41.627  29.347  35.251  1.00  0.00     0.135 A 
ATOM     86  F   UNL A   1      44.862  27.959  36.173  1.00  0.00    -0.206 F 
ATOM     87  C   UNL A   1      43.849  29.989  36.789  1.00  0.00     0.059 A 
ATOM     88  C   UNL A   1      41.638  30.546  35.957  1.00  0.00     0.059 A 
ATOM     89  F   UNL A   1      40.571  29.088  34.461  1.00  0.00    -0.206 F 
ATOM     90  C   UNL A   1      42.753  30.854  36.733  1.00  0.00     0.060 A 
BRANCH  90  91
ATOM     91  S   UNL A   1      42.780  32.344  37.753  1.00  0.00     0.124 S 
ATOM     92  O   UNL A   1      44.185  32.744  37.685  1.00  0.00    -0.237 OA
ATOM     93  O   UNL A   1      41.851  33.212  37.039  1.00  0.00    -0.237 OA
ATOM     94  O   UNL A   1      42.343  31.873  39.063  1.00  0.00    -0.744 OA
ENDBRANCH  90  91
ENDBRANCH  69  83
BRANCH  70  95
ATOM     95  C   UNL A   1      49.887  22.183  35.024  1.00  0.00     0.058 A 
ATOM     96  C   UNL A   1      49.996  21.034  34.180  1.00  0.00     0.135 A 
ATOM     97  C   UNL A   1      51.000  22.404  35.845  1.00  0.00     0.135 A 
ATOM     98  F   UNL A   1      48.991  20.664  33.373  1.00  0.00    -0.206 F 
ATOM     99  C   UNL A   1      51.158  20.267  34.046  1.00  0.00     0.059 A 
ATOM    100  C   UNL A   1      52.174  21.621  35.753  1.00  0.00     0.059 A 
ATOM    101  F   UNL A   1      51.014  23.442  36.693  1.00  0.00    -0.206 F 
ATOM    102  C   UNL A   1      52.263  20.593  34.810  1.00  0.00     0.060 A 
BRANCH 102 103
ATOM    103  S   UNL A   1      53.826  19.746  34.448  1.00  0.00     0.124 S 
ATOM    104  O   UNL A   1      53.885  19.798  32.992  1.00  0.00    -0.237 OA
ATOM    105  O   UNL A   1      54.795  20.582  35.151  1.00  0.00    -0.237 OA
ATOM    106  O   UNL A   1      53.630  18.417  35.021  1.00  0.00    -0.744 OA
ENDBRANCH 102 103
ENDBRANCH  70  95
BRANCH  82 107
ATOM    107  C   UNL A   1      45.839  25.478  38.222  1.00  0.00     0.058 A 
ATOM    108  C   UNL A   1      46.830  26.431  37.888  1.00  0.00     0.135 A 
ATOM    109  C   UNL A   1      45.398  25.502  39.558  1.00  0.00     0.135 A 
ATOM    110  F   UNL A   1      47.212  26.648  36.621  1.00  0.00    -0.206 F 
ATOM    111  C   UNL A   1      47.443  27.238  38.849  1.00  0.00     0.059 A 
ATOM    112  C   UNL A   1      45.947  26.349  40.519  1.00  0.00     0.059 A 
ATOM    113  F   UNL A   1      44.407  24.683  39.950  1.00  0.00    -0.206 F 
ATOM    114  C   UNL A   1      47.011  27.174  40.169  1.00  0.00     0.060 A 
BRANCH 114 115
ATOM    115  S   UNL A   1      47.833  28.187  41.416  1.00  0.00     0.124 S 
ATOM    116  O   UNL A   1      47.513  29.538  40.961  1.00  0.00    -0.237 OA
ATOM    117  O   UNL A   1      47.184  27.772  42.654  1.00  0.00    -0.237 OA
ATOM    118  O   UNL A   1      49.236  27.808  41.285  1.00  0.00    -0.744 OA
ENDBRANCH 114 115
ENDBRANCH  82 107
ENDBRANCH  56  57
ENDBRANCH  49  51
ENDBRANCH  48  49
ENDBRANCH  47  48
ENDBRANCH  46  47
ENDBRANCH  45  46
ENDBRANCH  44  45
ENDBRANCH  43  44
ENDBRANCH  42  43
ENDBRANCH   1  42
TORSDOF 32
ENDMDL
MODEL 2
REMARK VINA RESULT:      -8.2      6.288      9.552
REMARK SMILES Cc1c(CC(=O)N[C@@H](CCO)C(=O)OCCOCCOCCOCCOC(=O)c2ccc(-c3c4nc(c(-c5c(F)cc(S(=O)(=O)[O-])cc5F)c5ccc([nH]5)c(-c5c(F)cc(S(=O)(=O)[O-])cc5F)c5nc(c(-c6c(F)cc(S(=O)(=O)[O-])cc6F)c6ccc3[nH]6)C=C5)C=C4)cc2)cc(-c2ccc(S(C)(=O)=O)cc2)n1-c1ccc(F)cc1
REMARK SMILES IDX 19 1 18 2 17 3 16 4 15 5 14 6 12 7 13 8 8 9 7 10 5 11 6 12
REMARK SMILES IDX 4 14 3 15 1 16 2 17 107 18 95 19 96 20 108 21 109 22 114 23
REMARK SMILES IDX 110 24 113 25 111 26 112 27 97 28 98 29 106 30 99 31 105 32
REMARK SMILES IDX 100 33 101 34 102 35 103 36 104 37 9 38 10 39 11 40 20 42
REMARK SMILES IDX 21 43 22 44 23 45 24 46 25 47 26 48 27 49 28 50 29 51 30 52
REMARK SMILES IDX 94 53 31 54 93 55 32 56 33 57 34 58 87 59 35 60 92 61 86 62
REMARK SMILES IDX 88 63 36 64 91 65 85 66 84 67 37 69 71 70 50 71 70 72 51 73
REMARK SMILES IDX 54 74 69 75 89 76 52 77 53 78 68 80 90 81 55 82 38 83 39 84
REMARK SMILES IDX 48 85 40 86 41 87 47 88 49 89 42 90 43 91 44 92 45 93 46 94
REMARK SMILES IDX 72 95 73 96 82 97 74 98 75 99 81 100 83 101 76 102 77 103
REMARK SMILES IDX 78 104 79 105 80 106 56 107 57 108 66 109 58 110 59 111
REMARK SMILES IDX 65 112 67 113 60 114 61 115 62 116 63 117 64 118
REMARK H PARENT 7 13 11 41 88 68 54 79
REMARK Flexibility Score: inf
ROOT
ATOM      1  C   UNL A   1      35.610  31.618  29.341  1.00  0.00     0.188 C 
ENDROOT
BRANCH   1   2
ATOM      2  C   UNL A   1      34.619  31.897  28.194  1.00  0.00     0.188 C 
BRANCH   2   3
ATOM      3  O   UNL A   1      33.591  31.000  27.789  1.00  0.00    -0.376 OA
BRANCH   3   4
ATOM      4  C   UNL A   1      33.846  30.028  26.792  1.00  0.00     0.202 C 
BRANCH   4   5
ATOM      5  C   UNL A   1      33.514  28.585  27.180  1.00  0.00     0.261 C 
BRANCH   5   6
ATOM      6  O   UNL A   1      33.329  27.703  26.056  1.00  0.00    -0.462 OA
BRANCH   6   7
ATOM      7  C   UNL A   1      32.074  27.691  25.530  1.00  0.00     0.328 C 
ATOM      8  O   UNL A   1      31.144  26.997  25.932  1.00  0.00    -0.250 OA
BRANCH   7   9
ATOM      9  C   UNL A   1      31.944  28.572  24.276  1.00  0.00     0.194 C 
BRANCH   9  10
ATOM     10  N   UNL A   1      33.039  28.574  23.297  1.00  0.00    -0.342 N 
ATOM     11  C   UNL A   1      33.483  27.585  22.467  1.00  0.00     0.225 C 
ATOM     12  O   UNL A   1      34.474  27.829  21.773  1.00  0.00    -0.275 OA
ATOM     13  H   UNL A   1      33.530  29.426  23.228  1.00  0.00     0.164 HD
BRANCH  11  14
ATOM     14  C   UNL A   1      32.742  26.261  22.323  1.00  0.00     0.137 C 
BRANCH  14  15
ATOM     15  C   UNL A   1      33.241  25.194  23.242  1.00  0.00    -0.017 A 
ATOM     16  C   UNL A   1      31.132  23.719  23.479  1.00  0.00     0.065 C 
ATOM     17  C   UNL A   1      32.580  24.051  23.662  1.00  0.00     0.024 A 
ATOM     18  N   UNL A   1      33.494  23.242  24.332  1.00  0.00    -0.314 N 
ATOM     19  C   UNL A   1      34.524  25.169  23.843  1.00  0.00     0.033 A 
ATOM     20  C   UNL A   1      34.704  23.932  24.430  1.00  0.00     0.053 A 
BRANCH  18  21
ATOM     21  C   UNL A   1      33.265  21.912  24.784  1.00  0.00     0.046 A 
ATOM     22  C   UNL A   1      33.323  21.623  26.154  1.00  0.00     0.029 A 
ATOM     23  C   UNL A   1      33.039  20.891  23.851  1.00  0.00     0.029 A 
ATOM     24  C   UNL A   1      33.151  20.309  26.588  1.00  0.00     0.041 A 
ATOM     25  C   UNL A   1      32.885  19.577  24.293  1.00  0.00     0.041 A 
ATOM     26  C   UNL A   1      32.940  19.299  25.655  1.00  0.00     0.123 A 
ATOM     27  F   UNL A   1      32.796  18.036  26.076  1.00  0.00    -0.207 F 
ENDBRANCH  18  21
BRANCH  20  28
ATOM     28  C   UNL A   1      35.983  23.368  24.874  1.00  0.00    -0.001 A 
ATOM     29  C   UNL A   1      36.767  24.049  25.817  1.00  0.00     0.011 A 
ATOM     30  C   UNL A   1      36.403  22.116  24.409  1.00  0.00     0.011 A 
ATOM     31  C   UNL A   1      37.981  23.516  26.251  1.00  0.00     0.021 A 
ATOM     32  C   UNL A   1      37.617  21.574  24.838  1.00  0.00     0.021 A 
ATOM     33  C   UNL A   1      38.408  22.288  25.740  1.00  0.00     0.067 A 
BRANCH  33  34
ATOM     34  S   UNL A   1      39.978  21.648  26.265  1.00  0.00     0.175 S 
ATOM     35  C   UNL A   1      40.280  22.505  27.791  1.00  0.00     0.163 C 
ATOM     36  O   UNL A   1      39.811  20.251  26.547  1.00  0.00    -0.224 OA
ATOM     37  O   UNL A   1      40.986  22.111  25.308  1.00  0.00    -0.224 OA
ENDBRANCH  33  34
ENDBRANCH  20  28
ENDBRANCH  14  15
ENDBRANCH  11  14
ENDBRANCH   9  10
BRANCH   9  38
ATOM     38  C   UNL A   1      30.611  28.272  23.570  1.00  0.00     0.065 C 
BRANCH  38  39
ATOM     39  C   UNL A   1      29.823  29.510  23.142  1.00  0.00     0.159 C 
BRANCH  39  40
ATOM     40  O   UNL A   1      28.733  29.168  22.303  1.00  0.00    -0.396 OA
ATOM     41  H   UNL A   1      29.067  28.891  21.436  1.00  0.00     0.210 HD
ENDBRANCH  39  40
ENDBRANCH  38  39
ENDBRANCH   9  38
ENDBRANCH   7   9
ENDBRANCH   6   7
ENDBRANCH   5   6
ENDBRANCH   4   5
ENDBRANCH   3   4
ENDBRANCH   2   3
ENDBRANCH   1   2
BRANCH   1  42
ATOM     42  O   UNL A   1      36.630  30.680  29.057  1.00  0.00    -0.377 OA
BRANCH  42  43
ATOM     43  C   UNL A   1      36.655  29.536  29.910  1.00  0.00     0.188 C 
BRANCH  43  44
ATOM     44  C   UNL A   1      37.843  29.609  30.867  1.00  0.00     0.188 C 
BRANCH  44  45
ATOM     45  O   UNL A   1      39.070  29.112  30.341  1.00  0.00    -0.376 OA
BRANCH  45  46
ATOM     46  C   UNL A   1      40.051  28.621  31.261  1.00  0.00     0.202 C 
BRANCH  46  47
ATOM     47  C   UNL A   1      41.433  28.220  30.708  1.00  0.00     0.261 C 
BRANCH  47  48
ATOM     48  O   UNL A   1      41.647  28.415  29.276  1.00  0.00    -0.460 OA
BRANCH  48  49
ATOM     49  C   UNL A   1      41.695  27.262  28.543  1.00  0.00     0.338 C 
ATOM     50  O   UNL A   1      40.714  26.736  28.038  1.00  0.00    -0.246 OA
BRANCH  49  51
ATOM     51  C   UNL A   1      43.073  26.670  28.378  1.00  0.00     0.060 A 
ATOM     52  C   UNL A   1      44.156  27.290  29.001  1.00  0.00     0.016 A 
ATOM     53  C   UNL A   1      43.364  25.735  27.370  1.00  0.00     0.016 A 
ATOM     54  C   UNL A   1      45.490  26.999  28.601  1.00  0.00     0.010 A 
ATOM     55  C   UNL A   1      44.712  25.477  26.936  1.00  0.00     0.010 A 
ATOM     56  C   UNL A   1      45.814  26.134  27.514  1.00  0.00    -0.014 A 
BRANCH  56  57
ATOM     57  C   UNL A   1      47.115  26.455  26.739  1.00  0.00     0.031 A 
ATOM     58  C   UNL A   1      48.243  26.120  27.663  1.00  0.00     0.074 A 
ATOM     59  C   UNL A   1      47.506  26.939  25.509  1.00  0.00     0.049 A 
ATOM     60  N   UNL A   1      48.343  26.566  28.885  1.00  0.00    -0.248 NA
ATOM     61  C   UNL A   1      49.162  25.027  27.328  1.00  0.00     0.031 C 
ATOM     62  C   UNL A   1      46.661  27.342  24.381  1.00  0.00     0.029 A 
ATOM     63  N   UNL A   1      48.794  27.164  24.971  1.00  0.00    -0.354 N 
ATOM     64  C   UNL A   1      49.540  26.067  29.341  1.00  0.00     0.074 A 
ATOM     65  C   UNL A   1      49.865  24.963  28.457  1.00  0.00     0.031 C 
ATOM     66  C   UNL A   1      47.420  27.648  23.290  1.00  0.00     0.029 A 
ATOM     67  C   UNL A   1      48.843  27.543  23.603  1.00  0.00     0.049 A 
ATOM     68  H   UNL A   1      49.610  27.064  25.513  1.00  0.00     0.167 HD
ATOM     69  C   UNL A   1      50.413  26.896  29.977  1.00  0.00     0.037 A 
ATOM     70  C   UNL A   1      49.928  27.789  22.785  1.00  0.00     0.037 A 
ATOM     71  C   UNL A   1      51.659  27.046  29.278  1.00  0.00     0.049 A 
ATOM     72  C   UNL A   1      51.131  27.934  23.629  1.00  0.00     0.074 A 
ATOM     73  C   UNL A   1      52.615  26.192  28.767  1.00  0.00     0.029 A 
ATOM     74  N   UNL A   1      51.852  28.263  28.663  1.00  0.00    -0.354 N 
ATOM     75  N   UNL A   1      51.392  29.008  24.304  1.00  0.00    -0.248 NA
ATOM     76  C   UNL A   1      52.163  26.900  23.678  1.00  0.00     0.031 C 
ATOM     77  C   UNL A   1      53.102  26.811  27.584  1.00  0.00     0.029 A 
ATOM     78  C   UNL A   1      52.533  28.074  27.479  1.00  0.00     0.049 A 
ATOM     79  H   UNL A   1      51.552  29.133  29.014  1.00  0.00     0.167 HD
ATOM     80  C   UNL A   1      52.379  28.641  25.166  1.00  0.00     0.074 A 
ATOM     81  C   UNL A   1      52.961  27.441  24.600  1.00  0.00     0.031 C 
ATOM     82  C   UNL A   1      52.308  29.064  26.449  1.00  0.00     0.037 A 
BRANCH  69  83
ATOM     83  C   UNL A   1      49.818  27.969  30.832  1.00  0.00     0.058 A 
ATOM     84  C   UNL A   1      49.213  29.071  30.219  1.00  0.00     0.135 A 
ATOM     85  C   UNL A   1      49.877  27.955  32.239  1.00  0.00     0.135 A 
ATOM     86  F   UNL A   1      49.094  29.117  28.881  1.00  0.00    -0.206 F 
ATOM     87  C   UNL A   1      48.728  30.140  30.965  1.00  0.00     0.059 A 
ATOM     88  C   UNL A   1      49.422  29.023  33.006  1.00  0.00     0.059 A 
ATOM     89  F   UNL A   1      50.367  26.880  32.880  1.00  0.00    -0.206 F 
ATOM     90  C   UNL A   1      48.857  30.118  32.357  1.00  0.00     0.060 A 
BRANCH  90  91
ATOM     91  S   UNL A   1      48.345  31.577  33.290  1.00  0.00     0.124 S 
ATOM     92  O   UNL A   1      47.438  31.009  34.286  1.00  0.00    -0.237 OA
ATOM     93  O   UNL A   1      49.619  32.060  33.812  1.00  0.00    -0.237 OA
ATOM     94  O   UNL A   1      47.699  32.418  32.287  1.00  0.00    -0.744 OA
ENDBRANCH  90  91
ENDBRANCH  69  83
BRANCH  70  95
ATOM     95  C   UNL A   1      50.252  28.014  21.309  1.00  0.00     0.058 A 
ATOM     96  C   UNL A   1      50.919  29.207  20.890  1.00  0.00     0.135 A 
ATOM     97  C   UNL A   1      50.247  26.989  20.355  1.00  0.00     0.135 A 
ATOM     98  F   UNL A   1      50.964  30.293  21.675  1.00  0.00    -0.206 F 
ATOM     99  C   UNL A   1      51.648  29.321  19.702  1.00  0.00     0.059 A 
ATOM    100  C   UNL A   1      50.948  27.094  19.131  1.00  0.00     0.059 A 
ATOM    101  F   UNL A   1      49.641  25.824  20.623  1.00  0.00    -0.206 F 
ATOM    102  C   UNL A   1      51.693  28.241  18.841  1.00  0.00     0.060 A 
BRANCH 102 103
ATOM    103  S   UNL A   1      52.834  28.322  17.433  1.00  0.00     0.124 S 
ATOM    104  O   UNL A   1      51.988  28.852  16.370  1.00  0.00    -0.237 OA
ATOM    105  O   UNL A   1      53.867  29.226  17.930  1.00  0.00    -0.237 OA
ATOM    106  O   UNL A   1      53.260  26.936  17.264  1.00  0.00    -0.744 OA
ENDBRANCH 102 103
ENDBRANCH  70  95
BRANCH  82 107
ATOM    107  C   UNL A   1      51.760  30.463  26.713  1.00  0.00     0.058 A 
ATOM    108  C   UNL A   1      50.407  30.874  26.683  1.00  0.00     0.135 A 
ATOM    109  C   UNL A   1      52.699  31.479  26.967  1.00  0.00     0.135 A 
ATOM    110  F   UNL A   1      49.395  29.994  26.633  1.00  0.00    -0.206 F 
ATOM    111  C   UNL A   1      50.033  32.218  26.746  1.00  0.00     0.059 A 
ATOM    112  C   UNL A   1      52.341  32.819  27.104  1.00  0.00     0.059 A 
ATOM    113  F   UNL A   1      54.002  31.172  27.087  1.00  0.00    -0.206 F 
ATOM    114  C   UNL A   1      51.010  33.188  26.934  1.00  0.00     0.060 A 
BRANCH 114 115
ATOM    115  S   UNL A   1      50.530  34.928  26.974  1.00  0.00     0.124 S 
ATOM    116  O   UNL A   1      49.177  34.850  27.519  1.00  0.00    -0.237 OA
ATOM    117  O   UNL A   1      51.529  35.522  27.855  1.00  0.00    -0.237 OA
ATOM    118  O   UNL A   1      50.610  35.330  25.574  1.00  0.00    -0.744 OA
ENDBRANCH 114 115
ENDBRANCH  82 107
ENDBRANCH  56  57
ENDBRANCH  49  51
ENDBRANCH  48  49
ENDBRANCH  47  48
ENDBRANCH  46  47
ENDBRANCH  45  46
ENDBRANCH  44  45
ENDBRANCH  43  44
ENDBRANCH  42  43
ENDBRANCH   1  42
TORSDOF 32
ENDMDL
MODEL 3
REMARK VINA RESULT:      -8.1      2.726      6.365
REMARK SMILES Cc1c(CC(=O)N[C@@H](CCO)C(=O)OCCOCCOCCOCCOC(=O)c2ccc(-c3c4nc(c(-c5c(F)cc(S(=O)(=O)[O-])cc5F)c5ccc([nH]5)c(-c5c(F)cc(S(=O)(=O)[O-])cc5F)c5nc(c(-c6c(F)cc(S(=O)(=O)[O-])cc6F)c6ccc3[nH]6)C=C5)C=C4)cc2)cc(-c2ccc(S(C)(=O)=O)cc2)n1-c1ccc(F)cc1
REMARK SMILES IDX 19 1 18 2 17 3 16 4 15 5 14 6 12 7 13 8 8 9 7 10 5 11 6 12
REMARK SMILES IDX 4 14 3 15 1 16 2 17 107 18 95 19 96 20 108 21 109 22 114 23
REMARK SMILES IDX 110 24 113 25 111 26 112 27 97 28 98 29 106 30 99 31 105 32
REMARK SMILES IDX 100 33 101 34 102 35 103 36 104 37 9 38 10 39 11 40 20 42
REMARK SMILES IDX 21 43 22 44 23 45 24 46 25 47 26 48 27 49 28 50 29 51 30 52
REMARK SMILES IDX 94 53 31 54 93 55 32 56 33 57 34 58 87 59 35 60 92 61 86 62
REMARK SMILES IDX 88 63 36 64 91 65 85 66 84 67 37 69 71 70 50 71 70 72 51 73
REMARK SMILES IDX 54 74 69 75 89 76 52 77 53 78 68 80 90 81 55 82 38 83 39 84
REMARK SMILES IDX 48 85 40 86 41 87 47 88 49 89 42 90 43 91 44 92 45 93 46 94
REMARK SMILES IDX 72 95 73 96 82 97 74 98 75 99 81 100 83 101 76 102 77 103
REMARK SMILES IDX 78 104 79 105 80 106 56 107 57 108 66 109 58 110 59 111
REMARK SMILES IDX 65 112 67 113 60 114 61 115 62 116 63 117 64 118
REMARK H PARENT 7 13 11 41 88 68 54 79
REMARK Flexibility Score: inf
ROOT
ATOM      1  C   UNL A   1      36.138  31.053  29.227  1.00  0.00     0.188 C 
ENDROOT
BRANCH   1   2
ATOM      2  C   UNL A   1      34.906  31.732  28.598  1.00  0.00     0.188 C 
BRANCH   2   3
ATOM      3  O   UNL A   1      33.825  31.028  27.996  1.00  0.00    -0.376 OA
BRANCH   3   4
ATOM      4  C   UNL A   1      34.073  30.082  26.973  1.00  0.00     0.202 C 
BRANCH   4   5
ATOM      5  C   UNL A   1      33.666  28.642  27.295  1.00  0.00     0.261 C 
BRANCH   5   6
ATOM      6  O   UNL A   1      33.447  27.820  26.134  1.00  0.00    -0.462 OA
BRANCH   6   7
ATOM      7  C   UNL A   1      32.151  27.720  25.731  1.00  0.00     0.328 C 
ATOM      8  O   UNL A   1      31.282  27.064  26.297  1.00  0.00    -0.250 OA
BRANCH   7   9
ATOM      9  C   UNL A   1      31.883  28.439  24.398  1.00  0.00     0.194 C 
BRANCH   9  10
ATOM     10  N   UNL A   1      32.970  28.528  23.413  1.00  0.00    -0.342 N 
ATOM     11  C   UNL A   1      33.445  27.596  22.535  1.00  0.00     0.225 C 
ATOM     12  O   UNL A   1      34.421  27.910  21.847  1.00  0.00    -0.275 OA
ATOM     13  H   UNL A   1      33.427  29.400  23.380  1.00  0.00     0.164 HD
BRANCH  11  14
ATOM     14  C   UNL A   1      32.755  26.252  22.336  1.00  0.00     0.137 C 
BRANCH  14  15
ATOM     15  C   UNL A   1      33.247  25.184  23.258  1.00  0.00    -0.017 A 
ATOM     16  C   UNL A   1      31.159  23.671  23.422  1.00  0.00     0.065 C 
ATOM     17  C   UNL A   1      32.594  24.025  23.648  1.00  0.00     0.024 A 
ATOM     18  N   UNL A   1      33.504  23.226  24.335  1.00  0.00    -0.314 N 
ATOM     19  C   UNL A   1      34.513  25.175  23.893  1.00  0.00     0.033 A 
ATOM     20  C   UNL A   1      34.699  23.935  24.473  1.00  0.00     0.053 A 
BRANCH  18  21
ATOM     21  C   UNL A   1      33.286  21.888  24.768  1.00  0.00     0.046 A 
ATOM     22  C   UNL A   1      32.991  21.630  26.114  1.00  0.00     0.029 A 
ATOM     23  C   UNL A   1      33.423  20.833  23.856  1.00  0.00     0.029 A 
ATOM     24  C   UNL A   1      32.832  20.314  26.544  1.00  0.00     0.041 A 
ATOM     25  C   UNL A   1      33.278  19.518  24.299  1.00  0.00     0.041 A 
ATOM     26  C   UNL A   1      32.982  19.271  25.635  1.00  0.00     0.123 A 
ATOM     27  F   UNL A   1      32.848  18.007  26.058  1.00  0.00    -0.207 F 
ENDBRANCH  18  21
BRANCH  20  28
ATOM     28  C   UNL A   1      35.975  23.389  24.947  1.00  0.00    -0.001 A 
ATOM     29  C   UNL A   1      36.524  22.249  24.339  1.00  0.00     0.011 A 
ATOM     30  C   UNL A   1      36.687  24.035  25.963  1.00  0.00     0.011 A 
ATOM     31  C   UNL A   1      37.742  21.728  24.778  1.00  0.00     0.021 A 
ATOM     32  C   UNL A   1      37.907  23.520  26.409  1.00  0.00     0.021 A 
ATOM     33  C   UNL A   1      38.415  22.357  25.828  1.00  0.00     0.067 A 
BRANCH  33  34
ATOM     34  S   UNL A   1      39.938  21.652  26.405  1.00  0.00     0.175 S 
ATOM     35  C   UNL A   1      41.175  22.705  25.689  1.00  0.00     0.163 C 
ATOM     36  O   UNL A   1      39.977  21.800  27.832  1.00  0.00    -0.224 OA
ATOM     37  O   UNL A   1      40.081  20.336  25.777  1.00  0.00    -0.224 OA
ENDBRANCH  33  34
ENDBRANCH  20  28
ENDBRANCH  14  15
ENDBRANCH  11  14
ENDBRANCH   9  10
BRANCH   9  38
ATOM     38  C   UNL A   1      30.626  27.850  23.737  1.00  0.00     0.065 C 
BRANCH  38  39
ATOM     39  C   UNL A   1      29.737  28.874  23.032  1.00  0.00     0.159 C 
BRANCH  39  40
ATOM     40  O   UNL A   1      30.282  30.180  23.112  1.00  0.00    -0.396 OA
ATOM     41  H   UNL A   1      31.179  30.179  22.742  1.00  0.00     0.210 HD
ENDBRANCH  39  40
ENDBRANCH  38  39
ENDBRANCH   9  38
ENDBRANCH   7   9
ENDBRANCH   6   7
ENDBRANCH   5   6
ENDBRANCH   4   5
ENDBRANCH   3   4
ENDBRANCH   2   3
ENDBRANCH   1   2
BRANCH   1  42
ATOM     42  O   UNL A   1      37.004  30.392  28.326  1.00  0.00    -0.377 OA
BRANCH  42  43
ATOM     43  C   UNL A   1      37.724  29.288  28.875  1.00  0.00     0.188 C 
BRANCH  43  44
ATOM     44  C   UNL A   1      39.229  29.506  28.725  1.00  0.00     0.188 C 
BRANCH  44  45
ATOM     45  O   UNL A   1      39.974  29.398  29.933  1.00  0.00    -0.376 OA
BRANCH  45  46
ATOM     46  C   UNL A   1      40.152  30.576  30.727  1.00  0.00     0.202 C 
BRANCH  46  47
ATOM     47  C   UNL A   1      40.957  30.459  32.036  1.00  0.00     0.261 C 
BRANCH  47  48
ATOM     48  O   UNL A   1      40.213  30.066  33.230  1.00  0.00    -0.460 OA
BRANCH  48  49
ATOM     49  C   UNL A   1      40.253  28.729  33.515  1.00  0.00     0.338 C 
ATOM     50  O   UNL A   1      39.597  27.888  32.918  1.00  0.00    -0.246 OA
BRANCH  49  51
ATOM     51  C   UNL A   1      41.192  28.344  34.632  1.00  0.00     0.060 A 
ATOM     52  C   UNL A   1      41.840  29.349  35.349  1.00  0.00     0.016 A 
ATOM     53  C   UNL A   1      41.697  27.038  34.760  1.00  0.00     0.016 A 
ATOM     54  C   UNL A   1      42.979  29.054  36.149  1.00  0.00     0.010 A 
ATOM     55  C   UNL A   1      42.876  26.751  35.534  1.00  0.00     0.010 A 
ATOM     56  C   UNL A   1      43.576  27.760  36.220  1.00  0.00    -0.014 A 
BRANCH  56  57
ATOM     57  C   UNL A   1      45.103  27.716  36.470  1.00  0.00     0.031 A 
ATOM     58  C   UNL A   1      45.740  28.346  35.272  1.00  0.00     0.074 A 
ATOM     59  C   UNL A   1      45.992  27.280  37.429  1.00  0.00     0.049 A 
ATOM     60  N   UNL A   1      45.490  27.991  34.041  1.00  0.00    -0.248 NA
ATOM     61  C   UNL A   1      46.476  29.606  35.413  1.00  0.00     0.031 C 
ATOM     62  C   UNL A   1      45.700  26.641  38.715  1.00  0.00     0.029 A 
ATOM     63  N   UNL A   1      47.404  27.337  37.474  1.00  0.00    -0.354 N 
ATOM     64  C   UNL A   1      46.321  28.775  33.277  1.00  0.00     0.074 A 
ATOM     65  C   UNL A   1      46.706  29.883  34.132  1.00  0.00     0.031 C 
ATOM     66  C   UNL A   1      46.840  26.471  39.444  1.00  0.00     0.029 A 
ATOM     67  C   UNL A   1      48.008  26.918  38.690  1.00  0.00     0.049 A 
ATOM     68  H   UNL A   1      47.938  27.649  36.708  1.00  0.00     0.167 HD
ATOM     69  C   UNL A   1      47.062  28.203  32.289  1.00  0.00     0.037 A 
ATOM     70  C   UNL A   1      49.338  26.895  39.061  1.00  0.00     0.037 A 
ATOM     71  C   UNL A   1      48.477  28.316  32.508  1.00  0.00     0.049 A 
ATOM     72  C   UNL A   1      50.168  27.073  37.854  1.00  0.00     0.074 A 
ATOM     73  C   UNL A   1      49.358  29.344  32.772  1.00  0.00     0.029 A 
ATOM     74  N   UNL A   1      49.117  27.150  32.867  1.00  0.00    -0.354 N 
ATOM     75  N   UNL A   1      50.386  26.121  37.003  1.00  0.00    -0.248 NA
ATOM     76  C   UNL A   1      50.884  28.320  37.591  1.00  0.00     0.031 C 
ATOM     77  C   UNL A   1      50.346  28.803  33.639  1.00  0.00     0.029 A 
ATOM     78  C   UNL A   1      50.119  27.439  33.771  1.00  0.00     0.049 A 
ATOM     79  H   UNL A   1      48.896  26.251  32.532  1.00  0.00     0.167 HD
ATOM     80  C   UNL A   1      50.910  26.747  35.913  1.00  0.00     0.074 A 
ATOM     81  C   UNL A   1      51.398  28.022  36.396  1.00  0.00     0.031 C 
ATOM     82  C   UNL A   1      50.477  26.378  34.685  1.00  0.00     0.037 A 
BRANCH  69  83
ATOM     83  C   UNL A   1      46.434  27.061  31.555  1.00  0.00     0.058 A 
ATOM     84  C   UNL A   1      46.090  27.223  30.209  1.00  0.00     0.135 A 
ATOM     85  C   UNL A   1      46.123  25.831  32.165  1.00  0.00     0.135 A 
ATOM     86  F   UNL A   1      46.401  28.362  29.566  1.00  0.00    -0.206 F 
ATOM     87  C   UNL A   1      45.421  26.227  29.506  1.00  0.00     0.059 A 
ATOM     88  C   UNL A   1      45.432  24.829  31.491  1.00  0.00     0.059 A 
ATOM     89  F   UNL A   1      46.511  25.590  33.429  1.00  0.00    -0.206 F 
ATOM     90  C   UNL A   1      45.076  25.041  30.161  1.00  0.00     0.060 A 
BRANCH  90  91
ATOM     91  S   UNL A   1      44.087  23.822  29.267  1.00  0.00     0.124 S 
ATOM     92  O   UNL A   1      43.067  24.653  28.630  1.00  0.00    -0.237 OA
ATOM     93  O   UNL A   1      45.074  23.243  28.362  1.00  0.00    -0.237 OA
ATOM     94  O   UNL A   1      43.588  22.945  30.321  1.00  0.00    -0.744 OA
ENDBRANCH  90  91
ENDBRANCH  69  83
BRANCH  70  95
ATOM     95  C   UNL A   1      50.200  26.685  40.305  1.00  0.00     0.058 A 
ATOM     96  C   UNL A   1      50.344  27.732  41.268  1.00  0.00     0.135 A 
ATOM     97  C   UNL A   1      50.604  25.423  40.759  1.00  0.00     0.135 A 
ATOM     98  F   UNL A   1      50.046  29.004  40.965  1.00  0.00    -0.206 F 
ATOM     99  C   UNL A   1      50.705  27.525  42.603  1.00  0.00     0.059 A 
ATOM    100  C   UNL A   1      51.006  25.195  42.095  1.00  0.00     0.059 A 
ATOM    101  F   UNL A   1      50.531  24.361  39.944  1.00  0.00    -0.206 F 
ATOM    102  C   UNL A   1      50.998  26.240  43.022  1.00  0.00     0.060 A 
BRANCH 102 103
ATOM    103  S   UNL A   1      51.225  25.957  44.801  1.00  0.00     0.124 S 
ATOM    104  O   UNL A   1      50.260  26.876  45.393  1.00  0.00    -0.237 OA
ATOM    105  O   UNL A   1      50.907  24.537  44.926  1.00  0.00    -0.237 OA
ATOM    106  O   UNL A   1      52.629  26.295  45.018  1.00  0.00    -0.744 OA
ENDBRANCH 102 103
ENDBRANCH  70  95
BRANCH  82 107
ATOM    107  C   UNL A   1      50.167  24.903  34.449  1.00  0.00     0.058 A 
ATOM    108  C   UNL A   1      49.049  24.175  34.920  1.00  0.00     0.135 A 
ATOM    109  C   UNL A   1      51.115  24.159  33.723  1.00  0.00     0.135 A 
ATOM    110  F   UNL A   1      47.983  24.779  35.466  1.00  0.00    -0.206 F 
ATOM    111  C   UNL A   1      48.963  22.786  34.810  1.00  0.00     0.059 A 
ATOM    112  C   UNL A   1      51.013  22.781  33.540  1.00  0.00     0.059 A 
ATOM    113  F   UNL A   1      52.173  24.779  33.173  1.00  0.00    -0.206 F 
ATOM    114  C   UNL A   1      49.962  22.092  34.137  1.00  0.00     0.060 A 
BRANCH 114 115
ATOM    115  S   UNL A   1      49.870  20.293  34.032  1.00  0.00     0.124 S 
ATOM    116  O   UNL A   1      48.961  20.107  32.904  1.00  0.00    -0.237 OA
ATOM    117  O   UNL A   1      51.256  19.908  33.791  1.00  0.00    -0.237 OA
ATOM    118  O   UNL A   1      49.329  19.908  35.332  1.00  0.00    -0.744 OA
ENDBRANCH 114 115
ENDBRANCH  82 107
ENDBRANCH  56  57
ENDBRANCH  49  51
ENDBRANCH  48  49
ENDBRANCH  47  48
ENDBRANCH  46  47
ENDBRANCH  45  46
ENDBRANCH  44  45
ENDBRANCH  43  44
ENDBRANCH  42  43
ENDBRANCH   1  42
TORSDOF 32
ENDMDL
