MODEL 1
REMARK VINA RESULT:      -6.5      0.000      0.000
REMARK SMILES C[C@@H](Oc1ccc(I)cc1)C(=O)NCc1ccc(C(=O)OCCOCCOCCOCCOC(=O)c2ccc(-c3c4nc(c(-c5c(F)cc(S(=O)(=O)[O-])cc5F)c5ccc([nH]5)c(-c5c(F)cc(S(=O)(=O)[O-])cc5F)c5nc(c(-c6c(F)cc(S(=O)(=O)[O-])cc6F)c6ccc3[nH]6)C=C5)C=C4)cc2)cc1
REMARK SMILES IDX 26 1 25 2 24 3 23 4 22 5 21 6 19 7 20 8 18 9 15 10 16 11
REMARK SMILES IDX 103 12 17 13 102 14 14 15 13 16 11 17 12 18 2 20 1 21 3 22
REMARK SMILES IDX 4 23 5 24 10 25 6 26 9 27 7 28 8 29 27 30 28 31 29 32 30 33
REMARK SMILES IDX 31 34 32 35 33 36 34 37 35 38 36 39 37 40 101 41 38 42
REMARK SMILES IDX 100 43 39 44 40 45 41 46 94 47 42 48 99 49 93 50 95 51 43 52
REMARK SMILES IDX 98 53 92 54 91 55 44 57 78 58 57 59 77 60 58 61 61 62 76 63
REMARK SMILES IDX 96 64 59 65 60 66 75 68 97 69 62 70 45 71 46 72 55 73 47 74
REMARK SMILES IDX 48 75 54 76 56 77 49 78 50 79 51 80 52 81 53 82 79 83 80 84
REMARK SMILES IDX 89 85 81 86 82 87 88 88 90 89 83 90 84 91 85 92 86 93 87 94
REMARK SMILES IDX 63 95 64 96 73 97 65 98 66 99 72 100 74 101 67 102 68 103
REMARK SMILES IDX 69 104 70 105 71 106
REMARK H PARENT 13 19 95 56 61 67
REMARK Flexibility Score: inf
ROOT
ATOM      1  C   UNL A   1      37.807  30.865  34.292  1.00  0.00     0.188 C 
ENDROOT
BRANCH   1   2
ATOM      2  C   UNL A   1      37.294  30.924  32.839  1.00  0.00     0.188 C 
BRANCH   2   3
ATOM      3  O   UNL A   1      37.224  29.661  32.202  1.00  0.00    -0.376 OA
BRANCH   3   4
ATOM      4  C   UNL A   1      38.245  28.705  32.417  1.00  0.00     0.202 C 
BRANCH   4   5
ATOM      5  C   UNL A   1      38.650  27.737  31.294  1.00  0.00     0.261 C 
BRANCH   5   6
ATOM      6  O   UNL A   1      39.454  28.282  30.243  1.00  0.00    -0.460 OA
BRANCH   6   7
ATOM      7  C   UNL A   1      39.251  27.791  29.004  1.00  0.00     0.338 C 
ATOM      8  O   UNL A   1      38.530  28.261  28.142  1.00  0.00    -0.246 OA
BRANCH   7   9
ATOM      9  C   UNL A   1      40.224  26.698  28.772  1.00  0.00     0.060 A 
ATOM     10  C   UNL A   1      42.152  24.701  28.352  1.00  0.00    -0.029 A 
ATOM     11  C   UNL A   1      42.488  25.883  29.029  1.00  0.00     0.006 A 
ATOM     12  C   UNL A   1      40.816  24.496  27.969  1.00  0.00     0.006 A 
ATOM     13  C   UNL A   1      41.536  26.883  29.221  1.00  0.00     0.016 A 
ATOM     14  C   UNL A   1      39.853  25.487  28.179  1.00  0.00     0.016 A 
BRANCH  10  15
ATOM     15  C   UNL A   1      43.173  23.624  28.072  1.00  0.00     0.151 C 
BRANCH  15  16
ATOM     16  N   UNL A   1      42.748  22.716  27.019  1.00  0.00    -0.349 N 
ATOM     17  C   UNL A   1      43.149  22.639  25.716  1.00  0.00     0.261 C 
ATOM     18  O   UNL A   1      42.636  21.774  24.999  1.00  0.00    -0.271 OA
ATOM     19  H   UNL A   1      42.069  22.055  27.286  1.00  0.00     0.163 HD
BRANCH  17  20
ATOM     20  C   UNL A   1      44.142  23.659  25.135  1.00  0.00     0.258 C 
ATOM     21  C   UNL A   1      45.002  22.940  24.096  1.00  0.00     0.064 C 
BRANCH  20  22
ATOM     22  O   UNL A   1      43.376  24.760  24.637  1.00  0.00    -0.481 OA
BRANCH  22  23
ATOM     23  C   UNL A   1      43.450  25.917  25.352  1.00  0.00     0.120 A 
ATOM     24  C   UNL A   1      44.660  26.367  25.876  1.00  0.00     0.047 A 
ATOM     25  C   UNL A   1      42.331  26.746  25.368  1.00  0.00     0.047 A 
ATOM     26  C   UNL A   1      44.741  27.625  26.473  1.00  0.00     0.018 A 
ATOM     27  C   UNL A   1      42.410  28.014  25.950  1.00  0.00     0.018 A 
ATOM     28  C   UNL A   1      43.615  28.446  26.505  1.00  0.00     0.013 A 
ATOM     29  I   UNL A   1      43.751  30.342  27.343  1.00  0.00    -0.044 I 
ENDBRANCH  22  23
ENDBRANCH  20  22
ENDBRANCH  17  20
ENDBRANCH  15  16
ENDBRANCH  10  15
ENDBRANCH   7   9
ENDBRANCH   6   7
ENDBRANCH   5   6
ENDBRANCH   4   5
ENDBRANCH   3   4
ENDBRANCH   2   3
ENDBRANCH   1   2
BRANCH   1  30
ATOM     30  O   UNL A   1      38.411  32.022  34.845  1.00  0.00    -0.377 OA
BRANCH  30  31
ATOM     31  C   UNL A   1      37.712  33.267  34.852  1.00  0.00     0.188 C 
BRANCH  31  32
ATOM     32  C   UNL A   1      36.223  33.385  34.440  1.00  0.00     0.188 C 
BRANCH  32  33
ATOM     33  O   UNL A   1      35.711  34.707  34.433  1.00  0.00    -0.376 OA
BRANCH  33  34
ATOM     34  C   UNL A   1      34.979  35.123  33.295  1.00  0.00     0.202 C 
BRANCH  34  35
ATOM     35  C   UNL A   1      35.174  34.304  32.012  1.00  0.00     0.261 C 
BRANCH  35  36
ATOM     36  O   UNL A   1      36.329  34.624  31.225  1.00  0.00    -0.460 OA
BRANCH  36  37
ATOM     37  C   UNL A   1      36.625  33.794  30.197  1.00  0.00     0.338 C 
ATOM     38  O   UNL A   1      35.964  33.599  29.200  1.00  0.00    -0.246 OA
BRANCH  37  39
ATOM     39  C   UNL A   1      38.001  33.296  30.420  1.00  0.00     0.060 A 
ATOM     40  C   UNL A   1      38.801  33.900  31.399  1.00  0.00     0.016 A 
ATOM     41  C   UNL A   1      38.485  32.223  29.669  1.00  0.00     0.016 A 
ATOM     42  C   UNL A   1      40.106  33.450  31.606  1.00  0.00     0.010 A 
ATOM     43  C   UNL A   1      39.797  31.787  29.864  1.00  0.00     0.010 A 
ATOM     44  C   UNL A   1      40.624  32.421  30.809  1.00  0.00    -0.014 A 
BRANCH  44  45
ATOM     45  C   UNL A   1      42.079  32.134  30.810  1.00  0.00     0.031 A 
ATOM     46  C   UNL A   1      42.994  33.111  30.121  1.00  0.00     0.074 A 
ATOM     47  C   UNL A   1      42.580  31.033  31.399  1.00  0.00     0.049 A 
ATOM     48  N   UNL A   1      44.281  33.038  29.907  1.00  0.00    -0.248 NA
ATOM     49  C   UNL A   1      42.365  34.336  29.599  1.00  0.00     0.031 C 
ATOM     50  C   UNL A   1      41.801  30.036  32.131  1.00  0.00     0.029 A 
ATOM     51  N   UNL A   1      43.869  30.564  31.457  1.00  0.00    -0.354 N 
ATOM     52  C   UNL A   1      44.614  34.196  29.214  1.00  0.00     0.074 A 
ATOM     53  C   UNL A   1      43.390  34.941  29.018  1.00  0.00     0.031 C 
ATOM     54  C   UNL A   1      42.628  29.062  32.550  1.00  0.00     0.029 A 
ATOM     55  C   UNL A   1      43.984  29.346  32.085  1.00  0.00     0.049 A 
ATOM     56  H   UNL A   1      44.638  31.054  31.086  1.00  0.00     0.167 HD
ATOM     57  C   UNL A   1      45.832  34.605  28.788  1.00  0.00     0.037 A 
ATOM     58  C   UNL A   1      45.057  28.542  32.237  1.00  0.00     0.037 A 
ATOM     59  C   UNL A   1      47.043  33.854  28.984  1.00  0.00     0.049 A 
ATOM     60  C   UNL A   1      46.392  28.982  31.686  1.00  0.00     0.074 A 
ATOM     61  C   UNL A   1      48.332  34.185  28.603  1.00  0.00     0.029 A 
ATOM     62  N   UNL A   1      47.117  32.615  29.606  1.00  0.00    -0.354 N 
ATOM     63  N   UNL A   1      46.700  30.088  31.050  1.00  0.00    -0.248 NA
ATOM     64  C   UNL A   1      47.525  28.066  31.875  1.00  0.00     0.031 C 
ATOM     65  C   UNL A   1      49.174  33.122  28.940  1.00  0.00     0.029 A 
ATOM     66  C   UNL A   1      48.424  32.157  29.594  1.00  0.00     0.049 A 
ATOM     67  H   UNL A   1      46.353  32.134  29.997  1.00  0.00     0.167 HD
ATOM     68  C   UNL A   1      48.067  30.016  30.797  1.00  0.00     0.074 A 
ATOM     69  C   UNL A   1      48.528  28.761  31.354  1.00  0.00     0.031 C 
ATOM     70  C   UNL A   1      48.870  30.910  30.166  1.00  0.00     0.037 A 
BRANCH  57  71
ATOM     71  C   UNL A   1      45.907  35.907  28.037  1.00  0.00     0.058 A 
ATOM     72  C   UNL A   1      46.037  37.140  28.698  1.00  0.00     0.135 A 
ATOM     73  C   UNL A   1      45.877  35.919  26.633  1.00  0.00     0.135 A 
ATOM     74  F   UNL A   1      46.050  37.189  30.040  1.00  0.00    -0.206 F 
ATOM     75  C   UNL A   1      46.108  38.338  27.995  1.00  0.00     0.059 A 
ATOM     76  C   UNL A   1      45.978  37.103  25.909  1.00  0.00     0.059 A 
ATOM     77  F   UNL A   1      45.748  34.771  25.950  1.00  0.00    -0.206 F 
ATOM     78  C   UNL A   1      46.080  38.309  26.600  1.00  0.00     0.060 A 
BRANCH  78  79
ATOM     79  S   UNL A   1      46.180  39.873  25.704  1.00  0.00     0.124 S 
ATOM     80  O   UNL A   1      47.035  40.661  26.588  1.00  0.00    -0.237 OA
ATOM     81  O   UNL A   1      46.781  39.467  24.438  1.00  0.00    -0.237 OA
ATOM     82  O   UNL A   1      44.790  40.310  25.624  1.00  0.00    -0.744 OA
ENDBRANCH  78  79
ENDBRANCH  57  71
BRANCH  58  83
ATOM     83  C   UNL A   1      44.916  27.230  32.927  1.00  0.00     0.058 A 
ATOM     84  C   UNL A   1      44.920  27.143  34.328  1.00  0.00     0.135 A 
ATOM     85  C   UNL A   1      44.778  26.037  32.201  1.00  0.00     0.135 A 
ATOM     86  F   UNL A   1      45.064  28.253  35.068  1.00  0.00    -0.206 F 
ATOM     87  C   UNL A   1      44.806  25.921  34.983  1.00  0.00     0.059 A 
ATOM     88  C   UNL A   1      44.634  24.806  32.834  1.00  0.00     0.059 A 
ATOM     89  F   UNL A   1      44.761  26.063  30.859  1.00  0.00    -0.206 F 
ATOM     90  C   UNL A   1      44.658  24.758  34.226  1.00  0.00     0.060 A 
BRANCH  90  91
ATOM     91  S   UNL A   1      44.458  23.184  35.090  1.00  0.00     0.124 S 
ATOM     92  O   UNL A   1      43.023  22.955  34.956  1.00  0.00    -0.237 OA
ATOM     93  O   UNL A   1      45.321  22.299  34.314  1.00  0.00    -0.237 OA
ATOM     94  O   UNL A   1      44.927  23.480  36.441  1.00  0.00    -0.744 OA
ENDBRANCH  90  91
ENDBRANCH  58  83
BRANCH  70  95
ATOM     95  C   UNL A   1      50.342  30.596  30.084  1.00  0.00     0.058 A 
ATOM     96  C   UNL A   1      51.237  30.950  31.105  1.00  0.00     0.135 A 
ATOM     97  C   UNL A   1      50.849  29.872  28.992  1.00  0.00     0.135 A 
ATOM     98  F   UNL A   1      50.809  31.646  32.170  1.00  0.00    -0.206 F 
ATOM     99  C   UNL A   1      52.587  30.618  31.034  1.00  0.00     0.059 A 
ATOM    100  C   UNL A   1      52.188  29.501  28.915  1.00  0.00     0.059 A 
ATOM    101  F   UNL A   1      50.035  29.496  27.992  1.00  0.00    -0.206 F 
ATOM    102  C   UNL A   1      53.052  29.891  29.937  1.00  0.00     0.060 A 
BRANCH 102 103
ATOM    103  S   UNL A   1      54.799  29.436  29.877  1.00  0.00     0.124 S 
ATOM    104  O   UNL A   1      54.738  28.119  29.250  1.00  0.00    -0.237 OA
ATOM    105  O   UNL A   1      55.370  30.500  29.058  1.00  0.00    -0.237 OA
ATOM    106  O   UNL A   1      55.203  29.445  31.279  1.00  0.00    -0.744 OA
ENDBRANCH 102 103
ENDBRANCH  70  95
ENDBRANCH  44  45
ENDBRANCH  37  39
ENDBRANCH  36  37
ENDBRANCH  35  36
ENDBRANCH  34  35
ENDBRANCH  33  34
ENDBRANCH  32  33
ENDBRANCH  31  32
ENDBRANCH  30  31
ENDBRANCH   1  30
TORSDOF 28
ENDMDL
MODEL 2
REMARK VINA RESULT:      -6.5      6.632     12.082
REMARK SMILES C[C@@H](Oc1ccc(I)cc1)C(=O)NCc1ccc(C(=O)OCCOCCOCCOCCOC(=O)c2ccc(-c3c4nc(c(-c5c(F)cc(S(=O)(=O)[O-])cc5F)c5ccc([nH]5)c(-c5c(F)cc(S(=O)(=O)[O-])cc5F)c5nc(c(-c6c(F)cc(S(=O)(=O)[O-])cc6F)c6ccc3[nH]6)C=C5)C=C4)cc2)cc1
REMARK SMILES IDX 26 1 25 2 24 3 23 4 22 5 21 6 19 7 20 8 18 9 15 10 16 11
REMARK SMILES IDX 103 12 17 13 102 14 14 15 13 16 11 17 12 18 2 20 1 21 3 22
REMARK SMILES IDX 4 23 5 24 10 25 6 26 9 27 7 28 8 29 27 30 28 31 29 32 30 33
REMARK SMILES IDX 31 34 32 35 33 36 34 37 35 38 36 39 37 40 101 41 38 42
REMARK SMILES IDX 100 43 39 44 40 45 41 46 94 47 42 48 99 49 93 50 95 51 43 52
REMARK SMILES IDX 98 53 92 54 91 55 44 57 78 58 57 59 77 60 58 61 61 62 76 63
REMARK SMILES IDX 96 64 59 65 60 66 75 68 97 69 62 70 45 71 46 72 55 73 47 74
REMARK SMILES IDX 48 75 54 76 56 77 49 78 50 79 51 80 52 81 53 82 79 83 80 84
REMARK SMILES IDX 89 85 81 86 82 87 88 88 90 89 83 90 84 91 85 92 86 93 87 94
REMARK SMILES IDX 63 95 64 96 73 97 65 98 66 99 72 100 74 101 67 102 68 103
REMARK SMILES IDX 69 104 70 105 71 106
REMARK H PARENT 13 19 95 56 61 67
REMARK Flexibility Score: inf
ROOT
ATOM      1  C   UNL A   1      43.668  23.333  29.561  1.00  0.00     0.188 C 
ENDROOT
BRANCH   1   2
ATOM      2  C   UNL A   1      42.365  22.909  28.854  1.00  0.00     0.188 C 
BRANCH   2   3
ATOM      3  O   UNL A   1      42.571  22.228  27.630  1.00  0.00    -0.376 OA
BRANCH   3   4
ATOM      4  C   UNL A   1      41.723  22.491  26.526  1.00  0.00     0.202 C 
BRANCH   4   5
ATOM      5  C   UNL A   1      40.556  21.544  26.203  1.00  0.00     0.261 C 
BRANCH   5   6
ATOM      6  O   UNL A   1      39.272  22.151  26.039  1.00  0.00    -0.460 OA
BRANCH   6   7
ATOM      7  C   UNL A   1      38.340  21.436  25.377  1.00  0.00     0.338 C 
ATOM      8  O   UNL A   1      38.367  20.240  25.144  1.00  0.00    -0.246 OA
BRANCH   7   9
ATOM      9  C   UNL A   1      37.155  22.300  25.164  1.00  0.00     0.060 A 
ATOM     10  C   UNL A   1      34.919  23.971  24.869  1.00  0.00    -0.029 A 
ATOM     11  C   UNL A   1      35.816  24.163  25.931  1.00  0.00     0.006 A 
ATOM     12  C   UNL A   1      35.209  22.989  23.908  1.00  0.00     0.006 A 
ATOM     13  C   UNL A   1      36.915  23.321  26.090  1.00  0.00     0.016 A 
ATOM     14  C   UNL A   1      36.323  22.158  24.050  1.00  0.00     0.016 A 
BRANCH  10  15
ATOM     15  C   UNL A   1      33.685  24.825  24.704  1.00  0.00     0.151 C 
BRANCH  15  16
ATOM     16  N   UNL A   1      32.535  24.056  24.254  1.00  0.00    -0.349 N 
ATOM     17  C   UNL A   1      31.453  24.450  23.520  1.00  0.00     0.261 C 
ATOM     18  O   UNL A   1      30.588  23.608  23.259  1.00  0.00    -0.271 OA
ATOM     19  H   UNL A   1      32.537  23.108  24.517  1.00  0.00     0.163 HD
BRANCH  17  20
ATOM     20  C   UNL A   1      31.273  25.921  23.108  1.00  0.00     0.258 C 
ATOM     21  C   UNL A   1      31.499  26.020  21.600  1.00  0.00     0.064 C 
BRANCH  20  22
ATOM     22  O   UNL A   1      29.977  26.331  23.559  1.00  0.00    -0.481 OA
BRANCH  22  23
ATOM     23  C   UNL A   1      29.628  27.620  23.291  1.00  0.00     0.120 A 
ATOM     24  C   UNL A   1      28.303  27.973  23.039  1.00  0.00     0.047 A 
ATOM     25  C   UNL A   1      30.590  28.609  23.480  1.00  0.00     0.047 A 
ATOM     26  C   UNL A   1      27.947  29.316  22.916  1.00  0.00     0.018 A 
ATOM     27  C   UNL A   1      30.235  29.956  23.374  1.00  0.00     0.018 A 
ATOM     28  C   UNL A   1      28.916  30.304  23.087  1.00  0.00     0.013 A 
ATOM     29  I   UNL A   1      28.372  32.305  22.961  1.00  0.00    -0.044 I 
ENDBRANCH  22  23
ENDBRANCH  20  22
ENDBRANCH  17  20
ENDBRANCH  15  16
ENDBRANCH  10  15
ENDBRANCH   7   9
ENDBRANCH   6   7
ENDBRANCH   5   6
ENDBRANCH   4   5
ENDBRANCH   3   4
ENDBRANCH   2   3
ENDBRANCH   1   2
BRANCH   1  30
ATOM     30  O   UNL A   1      43.767  24.656  30.063  1.00  0.00    -0.377 OA
BRANCH  30  31
ATOM     31  C   UNL A   1      43.792  25.767  29.168  1.00  0.00     0.188 C 
BRANCH  31  32
ATOM     32  C   UNL A   1      42.648  26.810  29.107  1.00  0.00     0.188 C 
BRANCH  32  33
ATOM     33  O   UNL A   1      42.161  27.085  27.804  1.00  0.00    -0.376 OA
BRANCH  33  34
ATOM     34  C   UNL A   1      40.785  26.863  27.557  1.00  0.00     0.202 C 
BRANCH  34  35
ATOM     35  C   UNL A   1      39.937  28.097  27.221  1.00  0.00     0.261 C 
BRANCH  35  36
ATOM     36  O   UNL A   1      40.175  29.265  28.016  1.00  0.00    -0.460 OA
BRANCH  36  37
ATOM     37  C   UNL A   1      39.192  29.643  28.868  1.00  0.00     0.338 C 
ATOM     38  O   UNL A   1      38.085  29.162  28.968  1.00  0.00    -0.246 OA
BRANCH  37  39
ATOM     39  C   UNL A   1      39.775  30.641  29.793  1.00  0.00     0.060 A 
ATOM     40  C   UNL A   1      39.110  31.857  30.001  1.00  0.00     0.016 A 
ATOM     41  C   UNL A   1      40.969  30.360  30.461  1.00  0.00     0.016 A 
ATOM     42  C   UNL A   1      39.660  32.813  30.858  1.00  0.00     0.010 A 
ATOM     43  C   UNL A   1      41.527  31.325  31.302  1.00  0.00     0.010 A 
ATOM     44  C   UNL A   1      40.893  32.568  31.477  1.00  0.00    -0.014 A 
BRANCH  44  45
ATOM     45  C   UNL A   1      41.626  33.671  32.143  1.00  0.00     0.031 A 
ATOM     46  C   UNL A   1      41.492  33.811  33.636  1.00  0.00     0.074 A 
ATOM     47  C   UNL A   1      42.386  34.535  31.446  1.00  0.00     0.049 A 
ATOM     48  N   UNL A   1      41.955  34.740  34.430  1.00  0.00    -0.248 NA
ATOM     49  C   UNL A   1      40.725  32.758  34.323  1.00  0.00     0.031 C 
ATOM     50  C   UNL A   1      42.626  34.478  30.005  1.00  0.00     0.029 A 
ATOM     51  N   UNL A   1      43.085  35.641  31.860  1.00  0.00    -0.354 N 
ATOM     52  C   UNL A   1      41.525  34.393  35.706  1.00  0.00     0.074 A 
ATOM     53  C   UNL A   1      40.739  33.185  35.576  1.00  0.00     0.031 C 
ATOM     54  C   UNL A   1      43.404  35.517  29.653  1.00  0.00     0.029 A 
ATOM     55  C   UNL A   1      43.685  36.332  30.835  1.00  0.00     0.049 A 
ATOM     56  H   UNL A   1      43.152  35.913  32.804  1.00  0.00     0.167 HD
ATOM     57  C   UNL A   1      41.770  35.020  36.880  1.00  0.00     0.037 A 
ATOM     58  C   UNL A   1      44.355  37.502  30.846  1.00  0.00     0.037 A 
ATOM     59  C   UNL A   1      42.548  36.224  36.998  1.00  0.00     0.049 A 
ATOM     60  C   UNL A   1      44.552  38.225  32.157  1.00  0.00     0.074 A 
ATOM     61  C   UNL A   1      42.868  36.933  38.143  1.00  0.00     0.029 A 
ATOM     62  N   UNL A   1      43.123  36.905  35.933  1.00  0.00    -0.354 N 
ATOM     63  N   UNL A   1      44.158  37.879  33.359  1.00  0.00    -0.248 NA
ATOM     64  C   UNL A   1      45.286  39.498  32.111  1.00  0.00     0.031 C 
ATOM     65  C   UNL A   1      43.583  38.073  37.765  1.00  0.00     0.029 A 
ATOM     66  C   UNL A   1      43.770  38.040  36.392  1.00  0.00     0.049 A 
ATOM     67  H   UNL A   1      43.075  36.623  34.992  1.00  0.00     0.167 HD
ATOM     68  C   UNL A   1      44.628  38.871  34.216  1.00  0.00     0.074 A 
ATOM     69  C   UNL A   1      45.341  39.827  33.395  1.00  0.00     0.031 C 
ATOM     70  C   UNL A   1      44.487  38.977  35.562  1.00  0.00     0.037 A 
BRANCH  57  71
ATOM     71  C   UNL A   1      41.160  34.433  38.125  1.00  0.00     0.058 A 
ATOM     72  C   UNL A   1      39.906  34.846  38.604  1.00  0.00     0.135 A 
ATOM     73  C   UNL A   1      41.828  33.421  38.833  1.00  0.00     0.135 A 
ATOM     74  F   UNL A   1      39.231  35.824  37.978  1.00  0.00    -0.206 F 
ATOM     75  C   UNL A   1      39.350  34.296  39.754  1.00  0.00     0.059 A 
ATOM     76  C   UNL A   1      41.277  32.835  39.967  1.00  0.00     0.059 A 
ATOM     77  F   UNL A   1      43.033  32.992  38.423  1.00  0.00    -0.206 F 
ATOM     78  C   UNL A   1      40.042  33.288  40.428  1.00  0.00     0.060 A 
BRANCH  78  79
ATOM     79  S   UNL A   1      39.303  32.581  41.914  1.00  0.00     0.124 S 
ATOM     80  O   UNL A   1      40.306  32.906  42.923  1.00  0.00    -0.237 OA
ATOM     81  O   UNL A   1      38.044  33.314  42.013  1.00  0.00    -0.237 OA
ATOM     82  O   UNL A   1      39.176  31.164  41.591  1.00  0.00    -0.744 OA
ENDBRANCH  78  79
ENDBRANCH  57  71
BRANCH  58  83
ATOM     83  C   UNL A   1      44.880  38.075  29.576  1.00  0.00     0.058 A 
ATOM     84  C   UNL A   1      44.055  38.821  28.721  1.00  0.00     0.135 A 
ATOM     85  C   UNL A   1      46.217  37.886  29.190  1.00  0.00     0.135 A 
ATOM     86  F   UNL A   1      42.766  39.019  29.037  1.00  0.00    -0.206 F 
ATOM     87  C   UNL A   1      44.531  39.347  27.523  1.00  0.00     0.059 A 
ATOM     88  C   UNL A   1      46.723  38.425  28.011  1.00  0.00     0.059 A 
ATOM     89  F   UNL A   1      47.051  37.186  29.973  1.00  0.00    -0.206 F 
ATOM     90  C   UNL A   1      45.869  39.147  27.180  1.00  0.00     0.060 A 
BRANCH  90  91
ATOM     91  S   UNL A   1      46.487  39.880  25.649  1.00  0.00     0.124 S 
ATOM     92  O   UNL A   1      46.969  38.703  24.933  1.00  0.00    -0.237 OA
ATOM     93  O   UNL A   1      45.288  40.510  25.107  1.00  0.00    -0.237 OA
ATOM     94  O   UNL A   1      47.519  40.804  26.112  1.00  0.00    -0.744 OA
ENDBRANCH  90  91
ENDBRANCH  58  83
BRANCH  70  95
ATOM     95  C   UNL A   1      45.157  40.140  36.248  1.00  0.00     0.058 A 
ATOM     96  C   UNL A   1      46.404  40.015  36.880  1.00  0.00     0.135 A 
ATOM     97  C   UNL A   1      44.567  41.414  36.214  1.00  0.00     0.135 A 
ATOM     98  F   UNL A   1      47.013  38.821  36.946  1.00  0.00    -0.206 F 
ATOM     99  C   UNL A   1      47.029  41.107  37.475  1.00  0.00     0.059 A 
ATOM    100  C   UNL A   1      45.189  42.526  36.773  1.00  0.00     0.059 A 
ATOM    101  F   UNL A   1      43.379  41.595  35.612  1.00  0.00    -0.206 F 
ATOM    102  C   UNL A   1      46.415  42.359  37.413  1.00  0.00     0.060 A 
BRANCH 102 103
ATOM    103  S   UNL A   1      47.256  43.774  38.157  1.00  0.00     0.124 S 
ATOM    104  O   UNL A   1      46.385  44.876  37.761  1.00  0.00    -0.237 OA
ATOM    105  O   UNL A   1      47.242  43.434  39.576  1.00  0.00    -0.237 OA
ATOM    106  O   UNL A   1      48.573  43.759  37.528  1.00  0.00    -0.744 OA
ENDBRANCH 102 103
ENDBRANCH  70  95
ENDBRANCH  44  45
ENDBRANCH  37  39
ENDBRANCH  36  37
ENDBRANCH  35  36
ENDBRANCH  34  35
ENDBRANCH  33  34
ENDBRANCH  32  33
ENDBRANCH  31  32
ENDBRANCH  30  31
ENDBRANCH   1  30
TORSDOF 28
ENDMDL
MODEL 3
REMARK VINA RESULT:      -6.3      3.787      9.142
REMARK SMILES C[C@@H](Oc1ccc(I)cc1)C(=O)NCc1ccc(C(=O)OCCOCCOCCOCCOC(=O)c2ccc(-c3c4nc(c(-c5c(F)cc(S(=O)(=O)[O-])cc5F)c5ccc([nH]5)c(-c5c(F)cc(S(=O)(=O)[O-])cc5F)c5nc(c(-c6c(F)cc(S(=O)(=O)[O-])cc6F)c6ccc3[nH]6)C=C5)C=C4)cc2)cc1
REMARK SMILES IDX 26 1 25 2 24 3 23 4 22 5 21 6 19 7 20 8 18 9 15 10 16 11
REMARK SMILES IDX 103 12 17 13 102 14 14 15 13 16 11 17 12 18 2 20 1 21 3 22
REMARK SMILES IDX 4 23 5 24 10 25 6 26 9 27 7 28 8 29 27 30 28 31 29 32 30 33
REMARK SMILES IDX 31 34 32 35 33 36 34 37 35 38 36 39 37 40 101 41 38 42
REMARK SMILES IDX 100 43 39 44 40 45 41 46 94 47 42 48 99 49 93 50 95 51 43 52
REMARK SMILES IDX 98 53 92 54 91 55 44 57 78 58 57 59 77 60 58 61 61 62 76 63
REMARK SMILES IDX 96 64 59 65 60 66 75 68 97 69 62 70 45 71 46 72 55 73 47 74
REMARK SMILES IDX 48 75 54 76 56 77 49 78 50 79 51 80 52 81 53 82 79 83 80 84
REMARK SMILES IDX 89 85 81 86 82 87 88 88 90 89 83 90 84 91 85 92 86 93 87 94
REMARK SMILES IDX 63 95 64 96 73 97 65 98 66 99 72 100 74 101 67 102 68 103
REMARK SMILES IDX 69 104 70 105 71 106
REMARK H PARENT 13 19 95 56 61 67
REMARK Flexibility Score: inf
ROOT
ATOM      1  C   UNL A   1      37.229  33.550  36.415  1.00  0.00     0.188 C 
ENDROOT
BRANCH   1   2
ATOM      2  C   UNL A   1      38.276  34.349  35.613  1.00  0.00     0.188 C 
BRANCH   2   3
ATOM      3  O   UNL A   1      39.616  34.008  35.915  1.00  0.00    -0.376 OA
BRANCH   3   4
ATOM      4  C   UNL A   1      40.453  33.476  34.906  1.00  0.00     0.202 C 
BRANCH   4   5
ATOM      5  C   UNL A   1      40.348  31.994  34.513  1.00  0.00     0.261 C 
BRANCH   5   6
ATOM      6  O   UNL A   1      39.428  31.678  33.463  1.00  0.00    -0.460 OA
BRANCH   6   7
ATOM      7  C   UNL A   1      38.946  30.418  33.434  1.00  0.00     0.338 C 
ATOM      8  O   UNL A   1      38.311  29.859  34.311  1.00  0.00    -0.246 OA
BRANCH   7   9
ATOM      9  C   UNL A   1      39.121  29.886  32.063  1.00  0.00     0.060 A 
ATOM     10  C   UNL A   1      39.426  28.774  29.503  1.00  0.00    -0.029 A 
ATOM     11  C   UNL A   1      38.696  28.096  30.491  1.00  0.00     0.006 A 
ATOM     12  C   UNL A   1      39.923  30.057  29.789  1.00  0.00     0.006 A 
ATOM     13  C   UNL A   1      38.561  28.639  31.768  1.00  0.00     0.016 A 
ATOM     14  C   UNL A   1      39.771  30.614  31.061  1.00  0.00     0.016 A 
BRANCH  10  15
ATOM     15  C   UNL A   1      39.645  28.187  28.129  1.00  0.00     0.151 C 
BRANCH  15  16
ATOM     16  N   UNL A   1      40.544  28.992  27.318  1.00  0.00    -0.349 N 
ATOM     17  C   UNL A   1      41.896  28.893  27.150  1.00  0.00     0.261 C 
ATOM     18  O   UNL A   1      42.450  29.704  26.401  1.00  0.00    -0.271 OA
ATOM     19  H   UNL A   1      40.112  29.718  26.812  1.00  0.00     0.163 HD
BRANCH  17  20
ATOM     20  C   UNL A   1      42.714  27.860  27.940  1.00  0.00     0.258 C 
ATOM     21  C   UNL A   1      43.387  26.924  26.937  1.00  0.00     0.064 C 
BRANCH  20  22
ATOM     22  O   UNL A   1      43.608  28.587  28.790  1.00  0.00    -0.481 OA
BRANCH  22  23
ATOM     23  C   UNL A   1      43.365  28.507  30.127  1.00  0.00     0.120 A 
ATOM     24  C   UNL A   1      43.705  29.548  30.989  1.00  0.00     0.047 A 
ATOM     25  C   UNL A   1      42.580  27.451  30.584  1.00  0.00     0.047 A 
ATOM     26  C   UNL A   1      43.312  29.508  32.327  1.00  0.00     0.018 A 
ATOM     27  C   UNL A   1      42.169  27.413  31.919  1.00  0.00     0.018 A 
ATOM     28  C   UNL A   1      42.542  28.440  32.787  1.00  0.00     0.013 A 
ATOM     29  I   UNL A   1      41.908  28.411  34.765  1.00  0.00    -0.044 I 
ENDBRANCH  22  23
ENDBRANCH  20  22
ENDBRANCH  17  20
ENDBRANCH  15  16
ENDBRANCH  10  15
ENDBRANCH   7   9
ENDBRANCH   6   7
ENDBRANCH   5   6
ENDBRANCH   4   5
ENDBRANCH   3   4
ENDBRANCH   2   3
ENDBRANCH   1   2
BRANCH   1  30
ATOM     30  O   UNL A   1      35.934  33.383  35.861  1.00  0.00    -0.377 OA
BRANCH  30  31
ATOM     31  C   UNL A   1      35.618  33.941  34.587  1.00  0.00     0.188 C 
BRANCH  31  32
ATOM     32  C   UNL A   1      35.337  33.061  33.343  1.00  0.00     0.188 C 
BRANCH  32  33
ATOM     33  O   UNL A   1      34.449  33.634  32.397  1.00  0.00    -0.376 OA
BRANCH  33  34
ATOM     34  C   UNL A   1      34.977  33.999  31.136  1.00  0.00     0.202 C 
BRANCH  34  35
ATOM     35  C   UNL A   1      36.312  33.355  30.734  1.00  0.00     0.261 C 
BRANCH  35  36
ATOM     36  O   UNL A   1      37.349  34.253  30.318  1.00  0.00    -0.460 OA
BRANCH  36  37
ATOM     37  C   UNL A   1      38.281  34.591  31.241  1.00  0.00     0.338 C 
ATOM     38  O   UNL A   1      38.109  34.751  32.430  1.00  0.00    -0.246 OA
BRANCH  37  39
ATOM     39  C   UNL A   1      39.597  34.553  30.566  1.00  0.00     0.060 A 
ATOM     40  C   UNL A   1      40.741  34.225  31.307  1.00  0.00     0.016 A 
ATOM     41  C   UNL A   1      39.690  34.827  29.201  1.00  0.00     0.016 A 
ATOM     42  C   UNL A   1      41.990  34.203  30.685  1.00  0.00     0.010 A 
ATOM     43  C   UNL A   1      40.943  34.823  28.585  1.00  0.00     0.010 A 
ATOM     44  C   UNL A   1      42.102  34.545  29.331  1.00  0.00    -0.014 A 
BRANCH  44  45
ATOM     45  C   UNL A   1      43.433  34.814  28.735  1.00  0.00     0.031 A 
ATOM     46  C   UNL A   1      44.316  33.638  28.415  1.00  0.00     0.074 A 
ATOM     47  C   UNL A   1      43.856  36.068  28.491  1.00  0.00     0.049 A 
ATOM     48  N   UNL A   1      45.548  33.616  27.980  1.00  0.00    -0.248 NA
ATOM     49  C   UNL A   1      43.725  32.304  28.620  1.00  0.00     0.031 C 
ATOM     50  C   UNL A   1      43.077  37.283  28.720  1.00  0.00     0.029 A 
ATOM     51  N   UNL A   1      45.057  36.523  28.008  1.00  0.00    -0.354 N 
ATOM     52  C   UNL A   1      45.885  32.272  27.872  1.00  0.00     0.074 A 
ATOM     53  C   UNL A   1      44.739  31.509  28.316  1.00  0.00     0.031 C 
ATOM     54  C   UNL A   1      43.829  38.349  28.394  1.00  0.00     0.029 A 
ATOM     55  C   UNL A   1      45.153  37.894  27.970  1.00  0.00     0.049 A 
ATOM     56  H   UNL A   1      45.782  35.924  27.715  1.00  0.00     0.167 HD
ATOM     57  C   UNL A   1      47.043  31.723  27.435  1.00  0.00     0.037 A 
ATOM     58  C   UNL A   1      46.199  38.687  27.659  1.00  0.00     0.037 A 
ATOM     59  C   UNL A   1      48.180  32.491  27.000  1.00  0.00     0.049 A 
ATOM     60  C   UNL A   1      47.506  38.054  27.247  1.00  0.00     0.074 A 
ATOM     61  C   UNL A   1      49.396  32.033  26.526  1.00  0.00     0.029 A 
ATOM     62  N   UNL A   1      48.245  33.878  26.995  1.00  0.00    -0.354 N 
ATOM     63  N   UNL A   1      47.809  36.782  27.130  1.00  0.00    -0.248 NA
ATOM     64  C   UNL A   1      48.614  38.964  26.923  1.00  0.00     0.031 C 
ATOM     65  C   UNL A   1      50.218  33.139  26.291  1.00  0.00     0.029 A 
ATOM     66  C   UNL A   1      49.490  34.290  26.553  1.00  0.00     0.049 A 
ATOM     67  H   UNL A   1      47.515  34.478  27.268  1.00  0.00     0.167 HD
ATOM     68  C   UNL A   1      49.127  36.742  26.684  1.00  0.00     0.074 A 
ATOM     69  C   UNL A   1      49.562  38.116  26.547  1.00  0.00     0.031 C 
ATOM     70  C   UNL A   1      49.906  35.665  26.409  1.00  0.00     0.037 A 
BRANCH  57  71
ATOM     71  C   UNL A   1      47.149  30.222  27.439  1.00  0.00     0.058 A 
ATOM     72  C   UNL A   1      47.551  29.508  28.580  1.00  0.00     0.135 A 
ATOM     73  C   UNL A   1      46.814  29.484  26.292  1.00  0.00     0.135 A 
ATOM     74  F   UNL A   1      47.902  30.163  29.698  1.00  0.00    -0.206 F 
ATOM     75  C   UNL A   1      47.643  28.120  28.575  1.00  0.00     0.059 A 
ATOM     76  C   UNL A   1      46.869  28.094  26.274  1.00  0.00     0.059 A 
ATOM     77  F   UNL A   1      46.428  30.115  25.172  1.00  0.00    -0.206 F 
ATOM     78  C   UNL A   1      47.297  27.422  27.417  1.00  0.00     0.060 A 
BRANCH  78  79
ATOM     79  S   UNL A   1      47.416  25.621  27.429  1.00  0.00     0.124 S 
ATOM     80  O   UNL A   1      46.312  25.262  28.315  1.00  0.00    -0.237 OA
ATOM     81  O   UNL A   1      47.232  25.287  26.020  1.00  0.00    -0.237 OA
ATOM     82  O   UNL A   1      48.752  25.371  27.961  1.00  0.00    -0.744 OA
ENDBRANCH  78  79
ENDBRANCH  57  71
BRANCH  58  83
ATOM     83  C   UNL A   1      46.063  40.168  27.737  1.00  0.00     0.058 A 
ATOM     84  C   UNL A   1      46.265  40.852  28.945  1.00  0.00     0.135 A 
ATOM     85  C   UNL A   1      45.726  40.928  26.606  1.00  0.00     0.135 A 
ATOM     86  F   UNL A   1      46.575  40.171  30.058  1.00  0.00    -0.206 F 
ATOM     87  C   UNL A   1      46.123  42.234  29.033  1.00  0.00     0.059 A 
ATOM     88  C   UNL A   1      45.606  42.313  26.662  1.00  0.00     0.059 A 
ATOM     89  F   UNL A   1      45.527  40.324  25.424  1.00  0.00    -0.206 F 
ATOM     90  C   UNL A   1      45.799  42.956  27.883  1.00  0.00     0.060 A 
BRANCH  90  91
ATOM     91  S   UNL A   1      45.672  44.754  27.999  1.00  0.00     0.124 S 
ATOM     92  O   UNL A   1      45.121  45.096  26.692  1.00  0.00    -0.237 OA
ATOM     93  O   UNL A   1      44.771  44.923  29.135  1.00  0.00    -0.237 OA
ATOM     94  O   UNL A   1      47.050  45.174  28.233  1.00  0.00    -0.744 OA
ENDBRANCH  90  91
ENDBRANCH  58  83
BRANCH  70  95
ATOM     95  C   UNL A   1      51.293  35.919  25.880  1.00  0.00     0.058 A 
ATOM     96  C   UNL A   1      52.426  35.872  26.707  1.00  0.00     0.135 A 
ATOM     97  C   UNL A   1      51.494  36.153  24.509  1.00  0.00     0.135 A 
ATOM     98  F   UNL A   1      52.294  35.657  28.025  1.00  0.00    -0.206 F 
ATOM     99  C   UNL A   1      53.707  36.070  26.197  1.00  0.00     0.059 A 
ATOM    100  C   UNL A   1      52.767  36.321  23.972  1.00  0.00     0.059 A 
ATOM    101  F   UNL A   1      50.447  36.197  23.669  1.00  0.00    -0.206 F 
ATOM    102  C   UNL A   1      53.867  36.290  24.828  1.00  0.00     0.060 A 
BRANCH 102 103
ATOM    103  S   UNL A   1      55.536  36.509  24.175  1.00  0.00     0.124 S 
ATOM    104  O   UNL A   1      56.311  36.677  25.401  1.00  0.00    -0.237 OA
ATOM    105  O   UNL A   1      55.755  35.259  23.454  1.00  0.00    -0.237 OA
ATOM    106  O   UNL A   1      55.423  37.698  23.337  1.00  0.00    -0.744 OA
ENDBRANCH 102 103
ENDBRANCH  70  95
ENDBRANCH  44  45
ENDBRANCH  37  39
ENDBRANCH  36  37
ENDBRANCH  35  36
ENDBRANCH  34  35
ENDBRANCH  33  34
ENDBRANCH  32  33
ENDBRANCH  31  32
ENDBRANCH  30  31
ENDBRANCH   1  30
TORSDOF 28
ENDMDL
