MODEL 1
REMARK VINA RESULT:      -9.6      0.000      0.000
REMARK SMILES Cc1cccc(Nc2ccccc2C(=O)OCCOCCOCCOCCOC(=O)c2ccc(-c3c4nc(c(-c5c(F)cc(S(=O)(=O)[O-])cc5F)c5ccc([nH]5)c(-c5c(F)cc(S(=O)(=O)[O-])cc5F)c5nc(c(-c6c(F)cc(S(=O)(=O)[O-])cc6F)c6ccc3[nH]6)C=C5)C=C4)cc2)c1C
REMARK SMILES IDX 23 1 22 2 21 3 20 4 19 5 18 6 17 7 16 8 14 9 15 10 13 11
REMARK SMILES IDX 8 12 9 13 10 14 12 15 11 16 7 17 6 19 1 20 2 21 3 22 97 23
REMARK SMILES IDX 4 24 98 25 5 26 24 27 25 28 26 29 27 30 28 31 29 32 30 33
REMARK SMILES IDX 31 34 32 35 96 36 33 37 95 38 34 39 35 40 36 41 89 42 37 43
REMARK SMILES IDX 94 44 88 45 90 46 38 47 93 48 87 49 86 50 39 52 73 53 52 54
REMARK SMILES IDX 72 55 53 56 56 57 71 58 91 59 54 60 55 61 70 63 92 64 57 65
REMARK SMILES IDX 40 66 41 67 50 68 42 69 43 70 49 71 51 72 44 73 45 74 46 75
REMARK SMILES IDX 47 76 48 77 74 78 75 79 84 80 76 81 77 82 83 83 85 84 78 85
REMARK SMILES IDX 79 86 80 87 81 88 82 89 58 90 59 91 68 92 60 93 61 94 67 95
REMARK SMILES IDX 69 96 62 97 63 98 64 99 65 100 66 101
REMARK H PARENT 7 18 90 51 56 62
REMARK Flexibility Score: inf
ROOT
ATOM      1  C   UNL A   1      36.951  23.509  25.602  1.00  0.00     0.188 C 
ENDROOT
BRANCH   1   2
ATOM      2  O   UNL A   1      35.747  23.260  24.888  1.00  0.00    -0.377 OA
BRANCH   2   3
ATOM      3  C   UNL A   1      34.485  23.522  25.483  1.00  0.00     0.188 C 
BRANCH   3   4
ATOM      4  C   UNL A   1      34.174  23.099  26.941  1.00  0.00     0.188 C 
BRANCH   4   5
ATOM      5  O   UNL A   1      33.037  22.281  27.114  1.00  0.00    -0.376 OA
BRANCH   5   6
ATOM      6  C   UNL A   1      31.738  22.832  27.182  1.00  0.00     0.202 C 
BRANCH   6   7
ATOM      7  C   UNL A   1      30.704  22.651  26.066  1.00  0.00     0.261 C 
BRANCH   7   8
ATOM      8  O   UNL A   1      30.921  23.405  24.876  1.00  0.00    -0.460 OA
BRANCH   8   9
ATOM      9  C   UNL A   1      30.583  24.710  24.921  1.00  0.00     0.340 C 
ATOM     10  O   UNL A   1      29.859  25.236  25.753  1.00  0.00    -0.246 OA
BRANCH   9  11
ATOM     11  C   UNL A   1      31.394  25.481  23.940  1.00  0.00     0.083 A 
ATOM     12  C   UNL A   1      31.712  26.852  24.041  1.00  0.00     0.053 A 
ATOM     13  C   UNL A   1      32.438  27.427  22.976  1.00  0.00     0.027 A 
ATOM     14  C   UNL A   1      32.835  26.682  21.862  1.00  0.00     0.002 A 
ATOM     15  C   UNL A   1      31.799  24.737  22.812  1.00  0.00     0.018 A 
ATOM     16  C   UNL A   1      32.514  25.334  21.778  1.00  0.00     0.001 A 
BRANCH  12  17
ATOM     17  N   UNL A   1      31.470  27.699  25.147  1.00  0.00    -0.355 N 
ATOM     18  H   UNL A   1      30.633  27.501  25.625  1.00  0.00     0.167 HD
BRANCH  17  19
ATOM     19  C   UNL A   1      32.204  28.773  25.693  1.00  0.00     0.042 A 
ATOM     20  C   UNL A   1      35.152  29.395  28.024  1.00  0.00     0.044 C 
ATOM     21  C   UNL A   1      33.977  29.643  27.118  1.00  0.00    -0.046 A 
ATOM     22  C   UNL A   1      33.294  30.864  27.210  1.00  0.00     0.004 A 
ATOM     23  C   UNL A   1      33.488  28.629  26.261  1.00  0.00    -0.025 A 
ATOM     24  C   UNL A   1      32.109  31.066  26.513  1.00  0.00     0.002 A 
ATOM     25  C   UNL A   1      34.350  27.428  25.956  1.00  0.00     0.047 C 
ATOM     26  C   UNL A   1      31.548  30.013  25.795  1.00  0.00     0.026 A 
ENDBRANCH  17  19
ENDBRANCH  12  17
ENDBRANCH   9  11
ENDBRANCH   8   9
ENDBRANCH   7   8
ENDBRANCH   6   7
ENDBRANCH   5   6
ENDBRANCH   4   5
ENDBRANCH   3   4
ENDBRANCH   2   3
ENDBRANCH   1   2
BRANCH   1  27
ATOM     27  C   UNL A   1      38.051  22.429  25.702  1.00  0.00     0.188 C 
BRANCH  27  28
ATOM     28  O   UNL A   1      39.113  22.744  26.586  1.00  0.00    -0.376 OA
BRANCH  28  29
ATOM     29  C   UNL A   1      40.257  21.911  26.579  1.00  0.00     0.202 C 
BRANCH  29  30
ATOM     30  C   UNL A   1      41.605  22.532  26.189  1.00  0.00     0.261 C 
BRANCH  30  31
ATOM     31  O   UNL A   1      41.642  23.961  26.073  1.00  0.00    -0.460 OA
BRANCH  31  32
ATOM     32  C   UNL A   1      42.736  24.596  26.543  1.00  0.00     0.338 C 
ATOM     33  O   UNL A   1      43.891  24.439  26.181  1.00  0.00    -0.246 OA
BRANCH  32  34
ATOM     34  C   UNL A   1      42.268  25.665  27.446  1.00  0.00     0.060 A 
ATOM     35  C   UNL A   1      42.926  26.902  27.445  1.00  0.00     0.016 A 
ATOM     36  C   UNL A   1      41.167  25.446  28.276  1.00  0.00     0.016 A 
ATOM     37  C   UNL A   1      42.500  27.917  28.299  1.00  0.00     0.010 A 
ATOM     38  C   UNL A   1      40.758  26.453  29.151  1.00  0.00     0.010 A 
ATOM     39  C   UNL A   1      41.446  27.680  29.190  1.00  0.00    -0.014 A 
BRANCH  39  40
ATOM     40  C   UNL A   1      41.200  28.625  30.303  1.00  0.00     0.031 A 
ATOM     41  C   UNL A   1      42.042  28.492  31.542  1.00  0.00     0.074 A 
ATOM     42  C   UNL A   1      40.257  29.577  30.219  1.00  0.00     0.049 A 
ATOM     43  N   UNL A   1      41.977  29.153  32.666  1.00  0.00    -0.248 NA
ATOM     44  C   UNL A   1      43.097  27.465  31.504  1.00  0.00     0.031 C 
ATOM     45  C   UNL A   1      39.405  29.824  29.058  1.00  0.00     0.029 A 
ATOM     46  N   UNL A   1      39.849  30.507  31.142  1.00  0.00    -0.354 N 
ATOM     47  C   UNL A   1      42.969  28.611  33.477  1.00  0.00     0.074 A 
ATOM     48  C   UNL A   1      43.600  27.550  32.725  1.00  0.00     0.031 C 
ATOM     49  C   UNL A   1      38.556  30.826  29.347  1.00  0.00     0.029 A 
ATOM     50  C   UNL A   1      38.782  31.265  30.724  1.00  0.00     0.049 A 
ATOM     51  H   UNL A   1      40.279  30.621  32.020  1.00  0.00     0.167 HD
ATOM     52  C   UNL A   1      43.319  28.969  34.735  1.00  0.00     0.037 A 
ATOM     53  C   UNL A   1      38.053  32.184  31.389  1.00  0.00     0.037 A 
ATOM     54  C   UNL A   1      42.676  30.022  35.475  1.00  0.00     0.049 A 
ATOM     55  C   UNL A   1      38.420  32.531  32.809  1.00  0.00     0.074 A 
ATOM     56  C   UNL A   1      42.978  30.490  36.742  1.00  0.00     0.029 A 
ATOM     57  N   UNL A   1      41.589  30.758  35.025  1.00  0.00    -0.354 N 
ATOM     58  N   UNL A   1      39.385  32.043  33.554  1.00  0.00    -0.248 NA
ATOM     59  C   UNL A   1      37.607  33.556  33.477  1.00  0.00     0.031 C 
ATOM     60  C   UNL A   1      42.029  31.460  37.085  1.00  0.00     0.029 A 
ATOM     61  C   UNL A   1      41.181  31.650  36.004  1.00  0.00     0.049 A 
ATOM     62  H   UNL A   1      41.169  30.661  34.140  1.00  0.00     0.167 HD
ATOM     63  C   UNL A   1      39.308  32.716  34.770  1.00  0.00     0.074 A 
ATOM     64  C   UNL A   1      38.210  33.654  34.654  1.00  0.00     0.031 C 
ATOM     65  C   UNL A   1      40.079  32.575  35.879  1.00  0.00     0.037 A 
BRANCH  52  66
ATOM     66  C   UNL A   1      44.412  28.175  35.401  1.00  0.00     0.058 A 
ATOM     67  C   UNL A   1      45.771  28.489  35.240  1.00  0.00     0.135 A 
ATOM     68  C   UNL A   1      44.088  27.074  36.211  1.00  0.00     0.135 A 
ATOM     69  F   UNL A   1      46.141  29.519  34.461  1.00  0.00    -0.206 F 
ATOM     70  C   UNL A   1      46.771  27.714  35.821  1.00  0.00     0.059 A 
ATOM     71  C   UNL A   1      45.069  26.307  36.831  1.00  0.00     0.059 A 
ATOM     72  F   UNL A   1      42.806  26.726  36.399  1.00  0.00    -0.206 F 
ATOM     73  C   UNL A   1      46.409  26.623  36.612  1.00  0.00     0.060 A 
BRANCH  73  74
ATOM     74  S   UNL A   1      47.717  25.614  37.340  1.00  0.00     0.124 S 
ATOM     75  O   UNL A   1      47.491  25.830  38.767  1.00  0.00    -0.237 OA
ATOM     76  O   UNL A   1      47.395  24.280  36.843  1.00  0.00    -0.237 OA
ATOM     77  O   UNL A   1      48.940  26.202  36.803  1.00  0.00    -0.744 OA
ENDBRANCH  73  74
ENDBRANCH  52  66
BRANCH  53  78
ATOM     78  C   UNL A   1      36.892  32.823  30.714  1.00  0.00     0.058 A 
ATOM     79  C   UNL A   1      35.579  32.408  30.976  1.00  0.00     0.135 A 
ATOM     80  C   UNL A   1      37.074  33.897  29.827  1.00  0.00     0.135 A 
ATOM     81  F   UNL A   1      35.353  31.376  31.803  1.00  0.00    -0.206 F 
ATOM     82  C   UNL A   1      34.486  33.037  30.389  1.00  0.00     0.059 A 
ATOM     83  C   UNL A   1      35.997  34.560  29.250  1.00  0.00     0.059 A 
ATOM     84  F   UNL A   1      38.311  34.337  29.548  1.00  0.00    -0.206 F 
ATOM     85  C   UNL A   1      34.705  34.123  29.538  1.00  0.00     0.060 A 
BRANCH  85  86
ATOM     86  S   UNL A   1      33.274  34.993  28.862  1.00  0.00     0.124 S 
ATOM     87  O   UNL A   1      32.811  34.057  27.845  1.00  0.00    -0.237 OA
ATOM     88  O   UNL A   1      32.422  35.131  30.040  1.00  0.00    -0.237 OA
ATOM     89  O   UNL A   1      33.844  36.240  28.360  1.00  0.00    -0.744 OA
ENDBRANCH  85  86
ENDBRANCH  53  78
BRANCH  65  90
ATOM     90  C   UNL A   1      39.786  33.470  37.054  1.00  0.00     0.058 A 
ATOM     91  C   UNL A   1      38.856  33.115  38.045  1.00  0.00     0.135 A 
ATOM     92  C   UNL A   1      40.492  34.673  37.223  1.00  0.00     0.135 A 
ATOM     93  F   UNL A   1      38.148  31.980  37.932  1.00  0.00    -0.206 F 
ATOM     94  C   UNL A   1      38.621  33.931  39.146  1.00  0.00     0.059 A 
ATOM     95  C   UNL A   1      40.297  35.488  38.334  1.00  0.00     0.059 A 
ATOM     96  F   UNL A   1      41.402  35.057  36.313  1.00  0.00    -0.206 F 
ATOM     97  C   UNL A   1      39.350  35.115  39.285  1.00  0.00     0.060 A 
BRANCH  97  98
ATOM     98  S   UNL A   1      39.059  36.147  40.737  1.00  0.00     0.124 S 
ATOM     99  O   UNL A   1      38.570  37.380  40.128  1.00  0.00    -0.237 OA
ATOM    100  O   UNL A   1      38.070  35.370  41.477  1.00  0.00    -0.237 OA
ATOM    101  O   UNL A   1      40.374  36.235  41.363  1.00  0.00    -0.744 OA
ENDBRANCH  97  98
ENDBRANCH  65  90
ENDBRANCH  39  40
ENDBRANCH  32  34
ENDBRANCH  31  32
ENDBRANCH  30  31
ENDBRANCH  29  30
ENDBRANCH  28  29
ENDBRANCH  27  28
ENDBRANCH   1  27
TORSDOF 25
ENDMDL
MODEL 2
REMARK VINA RESULT:      -8.9      6.153     10.645
REMARK SMILES Cc1cccc(Nc2ccccc2C(=O)OCCOCCOCCOCCOC(=O)c2ccc(-c3c4nc(c(-c5c(F)cc(S(=O)(=O)[O-])cc5F)c5ccc([nH]5)c(-c5c(F)cc(S(=O)(=O)[O-])cc5F)c5nc(c(-c6c(F)cc(S(=O)(=O)[O-])cc6F)c6ccc3[nH]6)C=C5)C=C4)cc2)c1C
REMARK SMILES IDX 23 1 22 2 21 3 20 4 19 5 18 6 17 7 16 8 14 9 15 10 13 11
REMARK SMILES IDX 8 12 9 13 10 14 12 15 11 16 7 17 6 19 1 20 2 21 3 22 97 23
REMARK SMILES IDX 4 24 98 25 5 26 24 27 25 28 26 29 27 30 28 31 29 32 30 33
REMARK SMILES IDX 31 34 32 35 96 36 33 37 95 38 34 39 35 40 36 41 89 42 37 43
REMARK SMILES IDX 94 44 88 45 90 46 38 47 93 48 87 49 86 50 39 52 73 53 52 54
REMARK SMILES IDX 72 55 53 56 56 57 71 58 91 59 54 60 55 61 70 63 92 64 57 65
REMARK SMILES IDX 40 66 41 67 50 68 42 69 43 70 49 71 51 72 44 73 45 74 46 75
REMARK SMILES IDX 47 76 48 77 74 78 75 79 84 80 76 81 77 82 83 83 85 84 78 85
REMARK SMILES IDX 79 86 80 87 81 88 82 89 58 90 59 91 68 92 60 93 61 94 67 95
REMARK SMILES IDX 69 96 62 97 63 98 64 99 65 100 66 101
REMARK H PARENT 7 18 90 51 56 62
REMARK Flexibility Score: inf
ROOT
ATOM      1  C   UNL A   1      37.996  22.203  25.543  1.00  0.00     0.188 C 
ENDROOT
BRANCH   1   2
ATOM      2  O   UNL A   1      37.177  22.449  24.408  1.00  0.00    -0.377 OA
BRANCH   2   3
ATOM      3  C   UNL A   1      35.819  22.038  24.393  1.00  0.00     0.188 C 
BRANCH   3   4
ATOM      4  C   UNL A   1      35.315  20.875  25.284  1.00  0.00     0.188 C 
BRANCH   4   5
ATOM      5  O   UNL A   1      34.074  20.311  24.917  1.00  0.00    -0.376 OA
BRANCH   5   6
ATOM      6  C   UNL A   1      32.891  20.611  25.629  1.00  0.00     0.202 C 
BRANCH   6   7
ATOM      7  C   UNL A   1      31.901  21.687  25.170  1.00  0.00     0.261 C 
BRANCH   7   8
ATOM      8  O   UNL A   1      32.424  23.004  25.022  1.00  0.00    -0.460 OA
BRANCH   8   9
ATOM      9  C   UNL A   1      31.537  23.973  24.719  1.00  0.00     0.340 C 
ATOM     10  O   UNL A   1      30.666  24.407  25.460  1.00  0.00    -0.246 OA
BRANCH   9  11
ATOM     11  C   UNL A   1      31.899  24.611  23.425  1.00  0.00     0.083 A 
ATOM     12  C   UNL A   1      31.413  25.852  22.960  1.00  0.00     0.053 A 
ATOM     13  C   UNL A   1      31.819  26.263  21.673  1.00  0.00     0.027 A 
ATOM     14  C   UNL A   1      32.669  25.488  20.880  1.00  0.00     0.002 A 
ATOM     15  C   UNL A   1      32.757  23.834  22.617  1.00  0.00     0.018 A 
ATOM     16  C   UNL A   1      33.138  24.269  21.351  1.00  0.00     0.001 A 
BRANCH  12  17
ATOM     17  N   UNL A   1      30.638  26.784  23.687  1.00  0.00    -0.355 N 
ATOM     18  H   UNL A   1      31.063  27.095  24.518  1.00  0.00     0.167 HD
BRANCH  17  19
ATOM     19  C   UNL A   1      29.370  27.351  23.444  1.00  0.00     0.042 A 
ATOM     20  C   UNL A   1      27.762  30.766  22.927  1.00  0.00     0.044 C 
ATOM     21  C   UNL A   1      27.923  29.281  23.100  1.00  0.00    -0.046 A 
ATOM     22  C   UNL A   1      26.824  28.524  23.527  1.00  0.00     0.004 A 
ATOM     23  C   UNL A   1      29.185  28.660  22.947  1.00  0.00    -0.025 A 
ATOM     24  C   UNL A   1      26.973  27.182  23.857  1.00  0.00     0.002 A 
ATOM     25  C   UNL A   1      30.299  29.396  22.242  1.00  0.00     0.047 C 
ATOM     26  C   UNL A   1      28.245  26.615  23.856  1.00  0.00     0.026 A 
ENDBRANCH  17  19
ENDBRANCH  12  17
ENDBRANCH   9  11
ENDBRANCH   8   9
ENDBRANCH   7   8
ENDBRANCH   6   7
ENDBRANCH   5   6
ENDBRANCH   4   5
ENDBRANCH   3   4
ENDBRANCH   2   3
ENDBRANCH   1   2
BRANCH   1  27
ATOM     27  C   UNL A   1      38.903  20.953  25.611  1.00  0.00     0.188 C 
BRANCH  27  28
ATOM     28  O   UNL A   1      40.188  21.181  26.162  1.00  0.00    -0.376 OA
BRANCH  28  29
ATOM     29  C   UNL A   1      40.765  20.163  26.958  1.00  0.00     0.202 C 
BRANCH  29  30
ATOM     30  C   UNL A   1      41.677  19.136  26.274  1.00  0.00     0.261 C 
BRANCH  30  31
ATOM     31  O   UNL A   1      42.373  19.579  25.102  1.00  0.00    -0.460 OA
BRANCH  31  32
ATOM     32  C   UNL A   1      43.700  19.800  25.212  1.00  0.00     0.338 C 
ATOM     33  O   UNL A   1      44.603  19.050  24.877  1.00  0.00    -0.246 OA
BRANCH  32  34
ATOM     34  C   UNL A   1      43.877  21.204  25.633  1.00  0.00     0.060 A 
ATOM     35  C   UNL A   1      43.787  22.225  24.677  1.00  0.00     0.016 A 
ATOM     36  C   UNL A   1      44.110  21.506  26.976  1.00  0.00     0.016 A 
ATOM     37  C   UNL A   1      43.960  23.553  25.059  1.00  0.00     0.010 A 
ATOM     38  C   UNL A   1      44.311  22.834  27.353  1.00  0.00     0.010 A 
ATOM     39  C   UNL A   1      44.272  23.858  26.390  1.00  0.00    -0.014 A 
BRANCH  39  40
ATOM     40  C   UNL A   1      44.765  25.211  26.736  1.00  0.00     0.031 A 
ATOM     41  C   UNL A   1      43.777  26.207  27.277  1.00  0.00     0.074 A 
ATOM     42  C   UNL A   1      46.056  25.548  26.577  1.00  0.00     0.049 A 
ATOM     43  N   UNL A   1      43.950  27.463  27.590  1.00  0.00    -0.248 NA
ATOM     44  C   UNL A   1      42.405  25.715  27.483  1.00  0.00     0.031 C 
ATOM     45  C   UNL A   1      47.109  24.658  26.095  1.00  0.00     0.029 A 
ATOM     46  N   UNL A   1      46.694  26.744  26.791  1.00  0.00    -0.354 N 
ATOM     47  C   UNL A   1      42.706  27.918  28.014  1.00  0.00     0.074 A 
ATOM     48  C   UNL A   1      41.784  26.810  27.890  1.00  0.00     0.031 C 
ATOM     49  C   UNL A   1      48.262  25.347  26.027  1.00  0.00     0.029 A 
ATOM     50  C   UNL A   1      48.018  26.733  26.426  1.00  0.00     0.049 A 
ATOM     51  H   UNL A   1      46.246  27.535  27.170  1.00  0.00     0.167 HD
ATOM     52  C   UNL A   1      42.365  29.148  28.467  1.00  0.00     0.037 A 
ATOM     53  C   UNL A   1      48.920  27.735  26.390  1.00  0.00     0.037 A 
ATOM     54  C   UNL A   1      43.292  30.243  28.577  1.00  0.00     0.049 A 
ATOM     55  C   UNL A   1      48.510  29.113  26.843  1.00  0.00     0.074 A 
ATOM     56  C   UNL A   1      43.060  31.519  29.058  1.00  0.00     0.029 A 
ATOM     57  N   UNL A   1      44.623  30.199  28.184  1.00  0.00    -0.354 N 
ATOM     58  N   UNL A   1      47.343  29.525  27.281  1.00  0.00    -0.248 NA
ATOM     59  C   UNL A   1      49.539  30.161  26.804  1.00  0.00     0.031 C 
ATOM     60  C   UNL A   1      44.231  32.267  28.889  1.00  0.00     0.029 A 
ATOM     61  C   UNL A   1      45.215  31.437  28.373  1.00  0.00     0.049 A 
ATOM     62  H   UNL A   1      45.079  29.405  27.824  1.00  0.00     0.167 HD
ATOM     63  C   UNL A   1      47.502  30.873  27.589  1.00  0.00     0.074 A 
ATOM     64  C   UNL A   1      48.884  31.202  27.299  1.00  0.00     0.031 C 
ATOM     65  C   UNL A   1      46.591  31.755  28.073  1.00  0.00     0.037 A 
BRANCH  52  66
ATOM     66  C   UNL A   1      40.921  29.380  28.821  1.00  0.00     0.058 A 
ATOM     67  C   UNL A   1      39.916  29.476  27.844  1.00  0.00     0.135 A 
ATOM     68  C   UNL A   1      40.538  29.514  30.165  1.00  0.00     0.135 A 
ATOM     69  F   UNL A   1      40.226  29.375  26.541  1.00  0.00    -0.206 F 
ATOM     70  C   UNL A   1      38.593  29.742  28.185  1.00  0.00     0.059 A 
ATOM     71  C   UNL A   1      39.216  29.744  30.532  1.00  0.00     0.059 A 
ATOM     72  F   UNL A   1      41.456  29.432  31.141  1.00  0.00    -0.206 F 
ATOM     73  C   UNL A   1      38.254  29.878  29.532  1.00  0.00     0.060 A 
BRANCH  73  74
ATOM     74  S   UNL A   1      36.539  30.245  29.957  1.00  0.00     0.124 S 
ATOM     75  O   UNL A   1      35.848  29.874  28.725  1.00  0.00    -0.237 OA
ATOM     76  O   UNL A   1      36.307  29.369  31.102  1.00  0.00    -0.237 OA
ATOM     77  O   UNL A   1      36.560  31.673  30.258  1.00  0.00    -0.744 OA
ENDBRANCH  73  74
ENDBRANCH  52  66
BRANCH  53  78
ATOM     78  C   UNL A   1      50.293  27.464  25.887  1.00  0.00     0.058 A 
ATOM     79  C   UNL A   1      50.613  27.612  24.530  1.00  0.00     0.135 A 
ATOM     80  C   UNL A   1      51.325  27.098  26.766  1.00  0.00     0.135 A 
ATOM     81  F   UNL A   1      49.660  27.945  23.647  1.00  0.00    -0.206 F 
ATOM     82  C   UNL A   1      51.908  27.413  24.063  1.00  0.00     0.059 A 
ATOM     83  C   UNL A   1      52.632  26.920  26.328  1.00  0.00     0.059 A 
ATOM     84  F   UNL A   1      51.071  26.950  28.076  1.00  0.00    -0.206 F 
ATOM     85  C   UNL A   1      52.915  27.081  24.972  1.00  0.00     0.060 A 
BRANCH  85  86
ATOM     86  S   UNL A   1      54.609  26.923  24.367  1.00  0.00     0.124 S 
ATOM     87  O   UNL A   1      55.118  28.275  24.558  1.00  0.00    -0.237 OA
ATOM     88  O   UNL A   1      55.153  25.903  25.259  1.00  0.00    -0.237 OA
ATOM     89  O   UNL A   1      54.433  26.504  22.980  1.00  0.00    -0.744 OA
ENDBRANCH  85  86
ENDBRANCH  53  78
BRANCH  65  90
ATOM     90  C   UNL A   1      47.056  33.161  28.348  1.00  0.00     0.058 A 
ATOM     91  C   UNL A   1      47.520  33.555  29.614  1.00  0.00     0.135 A 
ATOM     92  C   UNL A   1      47.096  34.110  27.313  1.00  0.00     0.135 A 
ATOM     93  F   UNL A   1      47.500  32.691  30.641  1.00  0.00    -0.206 F 
ATOM     94  C   UNL A   1      47.983  34.846  29.848  1.00  0.00     0.059 A 
ATOM     95  C   UNL A   1      47.585  35.397  27.517  1.00  0.00     0.059 A 
ATOM     96  F   UNL A   1      46.675  33.785  26.080  1.00  0.00    -0.206 F 
ATOM     97  C   UNL A   1      48.016  35.760  28.792  1.00  0.00     0.060 A 
BRANCH  97  98
ATOM     98  S   UNL A   1      48.652  37.421  29.102  1.00  0.00     0.124 S 
ATOM     99  O   UNL A   1      47.674  37.936  30.055  1.00  0.00    -0.237 OA
ATOM    100  O   UNL A   1      49.981  37.150  29.641  1.00  0.00    -0.237 OA
ATOM    101  O   UNL A   1      48.632  38.046  27.783  1.00  0.00    -0.744 OA
ENDBRANCH  97  98
ENDBRANCH  65  90
ENDBRANCH  39  40
ENDBRANCH  32  34
ENDBRANCH  31  32
ENDBRANCH  30  31
ENDBRANCH  29  30
ENDBRANCH  28  29
ENDBRANCH  27  28
ENDBRANCH   1  27
TORSDOF 25
ENDMDL
MODEL 3
REMARK VINA RESULT:      -8.7      9.298     16.133
REMARK SMILES Cc1cccc(Nc2ccccc2C(=O)OCCOCCOCCOCCOC(=O)c2ccc(-c3c4nc(c(-c5c(F)cc(S(=O)(=O)[O-])cc5F)c5ccc([nH]5)c(-c5c(F)cc(S(=O)(=O)[O-])cc5F)c5nc(c(-c6c(F)cc(S(=O)(=O)[O-])cc6F)c6ccc3[nH]6)C=C5)C=C4)cc2)c1C
REMARK SMILES IDX 23 1 22 2 21 3 20 4 19 5 18 6 17 7 16 8 14 9 15 10 13 11
REMARK SMILES IDX 8 12 9 13 10 14 12 15 11 16 7 17 6 19 1 20 2 21 3 22 97 23
REMARK SMILES IDX 4 24 98 25 5 26 24 27 25 28 26 29 27 30 28 31 29 32 30 33
REMARK SMILES IDX 31 34 32 35 96 36 33 37 95 38 34 39 35 40 36 41 89 42 37 43
REMARK SMILES IDX 94 44 88 45 90 46 38 47 93 48 87 49 86 50 39 52 73 53 52 54
REMARK SMILES IDX 72 55 53 56 56 57 71 58 91 59 54 60 55 61 70 63 92 64 57 65
REMARK SMILES IDX 40 66 41 67 50 68 42 69 43 70 49 71 51 72 44 73 45 74 46 75
REMARK SMILES IDX 47 76 48 77 74 78 75 79 84 80 76 81 77 82 83 83 85 84 78 85
REMARK SMILES IDX 79 86 80 87 81 88 82 89 58 90 59 91 68 92 60 93 61 94 67 95
REMARK SMILES IDX 69 96 62 97 63 98 64 99 65 100 66 101
REMARK H PARENT 7 18 90 51 56 62
REMARK Flexibility Score: inf
ROOT
ATOM      1  C   UNL A   1      42.981  39.739  28.474  1.00  0.00     0.188 C 
ENDROOT
BRANCH   1   2
ATOM      2  O   UNL A   1      42.834  39.863  27.066  1.00  0.00    -0.377 OA
BRANCH   2   3
ATOM      3  C   UNL A   1      42.670  41.139  26.465  1.00  0.00     0.188 C 
BRANCH   3   4
ATOM      4  C   UNL A   1      42.111  41.292  25.028  1.00  0.00     0.188 C 
BRANCH   4   5
ATOM      5  O   UNL A   1      43.052  41.635  24.035  1.00  0.00    -0.376 OA
BRANCH   5   6
ATOM      6  C   UNL A   1      43.200  42.968  23.589  1.00  0.00     0.202 C 
BRANCH   6   7
ATOM      7  C   UNL A   1      42.101  43.707  22.818  1.00  0.00     0.261 C 
BRANCH   7   8
ATOM      8  O   UNL A   1      41.546  43.022  21.699  1.00  0.00    -0.460 OA
BRANCH   8   9
ATOM      9  C   UNL A   1      42.423  42.478  20.831  1.00  0.00     0.340 C 
ATOM     10  O   UNL A   1      42.904  41.356  20.906  1.00  0.00    -0.246 OA
BRANCH   9  11
ATOM     11  C   UNL A   1      42.563  43.348  19.633  1.00  0.00     0.083 A 
ATOM     12  C   UNL A   1      43.776  43.879  19.145  1.00  0.00     0.053 A 
ATOM     13  C   UNL A   1      43.701  44.742  18.031  1.00  0.00     0.027 A 
ATOM     14  C   UNL A   1      42.485  45.064  17.422  1.00  0.00     0.002 A 
ATOM     15  C   UNL A   1      41.339  43.679  19.012  1.00  0.00     0.018 A 
ATOM     16  C   UNL A   1      41.300  44.533  17.914  1.00  0.00     0.001 A 
BRANCH  12  17
ATOM     17  N   UNL A   1      45.079  43.562  19.590  1.00  0.00    -0.355 N 
ATOM     18  H   UNL A   1      45.565  42.945  18.996  1.00  0.00     0.167 HD
BRANCH  17  19
ATOM     19  C   UNL A   1      45.814  43.964  20.724  1.00  0.00     0.042 A 
ATOM     20  C   UNL A   1      47.152  42.521  23.986  1.00  0.00     0.044 C 
ATOM     21  C   UNL A   1      46.815  43.501  22.896  1.00  0.00    -0.046 A 
ATOM     22  C   UNL A   1      46.763  44.867  23.204  1.00  0.00     0.004 A 
ATOM     23  C   UNL A   1      46.446  43.059  21.604  1.00  0.00    -0.025 A 
ATOM     24  C   UNL A   1      46.296  45.786  22.270  1.00  0.00     0.002 A 
ATOM     25  C   UNL A   1      46.749  41.640  21.185  1.00  0.00     0.047 C 
ATOM     26  C   UNL A   1      45.786  45.330  21.058  1.00  0.00     0.026 A 
ENDBRANCH  17  19
ENDBRANCH  12  17
ENDBRANCH   9  11
ENDBRANCH   8   9
ENDBRANCH   7   8
ENDBRANCH   6   7
ENDBRANCH   5   6
ENDBRANCH   4   5
ENDBRANCH   3   4
ENDBRANCH   2   3
ENDBRANCH   1   2
BRANCH   1  27
ATOM     27  C   UNL A   1      44.354  39.410  29.102  1.00  0.00     0.188 C 
BRANCH  27  28
ATOM     28  O   UNL A   1      44.512  39.839  30.443  1.00  0.00    -0.376 OA
BRANCH  28  29
ATOM     29  C   UNL A   1      44.848  38.871  31.420  1.00  0.00     0.202 C 
BRANCH  29  30
ATOM     30  C   UNL A   1      46.306  38.400  31.503  1.00  0.00     0.261 C 
BRANCH  30  31
ATOM     31  O   UNL A   1      46.589  37.095  30.981  1.00  0.00    -0.460 OA
BRANCH  31  32
ATOM     32  C   UNL A   1      46.988  37.012  29.695  1.00  0.00     0.338 C 
ATOM     33  O   UNL A   1      47.516  37.888  29.029  1.00  0.00    -0.246 OA
BRANCH  32  34
ATOM     34  C   UNL A   1      46.851  35.601  29.284  1.00  0.00     0.060 A 
ATOM     35  C   UNL A   1      46.331  35.302  28.017  1.00  0.00     0.016 A 
ATOM     36  C   UNL A   1      47.256  34.580  30.145  1.00  0.00     0.016 A 
ATOM     37  C   UNL A   1      46.188  33.974  27.619  1.00  0.00     0.010 A 
ATOM     38  C   UNL A   1      47.087  33.250  29.757  1.00  0.00     0.010 A 
ATOM     39  C   UNL A   1      46.520  32.943  28.507  1.00  0.00    -0.014 A 
BRANCH  39  40
ATOM     40  C   UNL A   1      46.079  31.559  28.220  1.00  0.00     0.031 A 
ATOM     41  C   UNL A   1      44.658  31.189  28.543  1.00  0.00     0.074 A 
ATOM     42  C   UNL A   1      46.914  30.653  27.685  1.00  0.00     0.049 A 
ATOM     43  N   UNL A   1      44.056  30.034  28.444  1.00  0.00    -0.248 NA
ATOM     44  C   UNL A   1      43.804  32.274  29.056  1.00  0.00     0.031 C 
ATOM     45  C   UNL A   1      48.300  30.906  27.299  1.00  0.00     0.029 A 
ATOM     46  N   UNL A   1      46.716  29.328  27.390  1.00  0.00    -0.354 N 
ATOM     47  C   UNL A   1      42.759  30.247  28.898  1.00  0.00     0.074 A 
ATOM     48  C   UNL A   1      42.672  31.634  29.298  1.00  0.00     0.031 C 
ATOM     49  C   UNL A   1      48.838  29.763  26.838  1.00  0.00     0.029 A 
ATOM     50  C   UNL A   1      47.845  28.693  26.932  1.00  0.00     0.049 A 
ATOM     51  H   UNL A   1      45.848  28.875  27.497  1.00  0.00     0.167 HD
ATOM     52  C   UNL A   1      41.735  29.364  28.973  1.00  0.00     0.037 A 
ATOM     53  C   UNL A   1      48.058  27.391  26.651  1.00  0.00     0.037 A 
ATOM     54  C   UNL A   1      41.839  27.985  28.578  1.00  0.00     0.049 A 
ATOM     55  C   UNL A   1      46.923  26.410  26.793  1.00  0.00     0.074 A 
ATOM     56  C   UNL A   1      40.852  27.015  28.578  1.00  0.00     0.029 A 
ATOM     57  N   UNL A   1      43.002  27.373  28.132  1.00  0.00    -0.354 N 
ATOM     58  N   UNL A   1      45.688  26.627  27.184  1.00  0.00    -0.248 NA
ATOM     59  C   UNL A   1      47.205  25.010  26.451  1.00  0.00     0.031 C 
ATOM     60  C   UNL A   1      41.436  25.800  28.200  1.00  0.00     0.029 A 
ATOM     61  C   UNL A   1      42.769  26.029  27.892  1.00  0.00     0.049 A 
ATOM     62  H   UNL A   1      43.866  27.827  28.005  1.00  0.00     0.167 HD
ATOM     63  C   UNL A   1      45.042  25.397  27.115  1.00  0.00     0.074 A 
ATOM     64  C   UNL A   1      46.020  24.443  26.632  1.00  0.00     0.031 C 
ATOM     65  C   UNL A   1      43.755  25.086  27.417  1.00  0.00     0.037 A 
BRANCH  52  66
ATOM     66  C   UNL A   1      40.436  29.859  29.552  1.00  0.00     0.058 A 
ATOM     67  C   UNL A   1      39.274  29.999  28.775  1.00  0.00     0.135 A 
ATOM     68  C   UNL A   1      40.357  30.205  30.910  1.00  0.00     0.135 A 
ATOM     69  F   UNL A   1      39.295  29.702  27.465  1.00  0.00    -0.206 F 
ATOM     70  C   UNL A   1      38.095  30.506  29.314  1.00  0.00     0.059 A 
ATOM     71  C   UNL A   1      39.180  30.680  31.479  1.00  0.00     0.059 A 
ATOM     72  F   UNL A   1      41.436  30.093  31.700  1.00  0.00    -0.206 F 
ATOM     73  C   UNL A   1      38.059  30.847  30.667  1.00  0.00     0.060 A 
BRANCH  73  74
ATOM     74  S   UNL A   1      36.531  31.525  31.346  1.00  0.00     0.124 S 
ATOM     75  O   UNL A   1      36.244  32.600  30.401  1.00  0.00    -0.237 OA
ATOM     76  O   UNL A   1      35.630  30.377  31.293  1.00  0.00    -0.237 OA
ATOM     77  O   UNL A   1      36.915  31.955  32.686  1.00  0.00    -0.744 OA
ENDBRANCH  73  74
ENDBRANCH  52  66
BRANCH  53  78
ATOM     78  C   UNL A   1      49.412  26.949  26.224  1.00  0.00     0.058 A 
ATOM     79  C   UNL A   1      50.343  26.458  27.150  1.00  0.00     0.135 A 
ATOM     80  C   UNL A   1      49.782  26.963  24.869  1.00  0.00     0.135 A 
ATOM     81  F   UNL A   1      50.044  26.438  28.457  1.00  0.00    -0.206 F 
ATOM     82  C   UNL A   1      51.591  25.992  26.749  1.00  0.00     0.059 A 
ATOM     83  C   UNL A   1      51.013  26.478  24.441  1.00  0.00     0.059 A 
ATOM     84  F   UNL A   1      48.924  27.417  23.942  1.00  0.00    -0.206 F 
ATOM     85  C   UNL A   1      51.911  25.993  25.390  1.00  0.00     0.060 A 
BRANCH  85  86
ATOM     86  S   UNL A   1      53.495  25.293  24.875  1.00  0.00     0.124 S 
ATOM     87  O   UNL A   1      54.434  26.060  25.682  1.00  0.00    -0.237 OA
ATOM     88  O   UNL A   1      53.336  23.888  25.240  1.00  0.00    -0.237 OA
ATOM     89  O   UNL A   1      53.530  25.560  23.440  1.00  0.00    -0.744 OA
ENDBRANCH  85  86
ENDBRANCH  53  78
BRANCH  65  90
ATOM     90  C   UNL A   1      43.313  23.661  27.214  1.00  0.00     0.058 A 
ATOM     91  C   UNL A   1      43.382  22.707  28.242  1.00  0.00     0.135 A 
ATOM     92  C   UNL A   1      42.753  23.260  25.989  1.00  0.00     0.135 A 
ATOM     93  F   UNL A   1      43.913  23.033  29.431  1.00  0.00    -0.206 F 
ATOM     94  C   UNL A   1      42.935  21.403  28.054  1.00  0.00     0.059 A 
ATOM     95  C   UNL A   1      42.270  21.970  25.790  1.00  0.00     0.059 A 
ATOM     96  F   UNL A   1      42.651  24.133  24.974  1.00  0.00    -0.206 F 
ATOM     97  C   UNL A   1      42.376  21.044  26.826  1.00  0.00     0.060 A 
BRANCH  97  98
ATOM     98  S   UNL A   1      41.769  19.358  26.609  1.00  0.00     0.124 S 
ATOM     99  O   UNL A   1      42.700  18.837  25.614  1.00  0.00    -0.237 OA
ATOM    100  O   UNL A   1      41.901  18.805  27.952  1.00  0.00    -0.237 OA
ATOM    101  O   UNL A   1      40.397  19.546  26.147  1.00  0.00    -0.744 OA
ENDBRANCH  97  98
ENDBRANCH  65  90
ENDBRANCH  39  40
ENDBRANCH  32  34
ENDBRANCH  31  32
ENDBRANCH  30  31
ENDBRANCH  29  30
ENDBRANCH  28  29
ENDBRANCH  27  28
ENDBRANCH   1  27
TORSDOF 25
ENDMDL
