MODEL 1
REMARK VINA RESULT:      -9.3      0.000      0.000
REMARK SMILES O=C(OCCOCCOCCOCCOC(=O)[C@@]1(Cc2cn3ccccc3n2)CCC[NH2+]C1)c1ccc(-c2c3nc(c(-c4c(F)cc(S(=O)(=O)[O-])cc4F)c4ccc([nH]4)c(-c4c(F)cc(S(=O)(=O)[O-])cc4F)c4nc(c(-c5c(F)cc(S(=O)(=O)[O-])cc5F)c5ccc2[nH]5)C=C4)C=C3)cc1
REMARK SMILES IDX 8 1 7 2 6 3 5 4 4 5 3 6 2 7 1 8 34 9 35 10 99 11 36 12 98 13
REMARK SMILES IDX 37 14 38 15 39 16 92 17 40 18 97 19 91 20 93 21 41 22 96 23
REMARK SMILES IDX 90 24 89 25 42 27 76 28 55 29 75 30 56 31 59 32 74 33 94 34
REMARK SMILES IDX 57 35 58 36 73 38 95 39 60 40 43 41 44 42 53 43 45 44 46 45
REMARK SMILES IDX 52 46 54 47 47 48 48 49 49 50 50 51 51 52 77 53 78 54 87 55
REMARK SMILES IDX 79 56 80 57 86 58 88 59 81 60 82 61 83 62 84 63 85 64 61 65
REMARK SMILES IDX 62 66 71 67 63 68 64 69 70 70 72 71 65 72 66 73 67 74 68 75
REMARK SMILES IDX 69 76 9 77 10 78 11 79 12 80 13 81 14 82 15 83 16 84 17 85
REMARK SMILES IDX 18 86 29 87 33 88 30 89 32 90 31 91 19 94 20 95 21 96 28 97
REMARK SMILES IDX 22 98 27 99 23 100 26 101 24 102 25 103
REMARK H PARENT 93 26 59 37 32 92 32 93
REMARK Flexibility Score: inf
ROOT
ATOM      1  C   UNL A   1      34.733  29.796  27.707  1.00  0.00     0.188 C 
ENDROOT
BRANCH   1   2
ATOM      2  C   UNL A   1      36.160  30.332  27.647  1.00  0.00     0.188 C 
BRANCH   2   3
ATOM      3  O   UNL A   1      36.439  31.235  28.714  1.00  0.00    -0.376 OA
BRANCH   3   4
ATOM      4  C   UNL A   1      36.165  30.814  30.050  1.00  0.00     0.202 C 
BRANCH   4   5
ATOM      5  C   UNL A   1      36.415  29.344  30.374  1.00  0.00     0.261 C 
BRANCH   5   6
ATOM      6  O   UNL A   1      37.037  29.092  31.639  1.00  0.00    -0.460 OA
BRANCH   6   7
ATOM      7  C   UNL A   1      38.199  29.554  32.155  1.00  0.00     0.338 C 
ATOM      8  O   UNL A   1      38.161  30.028  33.293  1.00  0.00    -0.246 OA
BRANCH   7   9
ATOM      9  C   UNL A   1      39.508  29.609  31.433  1.00  0.00     0.060 A 
ATOM     10  C   UNL A   1      39.751  30.257  30.222  1.00  0.00     0.016 A 
ATOM     11  C   UNL A   1      40.605  29.019  32.083  1.00  0.00     0.016 A 
ATOM     12  C   UNL A   1      41.014  30.366  29.677  1.00  0.00     0.010 A 
ATOM     13  C   UNL A   1      41.877  29.049  31.511  1.00  0.00     0.010 A 
ATOM     14  C   UNL A   1      42.063  29.709  30.293  1.00  0.00    -0.014 A 
BRANCH  14  15
ATOM     15  C   UNL A   1      43.226  29.447  29.449  1.00  0.00     0.031 A 
ATOM     16  C   UNL A   1      43.234  28.134  28.737  1.00  0.00     0.074 A 
ATOM     17  C   UNL A   1      44.117  30.419  29.207  1.00  0.00     0.049 A 
ATOM     18  N   UNL A   1      44.197  27.546  28.094  1.00  0.00    -0.248 NA
ATOM     19  C   UNL A   1      41.967  27.376  28.752  1.00  0.00     0.031 C 
ATOM     20  C   UNL A   1      44.012  31.799  29.685  1.00  0.00     0.029 A 
ATOM     21  N   UNL A   1      45.277  30.393  28.491  1.00  0.00    -0.354 N 
ATOM     22  C   UNL A   1      43.677  26.321  27.696  1.00  0.00     0.074 A 
ATOM     23  C   UNL A   1      42.306  26.258  28.137  1.00  0.00     0.031 C 
ATOM     24  C   UNL A   1      45.095  32.481  29.280  1.00  0.00     0.029 A 
ATOM     25  C   UNL A   1      45.997  31.557  28.604  1.00  0.00     0.049 A 
ATOM     26  H   UNL A   1      45.568  29.623  27.952  1.00  0.00     0.167 HD
ATOM     27  C   UNL A   1      44.330  25.329  27.052  1.00  0.00     0.037 A 
ATOM     28  C   UNL A   1      47.278  31.791  28.272  1.00  0.00     0.037 A 
ATOM     29  C   UNL A   1      45.704  25.474  26.662  1.00  0.00     0.049 A 
ATOM     30  C   UNL A   1      48.040  30.645  27.664  1.00  0.00     0.074 A 
ATOM     31  C   UNL A   1      46.549  24.551  26.084  1.00  0.00     0.029 A 
ATOM     32  N   UNL A   1      46.434  26.649  26.831  1.00  0.00    -0.354 N 
ATOM     33  N   UNL A   1      47.612  29.429  27.397  1.00  0.00    -0.248 NA
ATOM     34  C   UNL A   1      49.446  30.878  27.329  1.00  0.00     0.031 C 
ATOM     35  C   UNL A   1      47.806  25.153  25.956  1.00  0.00     0.029 A 
ATOM     36  C   UNL A   1      47.727  26.474  26.386  1.00  0.00     0.049 A 
ATOM     37  H   UNL A   1      46.078  27.484  27.213  1.00  0.00     0.167 HD
ATOM     38  C   UNL A   1      48.686  28.757  26.833  1.00  0.00     0.074 A 
ATOM     39  C   UNL A   1      49.788  29.706  26.806  1.00  0.00     0.031 C 
ATOM     40  C   UNL A   1      48.763  27.483  26.371  1.00  0.00     0.037 A 
BRANCH  27  41
ATOM     41  C   UNL A   1      43.601  24.025  26.894  1.00  0.00     0.058 A 
ATOM     42  C   UNL A   1      43.006  23.630  25.684  1.00  0.00     0.135 A 
ATOM     43  C   UNL A   1      43.397  23.204  28.016  1.00  0.00     0.135 A 
ATOM     44  F   UNL A   1      43.128  24.396  24.587  1.00  0.00    -0.206 F 
ATOM     45  C   UNL A   1      42.194  22.501  25.605  1.00  0.00     0.059 A 
ATOM     46  C   UNL A   1      42.615  22.055  27.953  1.00  0.00     0.059 A 
ATOM     47  F   UNL A   1      43.921  23.542  29.205  1.00  0.00    -0.206 F 
ATOM     48  C   UNL A   1      41.997  21.725  26.749  1.00  0.00     0.060 A 
BRANCH  48  49
ATOM     49  S   UNL A   1      40.897  20.297  26.645  1.00  0.00     0.124 S 
ATOM     50  O   UNL A   1      40.869  19.847  28.031  1.00  0.00    -0.237 OA
ATOM     51  O   UNL A   1      39.665  20.886  26.141  1.00  0.00    -0.237 OA
ATOM     52  O   UNL A   1      41.590  19.404  25.711  1.00  0.00    -0.744 OA
ENDBRANCH  48  49
ENDBRANCH  27  41
BRANCH  28  53
ATOM     53  C   UNL A   1      47.893  33.105  28.595  1.00  0.00     0.058 A 
ATOM     54  C   UNL A   1      47.768  34.203  27.733  1.00  0.00     0.135 A 
ATOM     55  C   UNL A   1      48.552  33.314  29.822  1.00  0.00     0.135 A 
ATOM     56  F   UNL A   1      47.153  34.059  26.550  1.00  0.00    -0.206 F 
ATOM     57  C   UNL A   1      48.263  35.459  28.076  1.00  0.00     0.059 A 
ATOM     58  C   UNL A   1      49.031  34.566  30.197  1.00  0.00     0.059 A 
ATOM     59  F   UNL A   1      48.689  32.303  30.693  1.00  0.00    -0.206 F 
ATOM     60  C   UNL A   1      48.884  35.633  29.316  1.00  0.00     0.060 A 
BRANCH  60  61
ATOM     61  S   UNL A   1      49.453  37.285  29.777  1.00  0.00     0.124 S 
ATOM     62  O   UNL A   1      50.064  37.744  28.536  1.00  0.00    -0.237 OA
ATOM     63  O   UNL A   1      48.207  37.941  30.158  1.00  0.00    -0.237 OA
ATOM     64  O   UNL A   1      50.379  37.027  30.878  1.00  0.00    -0.744 OA
ENDBRANCH  60  61
ENDBRANCH  28  53
BRANCH  40  65
ATOM     65  C   UNL A   1      50.053  27.070  25.732  1.00  0.00     0.058 A 
ATOM     66  C   UNL A   1      50.325  27.334  24.384  1.00  0.00     0.135 A 
ATOM     67  C   UNL A   1      51.076  26.536  26.532  1.00  0.00     0.135 A 
ATOM     68  F   UNL A   1      49.371  27.837  23.584  1.00  0.00    -0.206 F 
ATOM     69  C   UNL A   1      51.583  27.089  23.848  1.00  0.00     0.059 A 
ATOM     70  C   UNL A   1      52.347  26.314  26.025  1.00  0.00     0.059 A 
ATOM     71  F   UNL A   1      50.855  26.283  27.832  1.00  0.00    -0.206 F 
ATOM     72  C   UNL A   1      52.590  26.595  24.681  1.00  0.00     0.060 A 
BRANCH  72  73
ATOM     73  S   UNL A   1      54.245  26.384  23.998  1.00  0.00     0.124 S 
ATOM     74  O   UNL A   1      54.723  25.223  24.742  1.00  0.00    -0.237 OA
ATOM     75  O   UNL A   1      53.969  26.162  22.582  1.00  0.00    -0.237 OA
ATOM     76  O   UNL A   1      54.905  27.648  24.312  1.00  0.00    -0.744 OA
ENDBRANCH  72  73
ENDBRANCH  40  65
ENDBRANCH  14  15
ENDBRANCH   7   9
ENDBRANCH   6   7
ENDBRANCH   5   6
ENDBRANCH   4   5
ENDBRANCH   3   4
ENDBRANCH   2   3
ENDBRANCH   1   2
BRANCH   1  77
ATOM     77  O   UNL A   1      33.827  30.307  26.752  1.00  0.00    -0.377 OA
BRANCH  77  78
ATOM     78  C   UNL A   1      32.967  29.370  26.140  1.00  0.00     0.188 C 
BRANCH  78  79
ATOM     79  C   UNL A   1      33.456  28.480  24.973  1.00  0.00     0.188 C 
BRANCH  79  80
ATOM     80  O   UNL A   1      32.484  27.757  24.269  1.00  0.00    -0.376 OA
BRANCH  80  81
ATOM     81  C   UNL A   1      32.773  27.310  22.958  1.00  0.00     0.202 C 
BRANCH  81  82
ATOM     82  C   UNL A   1      31.865  26.397  22.091  1.00  0.00     0.261 C 
BRANCH  82  83
ATOM     83  O   UNL A   1      31.903  24.965  22.254  1.00  0.00    -0.463 OA
BRANCH  83  84
ATOM     84  C   UNL A   1      31.513  24.432  23.444  1.00  0.00     0.318 C 
ATOM     85  O   UNL A   1      30.379  24.583  23.882  1.00  0.00    -0.251 OA
BRANCH  84  86
ATOM     86  C   UNL A   1      32.628  23.571  24.144  1.00  0.00     0.122 C 
ATOM     87  C   UNL A   1      33.727  23.392  23.054  1.00  0.00     0.031 C 
ATOM     88  C   UNL A   1      33.275  24.310  25.366  1.00  0.00     0.279 C 
ATOM     89  C   UNL A   1      35.146  23.133  23.555  1.00  0.00     0.063 C 
ATOM     90  N   UNL A   1      34.645  23.967  25.769  1.00  0.00    -0.345 N 
ATOM     91  C   UNL A   1      35.556  24.103  24.651  1.00  0.00     0.260 C 
ATOM     92  H   UNL A   1      34.940  24.592  26.519  1.00  0.00     0.346 HD
ATOM     93  H   UNL A   1      34.659  22.999  26.089  1.00  0.00     0.346 HD
BRANCH  86  94
ATOM     94  C   UNL A   1      31.941  22.236  24.576  1.00  0.00     0.082 C 
BRANCH  94  95
ATOM     95  C   UNL A   1      32.620  21.000  24.116  1.00  0.00     0.061 A 
ATOM     96  C   UNL A   1      32.252  20.139  23.099  1.00  0.00     0.116 A 
ATOM     97  N   UNL A   1      33.725  20.527  24.780  1.00  0.00    -0.234 NA
ATOM     98  N   UNL A   1      32.945  18.988  23.359  1.00  0.00    -0.307 N 
ATOM     99  C   UNL A   1      33.891  19.304  24.326  1.00  0.00     0.136 A 
ATOM    100  C   UNL A   1      32.738  17.701  22.874  1.00  0.00     0.093 A 
ATOM    101  C   UNL A   1      34.762  18.263  24.746  1.00  0.00     0.048 A 
ATOM    102  C   UNL A   1      33.507  16.700  23.338  1.00  0.00     0.018 A 
ATOM    103  C   UNL A   1      34.568  17.012  24.287  1.00  0.00     0.005 A 
ENDBRANCH  94  95
ENDBRANCH  86  94
ENDBRANCH  84  86
ENDBRANCH  83  84
ENDBRANCH  82  83
ENDBRANCH  81  82
ENDBRANCH  80  81
ENDBRANCH  79  80
ENDBRANCH  78  79
ENDBRANCH  77  78
ENDBRANCH   1  77
TORSDOF 25
ENDMDL
MODEL 2
REMARK VINA RESULT:      -8.6      8.900     14.743
REMARK SMILES O=C(OCCOCCOCCOCCOC(=O)[C@@]1(Cc2cn3ccccc3n2)CCC[NH2+]C1)c1ccc(-c2c3nc(c(-c4c(F)cc(S(=O)(=O)[O-])cc4F)c4ccc([nH]4)c(-c4c(F)cc(S(=O)(=O)[O-])cc4F)c4nc(c(-c5c(F)cc(S(=O)(=O)[O-])cc5F)c5ccc2[nH]5)C=C4)C=C3)cc1
REMARK SMILES IDX 8 1 7 2 6 3 5 4 4 5 3 6 2 7 1 8 34 9 35 10 99 11 36 12 98 13
REMARK SMILES IDX 37 14 38 15 39 16 92 17 40 18 97 19 91 20 93 21 41 22 96 23
REMARK SMILES IDX 90 24 89 25 42 27 76 28 55 29 75 30 56 31 59 32 74 33 94 34
REMARK SMILES IDX 57 35 58 36 73 38 95 39 60 40 43 41 44 42 53 43 45 44 46 45
REMARK SMILES IDX 52 46 54 47 47 48 48 49 49 50 50 51 51 52 77 53 78 54 87 55
REMARK SMILES IDX 79 56 80 57 86 58 88 59 81 60 82 61 83 62 84 63 85 64 61 65
REMARK SMILES IDX 62 66 71 67 63 68 64 69 70 70 72 71 65 72 66 73 67 74 68 75
REMARK SMILES IDX 69 76 9 77 10 78 11 79 12 80 13 81 14 82 15 83 16 84 17 85
REMARK SMILES IDX 18 86 29 87 33 88 30 89 32 90 31 91 19 94 20 95 21 96 28 97
REMARK SMILES IDX 22 98 27 99 23 100 26 101 24 102 25 103
REMARK H PARENT 93 26 59 37 32 92 32 93
REMARK Flexibility Score: inf
ROOT
ATOM      1  C   UNL A   1      44.666  26.252  40.472  1.00  0.00     0.188 C 
ENDROOT
BRANCH   1   2
ATOM      2  C   UNL A   1      45.903  27.049  40.875  1.00  0.00     0.188 C 
BRANCH   2   3
ATOM      3  O   UNL A   1      45.744  28.444  40.633  1.00  0.00    -0.376 OA
BRANCH   3   4
ATOM      4  C   UNL A   1      46.809  29.148  39.994  1.00  0.00     0.202 C 
BRANCH   4   5
ATOM      5  C   UNL A   1      47.879  28.304  39.309  1.00  0.00     0.261 C 
BRANCH   5   6
ATOM      6  O   UNL A   1      48.511  28.914  38.178  1.00  0.00    -0.460 OA
BRANCH   6   7
ATOM      7  C   UNL A   1      48.334  28.707  36.853  1.00  0.00     0.338 C 
ATOM      8  O   UNL A   1      49.313  28.331  36.206  1.00  0.00    -0.246 OA
BRANCH   7   9
ATOM      9  C   UNL A   1      47.071  28.968  36.096  1.00  0.00     0.060 A 
ATOM     10  C   UNL A   1      46.887  29.946  35.119  1.00  0.00     0.016 A 
ATOM     11  C   UNL A   1      46.002  28.090  36.342  1.00  0.00     0.016 A 
ATOM     12  C   UNL A   1      45.728  30.048  34.377  1.00  0.00     0.010 A 
ATOM     13  C   UNL A   1      44.793  28.224  35.660  1.00  0.00     0.010 A 
ATOM     14  C   UNL A   1      44.662  29.226  34.693  1.00  0.00    -0.014 A 
BRANCH  14  15
ATOM     15  C   UNL A   1      43.352  29.688  34.241  1.00  0.00     0.031 A 
ATOM     16  C   UNL A   1      42.794  28.995  33.041  1.00  0.00     0.074 A 
ATOM     17  C   UNL A   1      42.646  30.549  34.987  1.00  0.00     0.049 A 
ATOM     18  N   UNL A   1      41.772  29.309  32.304  1.00  0.00    -0.248 NA
ATOM     19  C   UNL A   1      43.491  27.765  32.616  1.00  0.00     0.031 C 
ATOM     20  C   UNL A   1      43.052  31.061  36.297  1.00  0.00     0.029 A 
ATOM     21  N   UNL A   1      41.438  31.135  34.751  1.00  0.00    -0.354 N 
ATOM     22  C   UNL A   1      41.751  28.363  31.287  1.00  0.00     0.074 A 
ATOM     23  C   UNL A   1      42.836  27.443  31.515  1.00  0.00     0.031 C 
ATOM     24  C   UNL A   1      42.119  31.923  36.733  1.00  0.00     0.029 A 
ATOM     25  C   UNL A   1      41.115  32.084  35.688  1.00  0.00     0.049 A 
ATOM     26  H   UNL A   1      40.858  30.902  33.989  1.00  0.00     0.167 HD
ATOM     27  C   UNL A   1      40.905  28.319  30.234  1.00  0.00     0.037 A 
ATOM     28  C   UNL A   1      40.162  33.031  35.636  1.00  0.00     0.037 A 
ATOM     29  C   UNL A   1      39.858  29.289  30.079  1.00  0.00     0.049 A 
ATOM     30  C   UNL A   1      39.298  33.053  34.405  1.00  0.00     0.074 A 
ATOM     31  C   UNL A   1      38.967  29.453  29.040  1.00  0.00     0.029 A 
ATOM     32  N   UNL A   1      39.578  30.278  31.020  1.00  0.00    -0.354 N 
ATOM     33  N   UNL A   1      39.340  32.252  33.361  1.00  0.00    -0.248 NA
ATOM     34  C   UNL A   1      38.278  34.100  34.321  1.00  0.00     0.031 C 
ATOM     35  C   UNL A   1      38.186  30.578  29.329  1.00  0.00     0.029 A 
ATOM     36  C   UNL A   1      38.539  31.072  30.580  1.00  0.00     0.049 A 
ATOM     37  H   UNL A   1      40.053  30.395  31.874  1.00  0.00     0.167 HD
ATOM     38  C   UNL A   1      38.333  32.676  32.508  1.00  0.00     0.074 A 
ATOM     39  C   UNL A   1      37.703  33.814  33.159  1.00  0.00     0.031 C 
ATOM     40  C   UNL A   1      37.951  32.177  31.305  1.00  0.00     0.037 A 
BRANCH  27  41
ATOM     41  C   UNL A   1      41.199  27.302  29.167  1.00  0.00     0.058 A 
ATOM     42  C   UNL A   1      40.422  26.146  28.986  1.00  0.00     0.135 A 
ATOM     43  C   UNL A   1      42.357  27.436  28.383  1.00  0.00     0.135 A 
ATOM     44  F   UNL A   1      39.328  25.940  29.737  1.00  0.00    -0.206 F 
ATOM     45  C   UNL A   1      40.809  25.137  28.106  1.00  0.00     0.059 A 
ATOM     46  C   UNL A   1      42.747  26.455  27.476  1.00  0.00     0.059 A 
ATOM     47  F   UNL A   1      43.153  28.507  28.529  1.00  0.00    -0.206 F 
ATOM     48  C   UNL A   1      41.980  25.298  27.363  1.00  0.00     0.060 A 
BRANCH  48  49
ATOM     49  S   UNL A   1      42.499  23.958  26.270  1.00  0.00     0.124 S 
ATOM     50  O   UNL A   1      43.583  23.356  27.037  1.00  0.00    -0.237 OA
ATOM     51  O   UNL A   1      41.285  23.163  26.150  1.00  0.00    -0.237 OA
ATOM     52  O   UNL A   1      42.909  24.657  25.048  1.00  0.00    -0.744 OA
ENDBRANCH  48  49
ENDBRANCH  27  41
BRANCH  28  53
ATOM     53  C   UNL A   1      40.067  34.040  36.723  1.00  0.00     0.058 A 
ATOM     54  C   UNL A   1      40.827  35.216  36.698  1.00  0.00     0.135 A 
ATOM     55  C   UNL A   1      39.143  33.886  37.775  1.00  0.00     0.135 A 
ATOM     56  F   UNL A   1      41.724  35.414  35.720  1.00  0.00    -0.206 F 
ATOM     57  C   UNL A   1      40.672  36.206  37.667  1.00  0.00     0.059 A 
ATOM     58  C   UNL A   1      38.952  34.871  38.739  1.00  0.00     0.059 A 
ATOM     59  F   UNL A   1      38.378  32.785  37.843  1.00  0.00    -0.206 F 
ATOM     60  C   UNL A   1      39.723  36.029  38.677  1.00  0.00     0.060 A 
BRANCH  60  61
ATOM     61  S   UNL A   1      39.480  37.354  39.882  1.00  0.00     0.124 S 
ATOM     62  O   UNL A   1      39.195  36.599  41.096  1.00  0.00    -0.237 OA
ATOM     63  O   UNL A   1      40.767  38.040  39.843  1.00  0.00    -0.237 OA
ATOM     64  O   UNL A   1      38.358  38.109  39.330  1.00  0.00    -0.744 OA
ENDBRANCH  60  61
ENDBRANCH  28  53
BRANCH  40  65
ATOM     65  C   UNL A   1      36.758  32.808  30.656  1.00  0.00     0.058 A 
ATOM     66  C   UNL A   1      35.457  32.571  31.117  1.00  0.00     0.135 A 
ATOM     67  C   UNL A   1      36.951  33.774  29.655  1.00  0.00     0.135 A 
ATOM     68  F   UNL A   1      35.230  31.649  32.066  1.00  0.00    -0.206 F 
ATOM     69  C   UNL A   1      34.378  33.283  30.609  1.00  0.00     0.059 A 
ATOM     70  C   UNL A   1      35.892  34.519  29.158  1.00  0.00     0.059 A 
ATOM     71  F   UNL A   1      38.185  34.037  29.198  1.00  0.00    -0.206 F 
ATOM     72  C   UNL A   1      34.610  34.266  29.644  1.00  0.00     0.060 A 
BRANCH  72  73
ATOM     73  S   UNL A   1      33.216  35.256  29.073  1.00  0.00     0.124 S 
ATOM     74  O   UNL A   1      33.893  36.424  28.520  1.00  0.00    -0.237 OA
ATOM     75  O   UNL A   1      32.583  34.369  28.102  1.00  0.00    -0.237 OA
ATOM     76  O   UNL A   1      32.447  35.494  30.291  1.00  0.00    -0.744 OA
ENDBRANCH  72  73
ENDBRANCH  40  65
ENDBRANCH  14  15
ENDBRANCH   7   9
ENDBRANCH   6   7
ENDBRANCH   5   6
ENDBRANCH   4   5
ENDBRANCH   3   4
ENDBRANCH   2   3
ENDBRANCH   1   2
BRANCH   1  77
ATOM     77  O   UNL A   1      44.613  25.804  39.134  1.00  0.00    -0.377 OA
BRANCH  77  78
ATOM     78  C   UNL A   1      45.249  24.574  38.858  1.00  0.00     0.188 C 
BRANCH  78  79
ATOM     79  C   UNL A   1      46.368  24.475  37.794  1.00  0.00     0.188 C 
BRANCH  79  80
ATOM     80  O   UNL A   1      46.226  23.492  36.806  1.00  0.00    -0.376 OA
BRANCH  80  81
ATOM     81  C   UNL A   1      46.899  22.257  36.962  1.00  0.00     0.202 C 
BRANCH  81  82
ATOM     82  C   UNL A   1      46.227  20.890  37.259  1.00  0.00     0.261 C 
BRANCH  82  83
ATOM     83  O   UNL A   1      47.017  19.686  37.318  1.00  0.00    -0.463 OA
BRANCH  83  84
ATOM     84  C   UNL A   1      47.744  19.435  38.442  1.00  0.00     0.318 C 
ATOM     85  O   UNL A   1      48.925  19.745  38.533  1.00  0.00    -0.251 OA
BRANCH  84  86
ATOM     86  C   UNL A   1      46.905  18.779  39.600  1.00  0.00     0.122 C 
ATOM     87  C   UNL A   1      47.786  17.597  40.101  1.00  0.00     0.031 C 
ATOM     88  C   UNL A   1      46.679  19.759  40.803  1.00  0.00     0.279 C 
ATOM     89  C   UNL A   1      47.559  17.142  41.541  1.00  0.00     0.063 C 
ATOM     90  N   UNL A   1      46.454  19.207  42.145  1.00  0.00    -0.345 N 
ATOM     91  C   UNL A   1      47.528  18.308  42.515  1.00  0.00     0.260 C 
ATOM     92  H   UNL A   1      46.409  19.972  42.819  1.00  0.00     0.346 HD
ATOM     93  H   UNL A   1      45.577  18.686  42.142  1.00  0.00     0.346 HD
BRANCH  86  94
ATOM     94  C   UNL A   1      45.551  18.333  38.958  1.00  0.00     0.082 C 
BRANCH  94  95
ATOM     95  C   UNL A   1      44.858  17.224  39.658  1.00  0.00     0.061 A 
ATOM     96  C   UNL A   1      44.457  16.001  39.153  1.00  0.00     0.116 A 
ATOM     97  N   UNL A   1      44.450  17.371  40.960  1.00  0.00    -0.234 NA
ATOM     98  N   UNL A   1      43.531  15.549  40.052  1.00  0.00    -0.307 N 
ATOM     99  C   UNL A   1      43.633  16.364  41.172  1.00  0.00     0.136 A 
ATOM    100  C   UNL A   1      42.574  14.549  39.910  1.00  0.00     0.093 A 
ATOM    101  C   UNL A   1      42.778  16.071  42.268  1.00  0.00     0.048 A 
ATOM    102  C   UNL A   1      41.708  14.330  40.917  1.00  0.00     0.018 A 
ATOM    103  C   UNL A   1      41.844  15.108  42.141  1.00  0.00     0.005 A 
ENDBRANCH  94  95
ENDBRANCH  86  94
ENDBRANCH  84  86
ENDBRANCH  83  84
ENDBRANCH  82  83
ENDBRANCH  81  82
ENDBRANCH  80  81
ENDBRANCH  79  80
ENDBRANCH  78  79
ENDBRANCH  77  78
ENDBRANCH   1  77
TORSDOF 25
ENDMDL
MODEL 3
REMARK VINA RESULT:      -8.6      6.338     11.683
REMARK SMILES O=C(OCCOCCOCCOCCOC(=O)[C@@]1(Cc2cn3ccccc3n2)CCC[NH2+]C1)c1ccc(-c2c3nc(c(-c4c(F)cc(S(=O)(=O)[O-])cc4F)c4ccc([nH]4)c(-c4c(F)cc(S(=O)(=O)[O-])cc4F)c4nc(c(-c5c(F)cc(S(=O)(=O)[O-])cc5F)c5ccc2[nH]5)C=C4)C=C3)cc1
REMARK SMILES IDX 8 1 7 2 6 3 5 4 4 5 3 6 2 7 1 8 34 9 35 10 99 11 36 12 98 13
REMARK SMILES IDX 37 14 38 15 39 16 92 17 40 18 97 19 91 20 93 21 41 22 96 23
REMARK SMILES IDX 90 24 89 25 42 27 76 28 55 29 75 30 56 31 59 32 74 33 94 34
REMARK SMILES IDX 57 35 58 36 73 38 95 39 60 40 43 41 44 42 53 43 45 44 46 45
REMARK SMILES IDX 52 46 54 47 47 48 48 49 49 50 50 51 51 52 77 53 78 54 87 55
REMARK SMILES IDX 79 56 80 57 86 58 88 59 81 60 82 61 83 62 84 63 85 64 61 65
REMARK SMILES IDX 62 66 71 67 63 68 64 69 70 70 72 71 65 72 66 73 67 74 68 75
REMARK SMILES IDX 69 76 9 77 10 78 11 79 12 80 13 81 14 82 15 83 16 84 17 85
REMARK SMILES IDX 18 86 29 87 33 88 30 89 32 90 31 91 19 94 20 95 21 96 28 97
REMARK SMILES IDX 22 98 27 99 23 100 26 101 24 102 25 103
REMARK H PARENT 93 26 59 37 32 92 32 93
REMARK Flexibility Score: inf
ROOT
ATOM      1  C   UNL A   1      42.545  27.328  26.077  1.00  0.00     0.188 C 
ENDROOT
BRANCH   1   2
ATOM      2  C   UNL A   1      43.896  27.947  25.733  1.00  0.00     0.188 C 
BRANCH   2   3
ATOM      3  O   UNL A   1      44.683  27.092  24.909  1.00  0.00    -0.376 OA
BRANCH   3   4
ATOM      4  C   UNL A   1      45.731  26.337  25.517  1.00  0.00     0.202 C 
BRANCH   4   5
ATOM      5  C   UNL A   1      45.388  24.921  25.967  1.00  0.00     0.261 C 
BRANCH   5   6
ATOM      6  O   UNL A   1      45.272  24.738  27.383  1.00  0.00    -0.460 OA
BRANCH   6   7
ATOM      7  C   UNL A   1      45.832  25.422  28.407  1.00  0.00     0.338 C 
ATOM      8  O   UNL A   1      47.019  25.194  28.653  1.00  0.00    -0.246 OA
BRANCH   7   9
ATOM      9  C   UNL A   1      45.113  26.371  29.312  1.00  0.00     0.060 A 
ATOM     10  C   UNL A   1      45.312  27.750  29.380  1.00  0.00     0.016 A 
ATOM     11  C   UNL A   1      44.088  25.825  30.102  1.00  0.00     0.016 A 
ATOM     12  C   UNL A   1      44.525  28.577  30.154  1.00  0.00     0.010 A 
ATOM     13  C   UNL A   1      43.331  26.632  30.951  1.00  0.00     0.010 A 
ATOM     14  C   UNL A   1      43.577  28.008  30.984  1.00  0.00    -0.014 A 
BRANCH  14  15
ATOM     15  C   UNL A   1      43.134  28.839  32.101  1.00  0.00     0.031 A 
ATOM     16  C   UNL A   1      41.824  29.535  31.918  1.00  0.00     0.074 A 
ATOM     17  C   UNL A   1      43.793  28.809  33.268  1.00  0.00     0.049 A 
ATOM     18  N   UNL A   1      41.279  30.474  32.629  1.00  0.00    -0.248 NA
ATOM     19  C   UNL A   1      41.012  29.101  30.764  1.00  0.00     0.031 C 
ATOM     20  C   UNL A   1      44.938  27.948  33.568  1.00  0.00     0.029 A 
ATOM     21  N   UNL A   1      43.585  29.514  34.416  1.00  0.00    -0.354 N 
ATOM     22  C   UNL A   1      40.100  30.796  31.968  1.00  0.00     0.074 A 
ATOM     23  C   UNL A   1      39.988  29.933  30.819  1.00  0.00     0.031 C 
ATOM     24  C   UNL A   1      45.360  28.209  34.816  1.00  0.00     0.029 A 
ATOM     25  C   UNL A   1      44.572  29.314  35.348  1.00  0.00     0.049 A 
ATOM     26  H   UNL A   1      42.810  30.104  34.560  1.00  0.00     0.167 HD
ATOM     27  C   UNL A   1      39.223  31.770  32.294  1.00  0.00     0.037 A 
ATOM     28  C   UNL A   1      44.842  30.025  36.457  1.00  0.00     0.037 A 
ATOM     29  C   UNL A   1      39.423  32.593  33.453  1.00  0.00     0.049 A 
ATOM     30  C   UNL A   1      43.932  31.186  36.753  1.00  0.00     0.074 A 
ATOM     31  C   UNL A   1      38.693  33.677  33.890  1.00  0.00     0.029 A 
ATOM     32  N   UNL A   1      40.463  32.406  34.363  1.00  0.00    -0.354 N 
ATOM     33  N   UNL A   1      42.884  31.599  36.072  1.00  0.00    -0.248 NA
ATOM     34  C   UNL A   1      44.235  31.988  37.940  1.00  0.00     0.031 C 
ATOM     35  C   UNL A   1      39.326  34.179  35.033  1.00  0.00     0.029 A 
ATOM     36  C   UNL A   1      40.408  33.365  35.351  1.00  0.00     0.049 A 
ATOM     37  H   UNL A   1      41.139  31.692  34.307  1.00  0.00     0.167 HD
ATOM     38  C   UNL A   1      42.381  32.691  36.761  1.00  0.00     0.074 A 
ATOM     39  C   UNL A   1      43.249  32.877  37.913  1.00  0.00     0.031 C 
ATOM     40  C   UNL A   1      41.302  33.467  36.484  1.00  0.00     0.037 A 
BRANCH  27  41
ATOM     41  C   UNL A   1      38.116  32.044  31.317  1.00  0.00     0.058 A 
ATOM     42  C   UNL A   1      38.195  33.055  30.344  1.00  0.00     0.135 A 
ATOM     43  C   UNL A   1      36.899  31.352  31.434  1.00  0.00     0.135 A 
ATOM     44  F   UNL A   1      39.317  33.783  30.213  1.00  0.00    -0.206 F 
ATOM     45  C   UNL A   1      37.096  33.404  29.563  1.00  0.00     0.059 A 
ATOM     46  C   UNL A   1      35.797  31.662  30.644  1.00  0.00     0.059 A 
ATOM     47  F   UNL A   1      36.755  30.392  32.362  1.00  0.00    -0.206 F 
ATOM     48  C   UNL A   1      35.898  32.707  29.728  1.00  0.00     0.060 A 
BRANCH  48  49
ATOM     49  S   UNL A   1      34.466  33.207  28.748  1.00  0.00     0.124 S 
ATOM     50  O   UNL A   1      35.099  33.928  27.651  1.00  0.00    -0.237 OA
ATOM     51  O   UNL A   1      33.859  31.929  28.404  1.00  0.00    -0.237 OA
ATOM     52  O   UNL A   1      33.692  34.035  29.678  1.00  0.00    -0.744 OA
ENDBRANCH  48  49
ENDBRANCH  27  41
BRANCH  28  53
ATOM     53  C   UNL A   1      46.045  29.698  37.266  1.00  0.00     0.058 A 
ATOM     54  C   UNL A   1      46.018  28.694  38.243  1.00  0.00     0.135 A 
ATOM     55  C   UNL A   1      47.278  30.330  37.018  1.00  0.00     0.135 A 
ATOM     56  F   UNL A   1      44.869  28.062  38.523  1.00  0.00    -0.206 F 
ATOM     57  C   UNL A   1      47.167  28.322  38.938  1.00  0.00     0.059 A 
ATOM     58  C   UNL A   1      48.444  29.957  37.680  1.00  0.00     0.059 A 
ATOM     59  F   UNL A   1      47.366  31.289  36.083  1.00  0.00    -0.206 F 
ATOM     60  C   UNL A   1      48.378  28.953  38.641  1.00  0.00     0.060 A 
BRANCH  60  61
ATOM     61  S   UNL A   1      49.873  28.407  39.497  1.00  0.00     0.124 S 
ATOM     62  O   UNL A   1      50.778  29.523  39.249  1.00  0.00    -0.237 OA
ATOM     63  O   UNL A   1      49.402  28.258  40.869  1.00  0.00    -0.237 OA
ATOM     64  O   UNL A   1      50.213  27.159  38.819  1.00  0.00    -0.744 OA
ENDBRANCH  60  61
ENDBRANCH  28  53
BRANCH  40  65
ATOM     65  C   UNL A   1      40.960  34.534  37.478  1.00  0.00     0.058 A 
ATOM     66  C   UNL A   1      41.478  35.831  37.373  1.00  0.00     0.135 A 
ATOM     67  C   UNL A   1      39.985  34.277  38.454  1.00  0.00     0.135 A 
ATOM     68  F   UNL A   1      42.419  36.115  36.458  1.00  0.00    -0.206 F 
ATOM     69  C   UNL A   1      41.030  36.848  38.205  1.00  0.00     0.059 A 
ATOM     70  C   UNL A   1      39.500  35.285  39.274  1.00  0.00     0.059 A 
ATOM     71  F   UNL A   1      39.456  33.048  38.575  1.00  0.00    -0.206 F 
ATOM     72  C   UNL A   1      40.029  36.568  39.139  1.00  0.00     0.060 A 
BRANCH  72  73
ATOM     73  S   UNL A   1      39.381  37.921  40.138  1.00  0.00     0.124 S 
ATOM     74  O   UNL A   1      38.151  38.249  39.425  1.00  0.00    -0.237 OA
ATOM     75  O   UNL A   1      39.210  37.289  41.443  1.00  0.00    -0.237 OA
ATOM     76  O   UNL A   1      40.435  38.929  40.070  1.00  0.00    -0.744 OA
ENDBRANCH  72  73
ENDBRANCH  40  65
ENDBRANCH  14  15
ENDBRANCH   7   9
ENDBRANCH   6   7
ENDBRANCH   5   6
ENDBRANCH   4   5
ENDBRANCH   3   4
ENDBRANCH   2   3
ENDBRANCH   1   2
BRANCH   1  77
ATOM     77  O   UNL A   1      42.000  26.435  25.129  1.00  0.00    -0.377 OA
BRANCH  77  78
ATOM     78  C   UNL A   1      41.647  25.153  25.603  1.00  0.00     0.188 C 
BRANCH  78  79
ATOM     79  C   UNL A   1      41.412  24.897  27.111  1.00  0.00     0.188 C 
BRANCH  79  80
ATOM     80  O   UNL A   1      40.091  24.676  27.523  1.00  0.00    -0.376 OA
BRANCH  80  81
ATOM     81  C   UNL A   1      39.057  24.686  26.557  1.00  0.00     0.202 C 
BRANCH  81  82
ATOM     82  C   UNL A   1      37.932  23.625  26.423  1.00  0.00     0.261 C 
BRANCH  82  83
ATOM     83  O   UNL A   1      36.906  23.773  25.421  1.00  0.00    -0.463 OA
BRANCH  83  84
ATOM     84  C   UNL A   1      36.039  22.744  25.217  1.00  0.00     0.318 C 
ATOM     85  O   UNL A   1      36.348  21.581  25.445  1.00  0.00    -0.251 OA
BRANCH  84  86
ATOM     86  C   UNL A   1      34.616  23.206  24.730  1.00  0.00     0.122 C 
ATOM     87  C   UNL A   1      34.710  23.191  23.175  1.00  0.00     0.031 C 
ATOM     88  C   UNL A   1      33.485  22.209  25.157  1.00  0.00     0.279 C 
ATOM     89  C   UNL A   1      33.396  23.015  22.417  1.00  0.00     0.063 C 
ATOM     90  N   UNL A   1      32.254  22.136  24.359  1.00  0.00    -0.345 N 
ATOM     91  C   UNL A   1      32.562  21.871  22.968  1.00  0.00     0.260 C 
ATOM     92  H   UNL A   1      31.665  21.386  24.721  1.00  0.00     0.346 HD
ATOM     93  H   UNL A   1      31.769  23.030  24.423  1.00  0.00     0.346 HD
BRANCH  86  94
ATOM     94  C   UNL A   1      34.390  24.629  25.337  1.00  0.00     0.082 C 
BRANCH  94  95
ATOM     95  C   UNL A   1      33.466  25.501  24.571  1.00  0.00     0.061 A 
ATOM     96  C   UNL A   1      33.768  26.575  23.756  1.00  0.00     0.116 A 
ATOM     97  N   UNL A   1      32.106  25.345  24.690  1.00  0.00    -0.234 NA
ATOM     98  N   UNL A   1      32.588  27.259  23.643  1.00  0.00    -0.307 N 
ATOM     99  C   UNL A   1      31.596  26.426  24.144  1.00  0.00     0.136 A 
ATOM    100  C   UNL A   1      32.359  28.565  23.221  1.00  0.00     0.093 A 
ATOM    101  C   UNL A   1      30.262  26.913  24.109  1.00  0.00     0.048 A 
ATOM    102  C   UNL A   1      31.107  29.053  23.270  1.00  0.00     0.018 A 
ATOM    103  C   UNL A   1      30.028  28.177  23.706  1.00  0.00     0.005 A 
ENDBRANCH  94  95
ENDBRANCH  86  94
ENDBRANCH  84  86
ENDBRANCH  83  84
ENDBRANCH  82  83
ENDBRANCH  81  82
ENDBRANCH  80  81
ENDBRANCH  79  80
ENDBRANCH  78  79
ENDBRANCH  77  78
ENDBRANCH   1  77
TORSDOF 25
ENDMDL
