MODEL 1
REMARK VINA RESULT:      -8.7      0.000      0.000
REMARK SMILES O=C(OCCOCCOCCOCCOC(=O)c1cc(N2C(=O)[C@H]3[C@@H]4C=C[C@@H]([C@@H]5C[C@H]45)[C@@H]3C2=O)ccc1Cl)c1ccc(-c2c3nc(c(-c4c(F)cc(S(=O)(=O)[O-])cc4F)c4ccc([nH]4)c(-c4c(F)cc(S(=O)(=O)[O-])cc4F)c4nc(c(-c5c(F)cc(S(=O)(=O)[O-])cc5F)c5ccc2[nH]5)C=C4)C=C3)cc1
REMARK SMILES IDX 8 1 7 2 6 3 5 4 4 5 3 6 2 7 1 8 39 9 40 10 104 11 41 12
REMARK SMILES IDX 103 13 42 14 43 15 44 16 97 17 45 18 102 19 96 20 98 21
REMARK SMILES IDX 46 22 101 23 95 24 94 25 47 27 81 28 60 29 80 30 61 31 64 32
REMARK SMILES IDX 79 33 99 34 62 35 63 36 78 38 100 39 65 40 48 41 49 42 58 43
REMARK SMILES IDX 50 44 51 45 57 46 59 47 52 48 53 49 54 50 55 51 56 52 82 53
REMARK SMILES IDX 83 54 92 55 84 56 85 57 91 58 93 59 86 60 87 61 88 62 89 63
REMARK SMILES IDX 90 64 66 65 67 66 76 67 68 68 69 69 75 70 77 71 70 72 71 73
REMARK SMILES IDX 72 74 73 75 74 76 9 77 10 78 11 79 12 80 13 81 14 82 15 83
REMARK SMILES IDX 16 84 17 85 18 86 19 87 37 88 20 89 36 90 38 91 35 92 21 93
REMARK SMILES IDX 22 94 33 95 23 96 24 97 32 98 34 99 25 100 28 101 26 102
REMARK SMILES IDX 31 103 27 104 29 105 30 106
REMARK H PARENT 98 26 64 37
REMARK Flexibility Score: inf
ROOT
ATOM      1  C   UNL A   1      49.838  25.998  25.728  1.00  0.00     0.188 C 
ENDROOT
BRANCH   1   2
ATOM      2  C   UNL A   1      48.985  27.027  24.982  1.00  0.00     0.188 C 
BRANCH   2   3
ATOM      3  O   UNL A   1      47.789  26.431  24.497  1.00  0.00    -0.376 OA
BRANCH   3   4
ATOM      4  C   UNL A   1      46.568  27.154  24.572  1.00  0.00     0.202 C 
BRANCH   4   5
ATOM      5  C   UNL A   1      45.388  26.421  25.202  1.00  0.00     0.261 C 
BRANCH   5   6
ATOM      6  O   UNL A   1      44.127  27.099  25.097  1.00  0.00    -0.460 OA
BRANCH   6   7
ATOM      7  C   UNL A   1      42.954  26.851  25.724  1.00  0.00     0.338 C 
ATOM      8  O   UNL A   1      42.170  26.062  25.197  1.00  0.00    -0.246 OA
BRANCH   7   9
ATOM      9  C   UNL A   1      42.541  27.473  27.015  1.00  0.00     0.060 A 
ATOM     10  C   UNL A   1      41.801  26.839  28.007  1.00  0.00     0.016 A 
ATOM     11  C   UNL A   1      43.062  28.743  27.306  1.00  0.00     0.016 A 
ATOM     12  C   UNL A   1      41.510  27.441  29.215  1.00  0.00     0.010 A 
ATOM     13  C   UNL A   1      42.827  29.345  28.546  1.00  0.00     0.010 A 
ATOM     14  C   UNL A   1      42.035  28.689  29.496  1.00  0.00    -0.014 A 
BRANCH  14  15
ATOM     15  C   UNL A   1      41.630  29.313  30.760  1.00  0.00     0.031 A 
ATOM     16  C   UNL A   1      40.374  30.119  30.755  1.00  0.00     0.074 A 
ATOM     17  C   UNL A   1      42.307  29.030  31.888  1.00  0.00     0.049 A 
ATOM     18  N   UNL A   1      39.869  30.858  31.698  1.00  0.00    -0.248 NA
ATOM     19  C   UNL A   1      39.566  30.077  29.520  1.00  0.00     0.031 C 
ATOM     20  C   UNL A   1      43.448  28.109  31.983  1.00  0.00     0.029 A 
ATOM     21  N   UNL A   1      42.132  29.469  33.171  1.00  0.00    -0.354 N 
ATOM     22  C   UNL A   1      38.722  31.417  31.155  1.00  0.00     0.074 A 
ATOM     23  C   UNL A   1      38.582  30.913  29.809  1.00  0.00     0.031 C 
ATOM     24  C   UNL A   1      43.872  28.064  33.256  1.00  0.00     0.029 A 
ATOM     25  C   UNL A   1      43.099  29.017  34.039  1.00  0.00     0.049 A 
ATOM     26  H   UNL A   1      41.388  30.052  33.447  1.00  0.00     0.167 HD
ATOM     27  C   UNL A   1      37.886  32.298  31.741  1.00  0.00     0.037 A 
ATOM     28  C   UNL A   1      43.363  29.401  35.302  1.00  0.00     0.037 A 
ATOM     29  C   UNL A   1      38.065  32.750  33.092  1.00  0.00     0.049 A 
ATOM     30  C   UNL A   1      42.475  30.465  35.893  1.00  0.00     0.074 A 
ATOM     31  C   UNL A   1      37.308  33.655  33.806  1.00  0.00     0.029 A 
ATOM     32  N   UNL A   1      39.091  32.325  33.929  1.00  0.00    -0.354 N 
ATOM     33  N   UNL A   1      41.410  31.031  35.369  1.00  0.00    -0.248 NA
ATOM     34  C   UNL A   1      42.828  30.964  37.226  1.00  0.00     0.031 C 
ATOM     35  C   UNL A   1      37.915  33.829  35.053  1.00  0.00     0.029 A 
ATOM     36  C   UNL A   1      39.013  32.984  35.140  1.00  0.00     0.049 A 
ATOM     37  H   UNL A   1      39.771  31.655  33.694  1.00  0.00     0.167 HD
ATOM     38  C   UNL A   1      40.964  31.948  36.310  1.00  0.00     0.074 A 
ATOM     39  C   UNL A   1      41.854  31.836  37.450  1.00  0.00     0.031 C 
ATOM     40  C   UNL A   1      39.925  32.818  36.245  1.00  0.00     0.037 A 
BRANCH  27  41
ATOM     41  C   UNL A   1      36.788  32.886  30.909  1.00  0.00     0.058 A 
ATOM     42  C   UNL A   1      36.993  33.971  30.044  1.00  0.00     0.135 A 
ATOM     43  C   UNL A   1      35.503  32.325  30.967  1.00  0.00     0.135 A 
ATOM     44  F   UNL A   1      38.191  34.575  29.986  1.00  0.00    -0.206 F 
ATOM     45  C   UNL A   1      35.963  34.470  29.255  1.00  0.00     0.059 A 
ATOM     46  C   UNL A   1      34.464  32.792  30.170  1.00  0.00     0.059 A 
ATOM     47  F   UNL A   1      35.247  31.306  31.804  1.00  0.00    -0.206 F 
ATOM     48  C   UNL A   1      34.704  33.865  29.315  1.00  0.00     0.060 A 
BRANCH  48  49
ATOM     49  S   UNL A   1      33.398  34.481  28.233  1.00  0.00     0.124 S 
ATOM     50  O   UNL A   1      32.574  35.240  29.169  1.00  0.00    -0.237 OA
ATOM     51  O   UNL A   1      34.149  35.274  27.264  1.00  0.00    -0.237 OA
ATOM     52  O   UNL A   1      32.790  33.264  27.706  1.00  0.00    -0.744 OA
ENDBRANCH  48  49
ENDBRANCH  27  41
BRANCH  28  53
ATOM     53  C   UNL A   1      44.558  28.886  36.029  1.00  0.00     0.058 A 
ATOM     54  C   UNL A   1      45.822  29.476  35.877  1.00  0.00     0.135 A 
ATOM     55  C   UNL A   1      44.472  27.752  36.856  1.00  0.00     0.135 A 
ATOM     56  F   UNL A   1      45.966  30.559  35.098  1.00  0.00    -0.206 F 
ATOM     57  C   UNL A   1      46.957  28.941  36.480  1.00  0.00     0.059 A 
ATOM     58  C   UNL A   1      45.585  27.220  37.498  1.00  0.00     0.059 A 
ATOM     59  F   UNL A   1      43.289  27.147  37.051  1.00  0.00    -0.206 F 
ATOM     60  C   UNL A   1      46.829  27.805  37.283  1.00  0.00     0.060 A 
BRANCH  60  61
ATOM     61  S   UNL A   1      48.309  27.100  38.039  1.00  0.00     0.124 S 
ATOM     62  O   UNL A   1      47.931  25.696  38.166  1.00  0.00    -0.237 OA
ATOM     63  O   UNL A   1      49.334  27.398  37.043  1.00  0.00    -0.237 OA
ATOM     64  O   UNL A   1      48.430  27.836  39.293  1.00  0.00    -0.744 OA
ENDBRANCH  60  61
ENDBRANCH  28  53
BRANCH  40  65
ATOM     65  C   UNL A   1      39.695  33.691  37.441  1.00  0.00     0.058 A 
ATOM     66  C   UNL A   1      38.826  33.300  38.470  1.00  0.00     0.135 A 
ATOM     67  C   UNL A   1      40.422  34.881  37.598  1.00  0.00     0.135 A 
ATOM     68  F   UNL A   1      38.104  32.175  38.357  1.00  0.00    -0.206 F 
ATOM     69  C   UNL A   1      38.680  34.069  39.617  1.00  0.00     0.059 A 
ATOM     70  C   UNL A   1      40.316  35.646  38.751  1.00  0.00     0.059 A 
ATOM     71  F   UNL A   1      41.274  35.286  36.641  1.00  0.00    -0.206 F 
ATOM     72  C   UNL A   1      39.439  35.233  39.752  1.00  0.00     0.060 A 
BRANCH  72  73
ATOM     73  S   UNL A   1      39.291  36.182  41.278  1.00  0.00     0.124 S 
ATOM     74  O   UNL A   1      39.353  37.552  40.779  1.00  0.00    -0.237 OA
ATOM     75  O   UNL A   1      37.994  35.750  41.788  1.00  0.00    -0.237 OA
ATOM     76  O   UNL A   1      40.443  35.747  42.062  1.00  0.00    -0.744 OA
ENDBRANCH  72  73
ENDBRANCH  40  65
ENDBRANCH  14  15
ENDBRANCH   7   9
ENDBRANCH   6   7
ENDBRANCH   5   6
ENDBRANCH   4   5
ENDBRANCH   3   4
ENDBRANCH   2   3
ENDBRANCH   1   2
BRANCH   1  77
ATOM     77  O   UNL A   1      49.195  25.340  26.820  1.00  0.00    -0.377 OA
BRANCH  77  78
ATOM     78  C   UNL A   1      49.997  25.104  27.976  1.00  0.00     0.188 C 
BRANCH  78  79
ATOM     79  C   UNL A   1      51.306  25.916  28.163  1.00  0.00     0.188 C 
BRANCH  79  80
ATOM     80  O   UNL A   1      51.521  26.355  29.491  1.00  0.00    -0.376 OA
BRANCH  80  81
ATOM     81  C   UNL A   1      50.615  25.888  30.483  1.00  0.00     0.202 C 
BRANCH  81  82
ATOM     82  C   UNL A   1      51.099  25.699  31.937  1.00  0.00     0.261 C 
BRANCH  82  83
ATOM     83  O   UNL A   1      51.878  24.521  32.213  1.00  0.00    -0.460 OA
BRANCH  83  84
ATOM     84  C   UNL A   1      52.299  24.282  33.480  1.00  0.00     0.339 C 
ATOM     85  O   UNL A   1      52.456  25.087  34.364  1.00  0.00    -0.246 OA
BRANCH  84  86
ATOM     86  C   UNL A   1      52.285  22.808  33.682  1.00  0.00     0.080 A 
ATOM     87  C   UNL A   1      51.163  22.250  34.341  1.00  0.00     0.044 A 
ATOM     88  C   UNL A   1      53.257  21.972  33.119  1.00  0.00     0.055 A 
ATOM     89  C   UNL A   1      50.997  20.863  34.378  1.00  0.00     0.053 A 
ATOM     90  C   UNL A   1      53.109  20.584  33.210  1.00  0.00     0.023 A 
ATOM     91  Cl  UNL A   1      54.654  22.570  32.301  1.00  0.00    -0.083 Cl
ATOM     92  C   UNL A   1      51.983  20.033  33.826  1.00  0.00     0.028 A 
BRANCH  89  93
ATOM     93  N   UNL A   1      49.815  20.270  34.880  1.00  0.00    -0.250 N 
ATOM     94  C   UNL A   1      49.383  20.514  36.203  1.00  0.00     0.238 C 
ATOM     95  C   UNL A   1      48.719  20.038  34.021  1.00  0.00     0.238 C 
ATOM     96  O   UNL A   1      49.981  21.016  37.136  1.00  0.00    -0.274 OA
ATOM     97  C   UNL A   1      47.969  20.020  36.216  1.00  0.00     0.100 C 
ATOM     98  C   UNL A   1      47.566  20.534  34.831  1.00  0.00     0.100 C 
ATOM     99  O   UNL A   1      48.707  19.762  32.835  1.00  0.00    -0.274 OA
ATOM    100  C   UNL A   1      46.820  20.280  37.210  1.00  0.00     0.028 C 
ATOM    101  C   UNL A   1      46.048  20.543  34.715  1.00  0.00     0.028 C 
ATOM    102  C   UNL A   1      45.800  19.214  36.738  1.00  0.00    -0.026 C 
ATOM    103  C   UNL A   1      46.071  21.613  37.032  1.00  0.00     0.001 C 
ATOM    104  C   UNL A   1      45.451  19.325  35.434  1.00  0.00    -0.026 C 
ATOM    105  C   UNL A   1      45.607  21.787  35.577  1.00  0.00     0.001 C 
ATOM    106  C   UNL A   1      46.512  22.818  36.258  1.00  0.00     0.009 C 
ENDBRANCH  89  93
ENDBRANCH  84  86
ENDBRANCH  83  84
ENDBRANCH  82  83
ENDBRANCH  81  82
ENDBRANCH  80  81
ENDBRANCH  79  80
ENDBRANCH  78  79
ENDBRANCH  77  78
ENDBRANCH   1  77
TORSDOF 24
ENDMDL
MODEL 2
REMARK VINA RESULT:      -8.7      4.176      7.825
REMARK SMILES O=C(OCCOCCOCCOCCOC(=O)c1cc(N2C(=O)[C@H]3[C@@H]4C=C[C@@H]([C@@H]5C[C@H]45)[C@@H]3C2=O)ccc1Cl)c1ccc(-c2c3nc(c(-c4c(F)cc(S(=O)(=O)[O-])cc4F)c4ccc([nH]4)c(-c4c(F)cc(S(=O)(=O)[O-])cc4F)c4nc(c(-c5c(F)cc(S(=O)(=O)[O-])cc5F)c5ccc2[nH]5)C=C4)C=C3)cc1
REMARK SMILES IDX 8 1 7 2 6 3 5 4 4 5 3 6 2 7 1 8 39 9 40 10 104 11 41 12
REMARK SMILES IDX 103 13 42 14 43 15 44 16 97 17 45 18 102 19 96 20 98 21
REMARK SMILES IDX 46 22 101 23 95 24 94 25 47 27 81 28 60 29 80 30 61 31 64 32
REMARK SMILES IDX 79 33 99 34 62 35 63 36 78 38 100 39 65 40 48 41 49 42 58 43
REMARK SMILES IDX 50 44 51 45 57 46 59 47 52 48 53 49 54 50 55 51 56 52 82 53
REMARK SMILES IDX 83 54 92 55 84 56 85 57 91 58 93 59 86 60 87 61 88 62 89 63
REMARK SMILES IDX 90 64 66 65 67 66 76 67 68 68 69 69 75 70 77 71 70 72 71 73
REMARK SMILES IDX 72 74 73 75 74 76 9 77 10 78 11 79 12 80 13 81 14 82 15 83
REMARK SMILES IDX 16 84 17 85 18 86 19 87 37 88 20 89 36 90 38 91 35 92 21 93
REMARK SMILES IDX 22 94 33 95 23 96 24 97 32 98 34 99 25 100 28 101 26 102
REMARK SMILES IDX 31 103 27 104 29 105 30 106
REMARK H PARENT 98 26 64 37
REMARK Flexibility Score: inf
ROOT
ATOM      1  C   UNL A   1      48.735  28.530  28.002  1.00  0.00     0.188 C 
ENDROOT
BRANCH   1   2
ATOM      2  C   UNL A   1      47.281  28.107  27.772  1.00  0.00     0.188 C 
BRANCH   2   3
ATOM      3  O   UNL A   1      47.211  27.037  26.839  1.00  0.00    -0.376 OA
BRANCH   3   4
ATOM      4  C   UNL A   1      46.158  27.007  25.887  1.00  0.00     0.202 C 
BRANCH   4   5
ATOM      5  C   UNL A   1      45.555  25.638  25.589  1.00  0.00     0.261 C 
BRANCH   5   6
ATOM      6  O   UNL A   1      44.147  25.526  25.849  1.00  0.00    -0.460 OA
BRANCH   6   7
ATOM      7  C   UNL A   1      43.206  26.491  25.963  1.00  0.00     0.338 C 
ATOM      8  O   UNL A   1      42.617  26.850  24.944  1.00  0.00    -0.246 OA
BRANCH   7   9
ATOM      9  C   UNL A   1      42.833  27.156  27.244  1.00  0.00     0.060 A 
ATOM     10  C   UNL A   1      43.224  28.436  27.624  1.00  0.00     0.016 A 
ATOM     11  C   UNL A   1      41.903  26.494  28.059  1.00  0.00     0.016 A 
ATOM     12  C   UNL A   1      42.787  29.030  28.791  1.00  0.00     0.010 A 
ATOM     13  C   UNL A   1      41.405  27.102  29.215  1.00  0.00     0.010 A 
ATOM     14  C   UNL A   1      41.863  28.372  29.584  1.00  0.00    -0.014 A 
BRANCH  14  15
ATOM     15  C   UNL A   1      41.495  29.015  30.850  1.00  0.00     0.031 A 
ATOM     16  C   UNL A   1      40.269  29.865  30.856  1.00  0.00     0.074 A 
ATOM     17  C   UNL A   1      42.176  28.712  31.971  1.00  0.00     0.049 A 
ATOM     18  N   UNL A   1      39.803  30.625  31.802  1.00  0.00    -0.248 NA
ATOM     19  C   UNL A   1      39.446  29.848  29.631  1.00  0.00     0.031 C 
ATOM     20  C   UNL A   1      43.284  27.750  32.056  1.00  0.00     0.029 A 
ATOM     21  N   UNL A   1      42.032  29.161  33.254  1.00  0.00    -0.354 N 
ATOM     22  C   UNL A   1      38.670  31.223  31.270  1.00  0.00     0.074 A 
ATOM     23  C   UNL A   1      38.496  30.720  29.928  1.00  0.00     0.031 C 
ATOM     24  C   UNL A   1      43.721  27.695  33.324  1.00  0.00     0.029 A 
ATOM     25  C   UNL A   1      42.992  28.677  34.112  1.00  0.00     0.049 A 
ATOM     26  H   UNL A   1      41.312  29.771  33.536  1.00  0.00     0.167 HD
ATOM     27  C   UNL A   1      37.874  32.136  31.863  1.00  0.00     0.037 A 
ATOM     28  C   UNL A   1      43.285  29.057  35.371  1.00  0.00     0.037 A 
ATOM     29  C   UNL A   1      38.085  32.586  33.210  1.00  0.00     0.049 A 
ATOM     30  C   UNL A   1      42.443  30.154  35.968  1.00  0.00     0.074 A 
ATOM     31  C   UNL A   1      37.369  33.521  33.929  1.00  0.00     0.029 A 
ATOM     32  N   UNL A   1      39.105  32.128  34.036  1.00  0.00    -0.354 N 
ATOM     33  N   UNL A   1      41.393  30.756  35.454  1.00  0.00    -0.248 NA
ATOM     34  C   UNL A   1      42.830  30.645  37.294  1.00  0.00     0.031 C 
ATOM     35  C   UNL A   1      37.997  33.677  35.168  1.00  0.00     0.029 A 
ATOM     36  C   UNL A   1      39.065  32.793  35.245  1.00  0.00     0.049 A 
ATOM     37  H   UNL A   1      39.758  31.432  33.796  1.00  0.00     0.167 HD
ATOM     38  C   UNL A   1      40.991  31.692  36.397  1.00  0.00     0.074 A 
ATOM     39  C   UNL A   1      41.891  31.552  37.526  1.00  0.00     0.031 C 
ATOM     40  C   UNL A   1      39.984  32.599  36.340  1.00  0.00     0.037 A 
BRANCH  27  41
ATOM     41  C   UNL A   1      36.788  32.761  31.042  1.00  0.00     0.058 A 
ATOM     42  C   UNL A   1      35.442  32.382  31.154  1.00  0.00     0.135 A 
ATOM     43  C   UNL A   1      37.109  33.786  30.137  1.00  0.00     0.135 A 
ATOM     44  F   UNL A   1      35.087  31.376  31.968  1.00  0.00    -0.206 F 
ATOM     45  C   UNL A   1      34.450  33.008  30.407  1.00  0.00     0.059 A 
ATOM     46  C   UNL A   1      36.133  34.442  29.398  1.00  0.00     0.059 A 
ATOM     47  F   UNL A   1      38.388  34.162  29.969  1.00  0.00    -0.206 F 
ATOM     48  C   UNL A   1      34.804  34.047  29.541  1.00  0.00     0.060 A 
BRANCH  48  49
ATOM     49  S   UNL A   1      33.497  34.894  28.631  1.00  0.00     0.124 S 
ATOM     50  O   UNL A   1      34.222  36.022  28.055  1.00  0.00    -0.237 OA
ATOM     51  O   UNL A   1      33.066  33.869  27.684  1.00  0.00    -0.237 OA
ATOM     52  O   UNL A   1      32.526  35.235  29.666  1.00  0.00    -0.744 OA
ENDBRANCH  48  49
ENDBRANCH  27  41
BRANCH  28  53
ATOM     53  C   UNL A   1      44.469  28.502  36.085  1.00  0.00     0.058 A 
ATOM     54  C   UNL A   1      44.358  27.402  36.950  1.00  0.00     0.135 A 
ATOM     55  C   UNL A   1      45.737  29.097  35.959  1.00  0.00     0.135 A 
ATOM     56  F   UNL A   1      43.172  26.796  37.113  1.00  0.00    -0.206 F 
ATOM     57  C   UNL A   1      45.443  26.941  37.691  1.00  0.00     0.059 A 
ATOM     58  C   UNL A   1      46.844  28.631  36.661  1.00  0.00     0.059 A 
ATOM     59  F   UNL A   1      45.913  30.146  35.140  1.00  0.00    -0.206 F 
ATOM     60  C   UNL A   1      46.682  27.569  37.546  1.00  0.00     0.060 A 
BRANCH  60  61
ATOM     61  S   UNL A   1      48.077  26.984  38.531  1.00  0.00     0.124 S 
ATOM     62  O   UNL A   1      48.824  28.219  38.741  1.00  0.00    -0.237 OA
ATOM     63  O   UNL A   1      47.413  26.430  39.707  1.00  0.00    -0.237 OA
ATOM     64  O   UNL A   1      48.715  26.002  37.660  1.00  0.00    -0.744 OA
ENDBRANCH  60  61
ENDBRANCH  28  53
BRANCH  40  65
ATOM     65  C   UNL A   1      39.799  33.484  37.535  1.00  0.00     0.058 A 
ATOM     66  C   UNL A   1      40.517  34.681  37.672  1.00  0.00     0.135 A 
ATOM     67  C   UNL A   1      38.828  33.174  38.500  1.00  0.00     0.135 A 
ATOM     68  F   UNL A   1      41.462  35.011  36.778  1.00  0.00    -0.206 F 
ATOM     69  C   UNL A   1      40.282  35.542  38.736  1.00  0.00     0.059 A 
ATOM     70  C   UNL A   1      38.554  34.037  39.552  1.00  0.00     0.059 A 
ATOM     71  F   UNL A   1      38.111  32.044  38.400  1.00  0.00    -0.206 F 
ATOM     72  C   UNL A   1      39.290  35.215  39.663  1.00  0.00     0.060 A 
BRANCH  72  73
ATOM     73  S   UNL A   1      38.948  36.378  40.998  1.00  0.00     0.124 S 
ATOM     74  O   UNL A   1      40.265  36.514  41.614  1.00  0.00    -0.237 OA
ATOM     75  O   UNL A   1      38.463  37.548  40.273  1.00  0.00    -0.237 OA
ATOM     76  O   UNL A   1      37.947  35.687  41.803  1.00  0.00    -0.744 OA
ENDBRANCH  72  73
ENDBRANCH  40  65
ENDBRANCH  14  15
ENDBRANCH   7   9
ENDBRANCH   6   7
ENDBRANCH   5   6
ENDBRANCH   4   5
ENDBRANCH   3   4
ENDBRANCH   2   3
ENDBRANCH   1   2
BRANCH   1  77
ATOM     77  O   UNL A   1      49.180  29.649  27.237  1.00  0.00    -0.377 OA
BRANCH  77  78
ATOM     78  C   UNL A   1      48.919  30.937  27.790  1.00  0.00     0.188 C 
BRANCH  78  79
ATOM     79  C   UNL A   1      47.736  31.770  27.232  1.00  0.00     0.188 C 
BRANCH  79  80
ATOM     80  O   UNL A   1      47.089  31.174  26.123  1.00  0.00    -0.376 OA
BRANCH  80  81
ATOM     81  C   UNL A   1      45.667  31.185  26.118  1.00  0.00     0.202 C 
BRANCH  81  82
ATOM     82  C   UNL A   1      44.899  31.696  27.355  1.00  0.00     0.261 C 
BRANCH  82  83
ATOM     83  O   UNL A   1      43.857  32.659  27.119  1.00  0.00    -0.460 OA
BRANCH  83  84
ATOM     84  C   UNL A   1      44.138  33.789  26.424  1.00  0.00     0.339 C 
ATOM     85  O   UNL A   1      43.612  34.176  25.410  1.00  0.00    -0.246 OA
BRANCH  84  86
ATOM     86  C   UNL A   1      45.036  34.620  27.271  1.00  0.00     0.080 A 
ATOM     87  C   UNL A   1      44.688  34.777  28.634  1.00  0.00     0.044 A 
ATOM     88  C   UNL A   1      46.260  35.109  26.797  1.00  0.00     0.055 A 
ATOM     89  C   UNL A   1      45.593  35.370  29.519  1.00  0.00     0.053 A 
ATOM     90  C   UNL A   1      47.135  35.751  27.681  1.00  0.00     0.023 A 
ATOM     91  Cl  UNL A   1      46.760  34.960  25.152  1.00  0.00    -0.083 Cl
ATOM     92  C   UNL A   1      46.808  35.871  29.033  1.00  0.00     0.028 A 
BRANCH  89  93
ATOM     93  N   UNL A   1      45.356  35.399  30.913  1.00  0.00    -0.250 N 
ATOM     94  C   UNL A   1      44.382  36.260  31.468  1.00  0.00     0.238 C 
ATOM     95  C   UNL A   1      45.490  34.222  31.680  1.00  0.00     0.238 C 
ATOM     96  O   UNL A   1      43.798  37.201  30.963  1.00  0.00    -0.274 OA
ATOM     97  C   UNL A   1      44.196  35.742  32.861  1.00  0.00     0.100 C 
ATOM     98  C   UNL A   1      44.261  34.250  32.529  1.00  0.00     0.100 C 
ATOM     99  O   UNL A   1      46.247  33.280  31.530  1.00  0.00    -0.274 OA
ATOM    100  C   UNL A   1      43.072  35.988  33.886  1.00  0.00     0.028 C 
ATOM    101  C   UNL A   1      43.695  33.446  33.691  1.00  0.00     0.028 C 
ATOM    102  C   UNL A   1      43.720  35.387  35.158  1.00  0.00    -0.026 C 
ATOM    103  C   UNL A   1      41.795  35.151  33.690  1.00  0.00     0.001 C 
ATOM    104  C   UNL A   1      44.089  34.090  35.028  1.00  0.00    -0.026 C 
ATOM    105  C   UNL A   1      42.136  33.656  33.577  1.00  0.00     0.001 C 
ATOM    106  C   UNL A   1      41.373  34.390  32.470  1.00  0.00     0.009 C 
ENDBRANCH  89  93
ENDBRANCH  84  86
ENDBRANCH  83  84
ENDBRANCH  82  83
ENDBRANCH  81  82
ENDBRANCH  80  81
ENDBRANCH  79  80
ENDBRANCH  78  79
ENDBRANCH  77  78
ENDBRANCH   1  77
TORSDOF 24
ENDMDL
MODEL 3
REMARK VINA RESULT:      -8.7      3.670      8.300
REMARK SMILES O=C(OCCOCCOCCOCCOC(=O)c1cc(N2C(=O)[C@H]3[C@@H]4C=C[C@@H]([C@@H]5C[C@H]45)[C@@H]3C2=O)ccc1Cl)c1ccc(-c2c3nc(c(-c4c(F)cc(S(=O)(=O)[O-])cc4F)c4ccc([nH]4)c(-c4c(F)cc(S(=O)(=O)[O-])cc4F)c4nc(c(-c5c(F)cc(S(=O)(=O)[O-])cc5F)c5ccc2[nH]5)C=C4)C=C3)cc1
REMARK SMILES IDX 8 1 7 2 6 3 5 4 4 5 3 6 2 7 1 8 39 9 40 10 104 11 41 12
REMARK SMILES IDX 103 13 42 14 43 15 44 16 97 17 45 18 102 19 96 20 98 21
REMARK SMILES IDX 46 22 101 23 95 24 94 25 47 27 81 28 60 29 80 30 61 31 64 32
REMARK SMILES IDX 79 33 99 34 62 35 63 36 78 38 100 39 65 40 48 41 49 42 58 43
REMARK SMILES IDX 50 44 51 45 57 46 59 47 52 48 53 49 54 50 55 51 56 52 82 53
REMARK SMILES IDX 83 54 92 55 84 56 85 57 91 58 93 59 86 60 87 61 88 62 89 63
REMARK SMILES IDX 90 64 66 65 67 66 76 67 68 68 69 69 75 70 77 71 70 72 71 73
REMARK SMILES IDX 72 74 73 75 74 76 9 77 10 78 11 79 12 80 13 81 14 82 15 83
REMARK SMILES IDX 16 84 17 85 18 86 19 87 37 88 20 89 36 90 38 91 35 92 21 93
REMARK SMILES IDX 22 94 33 95 23 96 24 97 32 98 34 99 25 100 28 101 26 102
REMARK SMILES IDX 31 103 27 104 29 105 30 106
REMARK H PARENT 98 26 64 37
REMARK Flexibility Score: inf
ROOT
ATOM      1  C   UNL A   1      46.397  25.312  27.699  1.00  0.00     0.188 C 
ENDROOT
BRANCH   1   2
ATOM      2  C   UNL A   1      46.173  23.799  27.620  1.00  0.00     0.188 C 
BRANCH   2   3
ATOM      3  O   UNL A   1      46.309  23.340  26.281  1.00  0.00    -0.376 OA
BRANCH   3   4
ATOM      4  C   UNL A   1      45.146  23.044  25.522  1.00  0.00     0.202 C 
BRANCH   4   5
ATOM      5  C   UNL A   1      44.319  24.239  25.059  1.00  0.00     0.261 C 
BRANCH   5   6
ATOM      6  O   UNL A   1      43.151  24.511  25.847  1.00  0.00    -0.460 OA
BRANCH   6   7
ATOM      7  C   UNL A   1      42.399  25.633  25.927  1.00  0.00     0.338 C 
ATOM      8  O   UNL A   1      41.864  26.047  24.899  1.00  0.00    -0.246 OA
BRANCH   7   9
ATOM      9  C   UNL A   1      42.175  26.409  27.180  1.00  0.00     0.060 A 
ATOM     10  C   UNL A   1      42.895  27.537  27.562  1.00  0.00     0.016 A 
ATOM     11  C   UNL A   1      41.063  26.057  27.959  1.00  0.00     0.016 A 
ATOM     12  C   UNL A   1      42.595  28.259  28.699  1.00  0.00     0.010 A 
ATOM     13  C   UNL A   1      40.709  26.810  29.082  1.00  0.00     0.010 A 
ATOM     14  C   UNL A   1      41.491  27.909  29.455  1.00  0.00    -0.014 A 
BRANCH  14  15
ATOM     15  C   UNL A   1      41.267  28.661  30.694  1.00  0.00     0.031 A 
ATOM     16  C   UNL A   1      40.113  29.607  30.722  1.00  0.00     0.074 A 
ATOM     17  C   UNL A   1      42.002  28.379  31.785  1.00  0.00     0.049 A 
ATOM     18  N   UNL A   1      39.776  30.463  31.641  1.00  0.00    -0.248 NA
ATOM     19  C   UNL A   1      39.203  29.575  29.560  1.00  0.00     0.031 C 
ATOM     20  C   UNL A   1      43.037  27.338  31.864  1.00  0.00     0.029 A 
ATOM     21  N   UNL A   1      41.987  28.922  33.040  1.00  0.00    -0.354 N 
ATOM     22  C   UNL A   1      38.657  31.114  31.145  1.00  0.00     0.074 A 
ATOM     23  C   UNL A   1      38.347  30.539  29.858  1.00  0.00     0.031 C 
ATOM     24  C   UNL A   1      43.561  27.331  33.100  1.00  0.00     0.029 A 
ATOM     25  C   UNL A   1      42.968  28.420  33.863  1.00  0.00     0.049 A 
ATOM     26  H   UNL A   1      41.339  29.606  33.325  1.00  0.00     0.167 HD
ATOM     27  C   UNL A   1      37.978  32.126  31.723  1.00  0.00     0.037 A 
ATOM     28  C   UNL A   1      43.380  28.856  35.069  1.00  0.00     0.037 A 
ATOM     29  C   UNL A   1      38.321  32.645  33.017  1.00  0.00     0.049 A 
ATOM     30  C   UNL A   1      42.670  30.056  35.641  1.00  0.00     0.074 A 
ATOM     31  C   UNL A   1      37.732  33.680  33.714  1.00  0.00     0.029 A 
ATOM     32  N   UNL A   1      39.360  32.161  33.803  1.00  0.00    -0.354 N 
ATOM     33  N   UNL A   1      41.634  30.706  35.158  1.00  0.00    -0.248 NA
ATOM     34  C   UNL A   1      43.189  30.600  36.900  1.00  0.00     0.031 C 
ATOM     35  C   UNL A   1      38.459  33.867  34.894  1.00  0.00     0.029 A 
ATOM     36  C   UNL A   1      39.460  32.907  34.962  1.00  0.00     0.049 A 
ATOM     37  H   UNL A   1      39.939  31.401  33.570  1.00  0.00     0.167 HD
ATOM     38  C   UNL A   1      41.375  31.731  36.056  1.00  0.00     0.074 A 
ATOM     39  C   UNL A   1      42.342  31.594  37.129  1.00  0.00     0.031 C 
ATOM     40  C   UNL A   1      40.439  32.711  36.003  1.00  0.00     0.037 A 
BRANCH  27  41
ATOM     41  C   UNL A   1      36.886  32.781  30.935  1.00  0.00     0.058 A 
ATOM     42  C   UNL A   1      35.532  32.456  31.103  1.00  0.00     0.135 A 
ATOM     43  C   UNL A   1      37.210  33.781  30.004  1.00  0.00     0.135 A 
ATOM     44  F   UNL A   1      35.170  31.474  31.945  1.00  0.00    -0.206 F 
ATOM     45  C   UNL A   1      34.536  33.110  30.386  1.00  0.00     0.059 A 
ATOM     46  C   UNL A   1      36.232  34.465  29.293  1.00  0.00     0.059 A 
ATOM     47  F   UNL A   1      38.494  34.106  29.782  1.00  0.00    -0.206 F 
ATOM     48  C   UNL A   1      34.896  34.123  29.492  1.00  0.00     0.060 A 
BRANCH  48  49
ATOM     49  S   UNL A   1      33.587  35.007  28.620  1.00  0.00     0.124 S 
ATOM     50  O   UNL A   1      32.743  33.908  28.162  1.00  0.00    -0.237 OA
ATOM     51  O   UNL A   1      33.022  35.842  29.676  1.00  0.00    -0.237 OA
ATOM     52  O   UNL A   1      34.303  35.728  27.571  1.00  0.00    -0.744 OA
ENDBRANCH  48  49
ENDBRANCH  27  41
BRANCH  28  53
ATOM     53  C   UNL A   1      44.567  28.256  35.740  1.00  0.00     0.058 A 
ATOM     54  C   UNL A   1      45.871  28.688  35.453  1.00  0.00     0.135 A 
ATOM     55  C   UNL A   1      44.427  27.192  36.649  1.00  0.00     0.135 A 
ATOM     56  F   UNL A   1      46.068  29.696  34.590  1.00  0.00    -0.206 F 
ATOM     57  C   UNL A   1      46.988  28.066  36.006  1.00  0.00     0.059 A 
ATOM     58  C   UNL A   1      45.524  26.579  37.244  1.00  0.00     0.059 A 
ATOM     59  F   UNL A   1      43.205  26.739  36.975  1.00  0.00    -0.206 F 
ATOM     60  C   UNL A   1      46.803  27.004  36.895  1.00  0.00     0.060 A 
BRANCH  60  61
ATOM     61  S   UNL A   1      48.255  26.184  37.587  1.00  0.00     0.124 S 
ATOM     62  O   UNL A   1      47.802  25.883  38.941  1.00  0.00    -0.237 OA
ATOM     63  O   UNL A   1      48.414  25.038  36.697  1.00  0.00    -0.237 OA
ATOM     64  O   UNL A   1      49.297  27.200  37.483  1.00  0.00    -0.744 OA
ENDBRANCH  60  61
ENDBRANCH  28  53
BRANCH  40  65
ATOM     65  C   UNL A   1      40.410  33.685  37.141  1.00  0.00     0.058 A 
ATOM     66  C   UNL A   1      41.174  34.861  37.113  1.00  0.00     0.135 A 
ATOM     67  C   UNL A   1      39.538  33.482  38.223  1.00  0.00     0.135 A 
ATOM     68  F   UNL A   1      42.027  35.090  36.103  1.00  0.00    -0.206 F 
ATOM     69  C   UNL A   1      41.080  35.803  38.128  1.00  0.00     0.059 A 
ATOM     70  C   UNL A   1      39.405  34.428  39.230  1.00  0.00     0.059 A 
ATOM     71  F   UNL A   1      38.780  32.376  38.283  1.00  0.00    -0.206 F 
ATOM     72  C   UNL A   1      40.184  35.582  39.175  1.00  0.00     0.060 A 
BRANCH  72  73
ATOM     73  S   UNL A   1      40.022  36.849  40.448  1.00  0.00     0.124 S 
ATOM     74  O   UNL A   1      40.676  36.208  41.585  1.00  0.00    -0.237 OA
ATOM     75  O   UNL A   1      40.736  37.976  39.857  1.00  0.00    -0.237 OA
ATOM     76  O   UNL A   1      38.578  37.024  40.572  1.00  0.00    -0.744 OA
ENDBRANCH  72  73
ENDBRANCH  40  65
ENDBRANCH  14  15
ENDBRANCH   7   9
ENDBRANCH   6   7
ENDBRANCH   5   6
ENDBRANCH   4   5
ENDBRANCH   3   4
ENDBRANCH   2   3
ENDBRANCH   1   2
BRANCH   1  77
ATOM     77  O   UNL A   1      47.536  25.727  28.452  1.00  0.00    -0.377 OA
BRANCH  77  78
ATOM     78  C   UNL A   1      47.384  26.919  29.221  1.00  0.00     0.188 C 
BRANCH  78  79
ATOM     79  C   UNL A   1      46.668  28.139  28.586  1.00  0.00     0.188 C 
BRANCH  79  80
ATOM     80  O   UNL A   1      47.553  29.112  28.061  1.00  0.00    -0.376 OA
BRANCH  80  81
ATOM     81  C   UNL A   1      47.975  28.944  26.714  1.00  0.00     0.202 C 
BRANCH  81  82
ATOM     82  C   UNL A   1      46.961  28.489  25.643  1.00  0.00     0.261 C 
BRANCH  82  83
ATOM     83  O   UNL A   1      47.501  28.072  24.376  1.00  0.00    -0.460 OA
BRANCH  83  84
ATOM     84  C   UNL A   1      47.905  26.787  24.214  1.00  0.00     0.339 C 
ATOM     85  O   UNL A   1      47.216  25.797  24.211  1.00  0.00    -0.246 OA
BRANCH  84  86
ATOM     86  C   UNL A   1      49.325  26.820  23.770  1.00  0.00     0.080 A 
ATOM     87  C   UNL A   1      49.583  27.208  22.433  1.00  0.00     0.044 A 
ATOM     88  C   UNL A   1      50.386  26.626  24.663  1.00  0.00     0.055 A 
ATOM     89  C   UNL A   1      50.895  27.455  22.022  1.00  0.00     0.053 A 
ATOM     90  C   UNL A   1      51.701  26.821  24.224  1.00  0.00     0.023 A 
ATOM     91  Cl  UNL A   1      50.159  26.152  26.306  1.00  0.00    -0.083 Cl
ATOM     92  C   UNL A   1      51.953  27.243  22.917  1.00  0.00     0.028 A 
BRANCH  89  93
ATOM     93  N   UNL A   1      51.184  28.000  20.749  1.00  0.00    -0.250 N 
ATOM     94  C   UNL A   1      51.101  29.391  20.516  1.00  0.00     0.238 C 
ATOM     95  C   UNL A   1      52.168  27.405  19.929  1.00  0.00     0.238 C 
ATOM     96  O   UNL A   1      50.596  30.264  21.198  1.00  0.00    -0.274 OA
ATOM     97  C   UNL A   1      51.807  29.580  19.209  1.00  0.00     0.100 C 
ATOM     98  C   UNL A   1      52.946  28.588  19.453  1.00  0.00     0.100 C 
ATOM     99  O   UNL A   1      52.491  26.236  19.830  1.00  0.00    -0.274 OA
ATOM    100  C   UNL A   1      52.371  30.851  18.543  1.00  0.00     0.028 C 
ATOM    101  C   UNL A   1      54.070  28.852  18.461  1.00  0.00     0.028 C 
ATOM    102  C   UNL A   1      52.660  30.312  17.120  1.00  0.00    -0.026 C 
ATOM    103  C   UNL A   1      53.748  31.315  19.049  1.00  0.00     0.001 C 
ATOM    104  C   UNL A   1      53.494  29.245  17.093  1.00  0.00    -0.026 C 
ATOM    105  C   UNL A   1      54.762  30.160  19.007  1.00  0.00     0.001 C 
ATOM    106  C   UNL A   1      54.450  30.905  20.308  1.00  0.00     0.009 C 
ENDBRANCH  89  93
ENDBRANCH  84  86
ENDBRANCH  83  84
ENDBRANCH  82  83
ENDBRANCH  81  82
ENDBRANCH  80  81
ENDBRANCH  79  80
ENDBRANCH  78  79
ENDBRANCH  77  78
ENDBRANCH   1  77
TORSDOF 24
ENDMDL
