MODEL 1
REMARK VINA RESULT:      -8.7      0.000      0.000
REMARK SMILES CCCC(=O)Nc1cccc(C(=O)N[C@@H](C(=O)OCCOCCOCCOCCOC(=O)c2ccc(-c3c4nc(c(-c5c(F)cc(S(=O)(=O)[O-])cc5F)c5ccc([nH]5)c(-c5c(F)cc(S(=O)(=O)[O-])cc5F)c5nc(c(-c6c(F)cc(S(=O)(=O)[O-])cc6F)c6ccc3[nH]6)C=C5)C=C4)cc2)c2c(C)n[nH]c2C)c1
REMARK SMILES IDX 23 1 22 2 21 3 20 4 19 5 18 6 16 7 17 8 15 9 14 10 12 11
REMARK SMILES IDX 13 12 11 14 7 15 8 16 106 17 9 18 10 19 6 20 4 21 5 22 3 24
REMARK SMILES IDX 2 25 1 26 99 27 100 28 104 29 101 30 102 31 103 32 105 33
REMARK SMILES IDX 24 35 25 36 26 37 27 38 28 39 29 40 30 41 31 42 32 43 33 44
REMARK SMILES IDX 34 45 98 46 35 47 97 48 36 49 37 50 38 51 91 52 39 53 96 54
REMARK SMILES IDX 90 55 92 56 40 57 95 58 89 59 88 60 41 62 75 63 54 64 74 65
REMARK SMILES IDX 55 66 58 67 73 68 93 69 56 70 57 71 72 73 94 74 59 75 42 76
REMARK SMILES IDX 43 77 52 78 44 79 45 80 51 81 53 82 46 83 47 84 48 85 49 86
REMARK SMILES IDX 50 87 76 88 77 89 86 90 78 91 79 92 85 93 87 94 80 95 81 96
REMARK SMILES IDX 82 97 83 98 84 99 60 100 61 101 70 102 62 103 63 104 69 105
REMARK SMILES IDX 71 106 64 107 65 108 66 109 67 110 68 111
REMARK H PARENT 14 13 6 23 103 34 92 61 58 72
REMARK Flexibility Score: inf
ROOT
ATOM      1  C   UNL A   1      37.029  31.062  29.055  1.00  0.00     0.188 C 
ENDROOT
BRANCH   1   2
ATOM      2  C   UNL A   1      35.640  30.562  28.613  1.00  0.00     0.188 C 
BRANCH   2   3
ATOM      3  O   UNL A   1      35.473  29.791  27.431  1.00  0.00    -0.376 OA
BRANCH   3   4
ATOM      4  C   UNL A   1      34.192  29.327  27.034  1.00  0.00     0.202 C 
BRANCH   4   5
ATOM      5  C   UNL A   1      34.050  28.099  26.112  1.00  0.00     0.261 C 
BRANCH   5   6
ATOM      6  O   UNL A   1      32.953  28.106  25.180  1.00  0.00    -0.461 OA
BRANCH   6   7
ATOM      7  C   UNL A   1      33.153  27.389  24.041  1.00  0.00     0.333 C 
ATOM      8  O   UNL A   1      33.469  27.912  22.977  1.00  0.00    -0.249 OA
BRANCH   7   9
ATOM      9  C   UNL A   1      32.914  25.847  24.227  1.00  0.00     0.227 C 
BRANCH   9  10
ATOM     10  N   UNL A   1      33.024  24.965  23.050  1.00  0.00    -0.335 N 
ATOM     11  C   UNL A   1      33.750  23.854  22.706  1.00  0.00     0.252 C 
ATOM     12  O   UNL A   1      33.580  23.405  21.572  1.00  0.00    -0.269 OA
ATOM     13  H   UNL A   1      32.422  25.247  22.323  1.00  0.00     0.165 HD
BRANCH  11  14
ATOM     14  C   UNL A   1      34.589  23.087  23.656  1.00  0.00     0.041 A 
ATOM     15  C   UNL A   1      34.900  21.255  25.178  1.00  0.00     0.041 A 
ATOM     16  C   UNL A   1      36.278  21.269  24.965  1.00  0.00     0.026 A 
ATOM     17  C   UNL A   1      34.067  22.215  24.602  1.00  0.00     0.040 A 
ATOM     18  C   UNL A   1      36.825  22.244  24.134  1.00  0.00     0.003 A 
ATOM     19  C   UNL A   1      35.983  23.139  23.468  1.00  0.00     0.014 A 
BRANCH  15  20
ATOM     20  N   UNL A   1      34.311  20.239  25.939  1.00  0.00    -0.326 N 
ATOM     21  C   UNL A   1      33.395  19.362  25.406  1.00  0.00     0.224 C 
ATOM     22  O   UNL A   1      32.401  19.057  26.066  1.00  0.00    -0.275 OA
ATOM     23  H   UNL A   1      34.561  20.148  26.887  1.00  0.00     0.169 HD
BRANCH  21  24
ATOM     24  C   UNL A   1      33.660  18.731  24.040  1.00  0.00     0.100 C 
BRANCH  24  25
ATOM     25  C   UNL A   1      33.715  17.210  24.006  1.00  0.00     0.006 C 
ATOM     26  C   UNL A   1      34.195  16.608  22.693  1.00  0.00     0.004 C 
ENDBRANCH  24  25
ENDBRANCH  21  24
ENDBRANCH  15  20
ENDBRANCH  11  14
ENDBRANCH   9  10
BRANCH   9  27
ATOM     27  C   UNL A   1      31.604  25.592  25.007  1.00  0.00     0.029 A 
ATOM     28  C   UNL A   1      31.301  24.764  26.160  1.00  0.00     0.065 A 
ATOM     29  C   UNL A   1      30.343  26.107  24.677  1.00  0.00     0.038 A 
ATOM     30  C   UNL A   1      32.104  23.813  26.973  1.00  0.00     0.069 C 
ATOM     31  N   UNL A   1      30.014  24.855  26.519  1.00  0.00    -0.180 NA
ATOM     32  N   UNL A   1      29.469  25.663  25.623  1.00  0.00    -0.282 N 
ATOM     33  C   UNL A   1      29.798  26.937  23.571  1.00  0.00     0.066 C 
ATOM     34  H   UNL A   1      28.519  25.920  25.639  1.00  0.00     0.190 HD
ENDBRANCH   9  27
ENDBRANCH   7   9
ENDBRANCH   6   7
ENDBRANCH   5   6
ENDBRANCH   4   5
ENDBRANCH   3   4
ENDBRANCH   2   3
ENDBRANCH   1   2
BRANCH   1  35
ATOM     35  O   UNL A   1      37.393  30.756  30.381  1.00  0.00    -0.377 OA
BRANCH  35  36
ATOM     36  C   UNL A   1      36.304  30.564  31.267  1.00  0.00     0.188 C 
BRANCH  36  37
ATOM     37  C   UNL A   1      35.561  31.842  31.708  1.00  0.00     0.188 C 
BRANCH  37  38
ATOM     38  O   UNL A   1      35.566  32.068  33.116  1.00  0.00    -0.376 OA
BRANCH  38  39
ATOM     39  C   UNL A   1      36.682  32.702  33.722  1.00  0.00     0.202 C 
BRANCH  39  40
ATOM     40  C   UNL A   1      37.450  33.738  32.883  1.00  0.00     0.261 C 
BRANCH  40  41
ATOM     41  O   UNL A   1      38.645  33.264  32.250  1.00  0.00    -0.460 OA
BRANCH  41  42
ATOM     42  C   UNL A   1      39.216  34.085  31.345  1.00  0.00     0.338 C 
ATOM     43  O   UNL A   1      38.793  35.167  30.969  1.00  0.00    -0.246 OA
BRANCH  42  44
ATOM     44  C   UNL A   1      40.569  33.572  31.053  1.00  0.00     0.060 A 
ATOM     45  C   UNL A   1      41.201  34.010  29.882  1.00  0.00     0.016 A 
ATOM     46  C   UNL A   1      41.211  32.686  31.922  1.00  0.00     0.016 A 
ATOM     47  C   UNL A   1      42.456  33.520  29.546  1.00  0.00     0.010 A 
ATOM     48  C   UNL A   1      42.457  32.163  31.563  1.00  0.00     0.010 A 
ATOM     49  C   UNL A   1      43.054  32.543  30.349  1.00  0.00    -0.014 A 
BRANCH  49  50
ATOM     50  C   UNL A   1      44.132  31.725  29.746  1.00  0.00     0.031 A 
ATOM     51  C   UNL A   1      45.519  32.312  29.728  1.00  0.00     0.074 A 
ATOM     52  C   UNL A   1      43.910  30.468  29.329  1.00  0.00     0.049 A 
ATOM     53  N   UNL A   1      46.643  31.780  29.328  1.00  0.00    -0.248 NA
ATOM     54  C   UNL A   1      45.653  33.687  30.242  1.00  0.00     0.031 C 
ATOM     55  C   UNL A   1      42.622  29.779  29.359  1.00  0.00     0.029 A 
ATOM     56  N   UNL A   1      44.777  29.542  28.808  1.00  0.00    -0.354 N 
ATOM     57  C   UNL A   1      47.613  32.755  29.535  1.00  0.00     0.074 A 
ATOM     58  C   UNL A   1      46.943  33.920  30.065  1.00  0.00     0.031 C 
ATOM     59  C   UNL A   1      42.784  28.532  28.882  1.00  0.00     0.029 A 
ATOM     60  C   UNL A   1      44.180  28.346  28.489  1.00  0.00     0.049 A 
ATOM     61  H   UNL A   1      45.737  29.717  28.677  1.00  0.00     0.167 HD
ATOM     62  C   UNL A   1      48.945  32.681  29.310  1.00  0.00     0.037 A 
ATOM     63  C   UNL A   1      44.707  27.236  27.937  1.00  0.00     0.037 A 
ATOM     64  C   UNL A   1      49.600  31.516  28.779  1.00  0.00     0.049 A 
ATOM     65  C   UNL A   1      46.184  27.204  27.626  1.00  0.00     0.074 A 
ATOM     66  C   UNL A   1      50.946  31.327  28.522  1.00  0.00     0.029 A 
ATOM     67  N   UNL A   1      48.953  30.345  28.410  1.00  0.00    -0.354 N 
ATOM     68  N   UNL A   1      47.097  28.122  27.843  1.00  0.00    -0.248 NA
ATOM     69  C   UNL A   1      46.701  25.980  27.001  1.00  0.00     0.031 C 
ATOM     70  C   UNL A   1      51.104  30.065  27.940  1.00  0.00     0.029 A 
ATOM     71  C   UNL A   1      49.867  29.440  27.899  1.00  0.00     0.049 A 
ATOM     72  H   UNL A   1      47.986  30.182  28.500  1.00  0.00     0.167 HD
ATOM     73  C   UNL A   1      48.302  27.571  27.420  1.00  0.00     0.074 A 
ATOM     74  C   UNL A   1      48.001  26.237  26.940  1.00  0.00     0.031 C 
ATOM     75  C   UNL A   1      49.547  28.113  27.432  1.00  0.00     0.037 A 
BRANCH  62  76
ATOM     76  C   UNL A   1      49.765  33.912  29.589  1.00  0.00     0.058 A 
ATOM     77  C   UNL A   1      50.350  34.154  30.843  1.00  0.00     0.135 A 
ATOM     78  C   UNL A   1      49.967  34.866  28.579  1.00  0.00     0.135 A 
ATOM     79  F   UNL A   1      50.168  33.289  31.853  1.00  0.00    -0.206 F 
ATOM     80  C   UNL A   1      51.079  35.312  31.093  1.00  0.00     0.059 A 
ATOM     81  C   UNL A   1      50.720  36.016  28.797  1.00  0.00     0.059 A 
ATOM     82  F   UNL A   1      49.424  34.691  27.364  1.00  0.00    -0.206 F 
ATOM     83  C   UNL A   1      51.257  36.238  30.064  1.00  0.00     0.060 A 
BRANCH  83  84
ATOM     84  S   UNL A   1      52.202  37.737  30.404  1.00  0.00     0.124 S 
ATOM     85  O   UNL A   1      51.688  38.644  29.382  1.00  0.00    -0.237 OA
ATOM     86  O   UNL A   1      51.814  38.045  31.777  1.00  0.00    -0.237 OA
ATOM     87  O   UNL A   1      53.588  37.316  30.227  1.00  0.00    -0.744 OA
ENDBRANCH  83  84
ENDBRANCH  62  76
BRANCH  63  88
ATOM     88  C   UNL A   1      43.842  26.060  27.650  1.00  0.00     0.058 A 
ATOM     89  C   UNL A   1      43.171  25.932  26.424  1.00  0.00     0.135 A 
ATOM     90  C   UNL A   1      43.660  25.043  28.601  1.00  0.00     0.135 A 
ATOM     91  F   UNL A   1      43.301  26.883  25.487  1.00  0.00    -0.206 F 
ATOM     92  C   UNL A   1      42.341  24.848  26.156  1.00  0.00     0.059 A 
ATOM     93  C   UNL A   1      42.858  23.935  28.346  1.00  0.00     0.059 A 
ATOM     94  F   UNL A   1      44.283  25.112  29.788  1.00  0.00    -0.206 F 
ATOM     95  C   UNL A   1      42.194  23.852  27.122  1.00  0.00     0.060 A 
BRANCH  95  96
ATOM     96  S   UNL A   1      41.154  22.424  26.743  1.00  0.00     0.124 S 
ATOM     97  O   UNL A   1      41.828  21.869  25.576  1.00  0.00    -0.237 OA
ATOM     98  O   UNL A   1      41.253  21.642  27.971  1.00  0.00    -0.237 OA
ATOM     99  O   UNL A   1      39.845  23.020  26.493  1.00  0.00    -0.744 OA
ENDBRANCH  95  96
ENDBRANCH  63  88
BRANCH  75 100
ATOM    100  C   UNL A   1      50.685  27.245  26.961  1.00  0.00     0.058 A 
ATOM    101  C   UNL A   1      51.449  26.470  27.847  1.00  0.00     0.135 A 
ATOM    102  C   UNL A   1      50.992  27.166  25.592  1.00  0.00     0.135 A 
ATOM    103  F   UNL A   1      51.200  26.507  29.166  1.00  0.00    -0.206 F 
ATOM    104  C   UNL A   1      52.505  25.682  27.399  1.00  0.00     0.059 A 
ATOM    105  C   UNL A   1      52.019  26.357  25.117  1.00  0.00     0.059 A 
ATOM    106  F   UNL A   1      50.282  27.872  24.697  1.00  0.00    -0.206 F 
ATOM    107  C   UNL A   1      52.784  25.635  26.032  1.00  0.00     0.060 A 
BRANCH 107 108
ATOM    108  S   UNL A   1      54.153  24.607  25.462  1.00  0.00     0.124 S 
ATOM    109  O   UNL A   1      54.737  25.448  24.422  1.00  0.00    -0.237 OA
ATOM    110  O   UNL A   1      54.952  24.451  26.673  1.00  0.00    -0.237 OA
ATOM    111  O   UNL A   1      53.495  23.392  24.990  1.00  0.00    -0.744 OA
ENDBRANCH 107 108
ENDBRANCH  75 100
ENDBRANCH  49  50
ENDBRANCH  42  44
ENDBRANCH  41  42
ENDBRANCH  40  41
ENDBRANCH  39  40
ENDBRANCH  38  39
ENDBRANCH  37  38
ENDBRANCH  36  37
ENDBRANCH  35  36
ENDBRANCH   1  35
TORSDOF 29
ENDMDL
MODEL 2
REMARK VINA RESULT:      -8.4      1.736      2.533
REMARK SMILES CCCC(=O)Nc1cccc(C(=O)N[C@@H](C(=O)OCCOCCOCCOCCOC(=O)c2ccc(-c3c4nc(c(-c5c(F)cc(S(=O)(=O)[O-])cc5F)c5ccc([nH]5)c(-c5c(F)cc(S(=O)(=O)[O-])cc5F)c5nc(c(-c6c(F)cc(S(=O)(=O)[O-])cc6F)c6ccc3[nH]6)C=C5)C=C4)cc2)c2c(C)n[nH]c2C)c1
REMARK SMILES IDX 23 1 22 2 21 3 20 4 19 5 18 6 16 7 17 8 15 9 14 10 12 11
REMARK SMILES IDX 13 12 11 14 7 15 8 16 106 17 9 18 10 19 6 20 4 21 5 22 3 24
REMARK SMILES IDX 2 25 1 26 99 27 100 28 104 29 101 30 102 31 103 32 105 33
REMARK SMILES IDX 24 35 25 36 26 37 27 38 28 39 29 40 30 41 31 42 32 43 33 44
REMARK SMILES IDX 34 45 98 46 35 47 97 48 36 49 37 50 38 51 91 52 39 53 96 54
REMARK SMILES IDX 90 55 92 56 40 57 95 58 89 59 88 60 41 62 75 63 54 64 74 65
REMARK SMILES IDX 55 66 58 67 73 68 93 69 56 70 57 71 72 73 94 74 59 75 42 76
REMARK SMILES IDX 43 77 52 78 44 79 45 80 51 81 53 82 46 83 47 84 48 85 49 86
REMARK SMILES IDX 50 87 76 88 77 89 86 90 78 91 79 92 85 93 87 94 80 95 81 96
REMARK SMILES IDX 82 97 83 98 84 99 60 100 61 101 70 102 62 103 63 104 69 105
REMARK SMILES IDX 71 106 64 107 65 108 66 109 67 110 68 111
REMARK H PARENT 14 13 6 23 103 34 92 61 58 72
REMARK Flexibility Score: inf
ROOT
ATOM      1  C   UNL A   1      37.078  30.433  28.649  1.00  0.00     0.188 C 
ENDROOT
BRANCH   1   2
ATOM      2  C   UNL A   1      35.614  30.100  28.298  1.00  0.00     0.188 C 
BRANCH   2   3
ATOM      3  O   UNL A   1      35.239  29.717  26.982  1.00  0.00    -0.376 OA
BRANCH   3   4
ATOM      4  C   UNL A   1      33.881  29.466  26.652  1.00  0.00     0.202 C 
BRANCH   4   5
ATOM      5  C   UNL A   1      33.453  28.106  26.064  1.00  0.00     0.261 C 
BRANCH   5   6
ATOM      6  O   UNL A   1      32.671  28.135  24.855  1.00  0.00    -0.461 OA
BRANCH   6   7
ATOM      7  C   UNL A   1      33.131  27.348  23.845  1.00  0.00     0.333 C 
ATOM      8  O   UNL A   1      33.745  27.798  22.884  1.00  0.00    -0.249 OA
BRANCH   7   9
ATOM      9  C   UNL A   1      32.774  25.829  24.030  1.00  0.00     0.227 C 
BRANCH   9  10
ATOM     10  N   UNL A   1      32.889  24.927  22.867  1.00  0.00    -0.335 N 
ATOM     11  C   UNL A   1      33.581  23.784  22.562  1.00  0.00     0.252 C 
ATOM     12  O   UNL A   1      33.433  23.327  21.428  1.00  0.00    -0.269 OA
ATOM     13  H   UNL A   1      32.323  25.222  22.117  1.00  0.00     0.165 HD
BRANCH  11  14
ATOM     14  C   UNL A   1      34.358  22.998  23.549  1.00  0.00     0.041 A 
ATOM     15  C   UNL A   1      34.554  21.160  25.084  1.00  0.00     0.041 A 
ATOM     16  C   UNL A   1      35.940  21.141  24.934  1.00  0.00     0.026 A 
ATOM     17  C   UNL A   1      33.771  22.141  24.471  1.00  0.00     0.040 A 
ATOM     18  C   UNL A   1      36.548  22.101  24.128  1.00  0.00     0.003 A 
ATOM     19  C   UNL A   1      35.759  23.016  23.425  1.00  0.00     0.014 A 
BRANCH  15  20
ATOM     20  N   UNL A   1      33.907  20.160  25.817  1.00  0.00    -0.326 N 
ATOM     21  C   UNL A   1      33.207  19.143  25.209  1.00  0.00     0.224 C 
ATOM     22  O   UNL A   1      32.125  18.793  25.682  1.00  0.00    -0.275 OA
ATOM     23  H   UNL A   1      33.953  20.184  26.801  1.00  0.00     0.169 HD
BRANCH  21  24
ATOM     24  C   UNL A   1      33.814  18.423  24.007  1.00  0.00     0.100 C 
BRANCH  24  25
ATOM     25  C   UNL A   1      34.921  17.424  24.315  1.00  0.00     0.006 C 
ATOM     26  C   UNL A   1      34.469  15.976  24.444  1.00  0.00     0.004 C 
ENDBRANCH  24  25
ENDBRANCH  21  24
ENDBRANCH  15  20
ENDBRANCH  11  14
ENDBRANCH   9  10
BRANCH   9  27
ATOM     27  C   UNL A   1      31.407  25.675  24.735  1.00  0.00     0.029 A 
ATOM     28  C   UNL A   1      30.101  26.246  24.466  1.00  0.00     0.065 A 
ATOM     29  C   UNL A   1      31.170  24.941  25.906  1.00  0.00     0.038 A 
ATOM     30  C   UNL A   1      29.603  27.231  23.468  1.00  0.00     0.069 C 
ATOM     31  N   UNL A   1      29.177  25.821  25.337  1.00  0.00    -0.180 NA
ATOM     32  N   UNL A   1      29.840  25.044  26.179  1.00  0.00    -0.282 N 
ATOM     33  C   UNL A   1      32.013  24.172  26.859  1.00  0.00     0.066 C 
ATOM     34  H   UNL A   1      29.410  24.581  26.934  1.00  0.00     0.190 HD
ENDBRANCH   9  27
ENDBRANCH   7   9
ENDBRANCH   6   7
ENDBRANCH   5   6
ENDBRANCH   4   5
ENDBRANCH   3   4
ENDBRANCH   2   3
ENDBRANCH   1   2
BRANCH   1  35
ATOM     35  O   UNL A   1      37.733  29.500  29.477  1.00  0.00    -0.377 OA
BRANCH  35  36
ATOM     36  C   UNL A   1      37.139  29.317  30.752  1.00  0.00     0.188 C 
BRANCH  36  37
ATOM     37  C   UNL A   1      37.060  30.572  31.644  1.00  0.00     0.188 C 
BRANCH  37  38
ATOM     38  O   UNL A   1      37.762  30.459  32.881  1.00  0.00    -0.376 OA
BRANCH  38  39
ATOM     39  C   UNL A   1      38.997  31.136  33.053  1.00  0.00     0.202 C 
BRANCH  39  40
ATOM     40  C   UNL A   1      39.349  32.237  32.037  1.00  0.00     0.261 C 
BRANCH  40  41
ATOM     41  O   UNL A   1      40.747  32.492  31.854  1.00  0.00    -0.460 OA
BRANCH  41  42
ATOM     42  C   UNL A   1      41.118  33.002  30.662  1.00  0.00     0.338 C 
ATOM     43  O   UNL A   1      40.491  33.796  29.980  1.00  0.00    -0.246 OA
BRANCH  42  44
ATOM     44  C   UNL A   1      42.526  32.630  30.425  1.00  0.00     0.060 A 
ATOM     45  C   UNL A   1      43.111  33.009  29.210  1.00  0.00     0.016 A 
ATOM     46  C   UNL A   1      43.263  31.930  31.384  1.00  0.00     0.016 A 
ATOM     47  C   UNL A   1      44.420  32.642  28.925  1.00  0.00     0.010 A 
ATOM     48  C   UNL A   1      44.567  31.527  31.081  1.00  0.00     0.010 A 
ATOM     49  C   UNL A   1      45.125  31.839  29.829  1.00  0.00    -0.014 A 
BRANCH  49  50
ATOM     50  C   UNL A   1      46.300  31.098  29.317  1.00  0.00     0.031 A 
ATOM     51  C   UNL A   1      47.656  31.719  29.526  1.00  0.00     0.074 A 
ATOM     52  C   UNL A   1      46.179  29.871  28.783  1.00  0.00     0.049 A 
ATOM     53  N   UNL A   1      48.840  31.248  29.241  1.00  0.00    -0.248 NA
ATOM     54  C   UNL A   1      47.674  33.053  30.151  1.00  0.00     0.031 C 
ATOM     55  C   UNL A   1      44.922  29.150  28.592  1.00  0.00     0.029 A 
ATOM     56  N   UNL A   1      47.138  29.010  28.316  1.00  0.00    -0.354 N 
ATOM     57  C   UNL A   1      49.740  32.227  29.644  1.00  0.00     0.074 A 
ATOM     58  C   UNL A   1      48.967  33.331  30.164  1.00  0.00     0.031 C 
ATOM     59  C   UNL A   1      45.188  27.948  28.051  1.00  0.00     0.029 A 
ATOM     60  C   UNL A   1      46.630  27.827  27.835  1.00  0.00     0.049 A 
ATOM     61  H   UNL A   1      48.099  29.218  28.327  1.00  0.00     0.167 HD
ATOM     62  C   UNL A   1      51.093  32.205  29.594  1.00  0.00     0.037 A 
ATOM     63  C   UNL A   1      47.262  26.776  27.278  1.00  0.00     0.037 A 
ATOM     64  C   UNL A   1      51.852  31.100  29.070  1.00  0.00     0.049 A 
ATOM     65  C   UNL A   1      48.767  26.806  27.164  1.00  0.00     0.074 A 
ATOM     66  C   UNL A   1      53.225  30.965  28.982  1.00  0.00     0.029 A 
ATOM     67  N   UNL A   1      51.299  29.945  28.535  1.00  0.00    -0.354 N 
ATOM     68  N   UNL A   1      49.611  27.727  27.567  1.00  0.00    -0.248 NA
ATOM     69  C   UNL A   1      49.404  25.647  26.526  1.00  0.00     0.031 C 
ATOM     70  C   UNL A   1      53.501  29.756  28.335  1.00  0.00     0.029 A 
ATOM     71  C   UNL A   1      52.303  29.105  28.085  1.00  0.00     0.049 A 
ATOM     72  H   UNL A   1      50.335  29.751  28.484  1.00  0.00     0.167 HD
ATOM     73  C   UNL A   1      50.880  27.240  27.268  1.00  0.00     0.074 A 
ATOM     74  C   UNL A   1      50.691  25.939  26.657  1.00  0.00     0.031 C 
ATOM     75  C   UNL A   1      52.093  27.811  27.484  1.00  0.00     0.037 A 
BRANCH  62  76
ATOM     76  C   UNL A   1      51.825  33.430  30.068  1.00  0.00     0.058 A 
ATOM     77  C   UNL A   1      52.156  33.630  31.418  1.00  0.00     0.135 A 
ATOM     78  C   UNL A   1      52.203  34.423  29.149  1.00  0.00     0.135 A 
ATOM     79  F   UNL A   1      51.797  32.726  32.344  1.00  0.00    -0.206 F 
ATOM     80  C   UNL A   1      52.807  34.784  31.844  1.00  0.00     0.059 A 
ATOM     81  C   UNL A   1      52.883  35.569  29.548  1.00  0.00     0.059 A 
ATOM     82  F   UNL A   1      51.905  34.289  27.848  1.00  0.00    -0.206 F 
ATOM     83  C   UNL A   1      53.165  35.748  30.902  1.00  0.00     0.060 A 
BRANCH  83  84
ATOM     84  S   UNL A   1      54.004  37.242  31.469  1.00  0.00     0.124 S 
ATOM     85  O   UNL A   1      55.397  36.925  31.171  1.00  0.00    -0.237 OA
ATOM     86  O   UNL A   1      53.398  38.275  30.638  1.00  0.00    -0.237 OA
ATOM     87  O   UNL A   1      53.667  37.304  32.888  1.00  0.00    -0.744 OA
ENDBRANCH  83  84
ENDBRANCH  62  76
BRANCH  63  88
ATOM     88  C   UNL A   1      46.484  25.605  26.794  1.00  0.00     0.058 A 
ATOM     89  C   UNL A   1      46.021  25.534  25.471  1.00  0.00     0.135 A 
ATOM     90  C   UNL A   1      46.177  24.534  27.648  1.00  0.00     0.135 A 
ATOM     91  F   UNL A   1      46.276  26.539  24.618  1.00  0.00    -0.206 F 
ATOM     92  C   UNL A   1      45.272  24.454  25.016  1.00  0.00     0.059 A 
ATOM     93  C   UNL A   1      45.454  23.429  27.210  1.00  0.00     0.059 A 
ATOM     94  F   UNL A   1      46.600  24.546  28.922  1.00  0.00    -0.206 F 
ATOM     95  C   UNL A   1      44.997  23.403  25.892  1.00  0.00     0.060 A 
BRANCH  95  96
ATOM     96  S   UNL A   1      44.066  21.983  25.276  1.00  0.00     0.124 S 
ATOM     97  O   UNL A   1      43.316  22.576  24.176  1.00  0.00    -0.237 OA
ATOM     98  O   UNL A   1      45.133  21.061  24.899  1.00  0.00    -0.237 OA
ATOM     99  O   UNL A   1      43.275  21.573  26.433  1.00  0.00    -0.744 OA
ENDBRANCH  95  96
ENDBRANCH  63  88
BRANCH  75 100
ATOM    100  C   UNL A   1      53.313  27.010  27.107  1.00  0.00     0.058 A 
ATOM    101  C   UNL A   1      53.870  27.060  25.820  1.00  0.00     0.135 A 
ATOM    102  C   UNL A   1      53.951  26.204  28.065  1.00  0.00     0.135 A 
ATOM    103  F   UNL A   1      53.301  27.813  24.866  1.00  0.00    -0.206 F 
ATOM    104  C   UNL A   1      54.990  26.305  25.484  1.00  0.00     0.059 A 
ATOM    105  C   UNL A   1      55.093  25.470  27.762  1.00  0.00     0.059 A 
ATOM    106  F   UNL A   1      53.472  26.133  29.318  1.00  0.00    -0.206 F 
ATOM    107  C   UNL A   1      55.592  25.511  26.461  1.00  0.00     0.060 A 
BRANCH 107 108
ATOM    108  S   UNL A   1      57.046  24.540  26.014  1.00  0.00     0.124 S 
ATOM    109  O   UNL A   1      56.671  23.214  26.492  1.00  0.00    -0.237 OA
ATOM    110  O   UNL A   1      57.094  24.699  24.564  1.00  0.00    -0.237 OA
ATOM    111  O   UNL A   1      58.129  25.188  26.747  1.00  0.00    -0.744 OA
ENDBRANCH 107 108
ENDBRANCH  75 100
ENDBRANCH  49  50
ENDBRANCH  42  44
ENDBRANCH  41  42
ENDBRANCH  40  41
ENDBRANCH  39  40
ENDBRANCH  38  39
ENDBRANCH  37  38
ENDBRANCH  36  37
ENDBRANCH  35  36
ENDBRANCH   1  35
TORSDOF 29
ENDMDL
MODEL 3
REMARK VINA RESULT:      -8.3      6.038     10.372
REMARK SMILES CCCC(=O)Nc1cccc(C(=O)N[C@@H](C(=O)OCCOCCOCCOCCOC(=O)c2ccc(-c3c4nc(c(-c5c(F)cc(S(=O)(=O)[O-])cc5F)c5ccc([nH]5)c(-c5c(F)cc(S(=O)(=O)[O-])cc5F)c5nc(c(-c6c(F)cc(S(=O)(=O)[O-])cc6F)c6ccc3[nH]6)C=C5)C=C4)cc2)c2c(C)n[nH]c2C)c1
REMARK SMILES IDX 23 1 22 2 21 3 20 4 19 5 18 6 16 7 17 8 15 9 14 10 12 11
REMARK SMILES IDX 13 12 11 14 7 15 8 16 106 17 9 18 10 19 6 20 4 21 5 22 3 24
REMARK SMILES IDX 2 25 1 26 99 27 100 28 104 29 101 30 102 31 103 32 105 33
REMARK SMILES IDX 24 35 25 36 26 37 27 38 28 39 29 40 30 41 31 42 32 43 33 44
REMARK SMILES IDX 34 45 98 46 35 47 97 48 36 49 37 50 38 51 91 52 39 53 96 54
REMARK SMILES IDX 90 55 92 56 40 57 95 58 89 59 88 60 41 62 75 63 54 64 74 65
REMARK SMILES IDX 55 66 58 67 73 68 93 69 56 70 57 71 72 73 94 74 59 75 42 76
REMARK SMILES IDX 43 77 52 78 44 79 45 80 51 81 53 82 46 83 47 84 48 85 49 86
REMARK SMILES IDX 50 87 76 88 77 89 86 90 78 91 79 92 85 93 87 94 80 95 81 96
REMARK SMILES IDX 82 97 83 98 84 99 60 100 61 101 70 102 62 103 63 104 69 105
REMARK SMILES IDX 71 106 64 107 65 108 66 109 67 110 68 111
REMARK H PARENT 14 13 6 23 103 34 92 61 58 72
REMARK Flexibility Score: inf
ROOT
ATOM      1  C   UNL A   1      40.467  32.176  36.362  1.00  0.00     0.188 C 
ENDROOT
BRANCH   1   2
ATOM      2  C   UNL A   1      38.995  31.993  35.943  1.00  0.00     0.188 C 
BRANCH   2   3
ATOM      3  O   UNL A   1      38.244  33.068  35.394  1.00  0.00    -0.376 OA
BRANCH   3   4
ATOM      4  C   UNL A   1      36.825  33.052  35.410  1.00  0.00     0.202 C 
BRANCH   4   5
ATOM      5  C   UNL A   1      36.018  33.734  34.287  1.00  0.00     0.261 C 
BRANCH   5   6
ATOM      6  O   UNL A   1      35.953  33.050  33.021  1.00  0.00    -0.461 OA
BRANCH   6   7
ATOM      7  C   UNL A   1      34.796  33.221  32.326  1.00  0.00     0.333 C 
ATOM      8  O   UNL A   1      33.712  32.821  32.737  1.00  0.00    -0.249 OA
BRANCH   7   9
ATOM      9  C   UNL A   1      35.000  33.952  30.950  1.00  0.00     0.227 C 
BRANCH   9  10
ATOM     10  N   UNL A   1      36.368  34.328  30.543  1.00  0.00    -0.335 N 
ATOM     11  C   UNL A   1      37.426  33.712  29.926  1.00  0.00     0.252 C 
ATOM     12  O   UNL A   1      38.454  34.375  29.786  1.00  0.00    -0.269 OA
ATOM     13  H   UNL A   1      36.574  35.263  30.773  1.00  0.00     0.165 HD
BRANCH  11  14
ATOM     14  C   UNL A   1      37.349  32.376  29.291  1.00  0.00     0.041 A 
ATOM     15  C   UNL A   1      37.750  30.007  29.325  1.00  0.00     0.041 A 
ATOM     16  C   UNL A   1      36.698  29.783  28.440  1.00  0.00     0.026 A 
ATOM     17  C   UNL A   1      38.139  31.301  29.679  1.00  0.00     0.040 A 
ATOM     18  C   UNL A   1      36.000  30.874  27.925  1.00  0.00     0.003 A 
ATOM     19  C   UNL A   1      36.313  32.165  28.362  1.00  0.00     0.014 A 
BRANCH  15  20
ATOM     20  N   UNL A   1      38.414  28.931  29.924  1.00  0.00    -0.326 N 
ATOM     21  C   UNL A   1      39.338  28.170  29.243  1.00  0.00     0.224 C 
ATOM     22  O   UNL A   1      39.330  26.947  29.387  1.00  0.00    -0.275 OA
ATOM     23  H   UNL A   1      38.215  28.710  30.862  1.00  0.00     0.169 HD
BRANCH  21  24
ATOM     24  C   UNL A   1      40.394  28.858  28.382  1.00  0.00     0.100 C 
BRANCH  24  25
ATOM     25  C   UNL A   1      40.101  28.922  26.889  1.00  0.00     0.006 C 
ATOM     26  C   UNL A   1      41.253  28.513  25.983  1.00  0.00     0.004 C 
ENDBRANCH  24  25
ENDBRANCH  21  24
ENDBRANCH  15  20
ENDBRANCH  11  14
ENDBRANCH   9  10
BRANCH   9  27
ATOM     27  C   UNL A   1      34.021  35.140  30.817  1.00  0.00     0.029 A 
ATOM     28  C   UNL A   1      33.609  36.174  31.747  1.00  0.00     0.065 A 
ATOM     29  C   UNL A   1      33.230  35.424  29.695  1.00  0.00     0.038 A 
ATOM     30  C   UNL A   1      33.917  36.441  33.178  1.00  0.00     0.069 C 
ATOM     31  N   UNL A   1      32.735  37.026  31.197  1.00  0.00    -0.180 NA
ATOM     32  N   UNL A   1      32.531  36.559  29.976  1.00  0.00    -0.282 N 
ATOM     33  C   UNL A   1      32.984  34.770  28.382  1.00  0.00     0.066 C 
ATOM     34  H   UNL A   1      31.929  36.993  29.329  1.00  0.00     0.190 HD
ENDBRANCH   9  27
ENDBRANCH   7   9
ENDBRANCH   6   7
ENDBRANCH   5   6
ENDBRANCH   4   5
ENDBRANCH   3   4
ENDBRANCH   2   3
ENDBRANCH   1   2
BRANCH   1  35
ATOM     35  O   UNL A   1      40.751  31.919  37.717  1.00  0.00    -0.377 OA
BRANCH  35  36
ATOM     36  C   UNL A   1      40.904  33.076  38.522  1.00  0.00     0.188 C 
BRANCH  36  37
ATOM     37  C   UNL A   1      39.711  33.427  39.433  1.00  0.00     0.188 C 
BRANCH  37  38
ATOM     38  O   UNL A   1      39.058  34.651  39.102  1.00  0.00    -0.376 OA
BRANCH  38  39
ATOM     39  C   UNL A   1      39.324  35.817  39.866  1.00  0.00     0.202 C 
BRANCH  39  40
ATOM     40  C   UNL A   1      39.324  37.166  39.126  1.00  0.00     0.261 C 
BRANCH  40  41
ATOM     41  O   UNL A   1      40.607  37.774  38.939  1.00  0.00    -0.460 OA
BRANCH  41  42
ATOM     42  C   UNL A   1      41.684  36.985  39.130  1.00  0.00     0.338 C 
ATOM     43  O   UNL A   1      42.024  36.453  40.176  1.00  0.00    -0.246 OA
BRANCH  42  44
ATOM     44  C   UNL A   1      42.259  36.667  37.809  1.00  0.00     0.060 A 
ATOM     45  C   UNL A   1      41.387  36.254  36.794  1.00  0.00     0.016 A 
ATOM     46  C   UNL A   1      43.631  36.785  37.568  1.00  0.00     0.016 A 
ATOM     47  C   UNL A   1      41.889  35.902  35.548  1.00  0.00     0.010 A 
ATOM     48  C   UNL A   1      44.140  36.394  36.326  1.00  0.00     0.010 A 
ATOM     49  C   UNL A   1      43.272  35.903  35.335  1.00  0.00    -0.014 A 
BRANCH  49  50
ATOM     50  C   UNL A   1      43.792  35.108  34.199  1.00  0.00     0.031 A 
ATOM     51  C   UNL A   1      43.928  33.622  34.399  1.00  0.00     0.074 A 
ATOM     52  C   UNL A   1      44.033  35.667  33.001  1.00  0.00     0.049 A 
ATOM     53  N   UNL A   1      44.287  32.697  33.549  1.00  0.00    -0.248 NA
ATOM     54  C   UNL A   1      43.606  33.111  35.743  1.00  0.00     0.031 C 
ATOM     55  C   UNL A   1      43.874  37.084  32.680  1.00  0.00     0.029 A 
ATOM     56  N   UNL A   1      44.451  35.098  31.826  1.00  0.00    -0.354 N 
ATOM     57  C   UNL A   1      44.240  31.500  34.256  1.00  0.00     0.074 A 
ATOM     58  C   UNL A   1      43.849  31.818  35.610  1.00  0.00     0.031 C 
ATOM     59  C   UNL A   1      44.187  37.274  31.386  1.00  0.00     0.029 A 
ATOM     60  C   UNL A   1      44.591  35.997  30.797  1.00  0.00     0.049 A 
ATOM     61  H   UNL A   1      44.632  34.136  31.729  1.00  0.00     0.167 HD
ATOM     62  C   UNL A   1      44.491  30.247  33.812  1.00  0.00     0.037 A 
ATOM     63  C   UNL A   1      45.007  35.805  29.530  1.00  0.00     0.037 A 
ATOM     64  C   UNL A   1      44.883  29.943  32.461  1.00  0.00     0.049 A 
ATOM     65  C   UNL A   1      45.354  34.407  29.079  1.00  0.00     0.074 A 
ATOM     66  C   UNL A   1      45.151  28.709  31.900  1.00  0.00     0.029 A 
ATOM     67  N   UNL A   1      45.074  30.889  31.463  1.00  0.00    -0.354 N 
ATOM     68  N   UNL A   1      45.287  33.280  29.747  1.00  0.00    -0.248 NA
ATOM     69  C   UNL A   1      45.826  34.257  27.696  1.00  0.00     0.031 C 
ATOM     70  C   UNL A   1      45.565  28.913  30.580  1.00  0.00     0.029 A 
ATOM     71  C   UNL A   1      45.487  30.268  30.297  1.00  0.00     0.049 A 
ATOM     72  H   UNL A   1      44.935  31.858  31.569  1.00  0.00     0.167 HD
ATOM     73  C   UNL A   1      45.668  32.282  28.855  1.00  0.00     0.074 A 
ATOM     74  C   UNL A   1      45.958  32.942  27.597  1.00  0.00     0.031 C 
ATOM     75  C   UNL A   1      45.764  30.943  29.053  1.00  0.00     0.037 A 
BRANCH  62  76
ATOM     76  C   UNL A   1      44.402  29.126  34.812  1.00  0.00     0.058 A 
ATOM     77  C   UNL A   1      45.501  28.728  35.592  1.00  0.00     0.135 A 
ATOM     78  C   UNL A   1      43.191  28.438  34.991  1.00  0.00     0.135 A 
ATOM     79  F   UNL A   1      46.690  29.333  35.444  1.00  0.00    -0.206 F 
ATOM     80  C   UNL A   1      45.409  27.669  36.490  1.00  0.00     0.059 A 
ATOM     81  C   UNL A   1      43.068  27.398  35.907  1.00  0.00     0.059 A 
ATOM     82  F   UNL A   1      42.111  28.770  34.267  1.00  0.00    -0.206 F 
ATOM     83  C   UNL A   1      44.189  27.010  36.639  1.00  0.00     0.060 A 
BRANCH  83  84
ATOM     84  S   UNL A   1      44.086  25.635  37.804  1.00  0.00     0.124 S 
ATOM     85  O   UNL A   1      43.863  26.337  39.064  1.00  0.00    -0.237 OA
ATOM     86  O   UNL A   1      42.950  24.876  37.292  1.00  0.00    -0.237 OA
ATOM     87  O   UNL A   1      45.384  24.980  37.674  1.00  0.00    -0.744 OA
ENDBRANCH  83  84
ENDBRANCH  62  76
BRANCH  63  88
ATOM     88  C   UNL A   1      45.110  36.957  28.593  1.00  0.00     0.058 A 
ATOM     89  C   UNL A   1      46.256  37.766  28.558  1.00  0.00     0.135 A 
ATOM     90  C   UNL A   1      44.060  37.278  27.719  1.00  0.00     0.135 A 
ATOM     91  F   UNL A   1      47.283  37.509  29.384  1.00  0.00    -0.206 F 
ATOM     92  C   UNL A   1      46.352  38.859  27.703  1.00  0.00     0.059 A 
ATOM     93  C   UNL A   1      44.143  38.348  26.834  1.00  0.00     0.059 A 
ATOM     94  F   UNL A   1      42.943  36.533  27.706  1.00  0.00    -0.206 F 
ATOM     95  C   UNL A   1      45.292  39.140  26.841  1.00  0.00     0.060 A 
BRANCH  95  96
ATOM     96  S   UNL A   1      45.448  40.531  25.700  1.00  0.00     0.124 S 
ATOM     97  O   UNL A   1      46.079  41.537  26.545  1.00  0.00    -0.237 OA
ATOM     98  O   UNL A   1      46.284  39.967  24.645  1.00  0.00    -0.237 OA
ATOM     99  O   UNL A   1      44.067  40.806  25.314  1.00  0.00    -0.744 OA
ENDBRANCH  95  96
ENDBRANCH  63  88
BRANCH  75 100
ATOM    100  C   UNL A   1      46.149  30.093  27.869  1.00  0.00     0.058 A 
ATOM    101  C   UNL A   1      45.191  29.533  27.009  1.00  0.00     0.135 A 
ATOM    102  C   UNL A   1      47.504  29.866  27.574  1.00  0.00     0.135 A 
ATOM    103  F   UNL A   1      43.883  29.717  27.243  1.00  0.00    -0.206 F 
ATOM    104  C   UNL A   1      45.562  28.741  25.927  1.00  0.00     0.059 A 
ATOM    105  C   UNL A   1      47.898  29.109  26.477  1.00  0.00     0.059 A 
ATOM    106  F   UNL A   1      48.464  30.394  28.352  1.00  0.00    -0.206 F 
ATOM    107  C   UNL A   1      46.918  28.533  25.671  1.00  0.00     0.060 A 
BRANCH 107 108
ATOM    108  S   UNL A   1      47.386  27.506  24.262  1.00  0.00     0.124 S 
ATOM    109  O   UNL A   1      48.818  27.337  24.486  1.00  0.00    -0.237 OA
ATOM    110  O   UNL A   1      46.569  26.313  24.458  1.00  0.00    -0.237 OA
ATOM    111  O   UNL A   1      47.024  28.325  23.108  1.00  0.00    -0.744 OA
ENDBRANCH 107 108
ENDBRANCH  75 100
ENDBRANCH  49  50
ENDBRANCH  42  44
ENDBRANCH  41  42
ENDBRANCH  40  41
ENDBRANCH  39  40
ENDBRANCH  38  39
ENDBRANCH  37  38
ENDBRANCH  36  37
ENDBRANCH  35  36
ENDBRANCH   1  35
TORSDOF 29
ENDMDL
