MODEL 1
REMARK VINA RESULT:      -8.8      0.000      0.000
REMARK SMILES Cc1ccccc1C(=O)Nc1cc(C(=O)OCCOCCOCCOCCOC(=O)c2ccc(-c3c4nc(c(-c5c(F)cc(S(=O)(=O)[O-])cc5F)c5ccc([nH]5)c(-c5c(F)cc(S(=O)(=O)[O-])cc5F)c5nc(c(-c6c(F)cc(S(=O)(=O)[O-])cc6F)c6ccc3[nH]6)C=C5)C=C4)cc2)ccc1N1CC[NH+](CC(=O)Nc2ccc(F)cc2)CC1
REMARK SMILES IDX 21 1 20 2 19 3 18 4 17 5 16 6 14 7 15 8 13 9 11 10 12 11
REMARK SMILES IDX 99 12 98 13 97 14 10 15 8 16 9 17 7 19 1 20 2 21 3 22 4 23
REMARK SMILES IDX 6 24 5 25 100 26 101 27 116 28 102 29 115 30 103 31 104 33
REMARK SMILES IDX 105 34 106 35 107 36 108 38 109 39 114 40 110 41 113 42
REMARK SMILES IDX 111 43 112 44 22 45 23 46 24 47 25 48 26 49 27 50 28 51
REMARK SMILES IDX 29 52 30 53 31 54 32 55 96 56 33 57 95 58 34 59 35 60 36 61
REMARK SMILES IDX 89 62 37 63 94 64 88 65 90 66 38 67 93 68 87 69 86 70 39 72
REMARK SMILES IDX 73 73 52 74 72 75 53 76 56 77 71 78 91 79 54 80 55 81 70 83
REMARK SMILES IDX 92 84 57 85 40 86 41 87 50 88 42 89 43 90 49 91 51 92 44 93
REMARK SMILES IDX 45 94 46 95 47 96 48 97 74 98 75 99 84 100 76 101 77 102
REMARK SMILES IDX 83 103 85 104 78 105 79 106 80 107 81 108 82 109 58 110
REMARK SMILES IDX 59 111 68 112 60 113 61 114 67 115 69 116 62 117 63 118
REMARK SMILES IDX 64 119 65 120 66 121
REMARK H PARENT 10 18 103 32 107 37 90 71 56 82
REMARK Flexibility Score: inf
ROOT
ATOM      1  C   UNL A   1      34.042  20.602  25.331  1.00  0.00     0.188 C 
ENDROOT
BRANCH   1   2
ATOM      2  C   UNL A   1      32.997  21.200  24.395  1.00  0.00     0.188 C 
BRANCH   2   3
ATOM      3  O   UNL A   1      33.350  22.058  23.315  1.00  0.00    -0.376 OA
BRANCH   3   4
ATOM      4  C   UNL A   1      32.205  22.667  22.703  1.00  0.00     0.202 C 
BRANCH   4   5
ATOM      5  C   UNL A   1      31.586  23.927  23.326  1.00  0.00     0.261 C 
BRANCH   5   6
ATOM      6  O   UNL A   1      31.629  25.054  22.461  1.00  0.00    -0.460 OA
BRANCH   6   7
ATOM      7  C   UNL A   1      32.858  25.549  22.255  1.00  0.00     0.338 C 
ATOM      8  O   UNL A   1      33.521  25.523  21.247  1.00  0.00    -0.246 OA
BRANCH   7   9
ATOM      9  C   UNL A   1      33.089  26.475  23.378  1.00  0.00     0.062 A 
ATOM     10  C   UNL A   1      32.907  28.582  24.526  1.00  0.00     0.065 A 
ATOM     11  C   UNL A   1      32.621  27.799  23.422  1.00  0.00     0.044 A 
ATOM     12  C   UNL A   1      33.846  28.104  25.508  1.00  0.00     0.061 A 
ATOM     13  C   UNL A   1      34.442  26.846  25.302  1.00  0.00     0.029 A 
ATOM     14  C   UNL A   1      33.999  26.003  24.310  1.00  0.00     0.018 A 
BRANCH  10  15
ATOM     15  N   UNL A   1      32.273  29.823  24.731  1.00  0.00    -0.320 N 
ATOM     16  C   UNL A   1      30.982  30.315  24.615  1.00  0.00     0.255 C 
ATOM     17  O   UNL A   1      30.788  31.362  25.260  1.00  0.00    -0.269 OA
ATOM     18  H   UNL A   1      32.905  30.514  25.033  1.00  0.00     0.170 HD
BRANCH  16  19
ATOM     19  C   UNL A   1      29.786  29.772  23.875  1.00  0.00     0.043 A 
ATOM     20  C   UNL A   1      29.702  27.267  24.558  1.00  0.00     0.045 C 
ATOM     21  C   UNL A   1      29.293  28.461  23.757  1.00  0.00    -0.038 A 
ATOM     22  C   UNL A   1      28.218  28.197  22.873  1.00  0.00     0.004 A 
ATOM     23  C   UNL A   1      27.497  29.214  22.267  1.00  0.00     0.000 A 
ATOM     24  C   UNL A   1      28.988  30.793  23.288  1.00  0.00     0.014 A 
ATOM     25  C   UNL A   1      27.848  30.525  22.523  1.00  0.00     0.001 A 
ENDBRANCH  16  19
ENDBRANCH  10  15
BRANCH  12  26
ATOM     26  N   UNL A   1      34.052  28.750  26.766  1.00  0.00    -0.359 N 
ATOM     27  C   UNL A   1      33.149  29.901  27.101  1.00  0.00     0.178 C 
ATOM     28  C   UNL A   1      35.461  29.115  26.931  1.00  0.00     0.178 C 
ATOM     29  C   UNL A   1      33.612  30.744  28.319  1.00  0.00     0.284 C 
ATOM     30  C   UNL A   1      35.698  29.673  28.337  1.00  0.00     0.284 C 
ATOM     31  N   UNL A   1      35.058  30.960  28.492  1.00  0.00    -0.324 N 
ATOM     32  H   UNL A   1      35.126  31.365  29.425  1.00  0.00     0.348 HD
BRANCH  31  33
ATOM     33  C   UNL A   1      35.781  32.050  27.791  1.00  0.00     0.364 C 
BRANCH  33  34
ATOM     34  C   UNL A   1      35.770  33.509  28.288  1.00  0.00     0.279 C 
ATOM     35  O   UNL A   1      35.227  34.357  27.555  1.00  0.00    -0.268 OA
ATOM     36  N   UNL A   1      36.159  34.001  29.512  1.00  0.00    -0.321 N 
ATOM     37  H   UNL A   1      35.692  34.855  29.661  1.00  0.00     0.170 HD
BRANCH  36  38
ATOM     38  C   UNL A   1      36.984  33.740  30.645  1.00  0.00     0.041 A 
ATOM     39  C   UNL A   1      37.884  32.665  30.509  1.00  0.00     0.029 A 
ATOM     40  C   UNL A   1      36.929  34.305  31.916  1.00  0.00     0.029 A 
ATOM     41  C   UNL A   1      38.689  32.214  31.573  1.00  0.00     0.041 A 
ATOM     42  C   UNL A   1      37.688  33.836  33.005  1.00  0.00     0.041 A 
ATOM     43  C   UNL A   1      38.580  32.805  32.820  1.00  0.00     0.123 A 
ATOM     44  F   UNL A   1      39.333  32.377  33.842  1.00  0.00    -0.207 F 
ENDBRANCH  36  38
ENDBRANCH  33  34
ENDBRANCH  31  33
ENDBRANCH  12  26
ENDBRANCH   7   9
ENDBRANCH   6   7
ENDBRANCH   5   6
ENDBRANCH   4   5
ENDBRANCH   3   4
ENDBRANCH   2   3
ENDBRANCH   1   2
BRANCH   1  45
ATOM     45  O   UNL A   1      35.111  19.909  24.680  1.00  0.00    -0.377 OA
BRANCH  45  46
ATOM     46  C   UNL A   1      36.383  20.560  24.677  1.00  0.00     0.188 C 
BRANCH  46  47
ATOM     47  C   UNL A   1      36.619  21.442  25.895  1.00  0.00     0.188 C 
BRANCH  47  48
ATOM     48  O   UNL A   1      36.733  22.800  25.465  1.00  0.00    -0.376 OA
BRANCH  48  49
ATOM     49  C   UNL A   1      37.956  23.479  25.718  1.00  0.00     0.202 C 
BRANCH  49  50
ATOM     50  C   UNL A   1      38.987  22.685  26.519  1.00  0.00     0.261 C 
BRANCH  50  51
ATOM     51  O   UNL A   1      39.679  23.533  27.459  1.00  0.00    -0.460 OA
BRANCH  51  52
ATOM     52  C   UNL A   1      40.882  24.029  27.042  1.00  0.00     0.338 C 
ATOM     53  O   UNL A   1      41.581  23.478  26.211  1.00  0.00    -0.246 OA
BRANCH  52  54
ATOM     54  C   UNL A   1      41.174  25.344  27.687  1.00  0.00     0.060 A 
ATOM     55  C   UNL A   1      40.798  26.555  27.089  1.00  0.00     0.016 A 
ATOM     56  C   UNL A   1      42.011  25.374  28.787  1.00  0.00     0.016 A 
ATOM     57  C   UNL A   1      41.431  27.767  27.448  1.00  0.00     0.010 A 
ATOM     58  C   UNL A   1      42.688  26.543  29.071  1.00  0.00     0.010 A 
ATOM     59  C   UNL A   1      42.456  27.752  28.389  1.00  0.00    -0.014 A 
BRANCH  59  60
ATOM     60  C   UNL A   1      43.465  28.821  28.655  1.00  0.00     0.031 A 
ATOM     61  C   UNL A   1      42.976  30.102  29.317  1.00  0.00     0.074 A 
ATOM     62  C   UNL A   1      44.768  28.433  28.730  1.00  0.00     0.049 A 
ATOM     63  N   UNL A   1      43.688  30.996  29.917  1.00  0.00    -0.248 NA
ATOM     64  C   UNL A   1      41.551  30.461  29.364  1.00  0.00     0.031 C 
ATOM     65  C   UNL A   1      45.752  28.834  29.741  1.00  0.00     0.029 A 
ATOM     66  N   UNL A   1      45.487  27.497  27.992  1.00  0.00    -0.354 N 
ATOM     67  C   UNL A   1      42.851  31.827  30.673  1.00  0.00     0.074 A 
ATOM     68  C   UNL A   1      41.527  31.473  30.241  1.00  0.00     0.031 C 
ATOM     69  C   UNL A   1      46.928  28.223  29.545  1.00  0.00     0.029 A 
ATOM     70  C   UNL A   1      46.867  27.660  28.230  1.00  0.00     0.049 A 
ATOM     71  H   UNL A   1      45.092  26.823  27.393  1.00  0.00     0.167 HD
ATOM     72  C   UNL A   1      43.386  32.631  31.655  1.00  0.00     0.037 A 
ATOM     73  C   UNL A   1      47.683  28.153  27.251  1.00  0.00     0.037 A 
ATOM     74  C   UNL A   1      44.859  32.652  31.533  1.00  0.00     0.049 A 
ATOM     75  C   UNL A   1      48.057  29.633  27.459  1.00  0.00     0.074 A 
ATOM     76  C   UNL A   1      45.915  32.381  32.386  1.00  0.00     0.029 A 
ATOM     77  N   UNL A   1      45.433  32.816  30.270  1.00  0.00    -0.354 N 
ATOM     78  N   UNL A   1      47.394  30.454  28.254  1.00  0.00    -0.248 NA
ATOM     79  C   UNL A   1      49.243  30.287  26.908  1.00  0.00     0.031 C 
ATOM     80  C   UNL A   1      47.085  32.201  31.591  1.00  0.00     0.029 A 
ATOM     81  C   UNL A   1      46.767  32.470  30.268  1.00  0.00     0.049 A 
ATOM     82  H   UNL A   1      44.944  33.138  29.479  1.00  0.00     0.167 HD
ATOM     83  C   UNL A   1      48.018  31.673  28.334  1.00  0.00     0.074 A 
ATOM     84  C   UNL A   1      49.176  31.508  27.473  1.00  0.00     0.031 C 
ATOM     85  C   UNL A   1      47.583  32.736  29.089  1.00  0.00     0.037 A 
BRANCH  72  86
ATOM     86  C   UNL A   1      42.654  33.287  32.865  1.00  0.00     0.058 A 
ATOM     87  C   UNL A   1      41.911  34.490  32.702  1.00  0.00     0.135 A 
ATOM     88  C   UNL A   1      42.708  32.864  34.216  1.00  0.00     0.135 A 
ATOM     89  F   UNL A   1      41.711  35.025  31.490  1.00  0.00    -0.206 F 
ATOM     90  C   UNL A   1      41.322  35.212  33.757  1.00  0.00     0.059 A 
ATOM     91  C   UNL A   1      42.080  33.543  35.285  1.00  0.00     0.059 A 
ATOM     92  F   UNL A   1      43.393  31.779  34.588  1.00  0.00    -0.206 F 
ATOM     93  C   UNL A   1      41.401  34.729  35.052  1.00  0.00     0.060 A 
BRANCH  93  94
ATOM     94  S   UNL A   1      40.568  35.630  36.384  1.00  0.00     0.124 S 
ATOM     95  O   UNL A   1      39.402  36.183  35.704  1.00  0.00    -0.237 OA
ATOM     96  O   UNL A   1      40.293  34.574  37.353  1.00  0.00    -0.237 OA
ATOM     97  O   UNL A   1      41.563  36.611  36.807  1.00  0.00    -0.744 OA
ENDBRANCH  93  94
ENDBRANCH  72  86
BRANCH  73  98
ATOM     98  C   UNL A   1      47.656  27.210  26.074  1.00  0.00     0.058 A 
ATOM     99  C   UNL A   1      48.378  26.014  26.332  1.00  0.00     0.135 A 
ATOM    100  C   UNL A   1      46.428  27.053  25.401  1.00  0.00     0.135 A 
ATOM    101  F   UNL A   1      49.590  26.088  26.907  1.00  0.00    -0.206 F 
ATOM    102  C   UNL A   1      47.761  24.760  26.290  1.00  0.00     0.059 A 
ATOM    103  C   UNL A   1      45.795  25.800  25.334  1.00  0.00     0.059 A 
ATOM    104  F   UNL A   1      45.707  28.135  25.069  1.00  0.00    -0.206 F 
ATOM    105  C   UNL A   1      46.437  24.678  25.869  1.00  0.00     0.060 A 
BRANCH 105 106
ATOM    106  S   UNL A   1      45.485  23.190  26.302  1.00  0.00     0.124 S 
ATOM    107  O   UNL A   1      46.240  22.137  25.638  1.00  0.00    -0.237 OA
ATOM    108  O   UNL A   1      45.542  23.203  27.762  1.00  0.00    -0.237 OA
ATOM    109  O   UNL A   1      44.169  23.476  25.744  1.00  0.00    -0.744 OA
ENDBRANCH 105 106
ENDBRANCH  73  98
BRANCH  85 110
ATOM    110  C   UNL A   1      47.931  34.200  28.828  1.00  0.00     0.058 A 
ATOM    111  C   UNL A   1      49.044  34.841  29.392  1.00  0.00     0.135 A 
ATOM    112  C   UNL A   1      47.253  34.958  27.829  1.00  0.00     0.135 A 
ATOM    113  F   UNL A   1      49.880  34.205  30.222  1.00  0.00    -0.206 F 
ATOM    114  C   UNL A   1      49.392  36.155  29.083  1.00  0.00     0.059 A 
ATOM    115  C   UNL A   1      47.633  36.243  27.448  1.00  0.00     0.059 A 
ATOM    116  F   UNL A   1      46.206  34.474  27.147  1.00  0.00    -0.206 F 
ATOM    117  C   UNL A   1      48.682  36.849  28.112  1.00  0.00     0.060 A 
BRANCH 117 118
ATOM    118  S   UNL A   1      49.180  38.524  27.697  1.00  0.00     0.124 S 
ATOM    119  O   UNL A   1      48.547  38.695  26.393  1.00  0.00    -0.237 OA
ATOM    120  O   UNL A   1      48.600  39.303  28.788  1.00  0.00    -0.237 OA
ATOM    121  O   UNL A   1      50.638  38.456  27.690  1.00  0.00    -0.744 OA
ENDBRANCH 117 118
ENDBRANCH  85 110
ENDBRANCH  59  60
ENDBRANCH  52  54
ENDBRANCH  51  52
ENDBRANCH  50  51
ENDBRANCH  49  50
ENDBRANCH  48  49
ENDBRANCH  47  48
ENDBRANCH  46  47
ENDBRANCH  45  46
ENDBRANCH   1  45
TORSDOF 29
ENDMDL
MODEL 2
REMARK VINA RESULT:      -8.6      5.910     11.724
REMARK SMILES Cc1ccccc1C(=O)Nc1cc(C(=O)OCCOCCOCCOCCOC(=O)c2ccc(-c3c4nc(c(-c5c(F)cc(S(=O)(=O)[O-])cc5F)c5ccc([nH]5)c(-c5c(F)cc(S(=O)(=O)[O-])cc5F)c5nc(c(-c6c(F)cc(S(=O)(=O)[O-])cc6F)c6ccc3[nH]6)C=C5)C=C4)cc2)ccc1N1CC[NH+](CC(=O)Nc2ccc(F)cc2)CC1
REMARK SMILES IDX 21 1 20 2 19 3 18 4 17 5 16 6 14 7 15 8 13 9 11 10 12 11
REMARK SMILES IDX 99 12 98 13 97 14 10 15 8 16 9 17 7 19 1 20 2 21 3 22 4 23
REMARK SMILES IDX 6 24 5 25 100 26 101 27 116 28 102 29 115 30 103 31 104 33
REMARK SMILES IDX 105 34 106 35 107 36 108 38 109 39 114 40 110 41 113 42
REMARK SMILES IDX 111 43 112 44 22 45 23 46 24 47 25 48 26 49 27 50 28 51
REMARK SMILES IDX 29 52 30 53 31 54 32 55 96 56 33 57 95 58 34 59 35 60 36 61
REMARK SMILES IDX 89 62 37 63 94 64 88 65 90 66 38 67 93 68 87 69 86 70 39 72
REMARK SMILES IDX 73 73 52 74 72 75 53 76 56 77 71 78 91 79 54 80 55 81 70 83
REMARK SMILES IDX 92 84 57 85 40 86 41 87 50 88 42 89 43 90 49 91 51 92 44 93
REMARK SMILES IDX 45 94 46 95 47 96 48 97 74 98 75 99 84 100 76 101 77 102
REMARK SMILES IDX 83 103 85 104 78 105 79 106 80 107 81 108 82 109 58 110
REMARK SMILES IDX 59 111 68 112 60 113 61 114 67 115 69 116 62 117 63 118
REMARK SMILES IDX 64 119 65 120 66 121
REMARK H PARENT 10 18 103 32 107 37 90 71 56 82
REMARK Flexibility Score: inf
ROOT
ATOM      1  C   UNL A   1      48.518  26.635  31.156  1.00  0.00     0.188 C 
ENDROOT
BRANCH   1   2
ATOM      2  C   UNL A   1      49.606  26.907  30.123  1.00  0.00     0.188 C 
BRANCH   2   3
ATOM      3  O   UNL A   1      49.308  27.414  28.826  1.00  0.00    -0.376 OA
BRANCH   3   4
ATOM      4  C   UNL A   1      47.898  27.482  28.576  1.00  0.00     0.202 C 
BRANCH   4   5
ATOM      5  C   UNL A   1      47.294  28.746  27.944  1.00  0.00     0.261 C 
BRANCH   5   6
ATOM      6  O   UNL A   1      46.167  28.473  27.123  1.00  0.00    -0.460 OA
BRANCH   6   7
ATOM      7  C   UNL A   1      45.304  29.494  27.008  1.00  0.00     0.338 C 
ATOM      8  O   UNL A   1      45.364  30.452  26.277  1.00  0.00    -0.246 OA
BRANCH   7   9
ATOM      9  C   UNL A   1      44.071  29.026  27.665  1.00  0.00     0.062 A 
ATOM     10  C   UNL A   1      42.501  27.356  28.396  1.00  0.00     0.065 A 
ATOM     11  C   UNL A   1      43.687  27.678  27.764  1.00  0.00     0.044 A 
ATOM     12  C   UNL A   1      41.582  28.406  28.755  1.00  0.00     0.061 A 
ATOM     13  C   UNL A   1      41.934  29.733  28.443  1.00  0.00     0.029 A 
ATOM     14  C   UNL A   1      43.197  30.048  27.998  1.00  0.00     0.018 A 
BRANCH  10  15
ATOM     15  N   UNL A   1      42.183  26.025  28.730  1.00  0.00    -0.320 N 
ATOM     16  C   UNL A   1      42.660  24.769  28.388  1.00  0.00     0.255 C 
ATOM     17  O   UNL A   1      42.351  23.880  29.202  1.00  0.00    -0.269 OA
ATOM     18  H   UNL A   1      41.435  25.974  29.367  1.00  0.00     0.170 HD
BRANCH  16  19
ATOM     19  C   UNL A   1      43.513  24.325  27.226  1.00  0.00     0.043 A 
ATOM     20  C   UNL A   1      42.415  25.460  25.163  1.00  0.00     0.045 C 
ATOM     21  C   UNL A   1      43.361  24.523  25.843  1.00  0.00    -0.038 A 
ATOM     22  C   UNL A   1      44.239  23.869  24.944  1.00  0.00     0.004 A 
ATOM     23  C   UNL A   1      45.372  23.199  25.379  1.00  0.00     0.000 A 
ATOM     24  C   UNL A   1      44.714  23.683  27.636  1.00  0.00     0.014 A 
ATOM     25  C   UNL A   1      45.644  23.156  26.732  1.00  0.00     0.001 A 
ENDBRANCH  16  19
ENDBRANCH  10  15
BRANCH  12  26
ATOM     26  N   UNL A   1      40.435  28.189  29.578  1.00  0.00    -0.359 N 
ATOM     27  C   UNL A   1      39.176  28.915  29.204  1.00  0.00     0.178 C 
ATOM     28  C   UNL A   1      40.769  28.398  30.989  1.00  0.00     0.178 C 
ATOM     29  C   UNL A   1      38.071  28.884  30.294  1.00  0.00     0.284 C 
ATOM     30  C   UNL A   1      39.576  28.023  31.872  1.00  0.00     0.284 C 
ATOM     31  N   UNL A   1      38.495  28.968  31.701  1.00  0.00    -0.324 N 
ATOM     32  H   UNL A   1      37.644  28.746  32.218  1.00  0.00     0.348 HD
BRANCH  31  33
ATOM     33  C   UNL A   1      38.755  30.266  32.370  1.00  0.00     0.364 C 
BRANCH  33  34
ATOM     34  C   UNL A   1      37.984  30.724  33.625  1.00  0.00     0.279 C 
ATOM     35  O   UNL A   1      38.212  30.116  34.687  1.00  0.00    -0.268 OA
ATOM     36  N   UNL A   1      37.165  31.819  33.776  1.00  0.00    -0.321 N 
ATOM     37  H   UNL A   1      37.140  32.053  34.731  1.00  0.00     0.170 HD
BRANCH  36  38
ATOM     38  C   UNL A   1      36.340  32.741  33.069  1.00  0.00     0.041 A 
ATOM     39  C   UNL A   1      35.135  33.095  33.708  1.00  0.00     0.029 A 
ATOM     40  C   UNL A   1      36.487  33.234  31.776  1.00  0.00     0.029 A 
ATOM     41  C   UNL A   1      34.164  33.909  33.093  1.00  0.00     0.041 A 
ATOM     42  C   UNL A   1      35.506  34.008  31.126  1.00  0.00     0.041 A 
ATOM     43  C   UNL A   1      34.358  34.358  31.798  1.00  0.00     0.123 A 
ATOM     44  F   UNL A   1      33.437  35.124  31.200  1.00  0.00    -0.207 F 
ENDBRANCH  36  38
ENDBRANCH  33  34
ENDBRANCH  31  33
ENDBRANCH  12  26
ENDBRANCH   7   9
ENDBRANCH   6   7
ENDBRANCH   5   6
ENDBRANCH   4   5
ENDBRANCH   3   4
ENDBRANCH   2   3
ENDBRANCH   1   2
BRANCH   1  45
ATOM     45  O   UNL A   1      48.754  25.503  31.999  1.00  0.00    -0.377 OA
BRANCH  45  46
ATOM     46  C   UNL A   1      48.497  25.684  33.393  1.00  0.00     0.188 C 
BRANCH  46  47
ATOM     47  C   UNL A   1      47.671  26.924  33.706  1.00  0.00     0.188 C 
BRANCH  47  48
ATOM     48  O   UNL A   1      46.591  26.552  34.565  1.00  0.00    -0.376 OA
BRANCH  48  49
ATOM     49  C   UNL A   1      46.697  25.325  35.275  1.00  0.00     0.202 C 
BRANCH  49  50
ATOM     50  C   UNL A   1      45.416  24.495  35.337  1.00  0.00     0.261 C 
BRANCH  50  51
ATOM     51  O   UNL A   1      44.324  25.175  34.682  1.00  0.00    -0.460 OA
BRANCH  51  52
ATOM     52  C   UNL A   1      43.122  25.132  35.328  1.00  0.00     0.338 C 
ATOM     53  O   UNL A   1      42.581  24.095  35.668  1.00  0.00    -0.246 OA
BRANCH  52  54
ATOM     54  C   UNL A   1      42.613  26.507  35.608  1.00  0.00     0.060 A 
ATOM     55  C   UNL A   1      41.644  27.113  34.796  1.00  0.00     0.016 A 
ATOM     56  C   UNL A   1      43.258  27.274  36.562  1.00  0.00     0.016 A 
ATOM     57  C   UNL A   1      41.485  28.517  34.783  1.00  0.00     0.010 A 
ATOM     58  C   UNL A   1      43.161  28.648  36.482  1.00  0.00     0.010 A 
ATOM     59  C   UNL A   1      42.316  29.309  35.571  1.00  0.00    -0.014 A 
BRANCH  59  60
ATOM     60  C   UNL A   1      42.551  30.779  35.456  1.00  0.00     0.031 A 
ATOM     61  C   UNL A   1      43.746  31.239  34.632  1.00  0.00     0.074 A 
ATOM     62  C   UNL A   1      41.481  31.592  35.675  1.00  0.00     0.049 A 
ATOM     63  N   UNL A   1      43.954  32.415  34.141  1.00  0.00    -0.248 NA
ATOM     64  C   UNL A   1      44.841  30.328  34.270  1.00  0.00     0.031 C 
ATOM     65  C   UNL A   1      41.069  32.746  34.868  1.00  0.00     0.029 A 
ATOM     66  N   UNL A   1      40.445  31.510  36.601  1.00  0.00    -0.354 N 
ATOM     67  C   UNL A   1      44.971  32.343  33.179  1.00  0.00     0.074 A 
ATOM     68  C   UNL A   1      45.518  31.025  33.349  1.00  0.00     0.031 C 
ATOM     69  C   UNL A   1      39.939  33.290  35.339  1.00  0.00     0.029 A 
ATOM     70  C   UNL A   1      39.745  32.734  36.644  1.00  0.00     0.049 A 
ATOM     71  H   UNL A   1      40.232  30.717  37.144  1.00  0.00     0.167 HD
ATOM     72  C   UNL A   1      45.143  33.375  32.283  1.00  0.00     0.037 A 
ATOM     73  C   UNL A   1      39.841  33.545  37.739  1.00  0.00     0.037 A 
ATOM     74  C   UNL A   1      44.338  34.540  32.705  1.00  0.00     0.049 A 
ATOM     75  C   UNL A   1      40.779  34.749  37.525  1.00  0.00     0.074 A 
ATOM     76  C   UNL A   1      43.371  35.330  32.107  1.00  0.00     0.029 A 
ATOM     77  N   UNL A   1      44.356  34.926  34.047  1.00  0.00    -0.354 N 
ATOM     78  N   UNL A   1      41.681  34.814  36.563  1.00  0.00    -0.248 NA
ATOM     79  C   UNL A   1      40.719  36.005  38.270  1.00  0.00     0.031 C 
ATOM     80  C   UNL A   1      42.692  36.047  33.136  1.00  0.00     0.029 A 
ATOM     81  C   UNL A   1      43.315  35.779  34.346  1.00  0.00     0.049 A 
ATOM     82  H   UNL A   1      45.029  34.626  34.700  1.00  0.00     0.167 HD
ATOM     83  C   UNL A   1      42.289  36.044  36.541  1.00  0.00     0.074 A 
ATOM     84  C   UNL A   1      41.640  36.752  37.631  1.00  0.00     0.031 C 
ATOM     85  C   UNL A   1      43.263  36.430  35.650  1.00  0.00     0.037 A 
BRANCH  72  86
ATOM     86  C   UNL A   1      45.882  33.343  30.911  1.00  0.00     0.058 A 
ATOM     87  C   UNL A   1      47.299  33.452  30.845  1.00  0.00     0.135 A 
ATOM     88  C   UNL A   1      45.283  33.307  29.628  1.00  0.00     0.135 A 
ATOM     89  F   UNL A   1      48.050  33.457  31.954  1.00  0.00    -0.206 F 
ATOM     90  C   UNL A   1      48.036  33.552  29.649  1.00  0.00     0.059 A 
ATOM     91  C   UNL A   1      46.004  33.353  28.414  1.00  0.00     0.059 A 
ATOM     92  F   UNL A   1      43.956  33.249  29.471  1.00  0.00    -0.206 F 
ATOM     93  C   UNL A   1      47.383  33.493  28.430  1.00  0.00     0.060 A 
BRANCH  93  94
ATOM     94  S   UNL A   1      48.356  33.543  26.903  1.00  0.00     0.124 S 
ATOM     95  O   UNL A   1      47.825  32.407  26.157  1.00  0.00    -0.237 OA
ATOM     96  O   UNL A   1      48.029  34.860  26.366  1.00  0.00    -0.237 OA
ATOM     97  O   UNL A   1      49.732  33.392  27.368  1.00  0.00    -0.744 OA
ENDBRANCH  93  94
ENDBRANCH  72  86
BRANCH  73  98
ATOM     98  C   UNL A   1      39.300  32.808  38.939  1.00  0.00     0.058 A 
ATOM     99  C   UNL A   1      40.267  32.687  39.972  1.00  0.00     0.135 A 
ATOM    100  C   UNL A   1      37.992  33.127  39.356  1.00  0.00     0.135 A 
ATOM    101  F   UNL A   1      41.521  32.315  39.661  1.00  0.00    -0.206 F 
ATOM    102  C   UNL A   1      40.053  33.223  41.246  1.00  0.00     0.059 A 
ATOM    103  C   UNL A   1      37.751  33.654  40.636  1.00  0.00     0.059 A 
ATOM    104  F   UNL A   1      37.005  33.207  38.451  1.00  0.00    -0.206 F 
ATOM    105  C   UNL A   1      38.812  33.783  41.537  1.00  0.00     0.060 A 
BRANCH 105 106
ATOM    106  S   UNL A   1      38.691  34.922  42.949  1.00  0.00     0.124 S 
ATOM    107  O   UNL A   1      39.105  34.080  44.062  1.00  0.00    -0.237 OA
ATOM    108  O   UNL A   1      39.618  35.986  42.566  1.00  0.00    -0.237 OA
ATOM    109  O   UNL A   1      37.286  35.308  42.932  1.00  0.00    -0.744 OA
ENDBRANCH 105 106
ENDBRANCH  73  98
BRANCH  85 110
ATOM    110  C   UNL A   1      44.283  37.541  35.890  1.00  0.00     0.058 A 
ATOM    111  C   UNL A   1      45.466  37.356  36.620  1.00  0.00     0.135 A 
ATOM    112  C   UNL A   1      44.192  38.792  35.213  1.00  0.00     0.135 A 
ATOM    113  F   UNL A   1      45.777  36.178  37.175  1.00  0.00    -0.206 F 
ATOM    114  C   UNL A   1      46.425  38.358  36.765  1.00  0.00     0.059 A 
ATOM    115  C   UNL A   1      45.176  39.776  35.280  1.00  0.00     0.059 A 
ATOM    116  F   UNL A   1      43.156  39.109  34.425  1.00  0.00    -0.206 F 
ATOM    117  C   UNL A   1      46.272  39.564  36.094  1.00  0.00     0.060 A 
BRANCH 117 118
ATOM    118  S   UNL A   1      47.545  40.821  36.258  1.00  0.00     0.124 S 
ATOM    119  O   UNL A   1      46.782  41.926  36.830  1.00  0.00    -0.237 OA
ATOM    120  O   UNL A   1      48.502  40.182  37.157  1.00  0.00    -0.237 OA
ATOM    121  O   UNL A   1      48.014  41.015  34.890  1.00  0.00    -0.744 OA
ENDBRANCH 117 118
ENDBRANCH  85 110
ENDBRANCH  59  60
ENDBRANCH  52  54
ENDBRANCH  51  52
ENDBRANCH  50  51
ENDBRANCH  49  50
ENDBRANCH  48  49
ENDBRANCH  47  48
ENDBRANCH  46  47
ENDBRANCH  45  46
ENDBRANCH   1  45
TORSDOF 29
ENDMDL
MODEL 3
REMARK VINA RESULT:      -8.6      7.048     13.350
REMARK SMILES Cc1ccccc1C(=O)Nc1cc(C(=O)OCCOCCOCCOCCOC(=O)c2ccc(-c3c4nc(c(-c5c(F)cc(S(=O)(=O)[O-])cc5F)c5ccc([nH]5)c(-c5c(F)cc(S(=O)(=O)[O-])cc5F)c5nc(c(-c6c(F)cc(S(=O)(=O)[O-])cc6F)c6ccc3[nH]6)C=C5)C=C4)cc2)ccc1N1CC[NH+](CC(=O)Nc2ccc(F)cc2)CC1
REMARK SMILES IDX 21 1 20 2 19 3 18 4 17 5 16 6 14 7 15 8 13 9 11 10 12 11
REMARK SMILES IDX 99 12 98 13 97 14 10 15 8 16 9 17 7 19 1 20 2 21 3 22 4 23
REMARK SMILES IDX 6 24 5 25 100 26 101 27 116 28 102 29 115 30 103 31 104 33
REMARK SMILES IDX 105 34 106 35 107 36 108 38 109 39 114 40 110 41 113 42
REMARK SMILES IDX 111 43 112 44 22 45 23 46 24 47 25 48 26 49 27 50 28 51
REMARK SMILES IDX 29 52 30 53 31 54 32 55 96 56 33 57 95 58 34 59 35 60 36 61
REMARK SMILES IDX 89 62 37 63 94 64 88 65 90 66 38 67 93 68 87 69 86 70 39 72
REMARK SMILES IDX 73 73 52 74 72 75 53 76 56 77 71 78 91 79 54 80 55 81 70 83
REMARK SMILES IDX 92 84 57 85 40 86 41 87 50 88 42 89 43 90 49 91 51 92 44 93
REMARK SMILES IDX 45 94 46 95 47 96 48 97 74 98 75 99 84 100 76 101 77 102
REMARK SMILES IDX 83 103 85 104 78 105 79 106 80 107 81 108 82 109 58 110
REMARK SMILES IDX 59 111 68 112 60 113 61 114 67 115 69 116 62 117 63 118
REMARK SMILES IDX 64 119 65 120 66 121
REMARK H PARENT 10 18 103 32 107 37 90 71 56 82
REMARK Flexibility Score: inf
ROOT
ATOM      1  C   UNL A   1      37.530  31.706  31.200  1.00  0.00     0.188 C 
ENDROOT
BRANCH   1   2
ATOM      2  C   UNL A   1      37.078  32.002  29.774  1.00  0.00     0.188 C 
BRANCH   2   3
ATOM      3  O   UNL A   1      35.730  32.340  29.462  1.00  0.00    -0.376 OA
BRANCH   3   4
ATOM      4  C   UNL A   1      35.390  32.033  28.103  1.00  0.00     0.202 C 
BRANCH   4   5
ATOM      5  C   UNL A   1      33.924  31.784  27.720  1.00  0.00     0.261 C 
BRANCH   5   6
ATOM      6  O   UNL A   1      33.771  30.779  26.727  1.00  0.00    -0.460 OA
BRANCH   6   7
ATOM      7  C   UNL A   1      32.509  30.363  26.547  1.00  0.00     0.338 C 
ATOM      8  O   UNL A   1      31.512  31.026  26.391  1.00  0.00    -0.246 OA
BRANCH   7   9
ATOM      9  C   UNL A   1      32.624  28.939  26.186  1.00  0.00     0.062 A 
ATOM     10  C   UNL A   1      31.771  26.805  25.476  1.00  0.00     0.065 A 
ATOM     11  C   UNL A   1      31.546  28.134  25.784  1.00  0.00     0.044 A 
ATOM     12  C   UNL A   1      33.053  26.218  25.770  1.00  0.00     0.061 A 
ATOM     13  C   UNL A   1      34.036  27.030  26.365  1.00  0.00     0.029 A 
ATOM     14  C   UNL A   1      33.862  28.390  26.479  1.00  0.00     0.018 A 
BRANCH  10  15
ATOM     15  N   UNL A   1      30.785  26.018  24.849  1.00  0.00    -0.320 N 
ATOM     16  C   UNL A   1      29.787  26.230  23.911  1.00  0.00     0.255 C 
ATOM     17  O   UNL A   1      29.396  25.188  23.354  1.00  0.00    -0.269 OA
ATOM     18  H   UNL A   1      30.811  25.083  25.153  1.00  0.00     0.170 HD
BRANCH  16  19
ATOM     19  C   UNL A   1      29.138  27.507  23.438  1.00  0.00     0.043 A 
ATOM     20  C   UNL A   1      31.038  28.756  22.181  1.00  0.00     0.045 C 
ATOM     21  C   UNL A   1      29.680  28.633  22.796  1.00  0.00    -0.038 A 
ATOM     22  C   UNL A   1      28.869  29.775  22.585  1.00  0.00     0.004 A 
ATOM     23  C   UNL A   1      27.500  29.754  22.805  1.00  0.00     0.000 A 
ATOM     24  C   UNL A   1      27.724  27.500  23.595  1.00  0.00     0.014 A 
ATOM     25  C   UNL A   1      26.914  28.589  23.258  1.00  0.00     0.001 A 
ENDBRANCH  16  19
ENDBRANCH  10  15
BRANCH  12  26
ATOM     26  N   UNL A   1      33.438  24.920  25.312  1.00  0.00    -0.359 N 
ATOM     27  C   UNL A   1      33.977  23.964  26.336  1.00  0.00     0.178 C 
ATOM     28  C   UNL A   1      34.338  25.028  24.161  1.00  0.00     0.178 C 
ATOM     29  C   UNL A   1      34.656  22.702  25.739  1.00  0.00     0.284 C 
ATOM     30  C   UNL A   1      34.628  23.638  23.589  1.00  0.00     0.284 C 
ATOM     31  N   UNL A   1      35.440  22.866  24.504  1.00  0.00    -0.324 N 
ATOM     32  H   UNL A   1      35.624  21.907  24.211  1.00  0.00     0.348 HD
BRANCH  31  33
ATOM     33  C   UNL A   1      36.858  23.303  24.523  1.00  0.00     0.364 C 
BRANCH  33  34
ATOM     34  C   UNL A   1      37.919  22.645  25.427  1.00  0.00     0.279 C 
ATOM     35  O   UNL A   1      37.991  21.402  25.410  1.00  0.00    -0.268 OA
ATOM     36  N   UNL A   1      38.912  23.248  26.163  1.00  0.00    -0.321 N 
ATOM     37  H   UNL A   1      39.629  22.590  26.308  1.00  0.00     0.170 HD
BRANCH  36  38
ATOM     38  C   UNL A   1      39.292  24.468  26.796  1.00  0.00     0.041 A 
ATOM     39  C   UNL A   1      40.245  25.242  26.104  1.00  0.00     0.029 A 
ATOM     40  C   UNL A   1      38.961  24.936  28.064  1.00  0.00     0.029 A 
ATOM     41  C   UNL A   1      40.801  26.417  26.646  1.00  0.00     0.041 A 
ATOM     42  C   UNL A   1      39.544  26.080  28.643  1.00  0.00     0.041 A 
ATOM     43  C   UNL A   1      40.447  26.826  27.920  1.00  0.00     0.123 A 
ATOM     44  F   UNL A   1      40.977  27.935  28.450  1.00  0.00    -0.207 F 
ENDBRANCH  36  38
ENDBRANCH  33  34
ENDBRANCH  31  33
ENDBRANCH  12  26
ENDBRANCH   7   9
ENDBRANCH   6   7
ENDBRANCH   5   6
ENDBRANCH   4   5
ENDBRANCH   3   4
ENDBRANCH   2   3
ENDBRANCH   1   2
BRANCH   1  45
ATOM     45  O   UNL A   1      37.459  32.816  32.100  1.00  0.00    -0.377 OA
BRANCH  45  46
ATOM     46  C   UNL A   1      38.700  33.280  32.636  1.00  0.00     0.188 C 
BRANCH  46  47
ATOM     47  C   UNL A   1      39.916  32.561  32.071  1.00  0.00     0.188 C 
BRANCH  47  48
ATOM     48  O   UNL A   1      40.866  33.537  31.637  1.00  0.00    -0.376 OA
BRANCH  48  49
ATOM     49  C   UNL A   1      42.230  33.146  31.552  1.00  0.00     0.202 C 
BRANCH  49  50
ATOM     50  C   UNL A   1      43.190  33.937  32.438  1.00  0.00     0.261 C 
BRANCH  50  51
ATOM     51  O   UNL A   1      43.823  33.082  33.412  1.00  0.00    -0.460 OA
BRANCH  51  52
ATOM     52  C   UNL A   1      42.999  32.212  34.068  1.00  0.00     0.338 C 
ATOM     53  O   UNL A   1      42.860  31.047  33.743  1.00  0.00    -0.246 OA
BRANCH  52  54
ATOM     54  C   UNL A   1      42.362  32.864  35.251  1.00  0.00     0.060 A 
ATOM     55  C   UNL A   1      41.359  33.832  35.106  1.00  0.00     0.016 A 
ATOM     56  C   UNL A   1      42.917  32.660  36.502  1.00  0.00     0.016 A 
ATOM     57  C   UNL A   1      41.074  34.741  36.150  1.00  0.00     0.010 A 
ATOM     58  C   UNL A   1      42.698  33.604  37.484  1.00  0.00     0.010 A 
ATOM     59  C   UNL A   1      41.814  34.688  37.328  1.00  0.00    -0.014 A 
BRANCH  59  60
ATOM     60  C   UNL A   1      41.917  35.735  38.388  1.00  0.00     0.031 A 
ATOM     61  C   UNL A   1      43.030  36.766  38.253  1.00  0.00     0.074 A 
ATOM     62  C   UNL A   1      40.794  35.990  39.113  1.00  0.00     0.049 A 
ATOM     63  N   UNL A   1      43.114  37.910  38.844  1.00  0.00    -0.248 NA
ATOM     64  C   UNL A   1      44.181  36.560  37.362  1.00  0.00     0.031 C 
ATOM     65  C   UNL A   1      40.248  37.306  39.462  1.00  0.00     0.029 A 
ATOM     66  N   UNL A   1      39.812  35.137  39.607  1.00  0.00    -0.354 N 
ATOM     67  C   UNL A   1      44.088  38.691  38.208  1.00  0.00     0.074 A 
ATOM     68  C   UNL A   1      44.753  37.770  37.328  1.00  0.00     0.031 C 
ATOM     69  C   UNL A   1      39.099  37.191  40.140  1.00  0.00     0.029 A 
ATOM     70  C   UNL A   1      39.013  35.821  40.546  1.00  0.00     0.049 A 
ATOM     71  H   UNL A   1      39.692  34.196  39.342  1.00  0.00     0.167 HD
ATOM     72  C   UNL A   1      44.130  40.050  38.429  1.00  0.00     0.037 A 
ATOM     73  C   UNL A   1      39.090  35.509  41.874  1.00  0.00     0.037 A 
ATOM     74  C   UNL A   1      43.249  40.399  39.563  1.00  0.00     0.049 A 
ATOM     75  C   UNL A   1      39.910  36.525  42.692  1.00  0.00     0.074 A 
ATOM     76  C   UNL A   1      42.192  41.273  39.748  1.00  0.00     0.029 A 
ATOM     77  N   UNL A   1      43.296  39.620  40.721  1.00  0.00    -0.354 N 
ATOM     78  N   UNL A   1      40.759  37.384  42.156  1.00  0.00    -0.248 NA
ATOM     79  C   UNL A   1      39.777  36.752  44.130  1.00  0.00     0.031 C 
ATOM     80  C   UNL A   1      41.503  40.883  40.933  1.00  0.00     0.029 A 
ATOM     81  C   UNL A   1      42.201  39.842  41.529  1.00  0.00     0.049 A 
ATOM     82  H   UNL A   1      44.021  38.989  40.935  1.00  0.00     0.167 HD
ATOM     83  C   UNL A   1      41.258  38.240  43.105  1.00  0.00     0.074 A 
ATOM     84  C   UNL A   1      40.602  37.800  44.324  1.00  0.00     0.031 C 
ATOM     85  C   UNL A   1      42.153  39.255  42.863  1.00  0.00     0.037 A 
BRANCH  72  86
ATOM     86  C   UNL A   1      44.806  41.146  37.549  1.00  0.00     0.058 A 
ATOM     87  C   UNL A   1      45.587  42.177  38.142  1.00  0.00     0.135 A 
ATOM     88  C   UNL A   1      44.661  41.316  36.150  1.00  0.00     0.135 A 
ATOM     89  F   UNL A   1      45.873  42.167  39.451  1.00  0.00    -0.206 F 
ATOM     90  C   UNL A   1      46.131  43.269  37.440  1.00  0.00     0.059 A 
ATOM     91  C   UNL A   1      45.241  42.374  35.415  1.00  0.00     0.059 A 
ATOM     92  F   UNL A   1      43.927  40.478  35.411  1.00  0.00    -0.206 F 
ATOM     93  C   UNL A   1      45.963  43.360  36.069  1.00  0.00     0.060 A 
BRANCH  93  94
ATOM     94  S   UNL A   1      46.738  44.730  35.172  1.00  0.00     0.124 S 
ATOM     95  O   UNL A   1      46.299  44.493  33.802  1.00  0.00    -0.237 OA
ATOM     96  O   UNL A   1      46.162  45.900  35.827  1.00  0.00    -0.237 OA
ATOM     97  O   UNL A   1      48.165  44.531  35.411  1.00  0.00    -0.744 OA
ENDBRANCH  93  94
ENDBRANCH  72  86
BRANCH  73  98
ATOM     98  C   UNL A   1      38.669  34.073  42.062  1.00  0.00     0.058 A 
ATOM     99  C   UNL A   1      39.645  33.318  42.766  1.00  0.00     0.135 A 
ATOM    100  C   UNL A   1      37.328  33.835  42.427  1.00  0.00     0.135 A 
ATOM    101  F   UNL A   1      40.940  33.436  42.425  1.00  0.00    -0.206 F 
ATOM    102  C   UNL A   1      39.354  32.693  43.982  1.00  0.00     0.059 A 
ATOM    103  C   UNL A   1      37.012  33.197  43.638  1.00  0.00     0.059 A 
ATOM    104  F   UNL A   1      36.339  34.465  41.775  1.00  0.00    -0.206 F 
ATOM    105  C   UNL A   1      38.043  32.714  44.449  1.00  0.00     0.060 A 
BRANCH 105 106
ATOM    106  S   UNL A   1      37.753  32.389  46.215  1.00  0.00     0.124 S 
ATOM    107  O   UNL A   1      38.764  31.386  46.515  1.00  0.00    -0.237 OA
ATOM    108  O   UNL A   1      37.958  33.709  46.808  1.00  0.00    -0.237 OA
ATOM    109  O   UNL A   1      36.372  31.925  46.234  1.00  0.00    -0.744 OA
ENDBRANCH 105 106
ENDBRANCH  73  98
BRANCH  85 110
ATOM    110  C   UNL A   1      43.085  39.872  43.904  1.00  0.00     0.058 A 
ATOM    111  C   UNL A   1      44.375  39.388  44.166  1.00  0.00     0.135 A 
ATOM    112  C   UNL A   1      42.774  41.110  44.538  1.00  0.00     0.135 A 
ATOM    113  F   UNL A   1      44.877  38.328  43.521  1.00  0.00    -0.206 F 
ATOM    114  C   UNL A   1      45.242  40.009  45.064  1.00  0.00     0.059 A 
ATOM    115  C   UNL A   1      43.657  41.788  45.376  1.00  0.00     0.059 A 
ATOM    116  F   UNL A   1      41.608  41.742  44.349  1.00  0.00    -0.206 F 
ATOM    117  C   UNL A   1      44.876  41.206  45.665  1.00  0.00     0.060 A 
BRANCH 117 118
ATOM    118  S   UNL A   1      46.032  42.011  46.780  1.00  0.00     0.124 S 
ATOM    119  O   UNL A   1      46.665  40.860  47.414  1.00  0.00    -0.237 OA
ATOM    120  O   UNL A   1      46.876  42.771  45.862  1.00  0.00    -0.237 OA
ATOM    121  O   UNL A   1      45.172  42.816  47.641  1.00  0.00    -0.744 OA
ENDBRANCH 117 118
ENDBRANCH  85 110
ENDBRANCH  59  60
ENDBRANCH  52  54
ENDBRANCH  51  52
ENDBRANCH  50  51
ENDBRANCH  49  50
ENDBRANCH  48  49
ENDBRANCH  47  48
ENDBRANCH  46  47
ENDBRANCH  45  46
ENDBRANCH   1  45
TORSDOF 29
ENDMDL
