MODEL 1
REMARK VINA RESULT:     -10.2      0.000      0.000
REMARK SMILES C[C@@]1(C(=O)OCCOCCOCCOCCOC(=O)c2ccc(-c3c4nc(c(-c5c(F)cc(S(=O)(=O)[O-])cc5F)c5ccc([nH]5)c(-c5c(F)cc(S(=O)(=O)[O-])cc5F)c5nc(c(-c6c(F)cc(S(=O)(=O)[O-])cc6F)c6ccc3[nH]6)C=C5)C=C4)cc2)[C@@H]2C=C[C@@]3(CN(c4ccccc4)C(=O)[C@H]13)O2
REMARK SMILES IDX 12 1 11 2 10 3 9 4 8 5 7 6 6 7 5 8 3 9 4 10 2 11 1 12 86 13
REMARK SMILES IDX 100 14 87 15 101 16 89 17 98 18 88 19 90 20 91 21 99 22
REMARK SMILES IDX 92 23 93 24 97 25 94 26 96 27 95 28 13 29 14 30 15 31 16 32
REMARK SMILES IDX 17 33 18 34 19 35 20 36 21 37 85 38 22 39 84 40 23 41 24 42
REMARK SMILES IDX 25 43 78 44 26 45 83 46 77 47 79 48 27 49 82 50 76 51 75 52
REMARK SMILES IDX 28 54 62 55 41 56 61 57 42 58 45 59 60 60 80 61 43 62 44 63
REMARK SMILES IDX 59 65 81 66 46 67 29 68 30 69 39 70 31 71 32 72 38 73 40 74
REMARK SMILES IDX 33 75 34 76 35 77 36 78 37 79 63 80 64 81 73 82 65 83 66 84
REMARK SMILES IDX 72 85 74 86 67 87 68 88 69 89 70 90 71 91 47 92 48 93 57 94
REMARK SMILES IDX 49 95 50 96 56 97 58 98 51 99 52 100 53 101 54 102 55 103
REMARK H PARENT 79 53 45 64
REMARK Flexibility Score: inf
ROOT
ATOM      1  C   UNL A   1      37.730  21.759  25.285  1.00  0.00     0.188 C 
ENDROOT
BRANCH   1   2
ATOM      2  O   UNL A   1      36.982  22.008  24.090  1.00  0.00    -0.377 OA
BRANCH   2   3
ATOM      3  C   UNL A   1      35.713  22.621  24.223  1.00  0.00     0.188 C 
BRANCH   3   4
ATOM      4  C   UNL A   1      34.511  21.729  24.547  1.00  0.00     0.188 C 
BRANCH   4   5
ATOM      5  O   UNL A   1      33.571  22.266  25.459  1.00  0.00    -0.376 OA
BRANCH   5   6
ATOM      6  C   UNL A   1      32.289  21.651  25.602  1.00  0.00     0.202 C 
BRANCH   6   7
ATOM      7  C   UNL A   1      30.975  22.438  25.465  1.00  0.00     0.261 C 
BRANCH   7   8
ATOM      8  O   UNL A   1      31.128  23.707  24.817  1.00  0.00    -0.463 OA
BRANCH   8   9
ATOM      9  C   UNL A   1      30.480  24.758  25.367  1.00  0.00     0.315 C 
ATOM     10  O   UNL A   1      30.055  24.788  26.518  1.00  0.00    -0.251 OA
BRANCH   9  11
ATOM     11  C   UNL A   1      30.464  25.973  24.467  1.00  0.00     0.110 C 
ATOM     12  C   UNL A   1      29.002  26.236  24.013  1.00  0.00     0.028 C 
ATOM     13  C   UNL A   1      31.293  25.704  23.177  1.00  0.00     0.160 C 
ATOM     14  C   UNL A   1      31.143  27.270  24.956  1.00  0.00     0.137 C 
ATOM     15  C   UNL A   1      32.689  25.286  23.515  1.00  0.00     0.004 C 
ATOM     16  O   UNL A   1      31.545  27.099  22.728  1.00  0.00    -0.360 OA
ATOM     17  C   UNL A   1      32.250  27.484  23.908  1.00  0.00     0.118 C 
ATOM     18  C   UNL A   1      31.999  27.637  26.153  1.00  0.00     0.234 C 
ATOM     19  C   UNL A   1      33.292  26.386  23.971  1.00  0.00     0.009 C 
ATOM     20  C   UNL A   1      32.705  28.887  24.257  1.00  0.00     0.166 C 
ATOM     21  N   UNL A   1      32.716  28.789  25.717  1.00  0.00    -0.309 N 
ATOM     22  O   UNL A   1      32.034  27.113  27.249  1.00  0.00    -0.274 OA
BRANCH  21  23
ATOM     23  C   UNL A   1      33.520  29.607  26.530  1.00  0.00     0.044 A 
ATOM     24  C   UNL A   1      33.021  30.819  27.020  1.00  0.00     0.026 A 
ATOM     25  C   UNL A   1      34.817  29.217  26.870  1.00  0.00     0.026 A 
ATOM     26  C   UNL A   1      33.802  31.610  27.868  1.00  0.00     0.002 A 
ATOM     27  C   UNL A   1      35.616  30.039  27.663  1.00  0.00     0.002 A 
ATOM     28  C   UNL A   1      35.103  31.225  28.180  1.00  0.00     0.000 A 
ENDBRANCH  21  23
ENDBRANCH   9  11
ENDBRANCH   8   9
ENDBRANCH   7   8
ENDBRANCH   6   7
ENDBRANCH   5   6
ENDBRANCH   4   5
ENDBRANCH   3   4
ENDBRANCH   2   3
ENDBRANCH   1   2
BRANCH   1  29
ATOM     29  C   UNL A   1      38.354  22.959  26.011  1.00  0.00     0.188 C 
BRANCH  29  30
ATOM     30  O   UNL A   1      39.436  22.727  26.916  1.00  0.00    -0.376 OA
BRANCH  30  31
ATOM     31  C   UNL A   1      40.637  22.163  26.407  1.00  0.00     0.202 C 
BRANCH  31  32
ATOM     32  C   UNL A   1      41.723  23.158  26.000  1.00  0.00     0.261 C 
BRANCH  32  33
ATOM     33  O   UNL A   1      41.873  24.241  26.929  1.00  0.00    -0.460 OA
BRANCH  33  34
ATOM     34  C   UNL A   1      41.652  25.473  26.418  1.00  0.00     0.338 C 
ATOM     35  O   UNL A   1      41.665  25.801  25.237  1.00  0.00    -0.246 OA
BRANCH  34  36
ATOM     36  C   UNL A   1      41.288  26.399  27.499  1.00  0.00     0.060 A 
ATOM     37  C   UNL A   1      42.065  27.545  27.702  1.00  0.00     0.016 A 
ATOM     38  C   UNL A   1      40.244  26.085  28.368  1.00  0.00     0.016 A 
ATOM     39  C   UNL A   1      41.810  28.377  28.793  1.00  0.00     0.010 A 
ATOM     40  C   UNL A   1      40.004  26.907  29.469  1.00  0.00     0.010 A 
ATOM     41  C   UNL A   1      40.792  28.050  29.696  1.00  0.00    -0.014 A 
BRANCH  41  42
ATOM     42  C   UNL A   1      40.599  28.830  30.943  1.00  0.00     0.031 A 
ATOM     43  C   UNL A   1      39.568  29.925  30.962  1.00  0.00     0.074 A 
ATOM     44  C   UNL A   1      41.361  28.592  32.025  1.00  0.00     0.049 A 
ATOM     45  N   UNL A   1      39.320  30.814  31.886  1.00  0.00    -0.248 NA
ATOM     46  C   UNL A   1      38.707  30.036  29.773  1.00  0.00     0.031 C 
ATOM     47  C   UNL A   1      42.369  27.538  32.137  1.00  0.00     0.029 A 
ATOM     48  N   UNL A   1      41.427  29.247  33.230  1.00  0.00    -0.354 N 
ATOM     49  C   UNL A   1      38.283  31.596  31.391  1.00  0.00     0.074 A 
ATOM     50  C   UNL A   1      37.974  31.099  30.068  1.00  0.00     0.031 C 
ATOM     51  C   UNL A   1      42.980  27.640  33.329  1.00  0.00     0.029 A 
ATOM     52  C   UNL A   1      42.427  28.783  34.053  1.00  0.00     0.049 A 
ATOM     53  H   UNL A   1      40.818  29.978  33.481  1.00  0.00     0.167 HD
ATOM     54  C   UNL A   1      37.642  32.627  31.990  1.00  0.00     0.037 A 
ATOM     55  C   UNL A   1      42.868  29.250  35.238  1.00  0.00     0.037 A 
ATOM     56  C   UNL A   1      37.957  33.108  33.310  1.00  0.00     0.049 A 
ATOM     57  C   UNL A   1      42.190  30.446  35.854  1.00  0.00     0.074 A 
ATOM     58  C   UNL A   1      37.340  34.120  34.027  1.00  0.00     0.029 A 
ATOM     59  N   UNL A   1      38.982  32.621  34.109  1.00  0.00    -0.354 N 
ATOM     60  N   UNL A   1      41.183  31.152  35.394  1.00  0.00    -0.248 NA
ATOM     61  C   UNL A   1      42.705  30.910  37.150  1.00  0.00     0.031 C 
ATOM     62  C   UNL A   1      38.033  34.286  35.231  1.00  0.00     0.029 A 
ATOM     63  C   UNL A   1      39.042  33.338  35.293  1.00  0.00     0.049 A 
ATOM     64  H   UNL A   1      39.580  31.877  33.868  1.00  0.00     0.167 HD
ATOM     65  C   UNL A   1      40.928  32.125  36.356  1.00  0.00     0.074 A 
ATOM     66  C   UNL A   1      41.876  31.907  37.429  1.00  0.00     0.031 C 
ATOM     67  C   UNL A   1      39.994  33.110  36.352  1.00  0.00     0.037 A 
BRANCH  54  68
ATOM     68  C   UNL A   1      36.552  33.319  31.218  1.00  0.00     0.058 A 
ATOM     69  C   UNL A   1      35.195  33.159  31.543  1.00  0.00     0.135 A 
ATOM     70  C   UNL A   1      36.871  34.191  30.164  1.00  0.00     0.135 A 
ATOM     71  F   UNL A   1      34.830  32.326  32.531  1.00  0.00    -0.206 F 
ATOM     72  C   UNL A   1      34.195  33.819  30.837  1.00  0.00     0.059 A 
ATOM     73  C   UNL A   1      35.889  34.884  29.463  1.00  0.00     0.059 A 
ATOM     74  F   UNL A   1      38.152  34.379  29.807  1.00  0.00    -0.206 F 
ATOM     75  C   UNL A   1      34.552  34.682  29.799  1.00  0.00     0.060 A 
BRANCH  75  76
ATOM     76  S   UNL A   1      33.241  35.542  28.904  1.00  0.00     0.124 S 
ATOM     77  O   UNL A   1      32.624  36.324  29.972  1.00  0.00    -0.237 OA
ATOM     78  O   UNL A   1      33.990  36.305  27.911  1.00  0.00    -0.237 OA
ATOM     79  O   UNL A   1      32.424  34.456  28.371  1.00  0.00    -0.744 OA
ENDBRANCH  75  76
ENDBRANCH  54  68
BRANCH  55  80
ATOM     80  C   UNL A   1      44.021  28.595  35.913  1.00  0.00     0.058 A 
ATOM     81  C   UNL A   1      45.338  29.015  35.670  1.00  0.00     0.135 A 
ATOM     82  C   UNL A   1      43.831  27.538  36.817  1.00  0.00     0.135 A 
ATOM     83  F   UNL A   1      45.574  30.013  34.804  1.00  0.00    -0.206 F 
ATOM     84  C   UNL A   1      46.423  28.403  36.286  1.00  0.00     0.059 A 
ATOM     85  C   UNL A   1      44.899  26.928  37.467  1.00  0.00     0.059 A 
ATOM     86  F   UNL A   1      42.590  27.103  37.093  1.00  0.00    -0.206 F 
ATOM     87  C   UNL A   1      46.193  27.362  37.188  1.00  0.00     0.060 A 
BRANCH  87  88
ATOM     88  S   UNL A   1      47.608  26.610  38.021  1.00  0.00     0.124 S 
ATOM     89  O   UNL A   1      46.990  26.077  39.229  1.00  0.00    -0.237 OA
ATOM     90  O   UNL A   1      48.050  25.623  37.040  1.00  0.00    -0.237 OA
ATOM     91  O   UNL A   1      48.518  27.734  38.221  1.00  0.00    -0.744 OA
ENDBRANCH  87  88
ENDBRANCH  55  80
BRANCH  67  92
ATOM     92  C   UNL A   1      39.936  34.016  37.552  1.00  0.00     0.058 A 
ATOM     93  C   UNL A   1      40.731  35.170  37.644  1.00  0.00     0.135 A 
ATOM     94  C   UNL A   1      39.032  33.759  38.597  1.00  0.00     0.135 A 
ATOM     95  F   UNL A   1      41.616  35.460  36.677  1.00  0.00    -0.206 F 
ATOM     96  C   UNL A   1      40.648  36.024  38.739  1.00  0.00     0.059 A 
ATOM     97  C   UNL A   1      38.911  34.618  39.685  1.00  0.00     0.059 A 
ATOM     98  F   UNL A   1      38.240  32.676  38.555  1.00  0.00    -0.206 F 
ATOM     99  C   UNL A   1      39.731  35.742  39.753  1.00  0.00     0.060 A 
BRANCH  99 100
ATOM    100  S   UNL A   1      39.609  36.880  41.149  1.00  0.00     0.124 S 
ATOM    101  O   UNL A   1      38.872  37.992  40.558  1.00  0.00    -0.237 OA
ATOM    102  O   UNL A   1      38.880  36.088  42.134  1.00  0.00    -0.237 OA
ATOM    103  O   UNL A   1      41.002  37.159  41.485  1.00  0.00    -0.744 OA
ENDBRANCH  99 100
ENDBRANCH  67  92
ENDBRANCH  41  42
ENDBRANCH  34  36
ENDBRANCH  33  34
ENDBRANCH  32  33
ENDBRANCH  31  32
ENDBRANCH  30  31
ENDBRANCH  29  30
ENDBRANCH   1  29
TORSDOF 24
ENDMDL
MODEL 2
REMARK VINA RESULT:      -9.6      0.696      7.988
REMARK SMILES C[C@@]1(C(=O)OCCOCCOCCOCCOC(=O)c2ccc(-c3c4nc(c(-c5c(F)cc(S(=O)(=O)[O-])cc5F)c5ccc([nH]5)c(-c5c(F)cc(S(=O)(=O)[O-])cc5F)c5nc(c(-c6c(F)cc(S(=O)(=O)[O-])cc6F)c6ccc3[nH]6)C=C5)C=C4)cc2)[C@@H]2C=C[C@@]3(CN(c4ccccc4)C(=O)[C@H]13)O2
REMARK SMILES IDX 12 1 11 2 10 3 9 4 8 5 7 6 6 7 5 8 3 9 4 10 2 11 1 12 86 13
REMARK SMILES IDX 100 14 87 15 101 16 89 17 98 18 88 19 90 20 91 21 99 22
REMARK SMILES IDX 92 23 93 24 97 25 94 26 96 27 95 28 13 29 14 30 15 31 16 32
REMARK SMILES IDX 17 33 18 34 19 35 20 36 21 37 85 38 22 39 84 40 23 41 24 42
REMARK SMILES IDX 25 43 78 44 26 45 83 46 77 47 79 48 27 49 82 50 76 51 75 52
REMARK SMILES IDX 28 54 62 55 41 56 61 57 42 58 45 59 60 60 80 61 43 62 44 63
REMARK SMILES IDX 59 65 81 66 46 67 29 68 30 69 39 70 31 71 32 72 38 73 40 74
REMARK SMILES IDX 33 75 34 76 35 77 36 78 37 79 63 80 64 81 73 82 65 83 66 84
REMARK SMILES IDX 72 85 74 86 67 87 68 88 69 89 70 90 71 91 47 92 48 93 57 94
REMARK SMILES IDX 49 95 50 96 56 97 58 98 51 99 52 100 53 101 54 102 55 103
REMARK H PARENT 79 53 45 64
REMARK Flexibility Score: inf
ROOT
ATOM      1  C   UNL A   1      34.828  22.935  24.131  1.00  0.00     0.188 C 
ENDROOT
BRANCH   1   2
ATOM      2  O   UNL A   1      34.848  21.511  23.982  1.00  0.00    -0.377 OA
BRANCH   2   3
ATOM      3  C   UNL A   1      34.583  20.725  25.129  1.00  0.00     0.188 C 
BRANCH   3   4
ATOM      4  C   UNL A   1      33.610  21.278  26.175  1.00  0.00     0.188 C 
BRANCH   4   5
ATOM      5  O   UNL A   1      32.239  21.021  25.941  1.00  0.00    -0.376 OA
BRANCH   5   6
ATOM      6  C   UNL A   1      31.289  22.084  26.047  1.00  0.00     0.202 C 
BRANCH   6   7
ATOM      7  C   UNL A   1      30.698  22.791  24.817  1.00  0.00     0.261 C 
BRANCH   7   8
ATOM      8  O   UNL A   1      31.165  24.136  24.646  1.00  0.00    -0.463 OA
BRANCH   8   9
ATOM      9  C   UNL A   1      30.397  25.121  25.162  1.00  0.00     0.315 C 
ATOM     10  O   UNL A   1      29.838  25.067  26.253  1.00  0.00    -0.251 OA
BRANCH   9  11
ATOM     11  C   UNL A   1      30.417  26.379  24.325  1.00  0.00     0.110 C 
ATOM     12  C   UNL A   1      28.965  26.709  23.885  1.00  0.00     0.028 C 
ATOM     13  C   UNL A   1      31.240  26.152  23.022  1.00  0.00     0.160 C 
ATOM     14  C   UNL A   1      31.135  27.629  24.878  1.00  0.00     0.137 C 
ATOM     15  C   UNL A   1      32.623  25.676  23.338  1.00  0.00     0.004 C 
ATOM     16  O   UNL A   1      31.533  27.560  22.644  1.00  0.00    -0.360 OA
ATOM     17  C   UNL A   1      32.248  27.863  23.841  1.00  0.00     0.118 C 
ATOM     18  C   UNL A   1      32.000  27.911  26.091  1.00  0.00     0.234 C 
ATOM     19  C   UNL A   1      33.257  26.733  23.848  1.00  0.00     0.009 C 
ATOM     20  C   UNL A   1      32.744  29.233  24.261  1.00  0.00     0.166 C 
ATOM     21  N   UNL A   1      32.751  29.061  25.713  1.00  0.00    -0.309 N 
ATOM     22  O   UNL A   1      32.019  27.331  27.159  1.00  0.00    -0.274 OA
BRANCH  21  23
ATOM     23  C   UNL A   1      33.578  29.813  26.566  1.00  0.00     0.044 A 
ATOM     24  C   UNL A   1      33.115  31.014  27.116  1.00  0.00     0.026 A 
ATOM     25  C   UNL A   1      34.862  29.367  26.887  1.00  0.00     0.026 A 
ATOM     26  C   UNL A   1      33.919  31.737  28.002  1.00  0.00     0.002 A 
ATOM     27  C   UNL A   1      35.684  30.124  27.719  1.00  0.00     0.002 A 
ATOM     28  C   UNL A   1      35.207  31.298  28.294  1.00  0.00     0.000 A 
ENDBRANCH  21  23
ENDBRANCH   9  11
ENDBRANCH   8   9
ENDBRANCH   7   8
ENDBRANCH   6   7
ENDBRANCH   5   6
ENDBRANCH   4   5
ENDBRANCH   3   4
ENDBRANCH   2   3
ENDBRANCH   1   2
BRANCH   1  29
ATOM     29  C   UNL A   1      36.107  23.629  24.621  1.00  0.00     0.188 C 
BRANCH  29  30
ATOM     30  O   UNL A   1      36.544  23.394  25.962  1.00  0.00    -0.376 OA
BRANCH  30  31
ATOM     31  C   UNL A   1      37.889  22.984  26.174  1.00  0.00     0.202 C 
BRANCH  31  32
ATOM     32  C   UNL A   1      38.967  23.928  25.644  1.00  0.00     0.261 C 
BRANCH  32  33
ATOM     33  O   UNL A   1      39.993  24.211  26.605  1.00  0.00    -0.460 OA
BRANCH  33  34
ATOM     34  C   UNL A   1      40.713  25.331  26.367  1.00  0.00     0.338 C 
ATOM     35  O   UNL A   1      41.209  25.684  25.303  1.00  0.00    -0.246 OA
BRANCH  34  36
ATOM     36  C   UNL A   1      40.752  26.160  27.579  1.00  0.00     0.060 A 
ATOM     37  C   UNL A   1      39.646  26.162  28.437  1.00  0.00     0.016 A 
ATOM     38  C   UNL A   1      41.836  27.005  27.815  1.00  0.00     0.016 A 
ATOM     39  C   UNL A   1      39.612  27.028  29.531  1.00  0.00     0.010 A 
ATOM     40  C   UNL A   1      41.791  27.884  28.896  1.00  0.00     0.010 A 
ATOM     41  C   UNL A   1      40.675  27.911  29.754  1.00  0.00    -0.014 A 
BRANCH  41  42
ATOM     42  C   UNL A   1      40.599  28.945  30.814  1.00  0.00     0.031 A 
ATOM     43  C   UNL A   1      41.469  28.801  32.032  1.00  0.00     0.074 A 
ATOM     44  C   UNL A   1      39.734  29.970  30.711  1.00  0.00     0.049 A 
ATOM     45  N   UNL A   1      41.476  29.502  33.134  1.00  0.00    -0.248 NA
ATOM     46  C   UNL A   1      42.461  27.713  32.005  1.00  0.00     0.031 C 
ATOM     47  C   UNL A   1      38.863  30.233  29.566  1.00  0.00     0.029 A 
ATOM     48  N   UNL A   1      39.424  30.968  31.602  1.00  0.00    -0.354 N 
ATOM     49  C   UNL A   1      42.461  28.938  33.935  1.00  0.00     0.074 A 
ATOM     50  C   UNL A   1      43.007  27.813  33.208  1.00  0.00     0.031 C 
ATOM     51  C   UNL A   1      38.089  31.297  29.838  1.00  0.00     0.029 A 
ATOM     52  C   UNL A   1      38.391  31.774  31.187  1.00  0.00     0.049 A 
ATOM     53  H   UNL A   1      39.896  31.094  32.457  1.00  0.00     0.167 HD
ATOM     54  C   UNL A   1      42.880  29.331  35.162  1.00  0.00     0.037 A 
ATOM     55  C   UNL A   1      37.739  32.760  31.834  1.00  0.00     0.037 A 
ATOM     56  C   UNL A   1      42.333  30.457  35.874  1.00  0.00     0.049 A 
ATOM     57  C   UNL A   1      38.170  33.132  33.229  1.00  0.00     0.074 A 
ATOM     58  C   UNL A   1      42.713  30.965  37.104  1.00  0.00     0.029 A 
ATOM     59  N   UNL A   1      41.279  31.243  35.426  1.00  0.00    -0.354 N 
ATOM     60  N   UNL A   1      39.132  32.619  33.960  1.00  0.00    -0.248 NA
ATOM     61  C   UNL A   1      37.432  34.219  33.887  1.00  0.00     0.031 C 
ATOM     62  C   UNL A   1      41.850  32.017  37.428  1.00  0.00     0.029 A 
ATOM     63  C   UNL A   1      40.971  32.206  36.373  1.00  0.00     0.049 A 
ATOM     64  H   UNL A   1      40.819  31.131  34.563  1.00  0.00     0.167 HD
ATOM     65  C   UNL A   1      39.129  33.337  35.153  1.00  0.00     0.074 A 
ATOM     66  C   UNL A   1      38.081  34.330  35.038  1.00  0.00     0.031 C 
ATOM     67  C   UNL A   1      39.922  33.187  36.244  1.00  0.00     0.037 A 
BRANCH  54  68
ATOM     68  C   UNL A   1      43.967  28.528  35.823  1.00  0.00     0.058 A 
ATOM     69  C   UNL A   1      45.324  28.868  35.696  1.00  0.00     0.135 A 
ATOM     70  C   UNL A   1      43.643  27.426  36.633  1.00  0.00     0.135 A 
ATOM     71  F   UNL A   1      45.692  29.900  34.922  1.00  0.00    -0.206 F 
ATOM     72  C   UNL A   1      46.320  28.131  36.328  1.00  0.00     0.059 A 
ATOM     73  C   UNL A   1      44.622  26.694  37.297  1.00  0.00     0.059 A 
ATOM     74  F   UNL A   1      42.362  27.054  36.787  1.00  0.00    -0.206 F 
ATOM     75  C   UNL A   1      45.959  27.046  37.129  1.00  0.00     0.060 A 
BRANCH  75  76
ATOM     76  S   UNL A   1      47.265  26.112  37.953  1.00  0.00     0.124 S 
ATOM     77  O   UNL A   1      48.451  26.875  37.577  1.00  0.00    -0.237 OA
ATOM     78  O   UNL A   1      46.874  26.200  39.356  1.00  0.00    -0.237 OA
ATOM     79  O   UNL A   1      47.161  24.783  37.359  1.00  0.00    -0.744 OA
ENDBRANCH  75  76
ENDBRANCH  54  68
BRANCH  55  80
ATOM     80  C   UNL A   1      36.598  33.455  31.177  1.00  0.00     0.058 A 
ATOM     81  C   UNL A   1      35.286  33.301  31.650  1.00  0.00     0.135 A 
ATOM     82  C   UNL A   1      36.797  34.288  30.064  1.00  0.00     0.135 A 
ATOM     83  F   UNL A   1      35.042  32.505  32.702  1.00  0.00    -0.206 F 
ATOM     84  C   UNL A   1      34.212  33.936  31.036  1.00  0.00     0.059 A 
ATOM     85  C   UNL A   1      35.742  34.956  29.452  1.00  0.00     0.059 A 
ATOM     86  F   UNL A   1      38.034  34.477  29.578  1.00  0.00    -0.206 F 
ATOM     87  C   UNL A   1      34.451  34.767  29.940  1.00  0.00     0.060 A 
BRANCH  87  88
ATOM     88  S   UNL A   1      33.053  35.626  29.185  1.00  0.00     0.124 S 
ATOM     89  O   UNL A   1      32.564  34.624  28.246  1.00  0.00    -0.237 OA
ATOM     90  O   UNL A   1      32.199  35.892  30.339  1.00  0.00    -0.237 OA
ATOM     91  O   UNL A   1      33.668  36.807  28.585  1.00  0.00    -0.744 OA
ENDBRANCH  87  88
ENDBRANCH  55  80
BRANCH  67  92
ATOM     92  C   UNL A   1      39.703  34.131  37.396  1.00  0.00     0.058 A 
ATOM     93  C   UNL A   1      38.983  33.746  38.538  1.00  0.00     0.135 A 
ATOM     94  C   UNL A   1      40.269  35.417  37.381  1.00  0.00     0.135 A 
ATOM     95  F   UNL A   1      38.416  32.531  38.602  1.00  0.00    -0.206 F 
ATOM     96  C   UNL A   1      38.813  34.610  39.615  1.00  0.00     0.059 A 
ATOM     97  C   UNL A   1      40.138  36.285  38.462  1.00  0.00     0.059 A 
ATOM     98  F   UNL A   1      40.976  35.834  36.319  1.00  0.00    -0.206 F 
ATOM     99  C   UNL A   1      39.398  35.877  39.569  1.00  0.00     0.060 A 
BRANCH  99 100
ATOM    100  S   UNL A   1      39.200  36.972  40.991  1.00  0.00     0.124 S 
ATOM    101  O   UNL A   1      38.737  38.201  40.355  1.00  0.00    -0.237 OA
ATOM    102  O   UNL A   1      38.211  36.262  41.795  1.00  0.00    -0.237 OA
ATOM    103  O   UNL A   1      40.541  37.030  41.566  1.00  0.00    -0.744 OA
ENDBRANCH  99 100
ENDBRANCH  67  92
ENDBRANCH  41  42
ENDBRANCH  34  36
ENDBRANCH  33  34
ENDBRANCH  32  33
ENDBRANCH  31  32
ENDBRANCH  30  31
ENDBRANCH  29  30
ENDBRANCH   1  29
TORSDOF 24
ENDMDL
MODEL 3
REMARK VINA RESULT:      -9.6      2.286      9.535
REMARK SMILES C[C@@]1(C(=O)OCCOCCOCCOCCOC(=O)c2ccc(-c3c4nc(c(-c5c(F)cc(S(=O)(=O)[O-])cc5F)c5ccc([nH]5)c(-c5c(F)cc(S(=O)(=O)[O-])cc5F)c5nc(c(-c6c(F)cc(S(=O)(=O)[O-])cc6F)c6ccc3[nH]6)C=C5)C=C4)cc2)[C@@H]2C=C[C@@]3(CN(c4ccccc4)C(=O)[C@H]13)O2
REMARK SMILES IDX 12 1 11 2 10 3 9 4 8 5 7 6 6 7 5 8 3 9 4 10 2 11 1 12 86 13
REMARK SMILES IDX 100 14 87 15 101 16 89 17 98 18 88 19 90 20 91 21 99 22
REMARK SMILES IDX 92 23 93 24 97 25 94 26 96 27 95 28 13 29 14 30 15 31 16 32
REMARK SMILES IDX 17 33 18 34 19 35 20 36 21 37 85 38 22 39 84 40 23 41 24 42
REMARK SMILES IDX 25 43 78 44 26 45 83 46 77 47 79 48 27 49 82 50 76 51 75 52
REMARK SMILES IDX 28 54 62 55 41 56 61 57 42 58 45 59 60 60 80 61 43 62 44 63
REMARK SMILES IDX 59 65 81 66 46 67 29 68 30 69 39 70 31 71 32 72 38 73 40 74
REMARK SMILES IDX 33 75 34 76 35 77 36 78 37 79 63 80 64 81 73 82 65 83 66 84
REMARK SMILES IDX 72 85 74 86 67 87 68 88 69 89 70 90 71 91 47 92 48 93 57 94
REMARK SMILES IDX 49 95 50 96 56 97 58 98 51 99 52 100 53 101 54 102 55 103
REMARK H PARENT 79 53 45 64
REMARK Flexibility Score: inf
ROOT
ATOM      1  C   UNL A   1      35.789  32.623  29.091  1.00  0.00     0.188 C 
ENDROOT
BRANCH   1   2
ATOM      2  O   UNL A   1      36.360  31.896  27.998  1.00  0.00    -0.377 OA
BRANCH   2   3
ATOM      3  C   UNL A   1      36.107  30.506  27.928  1.00  0.00     0.188 C 
BRANCH   3   4
ATOM      4  C   UNL A   1      34.650  30.038  27.868  1.00  0.00     0.188 C 
BRANCH   4   5
ATOM      5  O   UNL A   1      33.732  30.950  27.295  1.00  0.00    -0.376 OA
BRANCH   5   6
ATOM      6  C   UNL A   1      32.445  30.492  26.874  1.00  0.00     0.202 C 
BRANCH   6   7
ATOM      7  C   UNL A   1      31.897  29.105  27.248  1.00  0.00     0.261 C 
BRANCH   7   8
ATOM      8  O   UNL A   1      32.703  28.020  26.771  1.00  0.00    -0.463 OA
BRANCH   8   9
ATOM      9  C   UNL A   1      32.060  27.006  26.150  1.00  0.00     0.315 C 
ATOM     10  O   UNL A   1      31.066  26.439  26.592  1.00  0.00    -0.251 OA
BRANCH   9  11
ATOM     11  C   UNL A   1      32.596  26.736  24.762  1.00  0.00     0.110 C 
ATOM     12  C   UNL A   1      33.665  27.809  24.423  1.00  0.00     0.028 C 
ATOM     13  C   UNL A   1      31.462  26.882  23.705  1.00  0.00     0.160 C 
ATOM     14  C   UNL A   1      33.096  25.316  24.422  1.00  0.00     0.137 C 
ATOM     15  C   UNL A   1      30.304  25.993  24.034  1.00  0.00     0.004 C 
ATOM     16  O   UNL A   1      32.055  26.122  22.573  1.00  0.00    -0.360 OA
ATOM     17  C   UNL A   1      32.148  24.890  23.286  1.00  0.00     0.118 C 
ATOM     18  C   UNL A   1      33.077  23.980  25.139  1.00  0.00     0.234 C 
ATOM     19  C   UNL A   1      30.722  24.752  23.777  1.00  0.00     0.009 C 
ATOM     20  C   UNL A   1      32.836  23.628  22.800  1.00  0.00     0.166 C 
ATOM     21  N   UNL A   1      33.188  23.026  24.086  1.00  0.00    -0.309 N 
ATOM     22  O   UNL A   1      33.032  23.762  26.334  1.00  0.00    -0.274 OA
BRANCH  21  23
ATOM     23  C   UNL A   1      33.386  21.645  24.253  1.00  0.00     0.044 A 
ATOM     24  C   UNL A   1      34.644  21.153  24.620  1.00  0.00     0.026 A 
ATOM     25  C   UNL A   1      32.331  20.748  24.068  1.00  0.00     0.026 A 
ATOM     26  C   UNL A   1      34.829  19.784  24.833  1.00  0.00     0.002 A 
ATOM     27  C   UNL A   1      32.536  19.378  24.218  1.00  0.00     0.002 A 
ATOM     28  C   UNL A   1      33.778  18.896  24.620  1.00  0.00     0.000 A 
ENDBRANCH  21  23
ENDBRANCH   9  11
ENDBRANCH   8   9
ENDBRANCH   7   8
ENDBRANCH   6   7
ENDBRANCH   5   6
ENDBRANCH   4   5
ENDBRANCH   3   4
ENDBRANCH   2   3
ENDBRANCH   1   2
BRANCH   1  29
ATOM     29  C   UNL A   1      35.167  33.997  28.799  1.00  0.00     0.188 C 
BRANCH  29  30
ATOM     30  O   UNL A   1      33.776  34.191  29.068  1.00  0.00    -0.376 OA
BRANCH  30  31
ATOM     31  C   UNL A   1      33.196  35.451  28.760  1.00  0.00     0.202 C 
BRANCH  31  32
ATOM     32  C   UNL A   1      32.873  36.349  29.953  1.00  0.00     0.261 C 
BRANCH  32  33
ATOM     33  O   UNL A   1      32.468  35.616  31.118  1.00  0.00    -0.460 OA
BRANCH  33  34
ATOM     34  C   UNL A   1      33.109  35.950  32.261  1.00  0.00     0.338 C 
ATOM     35  O   UNL A   1      32.798  36.826  33.059  1.00  0.00    -0.246 OA
BRANCH  34  36
ATOM     36  C   UNL A   1      34.231  35.028  32.486  1.00  0.00     0.060 A 
ATOM     37  C   UNL A   1      33.989  33.808  33.128  1.00  0.00     0.016 A 
ATOM     38  C   UNL A   1      35.530  35.410  32.151  1.00  0.00     0.016 A 
ATOM     39  C   UNL A   1      35.055  32.969  33.456  1.00  0.00     0.010 A 
ATOM     40  C   UNL A   1      36.594  34.579  32.499  1.00  0.00     0.010 A 
ATOM     41  C   UNL A   1      36.366  33.361  33.165  1.00  0.00    -0.014 A 
BRANCH  41  42
ATOM     42  C   UNL A   1      37.524  32.563  33.637  1.00  0.00     0.031 A 
ATOM     43  C   UNL A   1      38.209  32.963  34.914  1.00  0.00     0.074 A 
ATOM     44  C   UNL A   1      37.983  31.526  32.913  1.00  0.00     0.049 A 
ATOM     45  N   UNL A   1      39.309  32.500  35.446  1.00  0.00    -0.248 NA
ATOM     46  C   UNL A   1      37.569  34.036  35.693  1.00  0.00     0.031 C 
ATOM     47  C   UNL A   1      37.384  31.025  31.676  1.00  0.00     0.029 A 
ATOM     48  N   UNL A   1      39.083  30.726  33.099  1.00  0.00    -0.354 N 
ATOM     49  C   UNL A   1      39.500  33.228  36.613  1.00  0.00     0.074 A 
ATOM     50  C   UNL A   1      38.422  34.190  36.695  1.00  0.00     0.031 C 
ATOM     51  C   UNL A   1      38.144  30.028  31.193  1.00  0.00     0.029 A 
ATOM     52  C   UNL A   1      39.297  29.839  32.071  1.00  0.00     0.049 A 
ATOM     53  H   UNL A   1      39.663  30.783  33.892  1.00  0.00     0.167 HD
ATOM     54  C   UNL A   1      40.481  33.098  37.539  1.00  0.00     0.037 A 
ATOM     55  C   UNL A   1      40.324  28.996  31.846  1.00  0.00     0.037 A 
ATOM     56  C   UNL A   1      41.546  32.133  37.448  1.00  0.00     0.049 A 
ATOM     57  C   UNL A   1      41.445  28.921  32.850  1.00  0.00     0.074 A 
ATOM     58  C   UNL A   1      42.566  31.891  38.352  1.00  0.00     0.029 A 
ATOM     59  N   UNL A   1      41.736  31.259  36.387  1.00  0.00    -0.354 N 
ATOM     60  N   UNL A   1      41.594  29.585  33.972  1.00  0.00    -0.248 NA
ATOM     61  C   UNL A   1      42.537  27.980  32.561  1.00  0.00     0.031 C 
ATOM     62  C   UNL A   1      43.408  30.915  37.808  1.00  0.00     0.029 A 
ATOM     63  C   UNL A   1      42.879  30.504  36.595  1.00  0.00     0.049 A 
ATOM     64  H   UNL A   1      41.146  31.187  35.603  1.00  0.00     0.167 HD
ATOM     65  C   UNL A   1      42.781  29.124  34.534  1.00  0.00     0.074 A 
ATOM     66  C   UNL A   1      43.302  28.114  33.636  1.00  0.00     0.031 C 
ATOM     67  C   UNL A   1      43.386  29.503  35.689  1.00  0.00     0.037 A 
BRANCH  54  68
ATOM     68  C   UNL A   1      40.463  34.034  38.717  1.00  0.00     0.058 A 
ATOM     69  C   UNL A   1      41.114  35.278  38.688  1.00  0.00     0.135 A 
ATOM     70  C   UNL A   1      39.746  33.700  39.878  1.00  0.00     0.135 A 
ATOM     71  F   UNL A   1      41.827  35.643  37.611  1.00  0.00    -0.206 F 
ATOM     72  C   UNL A   1      41.074  36.145  39.775  1.00  0.00     0.059 A 
ATOM     73  C   UNL A   1      39.669  34.565  40.965  1.00  0.00     0.059 A 
ATOM     74  F   UNL A   1      39.108  32.521  39.963  1.00  0.00    -0.206 F 
ATOM     75  C   UNL A   1      40.346  35.780  40.909  1.00  0.00     0.060 A 
BRANCH  75  76
ATOM     76  S   UNL A   1      40.293  36.926  42.303  1.00  0.00     0.124 S 
ATOM     77  O   UNL A   1      39.112  36.457  43.022  1.00  0.00    -0.237 OA
ATOM     78  O   UNL A   1      41.574  36.679  42.958  1.00  0.00    -0.237 OA
ATOM     79  O   UNL A   1      40.159  38.232  41.666  1.00  0.00    -0.744 OA
ENDBRANCH  75  76
ENDBRANCH  54  68
BRANCH  55  80
ATOM     80  C   UNL A   1      40.350  28.167  30.610  1.00  0.00     0.058 A 
ATOM     81  C   UNL A   1      39.442  27.115  30.423  1.00  0.00     0.135 A 
ATOM     82  C   UNL A   1      41.283  28.413  29.589  1.00  0.00     0.135 A 
ATOM     83  F   UNL A   1      38.540  26.831  31.375  1.00  0.00    -0.206 F 
ATOM     84  C   UNL A   1      39.465  26.327  29.277  1.00  0.00     0.059 A 
ATOM     85  C   UNL A   1      41.307  27.657  28.422  1.00  0.00     0.059 A 
ATOM     86  F   UNL A   1      42.169  29.414  29.713  1.00  0.00    -0.206 F 
ATOM     87  C   UNL A   1      40.399  26.609  28.279  1.00  0.00     0.060 A 
BRANCH  87  88
ATOM     88  S   UNL A   1      40.384  25.612  26.773  1.00  0.00     0.124 S 
ATOM     89  O   UNL A   1      38.996  25.167  26.728  1.00  0.00    -0.237 OA
ATOM     90  O   UNL A   1      40.776  26.586  25.759  1.00  0.00    -0.237 OA
ATOM     91  O   UNL A   1      41.372  24.573  27.048  1.00  0.00    -0.744 OA
ENDBRANCH  87  88
ENDBRANCH  55  80
BRANCH  67  92
ATOM     92  C   UNL A   1      44.669  28.809  36.060  1.00  0.00     0.058 A 
ATOM     93  C   UNL A   1      44.674  27.617  36.802  1.00  0.00     0.135 A 
ATOM     94  C   UNL A   1      45.905  29.313  35.622  1.00  0.00     0.135 A 
ATOM     95  F   UNL A   1      43.522  27.095  37.252  1.00  0.00    -0.206 F 
ATOM     96  C   UNL A   1      45.861  26.960  37.114  1.00  0.00     0.059 A 
ATOM     97  C   UNL A   1      47.101  28.654  35.895  1.00  0.00     0.059 A 
ATOM     98  F   UNL A   1      45.958  30.444  34.900  1.00  0.00    -0.206 F 
ATOM     99  C   UNL A   1      47.069  27.485  36.652  1.00  0.00     0.060 A 
BRANCH  99 100
ATOM    100  S   UNL A   1      48.596  26.601  37.032  1.00  0.00     0.124 S 
ATOM    101  O   UNL A   1      48.316  25.279  36.481  1.00  0.00    -0.237 OA
ATOM    102  O   UNL A   1      49.598  27.387  36.318  1.00  0.00    -0.237 OA
ATOM    103  O   UNL A   1      48.677  26.669  38.488  1.00  0.00    -0.744 OA
ENDBRANCH  99 100
ENDBRANCH  67  92
ENDBRANCH  41  42
ENDBRANCH  34  36
ENDBRANCH  33  34
ENDBRANCH  32  33
ENDBRANCH  31  32
ENDBRANCH  30  31
ENDBRANCH  29  30
ENDBRANCH   1  29
TORSDOF 24
ENDMDL
