MODEL 1
REMARK VINA RESULT:      -8.6      0.000      0.000
REMARK SMILES CC(C)C[C@@H](CNc1nccc(C(F)(F)F)n1)C(=O)OCCOCCOCCOCCOC(=O)c1ccc(-c2c3nc(c(-c4c(F)cc(S(=O)(=O)[O-])cc4F)c4ccc([nH]4)c(-c4c(F)cc(S(=O)(=O)[O-])cc4F)c4nc(c(-c5c(F)cc(S(=O)(=O)[O-])cc5F)c5ccc2[nH]5)C=C4)C=C3)cc1
REMARK SMILES IDX 25 1 24 2 23 3 22 4 21 5 20 6 18 7 19 8 5 9 4 10 2 11 1 12
REMARK SMILES IDX 3 13 6 14 7 15 8 17 9 18 17 19 10 20 12 21 11 22 13 23 14 24
REMARK SMILES IDX 15 25 16 26 26 27 27 28 28 29 29 30 30 31 31 32 32 33 33 34
REMARK SMILES IDX 34 35 35 36 36 37 100 38 37 39 99 40 38 41 39 42 40 43 93 44
REMARK SMILES IDX 41 45 98 46 92 47 94 48 42 49 97 50 91 51 90 52 43 54 77 55
REMARK SMILES IDX 56 56 76 57 57 58 60 59 75 60 95 61 58 62 59 63 74 65 96 66
REMARK SMILES IDX 61 67 44 68 45 69 54 70 46 71 47 72 53 73 55 74 48 75 49 76
REMARK SMILES IDX 50 77 51 78 52 79 78 80 79 81 88 82 80 83 81 84 87 85 89 86
REMARK SMILES IDX 82 87 83 88 84 89 85 90 86 91 62 92 63 93 72 94 64 95 65 96
REMARK SMILES IDX 71 97 73 98 66 99 67 100 68 101 69 102 70 103
REMARK H PARENT 7 16 94 53 60 64
REMARK Flexibility Score: inf
ROOT
ATOM      1  C   UNL A   1      40.035  20.563  26.456  1.00  0.00     0.188 C 
ENDROOT
BRANCH   1   2
ATOM      2  C   UNL A   1      39.309  21.776  25.868  1.00  0.00     0.188 C 
BRANCH   2   3
ATOM      3  O   UNL A   1      38.089  21.622  25.170  1.00  0.00    -0.376 OA
BRANCH   3   4
ATOM      4  C   UNL A   1      37.111  22.652  25.148  1.00  0.00     0.202 C 
BRANCH   4   5
ATOM      5  C   UNL A   1      35.995  22.807  26.196  1.00  0.00     0.261 C 
BRANCH   5   6
ATOM      6  O   UNL A   1      34.967  23.782  25.942  1.00  0.00    -0.463 OA
BRANCH   6   7
ATOM      7  C   UNL A   1      33.730  23.449  26.369  1.00  0.00     0.310 C 
ATOM      8  O   UNL A   1      33.293  23.719  27.487  1.00  0.00    -0.252 OA
BRANCH   7   9
ATOM      9  C   UNL A   1      32.890  22.642  25.388  1.00  0.00     0.118 C 
BRANCH   9  10
ATOM     10  C   UNL A   1      32.674  23.112  23.930  1.00  0.00     0.020 C 
BRANCH  10  11
ATOM     11  C   UNL A   1      32.113  24.556  23.822  1.00  0.00    -0.017 C 
ATOM     12  C   UNL A   1      32.963  25.458  22.919  1.00  0.00     0.007 C 
ATOM     13  C   UNL A   1      30.677  24.539  23.288  1.00  0.00     0.007 C 
ENDBRANCH  10  11
ENDBRANCH   9  10
BRANCH   9  14
ATOM     14  C   UNL A   1      33.384  21.194  25.470  1.00  0.00     0.131 C 
BRANCH  14  15
ATOM     15  N   UNL A   1      32.278  20.257  25.438  1.00  0.00    -0.353 N 
ATOM     16  H   UNL A   1      31.429  20.460  25.894  1.00  0.00     0.163 HD
BRANCH  15  17
ATOM     17  C   UNL A   1      32.450  19.081  24.754  1.00  0.00     0.223 A 
ATOM     18  N   UNL A   1      32.473  19.172  23.423  1.00  0.00    -0.222 NA
ATOM     19  N   UNL A   1      32.611  17.943  25.431  1.00  0.00    -0.209 NA
ATOM     20  C   UNL A   1      32.682  18.036  22.737  1.00  0.00     0.117 A 
ATOM     21  C   UNL A   1      32.778  16.802  24.719  1.00  0.00     0.149 A 
ATOM     22  C   UNL A   1      32.841  16.813  23.338  1.00  0.00     0.054 A 
BRANCH  21  23
ATOM     23  C   UNL A   1      32.879  15.504  25.491  1.00  0.00     0.433 C 
ATOM     24  F   UNL A   1      34.164  15.066  25.632  1.00  0.00    -0.165 F 
ATOM     25  F   UNL A   1      32.377  15.594  26.756  1.00  0.00    -0.165 F 
ATOM     26  F   UNL A   1      32.208  14.468  24.907  1.00  0.00    -0.165 F 
ENDBRANCH  21  23
ENDBRANCH  15  17
ENDBRANCH  14  15
ENDBRANCH   9  14
ENDBRANCH   7   9
ENDBRANCH   6   7
ENDBRANCH   5   6
ENDBRANCH   4   5
ENDBRANCH   3   4
ENDBRANCH   2   3
ENDBRANCH   1   2
BRANCH   1  27
ATOM     27  O   UNL A   1      41.410  20.444  26.153  1.00  0.00    -0.377 OA
BRANCH  27  28
ATOM     28  C   UNL A   1      41.924  19.185  25.730  1.00  0.00     0.188 C 
BRANCH  28  29
ATOM     29  C   UNL A   1      43.191  18.617  26.396  1.00  0.00     0.188 C 
BRANCH  29  30
ATOM     30  O   UNL A   1      44.372  18.748  25.619  1.00  0.00    -0.376 OA
BRANCH  30  31
ATOM     31  C   UNL A   1      44.549  19.919  24.835  1.00  0.00     0.202 C 
BRANCH  31  32
ATOM     32  C   UNL A   1      45.606  20.942  25.287  1.00  0.00     0.261 C 
BRANCH  32  33
ATOM     33  O   UNL A   1      45.640  22.188  24.569  1.00  0.00    -0.460 OA
BRANCH  33  34
ATOM     34  C   UNL A   1      44.465  22.721  24.167  1.00  0.00     0.338 C 
ATOM     35  O   UNL A   1      43.796  22.382  23.213  1.00  0.00    -0.246 OA
BRANCH  34  36
ATOM     36  C   UNL A   1      44.014  23.668  25.210  1.00  0.00     0.060 A 
ATOM     37  C   UNL A   1      44.509  24.977  25.181  1.00  0.00     0.016 A 
ATOM     38  C   UNL A   1      43.138  23.265  26.220  1.00  0.00     0.016 A 
ATOM     39  C   UNL A   1      44.170  25.874  26.191  1.00  0.00     0.010 A 
ATOM     40  C   UNL A   1      42.813  24.161  27.246  1.00  0.00     0.010 A 
ATOM     41  C   UNL A   1      43.359  25.457  27.256  1.00  0.00    -0.014 A 
BRANCH  41  42
ATOM     42  C   UNL A   1      43.242  26.325  28.455  1.00  0.00     0.031 A 
ATOM     43  C   UNL A   1      44.329  26.265  29.497  1.00  0.00     0.074 A 
ATOM     44  C   UNL A   1      42.227  27.198  28.584  1.00  0.00     0.049 A 
ATOM     45  N   UNL A   1      44.443  26.931  30.616  1.00  0.00    -0.248 NA
ATOM     46  C   UNL A   1      45.438  25.329  29.241  1.00  0.00     0.031 C 
ATOM     47  C   UNL A   1      41.137  27.375  27.624  1.00  0.00     0.029 A 
ATOM     48  N   UNL A   1      41.948  28.102  29.578  1.00  0.00    -0.354 N 
ATOM     49  C   UNL A   1      45.634  26.504  31.193  1.00  0.00     0.074 A 
ATOM     50  C   UNL A   1      46.187  25.491  30.320  1.00  0.00     0.031 C 
ATOM     51  C   UNL A   1      40.302  28.323  28.084  1.00  0.00     0.029 A 
ATOM     52  C   UNL A   1      40.780  28.799  29.381  1.00  0.00     0.049 A 
ATOM     53  H   UNL A   1      42.530  28.238  30.361  1.00  0.00     0.167 HD
ATOM     54  C   UNL A   1      46.222  26.928  32.336  1.00  0.00     0.037 A 
ATOM     55  C   UNL A   1      40.158  29.701  30.167  1.00  0.00     0.037 A 
ATOM     56  C   UNL A   1      45.666  27.934  33.204  1.00  0.00     0.049 A 
ATOM     57  C   UNL A   1      40.798  30.102  31.473  1.00  0.00     0.074 A 
ATOM     58  C   UNL A   1      46.185  28.434  34.386  1.00  0.00     0.029 A 
ATOM     59  N   UNL A   1      44.465  28.593  32.987  1.00  0.00    -0.354 N 
ATOM     60  N   UNL A   1      41.935  29.704  31.995  1.00  0.00    -0.248 NA
ATOM     61  C   UNL A   1      40.075  31.084  32.293  1.00  0.00     0.031 C 
ATOM     62  C   UNL A   1      45.273  29.355  34.910  1.00  0.00     0.029 A 
ATOM     63  C   UNL A   1      44.215  29.477  34.024  1.00  0.00     0.049 A 
ATOM     64  H   UNL A   1      43.876  28.454  32.210  1.00  0.00     0.167 HD
ATOM     65  C   UNL A   1      42.072  30.405  33.190  1.00  0.00     0.074 A 
ATOM     66  C   UNL A   1      40.918  31.271  33.299  1.00  0.00     0.031 C 
ATOM     67  C   UNL A   1      43.061  30.336  34.117  1.00  0.00     0.037 A 
BRANCH  54  68
ATOM     68  C   UNL A   1      47.532  26.301  32.729  1.00  0.00     0.058 A 
ATOM     69  C   UNL A   1      47.589  25.161  33.545  1.00  0.00     0.135 A 
ATOM     70  C   UNL A   1      48.742  26.808  32.227  1.00  0.00     0.135 A 
ATOM     71  F   UNL A   1      46.465  24.649  34.071  1.00  0.00    -0.206 F 
ATOM     72  C   UNL A   1      48.800  24.549  33.858  1.00  0.00     0.059 A 
ATOM     73  C   UNL A   1      49.961  26.196  32.503  1.00  0.00     0.059 A 
ATOM     74  F   UNL A   1      48.746  27.900  31.447  1.00  0.00    -0.206 F 
ATOM     75  C   UNL A   1      49.980  25.069  33.324  1.00  0.00     0.060 A 
BRANCH  75  76
ATOM     76  S   UNL A   1      51.536  24.237  33.705  1.00  0.00     0.124 S 
ATOM     77  O   UNL A   1      51.260  22.878  33.253  1.00  0.00    -0.237 OA
ATOM     78  O   UNL A   1      52.495  24.990  32.902  1.00  0.00    -0.237 OA
ATOM     79  O   UNL A   1      51.666  24.402  35.149  1.00  0.00    -0.744 OA
ENDBRANCH  75  76
ENDBRANCH  54  68
BRANCH  55  80
ATOM     80  C   UNL A   1      38.842  30.271  29.765  1.00  0.00     0.058 A 
ATOM     81  C   UNL A   1      38.717  31.603  29.344  1.00  0.00     0.135 A 
ATOM     82  C   UNL A   1      37.672  29.499  29.835  1.00  0.00     0.135 A 
ATOM     83  F   UNL A   1      39.802  32.388  29.270  1.00  0.00    -0.206 F 
ATOM     84  C   UNL A   1      37.478  32.159  29.036  1.00  0.00     0.059 A 
ATOM     85  C   UNL A   1      36.426  30.022  29.500  1.00  0.00     0.059 A 
ATOM     86  F   UNL A   1      37.733  28.215  30.223  1.00  0.00    -0.206 F 
ATOM     87  C   UNL A   1      36.338  31.359  29.117  1.00  0.00     0.060 A 
BRANCH  87  88
ATOM     88  S   UNL A   1      34.740  32.077  28.684  1.00  0.00     0.124 S 
ATOM     89  O   UNL A   1      34.252  32.516  29.986  1.00  0.00    -0.237 OA
ATOM     90  O   UNL A   1      35.123  33.135  27.754  1.00  0.00    -0.237 OA
ATOM     91  O   UNL A   1      34.021  30.958  28.081  1.00  0.00    -0.744 OA
ENDBRANCH  87  88
ENDBRANCH  55  80
BRANCH  67  92
ATOM     92  C   UNL A   1      42.952  31.247  35.312  1.00  0.00     0.058 A 
ATOM     93  C   UNL A   1      42.386  30.817  36.523  1.00  0.00     0.135 A 
ATOM     94  C   UNL A   1      43.438  32.564  35.251  1.00  0.00     0.135 A 
ATOM     95  F   UNL A   1      41.905  29.569  36.638  1.00  0.00    -0.206 F 
ATOM     96  C   UNL A   1      42.263  31.673  37.614  1.00  0.00     0.059 A 
ATOM     97  C   UNL A   1      43.358  33.426  36.340  1.00  0.00     0.059 A 
ATOM     98  F   UNL A   1      44.005  33.025  34.124  1.00  0.00    -0.206 F 
ATOM     99  C   UNL A   1      42.749  32.978  37.511  1.00  0.00     0.060 A 
BRANCH  99 100
ATOM    100  S   UNL A   1      42.579  34.078  38.931  1.00  0.00     0.124 S 
ATOM    101  O   UNL A   1      43.199  35.301  38.430  1.00  0.00    -0.237 OA
ATOM    102  O   UNL A   1      41.132  34.131  39.116  1.00  0.00    -0.237 OA
ATOM    103  O   UNL A   1      43.315  33.388  39.987  1.00  0.00    -0.744 OA
ENDBRANCH  99 100
ENDBRANCH  67  92
ENDBRANCH  41  42
ENDBRANCH  34  36
ENDBRANCH  33  34
ENDBRANCH  32  33
ENDBRANCH  31  32
ENDBRANCH  30  31
ENDBRANCH  29  30
ENDBRANCH  28  29
ENDBRANCH  27  28
ENDBRANCH   1  27
TORSDOF 29
ENDMDL
MODEL 2
REMARK VINA RESULT:      -8.5      6.545     13.972
REMARK SMILES CC(C)C[C@@H](CNc1nccc(C(F)(F)F)n1)C(=O)OCCOCCOCCOCCOC(=O)c1ccc(-c2c3nc(c(-c4c(F)cc(S(=O)(=O)[O-])cc4F)c4ccc([nH]4)c(-c4c(F)cc(S(=O)(=O)[O-])cc4F)c4nc(c(-c5c(F)cc(S(=O)(=O)[O-])cc5F)c5ccc2[nH]5)C=C4)C=C3)cc1
REMARK SMILES IDX 25 1 24 2 23 3 22 4 21 5 20 6 18 7 19 8 5 9 4 10 2 11 1 12
REMARK SMILES IDX 3 13 6 14 7 15 8 17 9 18 17 19 10 20 12 21 11 22 13 23 14 24
REMARK SMILES IDX 15 25 16 26 26 27 27 28 28 29 29 30 30 31 31 32 32 33 33 34
REMARK SMILES IDX 34 35 35 36 36 37 100 38 37 39 99 40 38 41 39 42 40 43 93 44
REMARK SMILES IDX 41 45 98 46 92 47 94 48 42 49 97 50 91 51 90 52 43 54 77 55
REMARK SMILES IDX 56 56 76 57 57 58 60 59 75 60 95 61 58 62 59 63 74 65 96 66
REMARK SMILES IDX 61 67 44 68 45 69 54 70 46 71 47 72 53 73 55 74 48 75 49 76
REMARK SMILES IDX 50 77 51 78 52 79 78 80 79 81 88 82 80 83 81 84 87 85 89 86
REMARK SMILES IDX 82 87 83 88 84 89 85 90 86 91 62 92 63 93 72 94 64 95 65 96
REMARK SMILES IDX 71 97 73 98 66 99 67 100 68 101 69 102 70 103
REMARK H PARENT 7 16 94 53 60 64
REMARK Flexibility Score: inf
ROOT
ATOM      1  C   UNL A   1      35.289  34.382  32.842  1.00  0.00     0.188 C 
ENDROOT
BRANCH   1   2
ATOM      2  C   UNL A   1      35.450  33.232  33.841  1.00  0.00     0.188 C 
BRANCH   2   3
ATOM      3  O   UNL A   1      36.519  33.220  34.765  1.00  0.00    -0.376 OA
BRANCH   3   4
ATOM      4  C   UNL A   1      37.855  32.969  34.352  1.00  0.00     0.202 C 
BRANCH   4   5
ATOM      5  C   UNL A   1      38.901  34.069  34.092  1.00  0.00     0.261 C 
BRANCH   5   6
ATOM      6  O   UNL A   1      38.907  34.695  32.797  1.00  0.00    -0.463 OA
BRANCH   6   7
ATOM      7  C   UNL A   1      39.369  33.933  31.783  1.00  0.00     0.310 C 
ATOM      8  O   UNL A   1      38.680  33.123  31.163  1.00  0.00    -0.252 OA
BRANCH   7   9
ATOM      9  C   UNL A   1      40.851  34.082  31.468  1.00  0.00     0.118 C 
BRANCH   9  10
ATOM     10  C   UNL A   1      41.925  33.260  32.220  1.00  0.00     0.020 C 
BRANCH  10  11
ATOM     11  C   UNL A   1      43.371  33.533  31.725  1.00  0.00    -0.017 C 
ATOM     12  C   UNL A   1      43.855  34.950  32.060  1.00  0.00     0.007 C 
ATOM     13  C   UNL A   1      44.350  32.523  32.332  1.00  0.00     0.007 C 
ENDBRANCH  10  11
ENDBRANCH   9  10
BRANCH   9  14
ATOM     14  C   UNL A   1      40.992  33.978  29.946  1.00  0.00     0.131 C 
BRANCH  14  15
ATOM     15  N   UNL A   1      40.614  35.217  29.295  1.00  0.00    -0.353 N 
ATOM     16  H   UNL A   1      39.701  35.577  29.383  1.00  0.00     0.163 HD
BRANCH  15  17
ATOM     17  C   UNL A   1      41.565  35.872  28.555  1.00  0.00     0.223 A 
ATOM     18  N   UNL A   1      42.610  35.142  28.161  1.00  0.00    -0.222 NA
ATOM     19  N   UNL A   1      41.391  37.159  28.250  1.00  0.00    -0.209 NA
ATOM     20  C   UNL A   1      43.531  35.756  27.400  1.00  0.00     0.117 A 
ATOM     21  C   UNL A   1      42.353  37.770  27.518  1.00  0.00     0.149 A 
ATOM     22  C   UNL A   1      43.454  37.079  27.045  1.00  0.00     0.054 A 
BRANCH  21  23
ATOM     23  C   UNL A   1      42.189  39.250  27.243  1.00  0.00     0.433 C 
ATOM     24  F   UNL A   1      41.549  39.912  28.250  1.00  0.00    -0.165 F 
ATOM     25  F   UNL A   1      43.378  39.898  27.071  1.00  0.00    -0.165 F 
ATOM     26  F   UNL A   1      41.464  39.519  26.117  1.00  0.00    -0.165 F 
ENDBRANCH  21  23
ENDBRANCH  15  17
ENDBRANCH  14  15
ENDBRANCH   9  14
ENDBRANCH   7   9
ENDBRANCH   6   7
ENDBRANCH   5   6
ENDBRANCH   4   5
ENDBRANCH   3   4
ENDBRANCH   2   3
ENDBRANCH   1   2
BRANCH   1  27
ATOM     27  O   UNL A   1      34.175  34.315  31.977  1.00  0.00    -0.377 OA
BRANCH  27  28
ATOM     28  C   UNL A   1      34.197  35.044  30.754  1.00  0.00     0.188 C 
BRANCH  28  29
ATOM     29  C   UNL A   1      33.483  34.474  29.515  1.00  0.00     0.188 C 
BRANCH  29  30
ATOM     30  O   UNL A   1      34.355  34.021  28.491  1.00  0.00    -0.376 OA
BRANCH  30  31
ATOM     31  C   UNL A   1      34.494  32.623  28.280  1.00  0.00     0.202 C 
BRANCH  31  32
ATOM     32  C   UNL A   1      35.891  31.999  28.447  1.00  0.00     0.261 C 
BRANCH  32  33
ATOM     33  O   UNL A   1      36.235  31.541  29.766  1.00  0.00    -0.460 OA
BRANCH  33  34
ATOM     34  C   UNL A   1      36.587  30.245  29.916  1.00  0.00     0.338 C 
ATOM     35  O   UNL A   1      35.857  29.316  30.190  1.00  0.00    -0.246 OA
BRANCH  34  36
ATOM     36  C   UNL A   1      37.996  30.104  29.487  1.00  0.00     0.060 A 
ATOM     37  C   UNL A   1      38.255  29.657  28.186  1.00  0.00     0.016 A 
ATOM     38  C   UNL A   1      39.048  30.378  30.364  1.00  0.00     0.016 A 
ATOM     39  C   UNL A   1      39.567  29.435  27.773  1.00  0.00     0.010 A 
ATOM     40  C   UNL A   1      40.364  30.135  29.955  1.00  0.00     0.010 A 
ATOM     41  C   UNL A   1      40.627  29.626  28.671  1.00  0.00    -0.014 A 
BRANCH  41  42
ATOM     42  C   UNL A   1      41.975  29.118  28.312  1.00  0.00     0.031 A 
ATOM     43  C   UNL A   1      43.131  30.084  28.306  1.00  0.00     0.074 A 
ATOM     44  C   UNL A   1      42.181  27.812  28.062  1.00  0.00     0.049 A 
ATOM     45  N   UNL A   1      44.391  29.868  28.034  1.00  0.00    -0.248 NA
ATOM     46  C   UNL A   1      42.825  31.481  28.659  1.00  0.00     0.031 C 
ATOM     47  C   UNL A   1      41.148  26.776  28.075  1.00  0.00     0.029 A 
ATOM     48  N   UNL A   1      43.332  27.134  27.747  1.00  0.00    -0.354 N 
ATOM     49  C   UNL A   1      45.029  31.094  28.188  1.00  0.00     0.074 A 
ATOM     50  C   UNL A   1      44.010  32.059  28.539  1.00  0.00     0.031 C 
ATOM     51  C   UNL A   1      41.714  25.595  27.771  1.00  0.00     0.029 A 
ATOM     52  C   UNL A   1      43.139  25.794  27.514  1.00  0.00     0.049 A 
ATOM     53  H   UNL A   1      44.215  27.569  27.693  1.00  0.00     0.167 HD
ATOM     54  C   UNL A   1      46.345  31.386  28.064  1.00  0.00     0.037 A 
ATOM     55  C   UNL A   1      44.009  24.843  27.117  1.00  0.00     0.037 A 
ATOM     56  C   UNL A   1      47.355  30.422  27.711  1.00  0.00     0.049 A 
ATOM     57  C   UNL A   1      45.458  25.211  26.914  1.00  0.00     0.074 A 
ATOM     58  C   UNL A   1      48.717  30.619  27.560  1.00  0.00     0.029 A 
ATOM     59  N   UNL A   1      47.116  29.081  27.449  1.00  0.00    -0.354 N 
ATOM     60  N   UNL A   1      46.050  26.371  27.083  1.00  0.00    -0.248 NA
ATOM     61  C   UNL A   1      46.361  24.138  26.475  1.00  0.00     0.031 C 
ATOM     62  C   UNL A   1      49.293  29.410  27.157  1.00  0.00     0.029 A 
ATOM     63  C   UNL A   1      48.300  28.445  27.116  1.00  0.00     0.049 A 
ATOM     64  H   UNL A   1      46.234  28.646  27.494  1.00  0.00     0.167 HD
ATOM     65  C   UNL A   1      47.395  26.159  26.795  1.00  0.00     0.074 A 
ATOM     66  C   UNL A   1      47.534  24.756  26.469  1.00  0.00     0.031 C 
ATOM     67  C   UNL A   1      48.423  27.044  26.796  1.00  0.00     0.037 A 
BRANCH  54  68
ATOM     68  C   UNL A   1      46.776  32.808  28.301  1.00  0.00     0.058 A 
ATOM     69  C   UNL A   1      47.213  33.246  29.561  1.00  0.00     0.135 A 
ATOM     70  C   UNL A   1      46.814  33.727  27.239  1.00  0.00     0.135 A 
ATOM     71  F   UNL A   1      47.175  32.417  30.616  1.00  0.00    -0.206 F 
ATOM     72  C   UNL A   1      47.667  34.546  29.762  1.00  0.00     0.059 A 
ATOM     73  C   UNL A   1      47.290  35.023  27.411  1.00  0.00     0.059 A 
ATOM     74  F   UNL A   1      46.401  33.363  26.015  1.00  0.00    -0.206 F 
ATOM     75  C   UNL A   1      47.710  35.425  28.679  1.00  0.00     0.060 A 
BRANCH  75  76
ATOM     76  S   UNL A   1      48.342  37.094  28.950  1.00  0.00     0.124 S 
ATOM     77  O   UNL A   1      47.127  37.809  29.328  1.00  0.00    -0.237 OA
ATOM     78  O   UNL A   1      49.315  36.888  30.018  1.00  0.00    -0.237 OA
ATOM     79  O   UNL A   1      48.906  37.460  27.654  1.00  0.00    -0.744 OA
ENDBRANCH  75  76
ENDBRANCH  54  68
BRANCH  55  80
ATOM     80  C   UNL A   1      43.539  23.455  26.853  1.00  0.00     0.058 A 
ATOM     81  C   UNL A   1      43.306  22.547  27.897  1.00  0.00     0.135 A 
ATOM     82  C   UNL A   1      43.354  22.995  25.539  1.00  0.00     0.135 A 
ATOM     83  F   UNL A   1      43.478  22.932  29.170  1.00  0.00    -0.206 F 
ATOM     84  C   UNL A   1      42.935  21.229  27.650  1.00  0.00     0.059 A 
ATOM     85  C   UNL A   1      42.952  21.691  25.268  1.00  0.00     0.059 A 
ATOM     86  F   UNL A   1      43.554  23.822  24.500  1.00  0.00    -0.206 F 
ATOM     87  C   UNL A   1      42.760  20.810  26.330  1.00  0.00     0.060 A 
BRANCH  87  88
ATOM     88  S   UNL A   1      42.247  19.108  26.020  1.00  0.00     0.124 S 
ATOM     89  O   UNL A   1      42.575  18.466  27.288  1.00  0.00    -0.237 OA
ATOM     90  O   UNL A   1      40.825  19.265  25.730  1.00  0.00    -0.237 OA
ATOM     91  O   UNL A   1      43.068  18.713  24.879  1.00  0.00    -0.744 OA
ENDBRANCH  87  88
ENDBRANCH  55  80
BRANCH  67  92
ATOM     92  C   UNL A   1      49.794  26.512  26.466  1.00  0.00     0.058 A 
ATOM     93  C   UNL A   1      50.605  25.901  27.435  1.00  0.00     0.135 A 
ATOM     94  C   UNL A   1      50.294  26.597  25.155  1.00  0.00     0.135 A 
ATOM     95  F   UNL A   1      50.178  25.793  28.703  1.00  0.00    -0.206 F 
ATOM     96  C   UNL A   1      51.880  25.436  27.128  1.00  0.00     0.059 A 
ATOM     97  C   UNL A   1      51.552  26.107  24.819  1.00  0.00     0.059 A 
ATOM     98  F   UNL A   1      49.555  27.156  24.183  1.00  0.00    -0.206 F 
ATOM     99  C   UNL A   1      52.347  25.548  25.818  1.00  0.00     0.060 A 
BRANCH  99 100
ATOM    100  S   UNL A   1      54.005  24.945  25.435  1.00  0.00     0.124 S 
ATOM    101  O   UNL A   1      53.839  23.505  25.605  1.00  0.00    -0.237 OA
ATOM    102  O   UNL A   1      54.195  25.403  24.062  1.00  0.00    -0.237 OA
ATOM    103  O   UNL A   1      54.845  25.602  26.432  1.00  0.00    -0.744 OA
ENDBRANCH  99 100
ENDBRANCH  67  92
ENDBRANCH  41  42
ENDBRANCH  34  36
ENDBRANCH  33  34
ENDBRANCH  32  33
ENDBRANCH  31  32
ENDBRANCH  30  31
ENDBRANCH  29  30
ENDBRANCH  28  29
ENDBRANCH  27  28
ENDBRANCH   1  27
TORSDOF 29
ENDMDL
MODEL 3
REMARK VINA RESULT:      -8.3      2.301      3.546
REMARK SMILES CC(C)C[C@@H](CNc1nccc(C(F)(F)F)n1)C(=O)OCCOCCOCCOCCOC(=O)c1ccc(-c2c3nc(c(-c4c(F)cc(S(=O)(=O)[O-])cc4F)c4ccc([nH]4)c(-c4c(F)cc(S(=O)(=O)[O-])cc4F)c4nc(c(-c5c(F)cc(S(=O)(=O)[O-])cc5F)c5ccc2[nH]5)C=C4)C=C3)cc1
REMARK SMILES IDX 25 1 24 2 23 3 22 4 21 5 20 6 18 7 19 8 5 9 4 10 2 11 1 12
REMARK SMILES IDX 3 13 6 14 7 15 8 17 9 18 17 19 10 20 12 21 11 22 13 23 14 24
REMARK SMILES IDX 15 25 16 26 26 27 27 28 28 29 29 30 30 31 31 32 32 33 33 34
REMARK SMILES IDX 34 35 35 36 36 37 100 38 37 39 99 40 38 41 39 42 40 43 93 44
REMARK SMILES IDX 41 45 98 46 92 47 94 48 42 49 97 50 91 51 90 52 43 54 77 55
REMARK SMILES IDX 56 56 76 57 57 58 60 59 75 60 95 61 58 62 59 63 74 65 96 66
REMARK SMILES IDX 61 67 44 68 45 69 54 70 46 71 47 72 53 73 55 74 48 75 49 76
REMARK SMILES IDX 50 77 51 78 52 79 78 80 79 81 88 82 80 83 81 84 87 85 89 86
REMARK SMILES IDX 82 87 83 88 84 89 85 90 86 91 62 92 63 93 72 94 64 95 65 96
REMARK SMILES IDX 71 97 73 98 66 99 67 100 68 101 69 102 70 103
REMARK H PARENT 7 16 94 53 60 64
REMARK Flexibility Score: inf
ROOT
ATOM      1  C   UNL A   1      40.220  20.705  26.648  1.00  0.00     0.188 C 
ENDROOT
BRANCH   1   2
ATOM      2  C   UNL A   1      39.624  22.102  26.452  1.00  0.00     0.188 C 
BRANCH   2   3
ATOM      3  O   UNL A   1      38.621  22.332  25.484  1.00  0.00    -0.376 OA
BRANCH   3   4
ATOM      4  C   UNL A   1      37.581  23.276  25.701  1.00  0.00     0.202 C 
BRANCH   4   5
ATOM      5  C   UNL A   1      36.176  22.912  26.214  1.00  0.00     0.261 C 
BRANCH   5   6
ATOM      6  O   UNL A   1      35.045  23.480  25.530  1.00  0.00    -0.463 OA
BRANCH   6   7
ATOM      7  C   UNL A   1      34.651  22.829  24.415  1.00  0.00     0.310 C 
ATOM      8  O   UNL A   1      34.980  23.156  23.275  1.00  0.00    -0.252 OA
BRANCH   7   9
ATOM      9  C   UNL A   1      33.697  21.663  24.635  1.00  0.00     0.118 C 
BRANCH   9  10
ATOM     10  C   UNL A   1      34.189  20.312  25.207  1.00  0.00     0.020 C 
BRANCH  10  11
ATOM     11  C   UNL A   1      33.973  19.116  24.241  1.00  0.00    -0.017 C 
ATOM     12  C   UNL A   1      34.893  17.929  24.552  1.00  0.00     0.007 C 
ATOM     13  C   UNL A   1      32.519  18.636  24.290  1.00  0.00     0.007 C 
ENDBRANCH  10  11
ENDBRANCH   9  10
BRANCH   9  14
ATOM     14  C   UNL A   1      32.489  22.218  25.398  1.00  0.00     0.131 C 
BRANCH  14  15
ATOM     15  N   UNL A   1      31.461  22.684  24.489  1.00  0.00    -0.353 N 
ATOM     16  H   UNL A   1      30.961  22.051  23.922  1.00  0.00     0.163 HD
BRANCH  15  17
ATOM     17  C   UNL A   1      31.204  24.030  24.442  1.00  0.00     0.223 A 
ATOM     18  N   UNL A   1      30.290  24.425  23.553  1.00  0.00    -0.222 NA
ATOM     19  N   UNL A   1      31.837  24.851  25.281  1.00  0.00    -0.209 NA
ATOM     20  C   UNL A   1      29.994  25.735  23.521  1.00  0.00     0.117 A 
ATOM     21  C   UNL A   1      31.556  26.175  25.202  1.00  0.00     0.149 A 
ATOM     22  C   UNL A   1      30.602  26.663  24.329  1.00  0.00     0.054 A 
BRANCH  21  23
ATOM     23  C   UNL A   1      32.337  27.110  26.101  1.00  0.00     0.433 C 
ATOM     24  F   UNL A   1      32.713  28.263  25.473  1.00  0.00    -0.165 F 
ATOM     25  F   UNL A   1      31.637  27.501  27.205  1.00  0.00    -0.165 F 
ATOM     26  F   UNL A   1      33.496  26.567  26.580  1.00  0.00    -0.165 F 
ENDBRANCH  21  23
ENDBRANCH  15  17
ENDBRANCH  14  15
ENDBRANCH   9  14
ENDBRANCH   7   9
ENDBRANCH   6   7
ENDBRANCH   5   6
ENDBRANCH   4   5
ENDBRANCH   3   4
ENDBRANCH   2   3
ENDBRANCH   1   2
BRANCH   1  27
ATOM     27  O   UNL A   1      41.589  20.553  26.337  1.00  0.00    -0.377 OA
BRANCH  27  28
ATOM     28  C   UNL A   1      42.040  19.339  25.746  1.00  0.00     0.188 C 
BRANCH  28  29
ATOM     29  C   UNL A   1      43.301  18.646  26.295  1.00  0.00     0.188 C 
BRANCH  29  30
ATOM     30  O   UNL A   1      44.493  18.948  25.586  1.00  0.00    -0.376 OA
BRANCH  30  31
ATOM     31  C   UNL A   1      44.558  20.154  24.838  1.00  0.00     0.202 C 
BRANCH  31  32
ATOM     32  C   UNL A   1      45.548  21.239  25.296  1.00  0.00     0.261 C 
BRANCH  32  33
ATOM     33  O   UNL A   1      45.339  22.561  24.768  1.00  0.00    -0.460 OA
BRANCH  33  34
ATOM     34  C   UNL A   1      44.071  22.947  24.506  1.00  0.00     0.338 C 
ATOM     35  O   UNL A   1      43.323  22.486  23.669  1.00  0.00    -0.246 OA
BRANCH  34  36
ATOM     36  C   UNL A   1      43.659  23.903  25.558  1.00  0.00     0.060 A 
ATOM     37  C   UNL A   1      44.157  25.209  25.502  1.00  0.00     0.016 A 
ATOM     38  C   UNL A   1      42.819  23.510  26.602  1.00  0.00     0.016 A 
ATOM     39  C   UNL A   1      43.857  26.115  26.518  1.00  0.00     0.010 A 
ATOM     40  C   UNL A   1      42.533  24.413  27.632  1.00  0.00     0.010 A 
ATOM     41  C   UNL A   1      43.083  25.708  27.614  1.00  0.00    -0.014 A 
BRANCH  41  42
ATOM     42  C   UNL A   1      43.012  26.584  28.810  1.00  0.00     0.031 A 
ATOM     43  C   UNL A   1      44.095  26.473  29.851  1.00  0.00     0.074 A 
ATOM     44  C   UNL A   1      42.042  27.508  28.937  1.00  0.00     0.049 A 
ATOM     45  N   UNL A   1      44.244  27.137  30.967  1.00  0.00    -0.248 NA
ATOM     46  C   UNL A   1      45.155  25.482  29.596  1.00  0.00     0.031 C 
ATOM     47  C   UNL A   1      40.961  27.736  27.977  1.00  0.00     0.029 A 
ATOM     48  N   UNL A   1      41.809  28.428  29.929  1.00  0.00    -0.354 N 
ATOM     49  C   UNL A   1      45.413  26.652  31.544  1.00  0.00     0.074 A 
ATOM     50  C   UNL A   1      45.913  25.610  30.675  1.00  0.00     0.031 C 
ATOM     51  C   UNL A   1      40.175  28.727  28.435  1.00  0.00     0.029 A 
ATOM     52  C   UNL A   1      40.678  29.183  29.730  1.00  0.00     0.049 A 
ATOM     53  H   UNL A   1      42.399  28.537  30.710  1.00  0.00     0.167 HD
ATOM     54  C   UNL A   1      46.023  27.050  32.686  1.00  0.00     0.037 A 
ATOM     55  C   UNL A   1      40.103  30.117  30.513  1.00  0.00     0.037 A 
ATOM     56  C   UNL A   1      45.519  28.086  33.550  1.00  0.00     0.049 A 
ATOM     57  C   UNL A   1      40.764  30.490  31.818  1.00  0.00     0.074 A 
ATOM     58  C   UNL A   1      46.063  28.562  34.730  1.00  0.00     0.029 A 
ATOM     59  N   UNL A   1      44.352  28.803  33.333  1.00  0.00    -0.354 N 
ATOM     60  N   UNL A   1      41.880  30.036  32.340  1.00  0.00    -0.248 NA
ATOM     61  C   UNL A   1      40.092  31.509  32.636  1.00  0.00     0.031 C 
ATOM     62  C   UNL A   1      45.200  29.530  35.252  1.00  0.00     0.029 A 
ATOM     63  C   UNL A   1      44.148  29.702  34.367  1.00  0.00     0.049 A 
ATOM     64  H   UNL A   1      43.757  28.692  32.557  1.00  0.00     0.167 HD
ATOM     65  C   UNL A   1      42.054  30.734  33.533  1.00  0.00     0.074 A 
ATOM     66  C   UNL A   1      40.945  31.657  33.640  1.00  0.00     0.031 C 
ATOM     67  C   UNL A   1      43.039  30.619  34.459  1.00  0.00     0.037 A 
BRANCH  54  68
ATOM     68  C   UNL A   1      47.300  26.359  33.079  1.00  0.00     0.058 A 
ATOM     69  C   UNL A   1      47.296  25.118  33.734  1.00  0.00     0.135 A 
ATOM     70  C   UNL A   1      48.544  26.914  32.736  1.00  0.00     0.135 A 
ATOM     71  F   UNL A   1      46.137  24.553  34.106  1.00  0.00    -0.206 F 
ATOM     72  C   UNL A   1      48.480  24.454  34.043  1.00  0.00     0.059 A 
ATOM     73  C   UNL A   1      49.739  26.256  33.011  1.00  0.00     0.059 A 
ATOM     74  F   UNL A   1      48.606  28.102  32.115  1.00  0.00    -0.206 F 
ATOM     75  C   UNL A   1      49.696  25.027  33.669  1.00  0.00     0.060 A 
BRANCH  75  76
ATOM     76  S   UNL A   1      51.219  24.132  34.040  1.00  0.00     0.124 S 
ATOM     77  O   UNL A   1      50.780  23.234  35.103  1.00  0.00    -0.237 OA
ATOM     78  O   UNL A   1      51.526  23.499  32.761  1.00  0.00    -0.237 OA
ATOM     79  O   UNL A   1      52.142  25.185  34.452  1.00  0.00    -0.744 OA
ENDBRANCH  75  76
ENDBRANCH  54  68
BRANCH  55  80
ATOM     80  C   UNL A   1      38.817  30.751  30.111  1.00  0.00     0.058 A 
ATOM     81  C   UNL A   1      38.773  32.049  29.580  1.00  0.00     0.135 A 
ATOM     82  C   UNL A   1      37.597  30.081  30.291  1.00  0.00     0.135 A 
ATOM     83  F   UNL A   1      39.909  32.738  29.398  1.00  0.00    -0.206 F 
ATOM     84  C   UNL A   1      37.567  32.670  29.269  1.00  0.00     0.059 A 
ATOM     85  C   UNL A   1      36.380  30.668  29.957  1.00  0.00     0.059 A 
ATOM     86  F   UNL A   1      37.579  28.833  30.787  1.00  0.00    -0.206 F 
ATOM     87  C   UNL A   1      36.375  31.971  29.461  1.00  0.00     0.060 A 
BRANCH  87  88
ATOM     88  S   UNL A   1      34.817  32.771  29.025  1.00  0.00     0.124 S 
ATOM     89  O   UNL A   1      34.073  32.668  30.275  1.00  0.00    -0.237 OA
ATOM     90  O   UNL A   1      35.258  34.112  28.650  1.00  0.00    -0.237 OA
ATOM     91  O   UNL A   1      34.319  31.957  27.921  1.00  0.00    -0.744 OA
ENDBRANCH  87  88
ENDBRANCH  55  80
BRANCH  67  92
ATOM     92  C   UNL A   1      42.977  31.538  35.651  1.00  0.00     0.058 A 
ATOM     93  C   UNL A   1      43.525  32.830  35.619  1.00  0.00     0.135 A 
ATOM     94  C   UNL A   1      42.344  31.126  36.836  1.00  0.00     0.135 A 
ATOM     95  F   UNL A   1      44.143  33.276  34.514  1.00  0.00    -0.206 F 
ATOM     96  C   UNL A   1      43.488  33.663  36.734  1.00  0.00     0.059 A 
ATOM     97  C   UNL A   1      42.264  31.956  37.950  1.00  0.00     0.059 A 
ATOM     98  F   UNL A   1      41.787  29.907  36.917  1.00  0.00    -0.206 F 
ATOM     99  C   UNL A   1      42.859  33.216  37.896  1.00  0.00     0.060 A 
BRANCH  99 100
ATOM    100  S   UNL A   1      42.822  34.304  39.335  1.00  0.00     0.124 S 
ATOM    101  O   UNL A   1      43.876  35.260  39.006  1.00  0.00    -0.237 OA
ATOM    102  O   UNL A   1      41.460  34.826  39.298  1.00  0.00    -0.237 OA
ATOM    103  O   UNL A   1      43.114  33.407  40.449  1.00  0.00    -0.744 OA
ENDBRANCH  99 100
ENDBRANCH  67  92
ENDBRANCH  41  42
ENDBRANCH  34  36
ENDBRANCH  33  34
ENDBRANCH  32  33
ENDBRANCH  31  32
ENDBRANCH  30  31
ENDBRANCH  29  30
ENDBRANCH  28  29
ENDBRANCH  27  28
ENDBRANCH   1  27
TORSDOF 29
ENDMDL
