MODEL 1
REMARK VINA RESULT:      -9.3      0.000      0.000
REMARK SMILES CC(C)(C[S@](=O)c1cccc(Cl)c1)C(=O)OCCOCCOCCOCCOC(=O)c1ccc(-c2c3nc(c(-c4c(F)cc(S(=O)(=O)[O-])cc4F)c4ccc([nH]4)c(-c4c(F)cc(S(=O)(=O)[O-])cc4F)c4nc(c(-c5c(F)cc(S(=O)(=O)[O-])cc5F)c5ccc2[nH]5)C=C4)C=C3)cc1
REMARK SMILES IDX 22 1 21 2 20 3 19 4 18 5 17 6 16 7 14 8 15 9 2 10 1 11 3 12
REMARK SMILES IDX 4 13 5 14 6 15 7 16 8 17 13 18 9 19 11 20 10 21 12 22 23 23
REMARK SMILES IDX 24 24 25 25 26 26 27 27 28 28 29 29 30 30 31 31 32 32 96 33
REMARK SMILES IDX 33 34 95 35 34 36 35 37 36 38 89 39 37 40 94 41 88 42 90 43
REMARK SMILES IDX 38 44 93 45 87 46 86 47 39 49 73 50 52 51 72 52 53 53 56 54
REMARK SMILES IDX 71 55 91 56 54 57 55 58 70 60 92 61 57 62 40 63 41 64 50 65
REMARK SMILES IDX 42 66 43 67 49 68 51 69 44 70 45 71 46 72 47 73 48 74 74 75
REMARK SMILES IDX 75 76 84 77 76 78 77 79 83 80 85 81 78 82 79 83 80 84 81 85
REMARK SMILES IDX 82 86 58 87 59 88 68 89 60 90 61 91 67 92 69 93 62 94 63 95
REMARK SMILES IDX 64 96 65 97 66 98
REMARK H PARENT 90 48 56 59
REMARK Flexibility Score: inf
ROOT
ATOM      1  O   UNL A   1      38.892  21.608  25.861  1.00  0.00    -0.377 OA
ENDROOT
BRANCH   1   2
ATOM      2  C   UNL A   1      37.942  21.035  24.980  1.00  0.00     0.188 C 
BRANCH   2   3
ATOM      3  C   UNL A   1      36.537  21.690  24.967  1.00  0.00     0.188 C 
BRANCH   3   4
ATOM      4  O   UNL A   1      35.430  20.861  24.636  1.00  0.00    -0.376 OA
BRANCH   4   5
ATOM      5  C   UNL A   1      34.399  20.728  25.596  1.00  0.00     0.202 C 
BRANCH   5   6
ATOM      6  C   UNL A   1      33.210  21.718  25.646  1.00  0.00     0.261 C 
BRANCH   6   7
ATOM      7  O   UNL A   1      33.412  23.016  26.265  1.00  0.00    -0.463 OA
BRANCH   7   8
ATOM      8  C   UNL A   1      32.682  24.035  25.733  1.00  0.00     0.312 C 
ATOM      9  O   UNL A   1      31.462  23.974  25.604  1.00  0.00    -0.252 OA
BRANCH   8  10
ATOM     10  C   UNL A   1      33.526  25.198  25.151  1.00  0.00     0.074 C 
ATOM     11  C   UNL A   1      34.982  24.904  25.524  1.00  0.00     0.024 C 
ATOM     12  C   UNL A   1      33.052  26.425  25.978  1.00  0.00     0.024 C 
BRANCH  10  13
ATOM     13  C   UNL A   1      33.416  25.627  23.665  1.00  0.00     0.128 C 
BRANCH  13  14
ATOM     14  S   UNL A   1      31.923  25.475  22.649  1.00  0.00     0.054 S 
ATOM     15  O   UNL A   1      32.207  25.857  21.236  1.00  0.00    -0.254 OA
BRANCH  14  16
ATOM     16  C   UNL A   1      30.686  26.679  23.149  1.00  0.00     0.040 A 
ATOM     17  C   UNL A   1      29.519  26.241  23.790  1.00  0.00     0.018 A 
ATOM     18  C   UNL A   1      30.676  27.933  22.521  1.00  0.00     0.038 A 
ATOM     19  C   UNL A   1      28.364  27.036  23.778  1.00  0.00     0.003 A 
ATOM     20  C   UNL A   1      29.532  28.727  22.526  1.00  0.00     0.042 A 
ATOM     21  C   UNL A   1      28.369  28.278  23.140  1.00  0.00     0.020 A 
ATOM     22  Cl  UNL A   1      29.535  30.226  21.682  1.00  0.00    -0.084 Cl
ENDBRANCH  14  16
ENDBRANCH  13  14
ENDBRANCH  10  13
ENDBRANCH   8  10
ENDBRANCH   7   8
ENDBRANCH   6   7
ENDBRANCH   5   6
ENDBRANCH   4   5
ENDBRANCH   3   4
ENDBRANCH   2   3
ENDBRANCH   1   2
BRANCH   1  23
ATOM     23  C   UNL A   1      39.847  20.678  26.298  1.00  0.00     0.188 C 
BRANCH  23  24
ATOM     24  C   UNL A   1      41.280  21.220  26.379  1.00  0.00     0.188 C 
BRANCH  24  25
ATOM     25  O   UNL A   1      41.786  22.223  25.504  1.00  0.00    -0.376 OA
BRANCH  25  26
ATOM     26  C   UNL A   1      42.887  23.059  25.841  1.00  0.00     0.202 C 
BRANCH  26  27
ATOM     27  C   UNL A   1      43.218  24.251  24.945  1.00  0.00     0.261 C 
BRANCH  27  28
ATOM     28  O   UNL A   1      43.221  25.495  25.654  1.00  0.00    -0.460 OA
BRANCH  28  29
ATOM     29  C   UNL A   1      41.991  25.991  25.932  1.00  0.00     0.338 C 
ATOM     30  O   UNL A   1      40.970  25.832  25.302  1.00  0.00    -0.246 OA
BRANCH  29  31
ATOM     31  C   UNL A   1      42.030  26.618  27.267  1.00  0.00     0.060 A 
ATOM     32  C   UNL A   1      40.974  26.325  28.141  1.00  0.00     0.016 A 
ATOM     33  C   UNL A   1      43.072  27.462  27.659  1.00  0.00     0.016 A 
ATOM     34  C   UNL A   1      40.961  26.864  29.419  1.00  0.00     0.010 A 
ATOM     35  C   UNL A   1      43.026  28.054  28.921  1.00  0.00     0.010 A 
ATOM     36  C   UNL A   1      41.957  27.773  29.789  1.00  0.00    -0.014 A 
BRANCH  36  37
ATOM     37  C   UNL A   1      41.707  28.622  30.969  1.00  0.00     0.031 A 
ATOM     38  C   UNL A   1      40.545  29.572  30.894  1.00  0.00     0.074 A 
ATOM     39  C   UNL A   1      42.446  28.504  32.084  1.00  0.00     0.049 A 
ATOM     40  N   UNL A   1      40.109  30.421  31.783  1.00  0.00    -0.248 NA
ATOM     41  C   UNL A   1      39.765  29.555  29.643  1.00  0.00     0.031 C 
ATOM     42  C   UNL A   1      43.556  27.570  32.268  1.00  0.00     0.029 A 
ATOM     43  N   UNL A   1      42.371  29.181  33.272  1.00  0.00    -0.354 N 
ATOM     44  C   UNL A   1      39.011  31.041  31.200  1.00  0.00     0.074 A 
ATOM     45  C   UNL A   1      38.858  30.489  29.874  1.00  0.00     0.031 C 
ATOM     46  C   UNL A   1      44.073  27.750  33.496  1.00  0.00     0.029 A 
ATOM     47  C   UNL A   1      43.350  28.828  34.168  1.00  0.00     0.049 A 
ATOM     48  H   UNL A   1      41.681  29.856  33.466  1.00  0.00     0.167 HD
ATOM     49  C   UNL A   1      38.203  31.985  31.730  1.00  0.00     0.037 A 
ATOM     50  C   UNL A   1      43.636  29.344  35.380  1.00  0.00     0.037 A 
ATOM     51  C   UNL A   1      38.380  32.529  33.048  1.00  0.00     0.049 A 
ATOM     52  C   UNL A   1      42.764  30.449  35.921  1.00  0.00     0.074 A 
ATOM     53  C   UNL A   1      37.619  33.485  33.694  1.00  0.00     0.029 A 
ATOM     54  N   UNL A   1      39.402  32.172  33.918  1.00  0.00    -0.354 N 
ATOM     55  N   UNL A   1      41.713  31.014  35.374  1.00  0.00    -0.248 NA
ATOM     56  C   UNL A   1      43.109  30.982  37.246  1.00  0.00     0.031 C 
ATOM     57  C   UNL A   1      38.216  33.751  34.929  1.00  0.00     0.029 A 
ATOM     58  C   UNL A   1      39.310  32.912  35.083  1.00  0.00     0.049 A 
ATOM     59  H   UNL A   1      40.091  31.494  33.732  1.00  0.00     0.167 HD
ATOM     60  C   UNL A   1      41.254  31.948  36.299  1.00  0.00     0.074 A 
ATOM     61  C   UNL A   1      42.136  31.860  37.445  1.00  0.00     0.031 C 
ATOM     62  C   UNL A   1      40.200  32.798  36.213  1.00  0.00     0.037 A 
BRANCH  49  63
ATOM     63  C   UNL A   1      37.094  32.517  30.868  1.00  0.00     0.058 A 
ATOM     64  C   UNL A   1      37.291  33.579  29.971  1.00  0.00     0.135 A 
ATOM     65  C   UNL A   1      35.815  31.939  30.927  1.00  0.00     0.135 A 
ATOM     66  F   UNL A   1      38.485  34.190  29.896  1.00  0.00    -0.206 F 
ATOM     67  C   UNL A   1      36.256  34.059  29.174  1.00  0.00     0.059 A 
ATOM     68  C   UNL A   1      34.774  32.383  30.119  1.00  0.00     0.059 A 
ATOM     69  F   UNL A   1      35.569  30.931  31.778  1.00  0.00    -0.206 F 
ATOM     70  C   UNL A   1      35.002  33.451  29.253  1.00  0.00     0.060 A 
BRANCH  70  71
ATOM     71  S   UNL A   1      33.677  34.066  28.193  1.00  0.00     0.124 S 
ATOM     72  O   UNL A   1      34.421  34.889  27.243  1.00  0.00    -0.237 OA
ATOM     73  O   UNL A   1      33.111  32.833  27.656  1.00  0.00    -0.237 OA
ATOM     74  O   UNL A   1      32.815  34.799  29.115  1.00  0.00    -0.744 OA
ENDBRANCH  70  71
ENDBRANCH  49  63
BRANCH  50  75
ATOM     75  C   UNL A   1      44.810  28.844  36.147  1.00  0.00     0.058 A 
ATOM     76  C   UNL A   1      46.076  29.432  36.015  1.00  0.00     0.135 A 
ATOM     77  C   UNL A   1      44.685  27.756  37.026  1.00  0.00     0.135 A 
ATOM     78  F   UNL A   1      46.251  30.468  35.181  1.00  0.00    -0.206 F 
ATOM     79  C   UNL A   1      47.180  28.951  36.714  1.00  0.00     0.059 A 
ATOM     80  C   UNL A   1      45.767  27.276  37.757  1.00  0.00     0.059 A 
ATOM     81  F   UNL A   1      43.494  27.162  37.198  1.00  0.00    -0.206 F 
ATOM     82  C   UNL A   1      47.014  27.874  37.586  1.00  0.00     0.060 A 
BRANCH  82  83
ATOM     83  S   UNL A   1      48.442  27.287  38.523  1.00  0.00     0.124 S 
ATOM     84  O   UNL A   1      49.548  27.858  37.763  1.00  0.00    -0.237 OA
ATOM     85  O   UNL A   1      48.203  27.869  39.840  1.00  0.00    -0.237 OA
ATOM     86  O   UNL A   1      48.313  25.834  38.456  1.00  0.00    -0.744 OA
ENDBRANCH  82  83
ENDBRANCH  50  75
BRANCH  62  87
ATOM     87  C   UNL A   1      39.914  33.672  37.404  1.00  0.00     0.058 A 
ATOM     88  C   UNL A   1      40.529  34.922  37.572  1.00  0.00     0.135 A 
ATOM     89  C   UNL A   1      38.964  33.273  38.360  1.00  0.00     0.135 A 
ATOM     90  F   UNL A   1      41.446  35.349  36.688  1.00  0.00    -0.206 F 
ATOM     91  C   UNL A   1      40.231  35.736  38.659  1.00  0.00     0.059 A 
ATOM     92  C   UNL A   1      38.626  34.086  39.437  1.00  0.00     0.059 A 
ATOM     93  F   UNL A   1      38.337  32.093  38.240  1.00  0.00    -0.206 F 
ATOM     94  C   UNL A   1      39.277  35.310  39.586  1.00  0.00     0.060 A 
BRANCH  94  95
ATOM     95  S   UNL A   1      38.880  36.388  40.977  1.00  0.00     0.124 S 
ATOM     96  O   UNL A   1      38.451  37.603  40.293  1.00  0.00    -0.237 OA
ATOM     97  O   UNL A   1      37.829  35.641  41.661  1.00  0.00    -0.237 OA
ATOM     98  O   UNL A   1      40.143  36.488  41.701  1.00  0.00    -0.744 OA
ENDBRANCH  94  95
ENDBRANCH  62  87
ENDBRANCH  36  37
ENDBRANCH  29  31
ENDBRANCH  28  29
ENDBRANCH  27  28
ENDBRANCH  26  27
ENDBRANCH  25  26
ENDBRANCH  24  25
ENDBRANCH  23  24
ENDBRANCH   1  23
TORSDOF 26
ENDMDL
MODEL 2
REMARK VINA RESULT:      -9.1      6.407     12.199
REMARK SMILES CC(C)(C[S@](=O)c1cccc(Cl)c1)C(=O)OCCOCCOCCOCCOC(=O)c1ccc(-c2c3nc(c(-c4c(F)cc(S(=O)(=O)[O-])cc4F)c4ccc([nH]4)c(-c4c(F)cc(S(=O)(=O)[O-])cc4F)c4nc(c(-c5c(F)cc(S(=O)(=O)[O-])cc5F)c5ccc2[nH]5)C=C4)C=C3)cc1
REMARK SMILES IDX 22 1 21 2 20 3 19 4 18 5 17 6 16 7 14 8 15 9 2 10 1 11 3 12
REMARK SMILES IDX 4 13 5 14 6 15 7 16 8 17 13 18 9 19 11 20 10 21 12 22 23 23
REMARK SMILES IDX 24 24 25 25 26 26 27 27 28 28 29 29 30 30 31 31 32 32 96 33
REMARK SMILES IDX 33 34 95 35 34 36 35 37 36 38 89 39 37 40 94 41 88 42 90 43
REMARK SMILES IDX 38 44 93 45 87 46 86 47 39 49 73 50 52 51 72 52 53 53 56 54
REMARK SMILES IDX 71 55 91 56 54 57 55 58 70 60 92 61 57 62 40 63 41 64 50 65
REMARK SMILES IDX 42 66 43 67 49 68 51 69 44 70 45 71 46 72 47 73 48 74 74 75
REMARK SMILES IDX 75 76 84 77 76 78 77 79 83 80 85 81 78 82 79 83 80 84 81 85
REMARK SMILES IDX 82 86 58 87 59 88 68 89 60 90 61 91 67 92 69 93 62 94 63 95
REMARK SMILES IDX 64 96 65 97 66 98
REMARK H PARENT 90 48 56 59
REMARK Flexibility Score: inf
ROOT
ATOM      1  O   UNL A   1      35.702  31.641  28.102  1.00  0.00    -0.377 OA
ENDROOT
BRANCH   1   2
ATOM      2  C   UNL A   1      34.304  31.871  28.119  1.00  0.00     0.188 C 
BRANCH   2   3
ATOM      3  C   UNL A   1      33.437  30.881  27.300  1.00  0.00     0.188 C 
BRANCH   3   4
ATOM      4  O   UNL A   1      34.063  29.696  26.827  1.00  0.00    -0.376 OA
BRANCH   4   5
ATOM      5  C   UNL A   1      33.308  28.500  26.850  1.00  0.00     0.202 C 
BRANCH   5   6
ATOM      6  C   UNL A   1      33.442  27.439  25.730  1.00  0.00     0.261 C 
BRANCH   6   7
ATOM      7  O   UNL A   1      33.747  26.069  26.103  1.00  0.00    -0.463 OA
BRANCH   7   8
ATOM      8  C   UNL A   1      32.683  25.219  26.120  1.00  0.00     0.312 C 
ATOM      9  O   UNL A   1      31.677  25.437  26.789  1.00  0.00    -0.252 OA
BRANCH   8  10
ATOM     10  C   UNL A   1      32.913  23.883  25.367  1.00  0.00     0.074 C 
ATOM     11  C   UNL A   1      34.373  23.893  24.905  1.00  0.00     0.024 C 
ATOM     12  C   UNL A   1      32.007  24.025  24.114  1.00  0.00     0.024 C 
BRANCH  10  13
ATOM     13  C   UNL A   1      32.546  22.514  25.997  1.00  0.00     0.128 C 
BRANCH  13  14
ATOM     14  S   UNL A   1      33.654  21.083  26.086  1.00  0.00     0.054 S 
ATOM     15  O   UNL A   1      35.079  21.518  26.056  1.00  0.00    -0.254 OA
BRANCH  14  16
ATOM     16  C   UNL A   1      33.511  20.073  24.607  1.00  0.00     0.040 A 
ATOM     17  C   UNL A   1      32.565  20.413  23.630  1.00  0.00     0.018 A 
ATOM     18  C   UNL A   1      33.998  18.758  24.640  1.00  0.00     0.038 A 
ATOM     19  C   UNL A   1      32.102  19.444  22.726  1.00  0.00     0.003 A 
ATOM     20  C   UNL A   1      33.549  17.805  23.730  1.00  0.00     0.042 A 
ATOM     21  C   UNL A   1      32.590  18.138  22.781  1.00  0.00     0.020 A 
ATOM     22  Cl  UNL A   1      34.113  16.184  23.851  1.00  0.00    -0.084 Cl
ENDBRANCH  14  16
ENDBRANCH  13  14
ENDBRANCH  10  13
ENDBRANCH   8  10
ENDBRANCH   7   8
ENDBRANCH   6   7
ENDBRANCH   5   6
ENDBRANCH   4   5
ENDBRANCH   3   4
ENDBRANCH   2   3
ENDBRANCH   1   2
BRANCH   1  23
ATOM     23  C   UNL A   1      36.432  32.748  28.561  1.00  0.00     0.188 C 
BRANCH  23  24
ATOM     24  C   UNL A   1      35.602  33.798  29.312  1.00  0.00     0.188 C 
BRANCH  24  25
ATOM     25  O   UNL A   1      35.267  33.687  30.691  1.00  0.00    -0.376 OA
BRANCH  25  26
ATOM     26  C   UNL A   1      36.097  33.023  31.637  1.00  0.00     0.202 C 
BRANCH  26  27
ATOM     27  C   UNL A   1      35.792  31.573  32.006  1.00  0.00     0.261 C 
BRANCH  27  28
ATOM     28  O   UNL A   1      36.966  30.753  32.053  1.00  0.00    -0.460 OA
BRANCH  28  29
ATOM     29  C   UNL A   1      37.101  29.899  31.010  1.00  0.00     0.338 C 
ATOM     30  O   UNL A   1      36.225  29.315  30.414  1.00  0.00    -0.246 OA
BRANCH  29  31
ATOM     31  C   UNL A   1      38.506  29.929  30.560  1.00  0.00     0.060 A 
ATOM     32  C   UNL A   1      38.732  29.990  29.178  1.00  0.00     0.016 A 
ATOM     33  C   UNL A   1      39.573  29.908  31.461  1.00  0.00     0.016 A 
ATOM     34  C   UNL A   1      40.029  30.044  28.689  1.00  0.00     0.010 A 
ATOM     35  C   UNL A   1      40.877  29.898  30.966  1.00  0.00     0.010 A 
ATOM     36  C   UNL A   1      41.102  29.941  29.579  1.00  0.00    -0.014 A 
BRANCH  36  37
ATOM     37  C   UNL A   1      42.424  29.597  29.024  1.00  0.00     0.031 A 
ATOM     38  C   UNL A   1      42.627  28.181  28.564  1.00  0.00     0.074 A 
ATOM     39  C   UNL A   1      43.382  30.528  28.876  1.00  0.00     0.049 A 
ATOM     40  N   UNL A   1      43.683  27.622  28.042  1.00  0.00    -0.248 NA
ATOM     41  C   UNL A   1      41.475  27.273  28.712  1.00  0.00     0.031 C 
ATOM     42  C   UNL A   1      43.255  31.938  29.239  1.00  0.00     0.029 A 
ATOM     43  N   UNL A   1      44.654  30.417  28.380  1.00  0.00    -0.354 N 
ATOM     44  C   UNL A   1      43.326  26.301  27.803  1.00  0.00     0.074 A 
ATOM     45  C   UNL A   1      41.966  26.133  28.257  1.00  0.00     0.031 C 
ATOM     46  C   UNL A   1      44.418  32.559  28.973  1.00  0.00     0.029 A 
ATOM     47  C   UNL A   1      45.373  31.586  28.449  1.00  0.00     0.049 A 
ATOM     48  H   UNL A   1      45.018  29.581  28.010  1.00  0.00     0.167 HD
ATOM     49  C   UNL A   1      44.072  25.319  27.250  1.00  0.00     0.037 A 
ATOM     50  C   UNL A   1      46.665  31.822  28.145  1.00  0.00     0.037 A 
ATOM     51  C   UNL A   1      45.429  25.505  26.815  1.00  0.00     0.049 A 
ATOM     52  C   UNL A   1      47.499  30.691  27.597  1.00  0.00     0.074 A 
ATOM     53  C   UNL A   1      46.279  24.584  26.234  1.00  0.00     0.029 A 
ATOM     54  N   UNL A   1      46.138  26.693  26.928  1.00  0.00    -0.354 N 
ATOM     55  N   UNL A   1      47.148  29.450  27.352  1.00  0.00    -0.248 NA
ATOM     56  C   UNL A   1      48.901  30.992  27.277  1.00  0.00     0.031 C 
ATOM     57  C   UNL A   1      47.522  25.197  26.053  1.00  0.00     0.029 A 
ATOM     58  C   UNL A   1      47.426  26.521  26.457  1.00  0.00     0.049 A 
ATOM     59  H   UNL A   1      45.777  27.534  27.292  1.00  0.00     0.167 HD
ATOM     60  C   UNL A   1      48.276  28.829  26.822  1.00  0.00     0.074 A 
ATOM     61  C   UNL A   1      49.315  29.838  26.771  1.00  0.00     0.031 C 
ATOM     62  C   UNL A   1      48.440  27.547  26.412  1.00  0.00     0.037 A 
BRANCH  49  63
ATOM     63  C   UNL A   1      43.452  23.956  27.132  1.00  0.00     0.058 A 
ATOM     64  C   UNL A   1      43.445  23.045  28.201  1.00  0.00     0.135 A 
ATOM     65  C   UNL A   1      42.835  23.562  25.934  1.00  0.00     0.135 A 
ATOM     66  F   UNL A   1      44.048  23.357  29.360  1.00  0.00    -0.206 F 
ATOM     67  C   UNL A   1      42.862  21.787  28.080  1.00  0.00     0.059 A 
ATOM     68  C   UNL A   1      42.220  22.322  25.800  1.00  0.00     0.059 A 
ATOM     69  F   UNL A   1      42.826  24.388  24.876  1.00  0.00    -0.206 F 
ATOM     70  C   UNL A   1      42.248  21.438  26.877  1.00  0.00     0.060 A 
BRANCH  70  71
ATOM     71  S   UNL A   1      41.473  19.812  26.744  1.00  0.00     0.124 S 
ATOM     72  O   UNL A   1      41.783  19.453  25.364  1.00  0.00    -0.237 OA
ATOM     73  O   UNL A   1      42.175  19.050  27.772  1.00  0.00    -0.237 OA
ATOM     74  O   UNL A   1      40.066  20.083  27.020  1.00  0.00    -0.744 OA
ENDBRANCH  70  71
ENDBRANCH  49  63
BRANCH  50  75
ATOM     75  C   UNL A   1      47.252  33.170  28.376  1.00  0.00     0.058 A 
ATOM     76  C   UNL A   1      47.804  33.526  29.615  1.00  0.00     0.135 A 
ATOM     77  C   UNL A   1      47.265  34.135  27.355  1.00  0.00     0.135 A 
ATOM     78  F   UNL A   1      47.807  32.645  30.626  1.00  0.00    -0.206 F 
ATOM     79  C   UNL A   1      48.333  34.795  29.841  1.00  0.00     0.059 A 
ATOM     80  C   UNL A   1      47.814  35.399  27.548  1.00  0.00     0.059 A 
ATOM     81  F   UNL A   1      46.759  33.844  26.146  1.00  0.00    -0.206 F 
ATOM     82  C   UNL A   1      48.337  35.723  28.798  1.00  0.00     0.060 A 
BRANCH  82  83
ATOM     83  S   UNL A   1      49.066  37.349  29.086  1.00  0.00     0.124 S 
ATOM     84  O   UNL A   1      49.901  37.512  27.902  1.00  0.00    -0.237 OA
ATOM     85  O   UNL A   1      47.886  38.205  29.160  1.00  0.00    -0.237 OA
ATOM     86  O   UNL A   1      49.785  37.177  30.346  1.00  0.00    -0.744 OA
ENDBRANCH  82  83
ENDBRANCH  50  75
BRANCH  62  87
ATOM     87  C   UNL A   1      49.776  27.169  25.832  1.00  0.00     0.058 A 
ATOM     88  C   UNL A   1      50.050  27.285  24.461  1.00  0.00     0.135 A 
ATOM     89  C   UNL A   1      50.815  26.740  26.676  1.00  0.00     0.135 A 
ATOM     90  F   UNL A   1      49.091  27.688  23.611  1.00  0.00    -0.206 F 
ATOM     91  C   UNL A   1      51.300  26.965  23.942  1.00  0.00     0.059 A 
ATOM     92  C   UNL A   1      52.082  26.447  26.183  1.00  0.00     0.059 A 
ATOM     93  F   UNL A   1      50.610  26.624  27.997  1.00  0.00    -0.206 F 
ATOM     94  C   UNL A   1      52.310  26.548  24.812  1.00  0.00     0.060 A 
BRANCH  94  95
ATOM     95  S   UNL A   1      53.935  26.163  24.128  1.00  0.00     0.124 S 
ATOM     96  O   UNL A   1      54.731  27.285  24.612  1.00  0.00    -0.237 OA
ATOM     97  O   UNL A   1      54.229  24.868  24.735  1.00  0.00    -0.237 OA
ATOM     98  O   UNL A   1      53.700  26.135  22.688  1.00  0.00    -0.744 OA
ENDBRANCH  94  95
ENDBRANCH  62  87
ENDBRANCH  36  37
ENDBRANCH  29  31
ENDBRANCH  28  29
ENDBRANCH  27  28
ENDBRANCH  26  27
ENDBRANCH  25  26
ENDBRANCH  24  25
ENDBRANCH  23  24
ENDBRANCH   1  23
TORSDOF 26
ENDMDL
MODEL 3
REMARK VINA RESULT:      -9.1      6.069     11.925
REMARK SMILES CC(C)(C[S@](=O)c1cccc(Cl)c1)C(=O)OCCOCCOCCOCCOC(=O)c1ccc(-c2c3nc(c(-c4c(F)cc(S(=O)(=O)[O-])cc4F)c4ccc([nH]4)c(-c4c(F)cc(S(=O)(=O)[O-])cc4F)c4nc(c(-c5c(F)cc(S(=O)(=O)[O-])cc5F)c5ccc2[nH]5)C=C4)C=C3)cc1
REMARK SMILES IDX 22 1 21 2 20 3 19 4 18 5 17 6 16 7 14 8 15 9 2 10 1 11 3 12
REMARK SMILES IDX 4 13 5 14 6 15 7 16 8 17 13 18 9 19 11 20 10 21 12 22 23 23
REMARK SMILES IDX 24 24 25 25 26 26 27 27 28 28 29 29 30 30 31 31 32 32 96 33
REMARK SMILES IDX 33 34 95 35 34 36 35 37 36 38 89 39 37 40 94 41 88 42 90 43
REMARK SMILES IDX 38 44 93 45 87 46 86 47 39 49 73 50 52 51 72 52 53 53 56 54
REMARK SMILES IDX 71 55 91 56 54 57 55 58 70 60 92 61 57 62 40 63 41 64 50 65
REMARK SMILES IDX 42 66 43 67 49 68 51 69 44 70 45 71 46 72 47 73 48 74 74 75
REMARK SMILES IDX 75 76 84 77 76 78 77 79 83 80 85 81 78 82 79 83 80 84 81 85
REMARK SMILES IDX 82 86 58 87 59 88 68 89 60 90 61 91 67 92 69 93 62 94 63 95
REMARK SMILES IDX 64 96 65 97 66 98
REMARK H PARENT 90 48 56 59
REMARK Flexibility Score: inf
ROOT
ATOM      1  O   UNL A   1      35.495  30.578  28.550  1.00  0.00    -0.377 OA
ENDROOT
BRANCH   1   2
ATOM      2  C   UNL A   1      35.687  29.440  27.728  1.00  0.00     0.188 C 
BRANCH   2   3
ATOM      3  C   UNL A   1      34.549  29.119  26.726  1.00  0.00     0.188 C 
BRANCH   3   4
ATOM      4  O   UNL A   1      33.271  29.687  26.979  1.00  0.00    -0.376 OA
BRANCH   4   5
ATOM      5  C   UNL A   1      32.507  30.111  25.866  1.00  0.00     0.202 C 
BRANCH   5   6
ATOM      6  C   UNL A   1      31.488  29.169  25.181  1.00  0.00     0.261 C 
BRANCH   6   7
ATOM      7  O   UNL A   1      31.837  27.770  25.015  1.00  0.00    -0.463 OA
BRANCH   7   8
ATOM      8  C   UNL A   1      31.291  26.919  25.927  1.00  0.00     0.312 C 
ATOM      9  O   UNL A   1      31.128  27.233  27.104  1.00  0.00    -0.252 OA
BRANCH   8  10
ATOM     10  C   UNL A   1      31.052  25.479  25.406  1.00  0.00     0.074 C 
ATOM     11  C   UNL A   1      30.682  25.611  23.925  1.00  0.00     0.024 C 
ATOM     12  C   UNL A   1      29.785  25.028  26.183  1.00  0.00     0.024 C 
BRANCH  10  13
ATOM     13  C   UNL A   1      32.094  24.350  25.612  1.00  0.00     0.128 C 
BRANCH  13  14
ATOM     14  S   UNL A   1      33.869  24.610  25.867  1.00  0.00     0.054 S 
ATOM     15  O   UNL A   1      34.474  25.300  24.692  1.00  0.00    -0.254 OA
BRANCH  14  16
ATOM     16  C   UNL A   1      34.745  23.041  25.905  1.00  0.00     0.040 A 
ATOM     17  C   UNL A   1      36.146  23.035  25.878  1.00  0.00     0.018 A 
ATOM     18  C   UNL A   1      34.061  21.880  25.517  1.00  0.00     0.038 A 
ATOM     19  C   UNL A   1      36.841  21.894  25.447  1.00  0.00     0.003 A 
ATOM     20  C   UNL A   1      34.755  20.744  25.107  1.00  0.00     0.042 A 
ATOM     21  C   UNL A   1      36.143  20.750  25.056  1.00  0.00     0.020 A 
ATOM     22  Cl  UNL A   1      33.880  19.364  24.567  1.00  0.00    -0.084 Cl
ENDBRANCH  14  16
ENDBRANCH  13  14
ENDBRANCH  10  13
ENDBRANCH   8  10
ENDBRANCH   7   8
ENDBRANCH   6   7
ENDBRANCH   5   6
ENDBRANCH   4   5
ENDBRANCH   3   4
ENDBRANCH   2   3
ENDBRANCH   1   2
BRANCH   1  23
ATOM     23  C   UNL A   1      36.068  31.737  28.004  1.00  0.00     0.188 C 
BRANCH  23  24
ATOM     24  C   UNL A   1      35.493  33.053  28.545  1.00  0.00     0.188 C 
BRANCH  24  25
ATOM     25  O   UNL A   1      35.525  33.410  29.922  1.00  0.00    -0.376 OA
BRANCH  25  26
ATOM     26  C   UNL A   1      34.781  32.718  30.918  1.00  0.00     0.202 C 
BRANCH  26  27
ATOM     27  C   UNL A   1      35.527  31.967  32.018  1.00  0.00     0.261 C 
BRANCH  27  28
ATOM     28  O   UNL A   1      36.691  31.287  31.536  1.00  0.00    -0.460 OA
BRANCH  28  29
ATOM     29  C   UNL A   1      37.864  31.761  32.021  1.00  0.00     0.338 C 
ATOM     30  O   UNL A   1      38.032  32.475  32.984  1.00  0.00    -0.246 OA
BRANCH  29  31
ATOM     31  C   UNL A   1      38.970  31.105  31.297  1.00  0.00     0.060 A 
ATOM     32  C   UNL A   1      39.914  30.412  32.066  1.00  0.00     0.016 A 
ATOM     33  C   UNL A   1      39.077  31.157  29.906  1.00  0.00     0.016 A 
ATOM     34  C   UNL A   1      40.965  29.753  31.447  1.00  0.00     0.010 A 
ATOM     35  C   UNL A   1      40.170  30.548  29.288  1.00  0.00     0.010 A 
ATOM     36  C   UNL A   1      41.126  29.869  30.063  1.00  0.00    -0.014 A 
BRANCH  36  37
ATOM     37  C   UNL A   1      42.438  29.514  29.492  1.00  0.00     0.031 A 
ATOM     38  C   UNL A   1      42.584  28.134  28.917  1.00  0.00     0.074 A 
ATOM     39  C   UNL A   1      43.438  30.409  29.430  1.00  0.00     0.049 A 
ATOM     40  N   UNL A   1      43.621  27.573  28.358  1.00  0.00    -0.248 NA
ATOM     41  C   UNL A   1      41.391  27.269  28.978  1.00  0.00     0.031 C 
ATOM     42  C   UNL A   1      43.369  31.789  29.910  1.00  0.00     0.029 A 
ATOM     43  N   UNL A   1      44.710  30.284  28.938  1.00  0.00    -0.354 N 
ATOM     44  C   UNL A   1      43.208  26.294  28.006  1.00  0.00     0.074 A 
ATOM     45  C   UNL A   1      41.836  26.150  28.433  1.00  0.00     0.031 C 
ATOM     46  C   UNL A   1      44.561  32.377  29.706  1.00  0.00     0.029 A 
ATOM     47  C   UNL A   1      45.479  31.409  29.110  1.00  0.00     0.049 A 
ATOM     48  H   UNL A   1      45.041  29.466  28.502  1.00  0.00     0.167 HD
ATOM     49  C   UNL A   1      43.917  25.329  27.379  1.00  0.00     0.037 A 
ATOM     50  C   UNL A   1      46.783  31.611  28.838  1.00  0.00     0.037 A 
ATOM     51  C   UNL A   1      45.286  25.489  26.973  1.00  0.00     0.049 A 
ATOM     52  C   UNL A   1      47.573  30.494  28.204  1.00  0.00     0.074 A 
ATOM     53  C   UNL A   1      46.101  24.583  26.323  1.00  0.00     0.029 A 
ATOM     54  N   UNL A   1      46.045  26.631  27.191  1.00  0.00    -0.354 N 
ATOM     55  N   UNL A   1      47.171  29.294  27.853  1.00  0.00    -0.248 NA
ATOM     56  C   UNL A   1      48.991  30.757  27.922  1.00  0.00     0.031 C 
ATOM     57  C   UNL A   1      47.372  25.153  26.204  1.00  0.00     0.029 A 
ATOM     58  C   UNL A   1      47.330  26.440  26.717  1.00  0.00     0.049 A 
ATOM     59  H   UNL A   1      45.717  27.453  27.621  1.00  0.00     0.167 HD
ATOM     60  C   UNL A   1      48.277  28.670  27.282  1.00  0.00     0.074 A 
ATOM     61  C   UNL A   1      49.359  29.632  27.325  1.00  0.00     0.031 C 
ATOM     62  C   UNL A   1      48.389  27.420  26.767  1.00  0.00     0.037 A 
BRANCH  49  63
ATOM     63  C   UNL A   1      43.238  24.010  27.142  1.00  0.00     0.058 A 
ATOM     64  C   UNL A   1      42.680  23.671  25.898  1.00  0.00     0.135 A 
ATOM     65  C   UNL A   1      43.165  23.059  28.172  1.00  0.00     0.135 A 
ATOM     66  F   UNL A   1      42.694  24.554  24.886  1.00  0.00    -0.206 F 
ATOM     67  C   UNL A   1      42.059  22.443  25.690  1.00  0.00     0.059 A 
ATOM     68  C   UNL A   1      42.576  21.814  27.979  1.00  0.00     0.059 A 
ATOM     69  F   UNL A   1      43.669  23.337  29.384  1.00  0.00    -0.206 F 
ATOM     70  C   UNL A   1      42.017  21.520  26.736  1.00  0.00     0.060 A 
BRANCH  70  71
ATOM     71  S   UNL A   1      41.233  19.920  26.443  1.00  0.00     0.124 S 
ATOM     72  O   UNL A   1      41.383  19.279  27.747  1.00  0.00    -0.237 OA
ATOM     73  O   UNL A   1      39.874  20.304  26.078  1.00  0.00    -0.237 OA
ATOM     74  O   UNL A   1      42.030  19.342  25.366  1.00  0.00    -0.744 OA
ENDBRANCH  70  71
ENDBRANCH  49  63
BRANCH  50  75
ATOM     75  C   UNL A   1      47.426  32.907  29.186  1.00  0.00     0.058 A 
ATOM     76  C   UNL A   1      47.543  33.943  28.247  1.00  0.00     0.135 A 
ATOM     77  C   UNL A   1      47.946  33.132  30.471  1.00  0.00     0.135 A 
ATOM     78  F   UNL A   1      47.072  33.776  27.002  1.00  0.00    -0.206 F 
ATOM     79  C   UNL A   1      48.165  35.148  28.563  1.00  0.00     0.059 A 
ATOM     80  C   UNL A   1      48.546  34.338  30.819  1.00  0.00     0.059 A 
ATOM     81  F   UNL A   1      47.853  32.179  31.412  1.00  0.00    -0.206 F 
ATOM     82  C   UNL A   1      48.661  35.337  29.854  1.00  0.00     0.060 A 
BRANCH  82  83
ATOM     83  S   UNL A   1      49.424  36.920  30.268  1.00  0.00     0.124 S 
ATOM     84  O   UNL A   1      50.429  36.516  31.245  1.00  0.00    -0.237 OA
ATOM     85  O   UNL A   1      49.933  37.361  28.973  1.00  0.00    -0.237 OA
ATOM     86  O   UNL A   1      48.310  37.703  30.795  1.00  0.00    -0.744 OA
ENDBRANCH  82  83
ENDBRANCH  50  75
BRANCH  62  87
ATOM     87  C   UNL A   1      49.714  27.032  26.169  1.00  0.00     0.058 A 
ATOM     88  C   UNL A   1      50.744  26.479  26.944  1.00  0.00     0.135 A 
ATOM     89  C   UNL A   1      49.929  27.162  24.787  1.00  0.00     0.135 A 
ATOM     90  F   UNL A   1      50.590  26.335  28.271  1.00  0.00    -0.206 F 
ATOM     91  C   UNL A   1      51.952  26.092  26.375  1.00  0.00     0.059 A 
ATOM     92  C   UNL A   1      51.116  26.751  24.191  1.00  0.00     0.059 A 
ATOM     93  F   UNL A   1      48.971  27.672  23.997  1.00  0.00    -0.206 F 
ATOM     94  C   UNL A   1      52.128  26.230  24.996  1.00  0.00     0.060 A 
BRANCH  94  95
ATOM     95  S   UNL A   1      53.691  25.699  24.267  1.00  0.00     0.124 S 
ATOM     96  O   UNL A   1      53.491  26.043  22.863  1.00  0.00    -0.237 OA
ATOM     97  O   UNL A   1      54.664  26.515  24.987  1.00  0.00    -0.237 OA
ATOM     98  O   UNL A   1      53.736  24.271  24.562  1.00  0.00    -0.744 OA
ENDBRANCH  94  95
ENDBRANCH  62  87
ENDBRANCH  36  37
ENDBRANCH  29  31
ENDBRANCH  28  29
ENDBRANCH  27  28
ENDBRANCH  26  27
ENDBRANCH  25  26
ENDBRANCH  24  25
ENDBRANCH  23  24
ENDBRANCH   1  23
TORSDOF 26
ENDMDL
