MODEL 1
REMARK VINA RESULT:      -7.9      0.000      0.000
REMARK SMILES CC(C)[NH2+][C@]1(C(=O)OCCOCCOCCOCCOC(=O)c2ccc(-c3c4nc(c(-c5c(F)cc(S(=O)(=O)[O-])cc5F)c5ccc([nH]5)c(-c5c(F)cc(S(=O)(=O)[O-])cc5F)c5nc(c(-c6c(F)cc(S(=O)(=O)[O-])cc6F)c6ccc3[nH]6)C=C5)C=C4)cc2)CCC[C@H]([N@H+](C)C2CCCCC2)C1
REMARK SMILES IDX 15 1 14 2 13 3 12 4 11 5 10 6 9 7 8 8 6 9 7 10 5 11 89 12
REMARK SMILES IDX 101 13 90 14 92 15 91 16 4 17 2 20 1 21 3 22 93 23 94 24
REMARK SMILES IDX 95 26 96 27 100 28 97 29 99 30 98 31 16 32 17 33 18 34 19 35
REMARK SMILES IDX 20 36 21 37 22 38 23 39 24 40 88 41 25 42 87 43 26 44 27 45
REMARK SMILES IDX 28 46 81 47 29 48 86 49 80 50 82 51 30 52 85 53 79 54 78 55
REMARK SMILES IDX 31 57 65 58 44 59 64 60 45 61 48 62 63 63 83 64 46 65 47 66
REMARK SMILES IDX 62 68 84 69 49 70 32 71 33 72 42 73 34 74 35 75 41 76 43 77
REMARK SMILES IDX 36 78 37 79 38 80 39 81 40 82 66 83 67 84 76 85 68 86 69 87
REMARK SMILES IDX 75 88 77 89 70 90 71 91 72 92 73 93 74 94 50 95 51 96 60 97
REMARK SMILES IDX 52 98 53 99 59 100 61 101 54 102 55 103 56 104 57 105 58 106
REMARK H PARENT 4 18 4 19 93 25 82 56 48 67
REMARK Flexibility Score: inf
ROOT
ATOM      1  C   UNL A   1      40.327  26.515  27.836  1.00  0.00     0.188 C 
ENDROOT
BRANCH   1   2
ATOM      2  O   UNL A   1      40.214  25.152  27.452  1.00  0.00    -0.377 OA
BRANCH   2   3
ATOM      3  C   UNL A   1      39.229  24.831  26.488  1.00  0.00     0.188 C 
BRANCH   3   4
ATOM      4  C   UNL A   1      38.128  23.808  26.848  1.00  0.00     0.188 C 
BRANCH   4   5
ATOM      5  O   UNL A   1      37.695  23.014  25.752  1.00  0.00    -0.376 OA
BRANCH   5   6
ATOM      6  C   UNL A   1      36.343  22.553  25.762  1.00  0.00     0.202 C 
BRANCH   6   7
ATOM      7  C   UNL A   1      35.892  21.589  24.645  1.00  0.00     0.261 C 
BRANCH   7   8
ATOM      8  O   UNL A   1      34.977  22.223  23.739  1.00  0.00    -0.459 OA
BRANCH   8   9
ATOM      9  C   UNL A   1      33.623  22.137  23.877  1.00  0.00     0.368 C 
ATOM     10  O   UNL A   1      33.030  21.090  24.099  1.00  0.00    -0.245 OA
BRANCH   9  11
ATOM     11  C   UNL A   1      32.984  23.600  23.935  1.00  0.00     0.200 C 
ATOM     12  C   UNL A   1      33.998  24.589  23.236  1.00  0.00     0.081 C 
ATOM     13  C   UNL A   1      31.711  23.783  23.133  1.00  0.00     0.146 C 
ATOM     14  C   UNL A   1      33.623  25.881  22.481  1.00  0.00     0.013 C 
ATOM     15  C   UNL A   1      31.235  25.280  23.027  1.00  0.00     0.190 C 
ATOM     16  C   UNL A   1      32.179  26.019  22.089  1.00  0.00     0.065 C 
BRANCH  11  17
ATOM     17  N   UNL A   1      32.809  23.903  25.393  1.00  0.00    -0.330 N 
ATOM     18  H   UNL A   1      33.747  24.043  25.769  1.00  0.00     0.347 HD
ATOM     19  H   UNL A   1      32.161  24.690  25.373  1.00  0.00     0.347 HD
BRANCH  17  20
ATOM     20  C   UNL A   1      32.130  22.963  26.311  1.00  0.00     0.176 C 
ATOM     21  C   UNL A   1      33.026  22.820  27.564  1.00  0.00     0.075 C 
ATOM     22  C   UNL A   1      30.745  23.332  26.862  1.00  0.00     0.075 C 
ENDBRANCH  17  20
ENDBRANCH  11  17
BRANCH  15  23
ATOM     23  N   UNL A   1      30.788  25.996  24.277  1.00  0.00    -0.332 N 
ATOM     24  C   UNL A   1      29.401  26.441  24.042  1.00  0.00     0.333 C 
ATOM     25  H   UNL A   1      30.930  25.279  24.989  1.00  0.00     0.348 HD
BRANCH  23  26
ATOM     26  C   UNL A   1      31.604  27.076  24.970  1.00  0.00     0.184 C 
ATOM     27  C   UNL A   1      31.096  28.517  24.597  1.00  0.00     0.065 C 
ATOM     28  C   UNL A   1      31.574  27.090  26.513  1.00  0.00     0.065 C 
ATOM     29  C   UNL A   1      31.724  29.697  25.366  1.00  0.00     0.006 C 
ATOM     30  C   UNL A   1      32.413  28.168  27.181  1.00  0.00     0.006 C 
ATOM     31  C   UNL A   1      31.789  29.508  26.873  1.00  0.00     0.000 C 
ENDBRANCH  23  26
ENDBRANCH  15  23
ENDBRANCH   9  11
ENDBRANCH   8   9
ENDBRANCH   7   8
ENDBRANCH   6   7
ENDBRANCH   5   6
ENDBRANCH   4   5
ENDBRANCH   3   4
ENDBRANCH   2   3
ENDBRANCH   1   2
BRANCH   1  32
ATOM     32  C   UNL A   1      39.932  26.953  29.269  1.00  0.00     0.188 C 
BRANCH  32  33
ATOM     33  O   UNL A   1      38.679  27.611  29.412  1.00  0.00    -0.376 OA
BRANCH  33  34
ATOM     34  C   UNL A   1      38.587  28.936  28.893  1.00  0.00     0.202 C 
BRANCH  34  35
ATOM     35  C   UNL A   1      37.708  29.953  29.653  1.00  0.00     0.261 C 
BRANCH  35  36
ATOM     36  O   UNL A   1      38.409  30.881  30.490  1.00  0.00    -0.460 OA
BRANCH  36  37
ATOM     37  C   UNL A   1      38.259  30.705  31.823  1.00  0.00     0.338 C 
ATOM     38  O   UNL A   1      37.247  30.858  32.467  1.00  0.00    -0.246 OA
BRANCH  37  39
ATOM     39  C   UNL A   1      39.499  30.087  32.343  1.00  0.00     0.060 A 
ATOM     40  C   UNL A   1      40.636  30.896  32.475  1.00  0.00     0.016 A 
ATOM     41  C   UNL A   1      39.542  28.737  32.694  1.00  0.00     0.016 A 
ATOM     42  C   UNL A   1      41.829  30.351  32.942  1.00  0.00     0.010 A 
ATOM     43  C   UNL A   1      40.753  28.180  33.119  1.00  0.00     0.010 A 
ATOM     44  C   UNL A   1      41.907  28.980  33.212  1.00  0.00    -0.014 A 
BRANCH  44  45
ATOM     45  C   UNL A   1      43.245  28.357  33.341  1.00  0.00     0.031 A 
ATOM     46  C   UNL A   1      43.815  28.209  34.727  1.00  0.00     0.074 A 
ATOM     47  C   UNL A   1      43.914  27.887  32.275  1.00  0.00     0.049 A 
ATOM     48  N   UNL A   1      44.959  27.706  35.105  1.00  0.00    -0.248 NA
ATOM     49  C   UNL A   1      42.973  28.694  35.835  1.00  0.00     0.031 C 
ATOM     50  C   UNL A   1      43.442  27.928  30.892  1.00  0.00     0.029 A 
ATOM     51  N   UNL A   1      45.143  27.281  32.194  1.00  0.00    -0.354 N 
ATOM     52  C   UNL A   1      44.977  27.815  36.491  1.00  0.00     0.074 A 
ATOM     53  C   UNL A   1      43.745  28.460  36.885  1.00  0.00     0.031 C 
ATOM     54  C   UNL A   1      44.379  27.384  30.096  1.00  0.00     0.029 A 
ATOM     55  C   UNL A   1      45.528  26.983  30.909  1.00  0.00     0.049 A 
ATOM     56  H   UNL A   1      45.698  27.080  32.982  1.00  0.00     0.167 HD
ATOM     57  C   UNL A   1      45.932  27.406  37.358  1.00  0.00     0.037 A 
ATOM     58  C   UNL A   1      46.684  26.466  30.444  1.00  0.00     0.037 A 
ATOM     59  C   UNL A   1      47.161  26.773  36.957  1.00  0.00     0.049 A 
ATOM     60  C   UNL A   1      47.769  26.089  31.424  1.00  0.00     0.074 A 
ATOM     61  C   UNL A   1      48.190  26.314  37.759  1.00  0.00     0.029 A 
ATOM     62  N   UNL A   1      47.531  26.521  35.645  1.00  0.00    -0.354 N 
ATOM     63  N   UNL A   1      47.767  26.176  32.735  1.00  0.00    -0.248 NA
ATOM     64  C   UNL A   1      49.010  25.538  30.864  1.00  0.00     0.031 C 
ATOM     65  C   UNL A   1      49.210  25.839  36.928  1.00  0.00     0.029 A 
ATOM     66  C   UNL A   1      48.787  25.938  35.611  1.00  0.00     0.049 A 
ATOM     67  H   UNL A   1      46.982  26.726  34.853  1.00  0.00     0.167 HD
ATOM     68  C   UNL A   1      48.990  25.661  33.154  1.00  0.00     0.074 A 
ATOM     69  C   UNL A   1      49.702  25.255  31.959  1.00  0.00     0.031 C 
ATOM     70  C   UNL A   1      49.480  25.532  34.413  1.00  0.00     0.037 A 
BRANCH  57  71
ATOM     71  C   UNL A   1      45.702  27.665  38.821  1.00  0.00     0.058 A 
ATOM     72  C   UNL A   1      46.040  28.889  39.422  1.00  0.00     0.135 A 
ATOM     73  C   UNL A   1      45.108  26.682  39.630  1.00  0.00     0.135 A 
ATOM     74  F   UNL A   1      46.633  29.855  38.701  1.00  0.00    -0.206 F 
ATOM     75  C   UNL A   1      45.817  29.121  40.775  1.00  0.00     0.059 A 
ATOM     76  C   UNL A   1      44.848  26.904  40.978  1.00  0.00     0.059 A 
ATOM     77  F   UNL A   1      44.772  25.492  39.110  1.00  0.00    -0.206 F 
ATOM     78  C   UNL A   1      45.217  28.123  41.544  1.00  0.00     0.060 A 
BRANCH  78  79
ATOM     79  S   UNL A   1      44.921  28.446  43.295  1.00  0.00     0.124 S 
ATOM     80  O   UNL A   1      43.591  27.874  43.477  1.00  0.00    -0.237 OA
ATOM     81  O   UNL A   1      46.015  27.723  43.935  1.00  0.00    -0.237 OA
ATOM     82  O   UNL A   1      44.995  29.901  43.390  1.00  0.00    -0.744 OA
ENDBRANCH  78  79
ENDBRANCH  57  71
BRANCH  58  83
ATOM     83  C   UNL A   1      46.888  26.289  28.980  1.00  0.00     0.058 A 
ATOM     84  C   UNL A   1      47.426  27.314  28.188  1.00  0.00     0.135 A 
ATOM     85  C   UNL A   1      46.537  25.088  28.341  1.00  0.00     0.135 A 
ATOM     86  F   UNL A   1      47.763  28.485  28.747  1.00  0.00    -0.206 F 
ATOM     87  C   UNL A   1      47.594  27.163  26.815  1.00  0.00     0.059 A 
ATOM     88  C   UNL A   1      46.724  24.902  26.974  1.00  0.00     0.059 A 
ATOM     89  F   UNL A   1      46.023  24.072  29.052  1.00  0.00    -0.206 F 
ATOM     90  C   UNL A   1      47.244  25.951  26.218  1.00  0.00     0.060 A 
BRANCH  90  91
ATOM     91  S   UNL A   1      47.516  25.749  24.443  1.00  0.00     0.124 S 
ATOM     92  O   UNL A   1      46.800  26.899  23.903  1.00  0.00    -0.237 OA
ATOM     93  O   UNL A   1      48.972  25.800  24.351  1.00  0.00    -0.237 OA
ATOM     94  O   UNL A   1      46.922  24.446  24.159  1.00  0.00    -0.744 OA
ENDBRANCH  90  91
ENDBRANCH  58  83
BRANCH  70  95
ATOM     95  C   UNL A   1      50.831  24.885  34.577  1.00  0.00     0.058 A 
ATOM     96  C   UNL A   1      52.012  25.639  34.661  1.00  0.00     0.135 A 
ATOM     97  C   UNL A   1      50.937  23.491  34.710  1.00  0.00     0.135 A 
ATOM     98  F   UNL A   1      51.970  26.976  34.539  1.00  0.00    -0.206 F 
ATOM     99  C   UNL A   1      53.251  25.033  34.842  1.00  0.00     0.059 A 
ATOM    100  C   UNL A   1      52.161  22.865  34.924  1.00  0.00     0.059 A 
ATOM    101  F   UNL A   1      49.838  22.720  34.652  1.00  0.00    -0.206 F 
ATOM    102  C   UNL A   1      53.315  23.645  34.975  1.00  0.00     0.060 A 
BRANCH 102 103
ATOM    103  S   UNL A   1      54.926  22.872  35.236  1.00  0.00     0.124 S 
ATOM    104  O   UNL A   1      55.030  22.896  36.693  1.00  0.00    -0.237 OA
ATOM    105  O   UNL A   1      54.741  21.556  34.635  1.00  0.00    -0.237 OA
ATOM    106  O   UNL A   1      55.847  23.754  34.528  1.00  0.00    -0.744 OA
ENDBRANCH 102 103
ENDBRANCH  70  95
ENDBRANCH  44  45
ENDBRANCH  37  39
ENDBRANCH  36  37
ENDBRANCH  35  36
ENDBRANCH  34  35
ENDBRANCH  33  34
ENDBRANCH  32  33
ENDBRANCH   1  32
TORSDOF 27
ENDMDL
MODEL 2
REMARK VINA RESULT:      -7.8      5.771     14.691
REMARK SMILES CC(C)[NH2+][C@]1(C(=O)OCCOCCOCCOCCOC(=O)c2ccc(-c3c4nc(c(-c5c(F)cc(S(=O)(=O)[O-])cc5F)c5ccc([nH]5)c(-c5c(F)cc(S(=O)(=O)[O-])cc5F)c5nc(c(-c6c(F)cc(S(=O)(=O)[O-])cc6F)c6ccc3[nH]6)C=C5)C=C4)cc2)CCC[C@H]([N@H+](C)C2CCCCC2)C1
REMARK SMILES IDX 15 1 14 2 13 3 12 4 11 5 10 6 9 7 8 8 6 9 7 10 5 11 89 12
REMARK SMILES IDX 101 13 90 14 92 15 91 16 4 17 2 20 1 21 3 22 93 23 94 24
REMARK SMILES IDX 95 26 96 27 100 28 97 29 99 30 98 31 16 32 17 33 18 34 19 35
REMARK SMILES IDX 20 36 21 37 22 38 23 39 24 40 88 41 25 42 87 43 26 44 27 45
REMARK SMILES IDX 28 46 81 47 29 48 86 49 80 50 82 51 30 52 85 53 79 54 78 55
REMARK SMILES IDX 31 57 65 58 44 59 64 60 45 61 48 62 63 63 83 64 46 65 47 66
REMARK SMILES IDX 62 68 84 69 49 70 32 71 33 72 42 73 34 74 35 75 41 76 43 77
REMARK SMILES IDX 36 78 37 79 38 80 39 81 40 82 66 83 67 84 76 85 68 86 69 87
REMARK SMILES IDX 75 88 77 89 70 90 71 91 72 92 73 93 74 94 50 95 51 96 60 97
REMARK SMILES IDX 52 98 53 99 59 100 61 101 54 102 55 103 56 104 57 105 58 106
REMARK H PARENT 4 18 4 19 93 25 82 56 48 67
REMARK Flexibility Score: inf
ROOT
ATOM      1  C   UNL A   1      54.180  21.377  34.582  1.00  0.00     0.188 C 
ENDROOT
BRANCH   1   2
ATOM      2  O   UNL A   1      53.375  20.462  35.311  1.00  0.00    -0.377 OA
BRANCH   2   3
ATOM      3  C   UNL A   1      52.195  20.969  35.905  1.00  0.00     0.188 C 
BRANCH   3   4
ATOM      4  C   UNL A   1      50.823  20.507  35.368  1.00  0.00     0.188 C 
BRANCH   4   5
ATOM      5  O   UNL A   1      50.107  19.660  36.257  1.00  0.00    -0.376 OA
BRANCH   5   6
ATOM      6  C   UNL A   1      49.598  20.241  37.459  1.00  0.00     0.202 C 
BRANCH   6   7
ATOM      7  C   UNL A   1      48.071  20.405  37.601  1.00  0.00     0.261 C 
BRANCH   7   8
ATOM      8  O   UNL A   1      47.489  20.969  36.417  1.00  0.00    -0.459 OA
BRANCH   8   9
ATOM      9  C   UNL A   1      46.179  20.788  36.081  1.00  0.00     0.368 C 
ATOM     10  O   UNL A   1      45.599  19.715  36.169  1.00  0.00    -0.245 OA
BRANCH   9  11
ATOM     11  C   UNL A   1      45.489  22.200  35.790  1.00  0.00     0.200 C 
ATOM     12  C   UNL A   1      46.587  23.146  35.162  1.00  0.00     0.081 C 
ATOM     13  C   UNL A   1      44.401  22.183  34.734  1.00  0.00     0.146 C 
ATOM     14  C   UNL A   1      46.327  24.290  34.162  1.00  0.00     0.013 C 
ATOM     15  C   UNL A   1      43.902  23.615  34.312  1.00  0.00     0.190 C 
ATOM     16  C   UNL A   1      44.990  24.276  33.477  1.00  0.00     0.065 C 
BRANCH  11  17
ATOM     17  N   UNL A   1      45.008  22.693  37.122  1.00  0.00    -0.330 N 
ATOM     18  H   UNL A   1      44.315  23.414  36.926  1.00  0.00     0.347 HD
ATOM     19  H   UNL A   1      44.710  21.829  37.575  1.00  0.00     0.347 HD
BRANCH  17  20
ATOM     20  C   UNL A   1      45.933  23.267  38.122  1.00  0.00     0.176 C 
ATOM     21  C   UNL A   1      45.910  24.803  37.938  1.00  0.00     0.075 C 
ATOM     22  C   UNL A   1      45.643  23.049  39.614  1.00  0.00     0.075 C 
ENDBRANCH  17  20
ENDBRANCH  11  17
BRANCH  15  23
ATOM     23  N   UNL A   1      43.183  24.468  35.326  1.00  0.00    -0.332 N 
ATOM     24  C   UNL A   1      41.820  23.917  35.460  1.00  0.00     0.333 C 
ATOM     25  H   UNL A   1      43.797  24.389  36.136  1.00  0.00     0.348 HD
BRANCH  23  26
ATOM     26  C   UNL A   1      43.161  25.989  35.288  1.00  0.00     0.184 C 
ATOM     27  C   UNL A   1      41.903  26.533  34.517  1.00  0.00     0.065 C 
ATOM     28  C   UNL A   1      43.074  26.718  36.645  1.00  0.00     0.065 C 
ATOM     29  C   UNL A   1      41.669  28.056  34.555  1.00  0.00     0.006 C 
ATOM     30  C   UNL A   1      43.072  28.237  36.581  1.00  0.00     0.006 C 
ATOM     31  C   UNL A   1      41.780  28.680  35.937  1.00  0.00     0.000 C 
ENDBRANCH  23  26
ENDBRANCH  15  23
ENDBRANCH   9  11
ENDBRANCH   8   9
ENDBRANCH   7   8
ENDBRANCH   6   7
ENDBRANCH   5   6
ENDBRANCH   4   5
ENDBRANCH   3   4
ENDBRANCH   2   3
ENDBRANCH   1   2
BRANCH   1  32
ATOM     32  C   UNL A   1      53.644  22.794  34.256  1.00  0.00     0.188 C 
BRANCH  32  33
ATOM     33  O   UNL A   1      53.248  23.032  32.910  1.00  0.00    -0.376 OA
BRANCH  33  34
ATOM     34  C   UNL A   1      52.650  24.297  32.632  1.00  0.00     0.202 C 
BRANCH  34  35
ATOM     35  C   UNL A   1      52.330  25.225  33.825  1.00  0.00     0.261 C 
BRANCH  35  36
ATOM     36  O   UNL A   1      50.944  25.527  34.025  1.00  0.00    -0.460 OA
BRANCH  36  37
ATOM     37  C   UNL A   1      50.660  26.328  35.079  1.00  0.00     0.338 C 
ATOM     38  O   UNL A   1      51.338  26.497  36.066  1.00  0.00    -0.246 OA
BRANCH  37  39
ATOM     39  C   UNL A   1      49.468  27.132  34.731  1.00  0.00     0.060 A 
ATOM     40  C   UNL A   1      48.283  26.900  35.442  1.00  0.00     0.016 A 
ATOM     41  C   UNL A   1      49.515  28.098  33.724  1.00  0.00     0.016 A 
ATOM     42  C   UNL A   1      47.133  27.621  35.135  1.00  0.00     0.010 A 
ATOM     43  C   UNL A   1      48.348  28.789  33.385  1.00  0.00     0.010 A 
ATOM     44  C   UNL A   1      47.146  28.528  34.068  1.00  0.00    -0.014 A 
BRANCH  44  45
ATOM     45  C   UNL A   1      45.852  28.998  33.522  1.00  0.00     0.031 A 
ATOM     46  C   UNL A   1      45.335  28.329  32.276  1.00  0.00     0.074 A 
ATOM     47  C   UNL A   1      45.128  29.949  34.136  1.00  0.00     0.049 A 
ATOM     48  N   UNL A   1      44.241  28.559  31.602  1.00  0.00    -0.248 NA
ATOM     49  C   UNL A   1      46.171  27.251  31.718  1.00  0.00     0.031 C 
ATOM     50  C   UNL A   1      45.501  30.632  35.373  1.00  0.00     0.029 A 
ATOM     51  N   UNL A   1      43.920  30.506  33.794  1.00  0.00    -0.354 N 
ATOM     52  C   UNL A   1      44.255  27.660  30.543  1.00  0.00     0.074 A 
ATOM     53  C   UNL A   1      45.482  26.902  30.643  1.00  0.00     0.031 C 
ATOM     54  C   UNL A   1      44.546  31.529  35.679  1.00  0.00     0.029 A 
ATOM     55  C   UNL A   1      43.511  31.504  34.645  1.00  0.00     0.049 A 
ATOM     56  H   UNL A   1      43.397  30.217  33.011  1.00  0.00     0.167 HD
ATOM     57  C   UNL A   1      43.325  27.477  29.577  1.00  0.00     0.037 A 
ATOM     58  C   UNL A   1      42.436  32.315  34.582  1.00  0.00     0.037 A 
ATOM     59  C   UNL A   1      42.111  28.242  29.478  1.00  0.00     0.049 A 
ATOM     60  C   UNL A   1      41.451  32.146  33.451  1.00  0.00     0.074 A 
ATOM     61  C   UNL A   1      41.099  28.129  28.542  1.00  0.00     0.029 A 
ATOM     62  N   UNL A   1      41.749  29.269  30.338  1.00  0.00    -0.354 N 
ATOM     63  N   UNL A   1      41.463  31.277  32.466  1.00  0.00    -0.248 NA
ATOM     64  C   UNL A   1      40.301  33.062  33.425  1.00  0.00     0.031 C 
ATOM     65  C   UNL A   1      40.155  29.128  28.798  1.00  0.00     0.029 A 
ATOM     66  C   UNL A   1      40.542  29.818  29.936  1.00  0.00     0.049 A 
ATOM     67  H   UNL A   1      42.272  29.564  31.118  1.00  0.00     0.167 HD
ATOM     68  C   UNL A   1      40.309  31.522  31.726  1.00  0.00     0.074 A 
ATOM     69  C   UNL A   1      39.618  32.612  32.381  1.00  0.00     0.031 C 
ATOM     70  C   UNL A   1      39.861  30.899  30.606  1.00  0.00     0.037 A 
BRANCH  57  71
ATOM     71  C   UNL A   1      43.604  26.434  28.530  1.00  0.00     0.058 A 
ATOM     72  C   UNL A   1      43.139  25.114  28.654  1.00  0.00     0.135 A 
ATOM     73  C   UNL A   1      44.326  26.767  27.372  1.00  0.00     0.135 A 
ATOM     74  F   UNL A   1      42.466  24.734  29.752  1.00  0.00    -0.206 F 
ATOM     75  C   UNL A   1      43.397  24.158  27.677  1.00  0.00     0.059 A 
ATOM     76  C   UNL A   1      44.569  25.836  26.369  1.00  0.00     0.059 A 
ATOM     77  F   UNL A   1      44.801  28.011  27.207  1.00  0.00    -0.206 F 
ATOM     78  C   UNL A   1      44.111  24.530  26.536  1.00  0.00     0.060 A 
BRANCH  78  79
ATOM     79  S   UNL A   1      44.423  23.281  25.271  1.00  0.00     0.124 S 
ATOM     80  O   UNL A   1      43.066  22.859  24.936  1.00  0.00    -0.237 OA
ATOM     81  O   UNL A   1      45.120  24.047  24.243  1.00  0.00    -0.237 OA
ATOM     82  O   UNL A   1      45.235  22.287  25.966  1.00  0.00    -0.744 OA
ENDBRANCH  78  79
ENDBRANCH  57  71
BRANCH  58  83
ATOM     83  C   UNL A   1      42.239  33.376  35.608  1.00  0.00     0.058 A 
ATOM     84  C   UNL A   1      42.779  34.660  35.444  1.00  0.00     0.135 A 
ATOM     85  C   UNL A   1      41.512  33.120  36.783  1.00  0.00     0.135 A 
ATOM     86  F   UNL A   1      43.494  34.951  34.348  1.00  0.00    -0.206 F 
ATOM     87  C   UNL A   1      42.620  35.647  36.412  1.00  0.00     0.059 A 
ATOM     88  C   UNL A   1      41.314  34.100  37.751  1.00  0.00     0.059 A 
ATOM     89  F   UNL A   1      40.969  31.910  36.988  1.00  0.00    -0.206 F 
ATOM     90  C   UNL A   1      41.882  35.358  37.561  1.00  0.00     0.060 A 
BRANCH  90  91
ATOM     91  S   UNL A   1      41.639  36.664  38.786  1.00  0.00     0.124 S 
ATOM     92  O   UNL A   1      42.811  37.501  38.559  1.00  0.00    -0.237 OA
ATOM     93  O   UNL A   1      40.358  37.231  38.376  1.00  0.00    -0.237 OA
ATOM     94  O   UNL A   1      41.618  35.936  40.052  1.00  0.00    -0.744 OA
ENDBRANCH  90  91
ENDBRANCH  58  83
BRANCH  70  95
ATOM     95  C   UNL A   1      38.538  31.345  30.038  1.00  0.00     0.058 A 
ATOM     96  C   UNL A   1      37.376  30.569  30.165  1.00  0.00     0.135 A 
ATOM     97  C   UNL A   1      38.423  32.596  29.409  1.00  0.00     0.135 A 
ATOM     98  F   UNL A   1      37.428  29.364  30.755  1.00  0.00    -0.206 F 
ATOM     99  C   UNL A   1      36.153  31.004  29.663  1.00  0.00     0.059 A 
ATOM    100  C   UNL A   1      37.204  33.066  28.929  1.00  0.00     0.059 A 
ATOM    101  F   UNL A   1      39.500  33.387  29.273  1.00  0.00    -0.206 F 
ATOM    102  C   UNL A   1      36.077  32.255  29.049  1.00  0.00     0.060 A 
BRANCH 102 103
ATOM    103  S   UNL A   1      34.479  32.820  28.426  1.00  0.00     0.124 S 
ATOM    104  O   UNL A   1      34.884  33.784  27.407  1.00  0.00    -0.237 OA
ATOM    105  O   UNL A   1      33.884  31.583  27.928  1.00  0.00    -0.237 OA
ATOM    106  O   UNL A   1      33.834  33.388  29.605  1.00  0.00    -0.744 OA
ENDBRANCH 102 103
ENDBRANCH  70  95
ENDBRANCH  44  45
ENDBRANCH  37  39
ENDBRANCH  36  37
ENDBRANCH  35  36
ENDBRANCH  34  35
ENDBRANCH  33  34
ENDBRANCH  32  33
ENDBRANCH   1  32
TORSDOF 27
ENDMDL
MODEL 3
REMARK VINA RESULT:      -7.6      5.880     11.267
REMARK SMILES CC(C)[NH2+][C@]1(C(=O)OCCOCCOCCOCCOC(=O)c2ccc(-c3c4nc(c(-c5c(F)cc(S(=O)(=O)[O-])cc5F)c5ccc([nH]5)c(-c5c(F)cc(S(=O)(=O)[O-])cc5F)c5nc(c(-c6c(F)cc(S(=O)(=O)[O-])cc6F)c6ccc3[nH]6)C=C5)C=C4)cc2)CCC[C@H]([N@H+](C)C2CCCCC2)C1
REMARK SMILES IDX 15 1 14 2 13 3 12 4 11 5 10 6 9 7 8 8 6 9 7 10 5 11 89 12
REMARK SMILES IDX 101 13 90 14 92 15 91 16 4 17 2 20 1 21 3 22 93 23 94 24
REMARK SMILES IDX 95 26 96 27 100 28 97 29 99 30 98 31 16 32 17 33 18 34 19 35
REMARK SMILES IDX 20 36 21 37 22 38 23 39 24 40 88 41 25 42 87 43 26 44 27 45
REMARK SMILES IDX 28 46 81 47 29 48 86 49 80 50 82 51 30 52 85 53 79 54 78 55
REMARK SMILES IDX 31 57 65 58 44 59 64 60 45 61 48 62 63 63 83 64 46 65 47 66
REMARK SMILES IDX 62 68 84 69 49 70 32 71 33 72 42 73 34 74 35 75 41 76 43 77
REMARK SMILES IDX 36 78 37 79 38 80 39 81 40 82 66 83 67 84 76 85 68 86 69 87
REMARK SMILES IDX 75 88 77 89 70 90 71 91 72 92 73 93 74 94 50 95 51 96 60 97
REMARK SMILES IDX 52 98 53 99 59 100 61 101 54 102 55 103 56 104 57 105 58 106
REMARK H PARENT 4 18 4 19 93 25 82 56 48 67
REMARK Flexibility Score: inf
ROOT
ATOM      1  C   UNL A   1      36.400  31.586  42.249  1.00  0.00     0.188 C 
ENDROOT
BRANCH   1   2
ATOM      2  O   UNL A   1      35.262  31.582  41.400  1.00  0.00    -0.377 OA
BRANCH   2   3
ATOM      3  C   UNL A   1      35.493  31.659  40.006  1.00  0.00     0.188 C 
BRANCH   3   4
ATOM      4  C   UNL A   1      36.766  31.011  39.417  1.00  0.00     0.188 C 
BRANCH   4   5
ATOM      5  O   UNL A   1      37.219  31.616  38.213  1.00  0.00    -0.376 OA
BRANCH   5   6
ATOM      6  C   UNL A   1      37.041  33.027  38.074  1.00  0.00     0.202 C 
BRANCH   6   7
ATOM      7  C   UNL A   1      36.772  33.593  36.664  1.00  0.00     0.261 C 
BRANCH   7   8
ATOM      8  O   UNL A   1      37.790  33.198  35.734  1.00  0.00    -0.459 OA
BRANCH   8   9
ATOM      9  C   UNL A   1      38.008  33.852  34.557  1.00  0.00     0.368 C 
ATOM     10  O   UNL A   1      38.227  35.053  34.479  1.00  0.00    -0.245 OA
BRANCH   9  11
ATOM     11  C   UNL A   1      38.159  32.798  33.365  1.00  0.00     0.200 C 
ATOM     12  C   UNL A   1      38.686  33.583  32.100  1.00  0.00     0.081 C 
ATOM     13  C   UNL A   1      39.214  31.730  33.575  1.00  0.00     0.146 C 
ATOM     14  C   UNL A   1      39.569  32.999  30.979  1.00  0.00     0.013 C 
ATOM     15  C   UNL A   1      39.493  30.851  32.299  1.00  0.00     0.190 C 
ATOM     16  C   UNL A   1      40.255  31.699  31.290  1.00  0.00     0.065 C 
BRANCH  11  17
ATOM     17  N   UNL A   1      36.786  32.235  33.152  1.00  0.00    -0.330 N 
ATOM     18  H   UNL A   1      36.895  31.455  32.504  1.00  0.00     0.347 HD
ATOM     19  H   UNL A   1      36.480  32.047  34.106  1.00  0.00     0.347 HD
BRANCH  17  20
ATOM     20  C   UNL A   1      35.676  33.059  32.626  1.00  0.00     0.176 C 
ATOM     21  C   UNL A   1      35.089  32.311  31.406  1.00  0.00     0.075 C 
ATOM     22  C   UNL A   1      34.467  33.341  33.530  1.00  0.00     0.075 C 
ENDBRANCH  17  20
ENDBRANCH  11  17
BRANCH  15  23
ATOM     23  N   UNL A   1      38.401  29.953  31.775  1.00  0.00    -0.332 N 
ATOM     24  C   UNL A   1      38.101  28.977  32.840  1.00  0.00     0.333 C 
ATOM     25  H   UNL A   1      37.671  30.627  31.545  1.00  0.00     0.348 HD
BRANCH  23  26
ATOM     26  C   UNL A   1      38.439  29.284  30.410  1.00  0.00     0.184 C 
ATOM     27  C   UNL A   1      37.385  29.912  29.425  1.00  0.00     0.065 C 
ATOM     28  C   UNL A   1      39.758  29.392  29.617  1.00  0.00     0.065 C 
ATOM     29  C   UNL A   1      37.438  29.443  27.958  1.00  0.00     0.006 C 
ATOM     30  C   UNL A   1      39.775  28.699  28.263  1.00  0.00     0.006 C 
ATOM     31  C   UNL A   1      38.829  29.436  27.345  1.00  0.00     0.000 C 
ENDBRANCH  23  26
ENDBRANCH  15  23
ENDBRANCH   9  11
ENDBRANCH   8   9
ENDBRANCH   7   8
ENDBRANCH   6   7
ENDBRANCH   5   6
ENDBRANCH   4   5
ENDBRANCH   3   4
ENDBRANCH   2   3
ENDBRANCH   1   2
BRANCH   1  32
ATOM     32  C   UNL A   1      36.705  32.822  43.133  1.00  0.00     0.188 C 
BRANCH  32  33
ATOM     33  O   UNL A   1      37.639  33.762  42.615  1.00  0.00    -0.376 OA
BRANCH  33  34
ATOM     34  C   UNL A   1      38.619  33.259  41.708  1.00  0.00     0.202 C 
BRANCH  34  35
ATOM     35  C   UNL A   1      39.381  34.275  40.828  1.00  0.00     0.261 C 
BRANCH  35  36
ATOM     36  O   UNL A   1      39.864  33.775  39.575  1.00  0.00    -0.460 OA
BRANCH  36  37
ATOM     37  C   UNL A   1      40.959  34.395  39.075  1.00  0.00     0.338 C 
ATOM     38  O   UNL A   1      41.478  35.403  39.495  1.00  0.00    -0.246 OA
BRANCH  37  39
ATOM     39  C   UNL A   1      41.549  33.514  38.043  1.00  0.00     0.060 A 
ATOM     40  C   UNL A   1      42.933  33.577  37.833  1.00  0.00     0.016 A 
ATOM     41  C   UNL A   1      40.755  32.643  37.295  1.00  0.00     0.016 A 
ATOM     42  C   UNL A   1      43.527  32.780  36.858  1.00  0.00     0.010 A 
ATOM     43  C   UNL A   1      41.346  31.877  36.285  1.00  0.00     0.010 A 
ATOM     44  C   UNL A   1      42.728  31.969  36.043  1.00  0.00    -0.014 A 
BRANCH  44  45
ATOM     45  C   UNL A   1      43.311  31.427  34.794  1.00  0.00     0.031 A 
ATOM     46  C   UNL A   1      43.396  32.347  33.606  1.00  0.00     0.074 A 
ATOM     47  C   UNL A   1      43.803  30.178  34.726  1.00  0.00     0.049 A 
ATOM     48  N   UNL A   1      43.855  32.115  32.406  1.00  0.00    -0.248 NA
ATOM     49  C   UNL A   1      42.893  33.718  33.803  1.00  0.00     0.031 C 
ATOM     50  C   UNL A   1      43.823  29.214  35.824  1.00  0.00     0.029 A 
ATOM     51  N   UNL A   1      44.380  29.506  33.676  1.00  0.00    -0.354 N 
ATOM     52  C   UNL A   1      43.696  33.305  31.706  1.00  0.00     0.074 A 
ATOM     53  C   UNL A   1      43.068  34.248  32.603  1.00  0.00     0.031 C 
ATOM     54  C   UNL A   1      44.372  28.067  35.385  1.00  0.00     0.029 A 
ATOM     55  C   UNL A   1      44.715  28.206  33.969  1.00  0.00     0.049 A 
ATOM     56  H   UNL A   1      44.539  29.918  32.796  1.00  0.00     0.167 HD
ATOM     57  C   UNL A   1      44.049  33.589  30.431  1.00  0.00     0.037 A 
ATOM     58  C   UNL A   1      45.219  27.238  33.178  1.00  0.00     0.037 A 
ATOM     59  C   UNL A   1      44.665  32.642  29.539  1.00  0.00     0.049 A 
ATOM     60  C   UNL A   1      45.533  27.554  31.736  1.00  0.00     0.074 A 
ATOM     61  C   UNL A   1      45.069  32.832  28.230  1.00  0.00     0.029 A 
ATOM     62  N   UNL A   1      44.955  31.324  29.861  1.00  0.00    -0.354 N 
ATOM     63  N   UNL A   1      45.399  28.690  31.089  1.00  0.00    -0.248 NA
ATOM     64  C   UNL A   1      46.073  26.460  30.916  1.00  0.00     0.031 C 
ATOM     65  C   UNL A   1      45.547  31.613  27.741  1.00  0.00     0.029 A 
ATOM     66  C   UNL A   1      45.507  30.680  28.765  1.00  0.00     0.049 A 
ATOM     67  H   UNL A   1      44.793  30.907  30.738  1.00  0.00     0.167 HD
ATOM     68  C   UNL A   1      45.868  28.454  29.800  1.00  0.00     0.074 A 
ATOM     69  C   UNL A   1      46.298  27.071  29.760  1.00  0.00     0.031 C 
ATOM     70  C   UNL A   1      45.938  29.304  28.744  1.00  0.00     0.037 A 
BRANCH  57  71
ATOM     71  C   UNL A   1      43.744  34.967  29.913  1.00  0.00     0.058 A 
ATOM     72  C   UNL A   1      44.662  36.024  30.026  1.00  0.00     0.135 A 
ATOM     73  C   UNL A   1      42.522  35.228  29.271  1.00  0.00     0.135 A 
ATOM     74  F   UNL A   1      45.834  35.837  30.653  1.00  0.00    -0.206 F 
ATOM     75  C   UNL A   1      44.372  37.294  29.539  1.00  0.00     0.059 A 
ATOM     76  C   UNL A   1      42.223  36.482  28.748  1.00  0.00     0.059 A 
ATOM     77  F   UNL A   1      41.605  34.257  29.143  1.00  0.00    -0.206 F 
ATOM     78  C   UNL A   1      43.150  37.512  28.898  1.00  0.00     0.060 A 
BRANCH  78  79
ATOM     79  S   UNL A   1      42.797  39.162  28.258  1.00  0.00     0.124 S 
ATOM     80  O   UNL A   1      44.079  39.526  27.663  1.00  0.00    -0.237 OA
ATOM     81  O   UNL A   1      41.711  38.905  27.317  1.00  0.00    -0.237 OA
ATOM     82  O   UNL A   1      42.423  39.918  29.450  1.00  0.00    -0.744 OA
ENDBRANCH  78  79
ENDBRANCH  57  71
BRANCH  58  83
ATOM     83  C   UNL A   1      45.444  25.870  33.721  1.00  0.00     0.058 A 
ATOM     84  C   UNL A   1      46.715  25.450  34.139  1.00  0.00     0.135 A 
ATOM     85  C   UNL A   1      44.388  24.950  33.824  1.00  0.00     0.135 A 
ATOM     86  F   UNL A   1      47.760  26.285  34.048  1.00  0.00    -0.206 F 
ATOM     87  C   UNL A   1      46.936  24.163  34.623  1.00  0.00     0.059 A 
ATOM     88  C   UNL A   1      44.578  23.668  34.332  1.00  0.00     0.059 A 
ATOM     89  F   UNL A   1      43.149  25.301  33.443  1.00  0.00    -0.206 F 
ATOM     90  C   UNL A   1      45.859  23.282  34.720  1.00  0.00     0.060 A 
BRANCH  90  91
ATOM     91  S   UNL A   1      46.149  21.633  35.399  1.00  0.00     0.124 S 
ATOM     92  O   UNL A   1      47.461  21.315  34.849  1.00  0.00    -0.237 OA
ATOM     93  O   UNL A   1      46.100  21.882  36.836  1.00  0.00    -0.237 OA
ATOM     94  O   UNL A   1      45.036  20.851  34.867  1.00  0.00    -0.744 OA
ENDBRANCH  90  91
ENDBRANCH  58  83
BRANCH  70  95
ATOM     95  C   UNL A   1      46.545  28.785  27.466  1.00  0.00     0.058 A 
ATOM     96  C   UNL A   1      47.933  28.711  27.278  1.00  0.00     0.135 A 
ATOM     97  C   UNL A   1      45.720  28.301  26.437  1.00  0.00     0.135 A 
ATOM     98  F   UNL A   1      48.769  29.162  28.228  1.00  0.00    -0.206 F 
ATOM     99  C   UNL A   1      48.483  28.202  26.105  1.00  0.00     0.059 A 
ATOM    100  C   UNL A   1      46.247  27.757  25.269  1.00  0.00     0.059 A 
ATOM    101  F   UNL A   1      44.383  28.333  26.569  1.00  0.00    -0.206 F 
ATOM    102  C   UNL A   1      47.630  27.726  25.107  1.00  0.00     0.060 A 
BRANCH 102 103
ATOM    103  S   UNL A   1      48.356  27.043  23.601  1.00  0.00     0.124 S 
ATOM    104  O   UNL A   1      47.722  27.862  22.572  1.00  0.00    -0.237 OA
ATOM    105  O   UNL A   1      49.781  27.276  23.809  1.00  0.00    -0.237 OA
ATOM    106  O   UNL A   1      47.945  25.643  23.628  1.00  0.00    -0.744 OA
ENDBRANCH 102 103
ENDBRANCH  70  95
ENDBRANCH  44  45
ENDBRANCH  37  39
ENDBRANCH  36  37
ENDBRANCH  35  36
ENDBRANCH  34  35
ENDBRANCH  33  34
ENDBRANCH  32  33
ENDBRANCH   1  32
TORSDOF 27
ENDMDL
