MODEL 1
REMARK VINA RESULT:      -7.2      0.000      0.000
REMARK SMILES O=C(OCCOCCOCCOCCOC(=O)[C@H]1CC[C@@H](CNC(=O)[C@@H]2CSc3ccccc32)O1)c1ccc(-c2c3nc(c(-c4c(F)cc(S(=O)(=O)[O-])cc4F)c4ccc([nH]4)c(-c4c(F)cc(S(=O)(=O)[O-])cc4F)c4nc(c(-c5c(F)cc(S(=O)(=O)[O-])cc5F)c5ccc2[nH]5)C=C4)C=C3)cc1
REMARK SMILES IDX 9 1 8 2 7 3 6 4 5 5 4 6 3 7 2 8 1 9 36 10 37 11 101 12 38 13
REMARK SMILES IDX 100 14 39 15 40 16 41 17 94 18 42 19 99 20 93 21 95 22 43 23
REMARK SMILES IDX 98 24 92 25 91 26 44 28 78 29 57 30 77 31 58 32 61 33 76 34
REMARK SMILES IDX 96 35 59 36 60 37 75 39 97 40 62 41 45 42 46 43 55 44 47 45
REMARK SMILES IDX 48 46 54 47 56 48 49 49 50 50 51 51 52 52 53 53 79 54 80 55
REMARK SMILES IDX 89 56 81 57 82 58 88 59 90 60 83 61 84 62 85 63 86 64 87 65
REMARK SMILES IDX 63 66 64 67 73 68 65 69 66 70 72 71 74 72 67 73 68 74 69 75
REMARK SMILES IDX 70 76 71 77 10 78 11 79 12 80 13 81 14 82 15 83 16 84 17 85
REMARK SMILES IDX 18 86 19 87 35 88 20 89 21 90 22 91 23 92 24 93 25 95 26 96
REMARK SMILES IDX 27 97 34 98 28 99 29 100 33 101 30 102 32 103 31 104
REMARK H PARENT 95 27 61 38 23 94
REMARK Flexibility Score: inf
ROOT
ATOM      1  O   UNL A   1      45.837  25.799  29.498  1.00  0.00    -0.377 OA
ENDROOT
BRANCH   1   2
ATOM      2  C   UNL A   1      46.246  24.790  28.603  1.00  0.00     0.188 C 
BRANCH   2   3
ATOM      3  C   UNL A   1      45.100  23.993  28.017  1.00  0.00     0.188 C 
BRANCH   3   4
ATOM      4  O   UNL A   1      45.073  24.016  26.586  1.00  0.00    -0.376 OA
BRANCH   4   5
ATOM      5  C   UNL A   1      44.047  23.222  25.988  1.00  0.00     0.202 C 
BRANCH   5   6
ATOM      6  C   UNL A   1      43.026  23.927  25.089  1.00  0.00     0.261 C 
BRANCH   6   7
ATOM      7  O   UNL A   1      42.561  25.193  25.579  1.00  0.00    -0.460 OA
BRANCH   7   8
ATOM      8  C   UNL A   1      41.410  25.438  26.264  1.00  0.00     0.338 C 
ATOM      9  O   UNL A   1      40.337  25.124  25.754  1.00  0.00    -0.246 OA
BRANCH   8  10
ATOM     10  C   UNL A   1      41.395  26.310  27.486  1.00  0.00     0.060 A 
ATOM     11  C   UNL A   1      42.574  27.033  27.766  1.00  0.00     0.016 A 
ATOM     12  C   UNL A   1      40.372  26.330  28.434  1.00  0.00     0.016 A 
ATOM     13  C   UNL A   1      42.728  27.720  28.977  1.00  0.00     0.010 A 
ATOM     14  C   UNL A   1      40.562  26.911  29.681  1.00  0.00     0.010 A 
ATOM     15  C   UNL A   1      41.715  27.654  29.939  1.00  0.00    -0.014 A 
BRANCH  15  16
ATOM     16  C   UNL A   1      41.604  28.627  31.038  1.00  0.00     0.031 A 
ATOM     17  C   UNL A   1      42.374  28.510  32.309  1.00  0.00     0.074 A 
ATOM     18  C   UNL A   1      40.592  29.504  30.891  1.00  0.00     0.049 A 
ATOM     19  N   UNL A   1      42.313  29.274  33.366  1.00  0.00    -0.248 NA
ATOM     20  C   UNL A   1      43.324  27.393  32.420  1.00  0.00     0.031 C 
ATOM     21  C   UNL A   1      39.739  29.596  29.696  1.00  0.00     0.029 A 
ATOM     22  N   UNL A   1      40.064  30.426  31.745  1.00  0.00    -0.354 N 
ATOM     23  C   UNL A   1      43.255  28.772  34.256  1.00  0.00     0.074 A 
ATOM     24  C   UNL A   1      43.821  27.589  33.638  1.00  0.00     0.031 C 
ATOM     25  C   UNL A   1      38.774  30.495  29.910  1.00  0.00     0.029 A 
ATOM     26  C   UNL A   1      38.957  31.059  31.238  1.00  0.00     0.049 A 
ATOM     27  H   UNL A   1      40.437  30.617  32.635  1.00  0.00     0.167 HD
ATOM     28  C   UNL A   1      43.613  29.282  35.460  1.00  0.00     0.037 A 
ATOM     29  C   UNL A   1      38.185  32.015  31.776  1.00  0.00     0.037 A 
ATOM     30  C   UNL A   1      42.947  30.416  36.062  1.00  0.00     0.049 A 
ATOM     31  C   UNL A   1      38.579  32.544  33.116  1.00  0.00     0.074 A 
ATOM     32  C   UNL A   1      43.223  31.051  37.260  1.00  0.00     0.029 A 
ATOM     33  N   UNL A   1      41.846  31.069  35.514  1.00  0.00    -0.354 N 
ATOM     34  N   UNL A   1      39.550  32.140  33.902  1.00  0.00    -0.248 NA
ATOM     35  C   UNL A   1      37.805  33.674  33.628  1.00  0.00     0.031 C 
ATOM     36  C   UNL A   1      42.262  32.051  37.457  1.00  0.00     0.029 A 
ATOM     37  C   UNL A   1      41.416  32.082  36.359  1.00  0.00     0.049 A 
ATOM     38  H   UNL A   1      41.432  30.843  34.651  1.00  0.00     0.167 HD
ATOM     39  C   UNL A   1      39.521  32.982  35.001  1.00  0.00     0.074 A 
ATOM     40  C   UNL A   1      38.445  33.930  34.760  1.00  0.00     0.031 C 
ATOM     41  C   UNL A   1      40.311  32.979  36.105  1.00  0.00     0.037 A 
BRANCH  28  42
ATOM     42  C   UNL A   1      44.773  28.637  36.179  1.00  0.00     0.058 A 
ATOM     43  C   UNL A   1      44.569  27.569  37.073  1.00  0.00     0.135 A 
ATOM     44  C   UNL A   1      46.099  29.043  35.957  1.00  0.00     0.135 A 
ATOM     45  F   UNL A   1      43.327  27.128  37.327  1.00  0.00    -0.206 F 
ATOM     46  C   UNL A   1      45.626  26.962  37.746  1.00  0.00     0.059 A 
ATOM     47  C   UNL A   1      47.177  28.432  36.602  1.00  0.00     0.059 A 
ATOM     48  F   UNL A   1      46.366  30.048  35.108  1.00  0.00    -0.206 F 
ATOM     49  C   UNL A   1      46.927  27.402  37.508  1.00  0.00     0.060 A 
BRANCH  49  50
ATOM     50  S   UNL A   1      48.280  26.619  38.413  1.00  0.00     0.124 S 
ATOM     51  O   UNL A   1      48.513  25.420  37.608  1.00  0.00    -0.237 OA
ATOM     52  O   UNL A   1      49.330  27.637  38.340  1.00  0.00    -0.237 OA
ATOM     53  O   UNL A   1      47.726  26.388  39.736  1.00  0.00    -0.744 OA
ENDBRANCH  49  50
ENDBRANCH  28  42
BRANCH  29  54
ATOM     54  C   UNL A   1      37.096  32.594  30.954  1.00  0.00     0.058 A 
ATOM     55  C   UNL A   1      35.772  32.182  31.163  1.00  0.00     0.135 A 
ATOM     56  C   UNL A   1      37.321  33.671  30.082  1.00  0.00     0.135 A 
ATOM     57  F   UNL A   1      35.511  31.173  32.008  1.00  0.00    -0.206 F 
ATOM     58  C   UNL A   1      34.707  32.817  30.539  1.00  0.00     0.059 A 
ATOM     59  C   UNL A   1      36.268  34.335  29.459  1.00  0.00     0.059 A 
ATOM     60  F   UNL A   1      38.567  34.132  29.888  1.00  0.00    -0.206 F 
ATOM     61  C   UNL A   1      34.964  33.901  29.697  1.00  0.00     0.060 A 
BRANCH  61  62
ATOM     62  S   UNL A   1      33.558  34.769  28.970  1.00  0.00     0.124 S 
ATOM     63  O   UNL A   1      33.093  33.800  27.983  1.00  0.00    -0.237 OA
ATOM     64  O   UNL A   1      32.692  34.967  30.127  1.00  0.00    -0.237 OA
ATOM     65  O   UNL A   1      34.156  35.984  28.426  1.00  0.00    -0.744 OA
ENDBRANCH  61  62
ENDBRANCH  29  54
BRANCH  41  66
ATOM     66  C   UNL A   1      40.006  34.029  37.135  1.00  0.00     0.058 A 
ATOM     67  C   UNL A   1      39.152  33.764  38.217  1.00  0.00     0.135 A 
ATOM     68  C   UNL A   1      40.571  35.311  37.039  1.00  0.00     0.135 A 
ATOM     69  F   UNL A   1      38.577  32.557  38.345  1.00  0.00    -0.206 F 
ATOM     70  C   UNL A   1      38.835  34.746  39.146  1.00  0.00     0.059 A 
ATOM     71  C   UNL A   1      40.294  36.298  37.977  1.00  0.00     0.059 A 
ATOM     72  F   UNL A   1      41.398  35.613  36.026  1.00  0.00    -0.206 F 
ATOM     73  C   UNL A   1      39.411  36.010  39.017  1.00  0.00     0.060 A 
BRANCH  73  74
ATOM     74  S   UNL A   1      38.989  37.273  40.235  1.00  0.00     0.124 S 
ATOM     75  O   UNL A   1      38.291  38.254  39.411  1.00  0.00    -0.237 OA
ATOM     76  O   UNL A   1      38.159  36.529  41.177  1.00  0.00    -0.237 OA
ATOM     77  O   UNL A   1      40.287  37.697  40.750  1.00  0.00    -0.744 OA
ENDBRANCH  73  74
ENDBRANCH  41  66
ENDBRANCH  15  16
ENDBRANCH   8  10
ENDBRANCH   7   8
ENDBRANCH   6   7
ENDBRANCH   5   6
ENDBRANCH   4   5
ENDBRANCH   3   4
ENDBRANCH   2   3
ENDBRANCH   1   2
BRANCH   1  78
ATOM     78  C   UNL A   1      46.042  25.515  30.858  1.00  0.00     0.188 C 
BRANCH  78  79
ATOM     79  C   UNL A   1      47.102  26.261  31.667  1.00  0.00     0.188 C 
BRANCH  79  80
ATOM     80  O   UNL A   1      48.294  25.629  32.093  1.00  0.00    -0.376 OA
BRANCH  80  81
ATOM     81  C   UNL A   1      49.394  25.498  31.208  1.00  0.00     0.202 C 
BRANCH  81  82
ATOM     82  C   UNL A   1      49.478  26.460  30.012  1.00  0.00     0.261 C 
BRANCH  82  83
ATOM     83  O   UNL A   1      50.428  26.086  28.991  1.00  0.00    -0.461 OA
BRANCH  83  84
ATOM     84  C   UNL A   1      49.948  25.487  27.866  1.00  0.00     0.335 C 
ATOM     85  O   UNL A   1      49.807  24.277  27.724  1.00  0.00    -0.249 OA
BRANCH  84  86
ATOM     86  C   UNL A   1      49.521  26.505  26.762  1.00  0.00     0.228 C 
ATOM     87  C   UNL A   1      48.357  25.935  25.931  1.00  0.00     0.047 C 
ATOM     88  O   UNL A   1      49.136  27.846  27.106  1.00  0.00    -0.361 OA
ATOM     89  C   UNL A   1      47.294  27.020  25.910  1.00  0.00     0.037 C 
ATOM     90  C   UNL A   1      48.090  28.272  26.220  1.00  0.00     0.138 C 
BRANCH  90  91
ATOM     91  C   UNL A   1      47.275  29.503  26.700  1.00  0.00     0.147 C 
BRANCH  91  92
ATOM     92  N   UNL A   1      45.823  29.390  26.818  1.00  0.00    -0.353 N 
ATOM     93  C   UNL A   1      44.826  30.306  26.989  1.00  0.00     0.228 C 
ATOM     94  H   UNL A   1      45.497  28.463  26.762  1.00  0.00     0.163 HD
ATOM     95  O   UNL A   1      43.757  30.008  26.431  1.00  0.00    -0.274 OA
BRANCH  93  96
ATOM     96  C   UNL A   1      44.886  31.626  27.776  1.00  0.00     0.120 C 
ATOM     97  C   UNL A   1      45.742  32.744  27.186  1.00  0.00     0.093 C 
ATOM     98  C   UNL A   1      45.329  31.436  29.223  1.00  0.00    -0.021 A 
ATOM     99  S   UNL A   1      46.703  33.563  28.480  1.00  0.00    -0.125 SA
ATOM    100  C   UNL A   1      46.361  32.278  29.636  1.00  0.00     0.011 A 
ATOM    101  C   UNL A   1      44.776  30.549  30.149  1.00  0.00     0.006 A 
ATOM    102  C   UNL A   1      46.968  32.138  30.876  1.00  0.00     0.015 A 
ATOM    103  C   UNL A   1      45.360  30.420  31.416  1.00  0.00     0.000 A 
ATOM    104  C   UNL A   1      46.479  31.180  31.761  1.00  0.00     0.001 A 
ENDBRANCH  93  96
ENDBRANCH  91  92
ENDBRANCH  90  91
ENDBRANCH  84  86
ENDBRANCH  83  84
ENDBRANCH  82  83
ENDBRANCH  81  82
ENDBRANCH  80  81
ENDBRANCH  79  80
ENDBRANCH  78  79
ENDBRANCH   1  78
TORSDOF 26
ENDMDL
MODEL 2
REMARK VINA RESULT:      -7.1      6.085     12.839
REMARK SMILES O=C(OCCOCCOCCOCCOC(=O)[C@H]1CC[C@@H](CNC(=O)[C@@H]2CSc3ccccc32)O1)c1ccc(-c2c3nc(c(-c4c(F)cc(S(=O)(=O)[O-])cc4F)c4ccc([nH]4)c(-c4c(F)cc(S(=O)(=O)[O-])cc4F)c4nc(c(-c5c(F)cc(S(=O)(=O)[O-])cc5F)c5ccc2[nH]5)C=C4)C=C3)cc1
REMARK SMILES IDX 9 1 8 2 7 3 6 4 5 5 4 6 3 7 2 8 1 9 36 10 37 11 101 12 38 13
REMARK SMILES IDX 100 14 39 15 40 16 41 17 94 18 42 19 99 20 93 21 95 22 43 23
REMARK SMILES IDX 98 24 92 25 91 26 44 28 78 29 57 30 77 31 58 32 61 33 76 34
REMARK SMILES IDX 96 35 59 36 60 37 75 39 97 40 62 41 45 42 46 43 55 44 47 45
REMARK SMILES IDX 48 46 54 47 56 48 49 49 50 50 51 51 52 52 53 53 79 54 80 55
REMARK SMILES IDX 89 56 81 57 82 58 88 59 90 60 83 61 84 62 85 63 86 64 87 65
REMARK SMILES IDX 63 66 64 67 73 68 65 69 66 70 72 71 74 72 67 73 68 74 69 75
REMARK SMILES IDX 70 76 71 77 10 78 11 79 12 80 13 81 14 82 15 83 16 84 17 85
REMARK SMILES IDX 18 86 19 87 35 88 20 89 21 90 22 91 23 92 24 93 25 95 26 96
REMARK SMILES IDX 27 97 34 98 28 99 29 100 33 101 30 102 32 103 31 104
REMARK H PARENT 95 27 61 38 23 94
REMARK Flexibility Score: inf
ROOT
ATOM      1  O   UNL A   1      36.626  23.696  24.183  1.00  0.00    -0.377 OA
ENDROOT
BRANCH   1   2
ATOM      2  C   UNL A   1      37.374  23.863  25.366  1.00  0.00     0.188 C 
BRANCH   2   3
ATOM      3  C   UNL A   1      37.328  22.665  26.290  1.00  0.00     0.188 C 
BRANCH   3   4
ATOM      4  O   UNL A   1      38.173  21.591  25.860  1.00  0.00    -0.376 OA
BRANCH   4   5
ATOM      5  C   UNL A   1      39.480  21.582  26.438  1.00  0.00     0.202 C 
BRANCH   5   6
ATOM      6  C   UNL A   1      40.474  20.526  25.944  1.00  0.00     0.261 C 
BRANCH   6   7
ATOM      7  O   UNL A   1      41.810  20.671  26.448  1.00  0.00    -0.460 OA
BRANCH   7   8
ATOM      8  C   UNL A   1      42.691  21.669  26.166  1.00  0.00     0.338 C 
ATOM      9  O   UNL A   1      43.353  21.604  25.133  1.00  0.00    -0.246 OA
BRANCH   8  10
ATOM     10  C   UNL A   1      43.069  22.695  27.196  1.00  0.00     0.060 A 
ATOM     11  C   UNL A   1      44.439  22.803  27.515  1.00  0.00     0.016 A 
ATOM     12  C   UNL A   1      42.158  23.422  27.963  1.00  0.00     0.016 A 
ATOM     13  C   UNL A   1      44.870  23.587  28.592  1.00  0.00     0.010 A 
ATOM     14  C   UNL A   1      42.565  24.108  29.100  1.00  0.00     0.010 A 
ATOM     15  C   UNL A   1      43.924  24.240  29.389  1.00  0.00    -0.014 A 
BRANCH  15  16
ATOM     16  C   UNL A   1      44.274  25.369  30.267  1.00  0.00     0.031 A 
ATOM     17  C   UNL A   1      44.533  26.745  29.756  1.00  0.00     0.074 A 
ATOM     18  C   UNL A   1      44.556  25.009  31.534  1.00  0.00     0.049 A 
ATOM     19  N   UNL A   1      44.905  27.802  30.428  1.00  0.00    -0.248 NA
ATOM     20  C   UNL A   1      44.368  26.971  28.313  1.00  0.00     0.031 C 
ATOM     21  C   UNL A   1      44.410  23.644  32.062  1.00  0.00     0.029 A 
ATOM     22  N   UNL A   1      45.073  25.713  32.579  1.00  0.00    -0.354 N 
ATOM     23  C   UNL A   1      44.967  28.839  29.507  1.00  0.00     0.074 A 
ATOM     24  C   UNL A   1      44.664  28.263  28.211  1.00  0.00     0.031 C 
ATOM     25  C   UNL A   1      44.863  23.605  33.318  1.00  0.00     0.029 A 
ATOM     26  C   UNL A   1      45.303  24.940  33.689  1.00  0.00     0.049 A 
ATOM     27  H   UNL A   1      45.265  26.678  32.541  1.00  0.00     0.167 HD
ATOM     28  C   UNL A   1      45.231  30.147  29.747  1.00  0.00     0.037 A 
ATOM     29  C   UNL A   1      45.792  25.278  34.892  1.00  0.00     0.037 A 
ATOM     30  C   UNL A   1      45.613  30.645  31.050  1.00  0.00     0.049 A 
ATOM     31  C   UNL A   1      46.103  26.719  35.128  1.00  0.00     0.074 A 
ATOM     32  C   UNL A   1      45.883  31.945  31.439  1.00  0.00     0.029 A 
ATOM     33  N   UNL A   1      45.807  29.848  32.175  1.00  0.00    -0.354 N 
ATOM     34  N   UNL A   1      46.045  27.718  34.279  1.00  0.00    -0.248 NA
ATOM     35  C   UNL A   1      46.510  27.088  36.484  1.00  0.00     0.031 C 
ATOM     36  C   UNL A   1      46.284  31.926  32.782  1.00  0.00     0.029 A 
ATOM     37  C   UNL A   1      46.215  30.623  33.251  1.00  0.00     0.049 A 
ATOM     38  H   UNL A   1      45.674  28.874  32.203  1.00  0.00     0.167 HD
ATOM     39  C   UNL A   1      46.389  28.849  35.002  1.00  0.00     0.074 A 
ATOM     40  C   UNL A   1      46.632  28.403  36.365  1.00  0.00     0.031 C 
ATOM     41  C   UNL A   1      46.490  30.136  34.584  1.00  0.00     0.037 A 
BRANCH  28  42
ATOM     42  C   UNL A   1      45.094  31.114  28.595  1.00  0.00     0.058 A 
ATOM     43  C   UNL A   1      46.084  31.200  27.599  1.00  0.00     0.135 A 
ATOM     44  C   UNL A   1      43.963  31.933  28.448  1.00  0.00     0.135 A 
ATOM     45  F   UNL A   1      47.189  30.442  27.676  1.00  0.00    -0.206 F 
ATOM     46  C   UNL A   1      45.977  32.086  26.530  1.00  0.00     0.059 A 
ATOM     47  C   UNL A   1      43.822  32.810  27.370  1.00  0.00     0.059 A 
ATOM     48  F   UNL A   1      42.975  31.893  29.356  1.00  0.00    -0.206 F 
ATOM     49  C   UNL A   1      44.844  32.891  26.426  1.00  0.00     0.060 A 
BRANCH  49  50
ATOM     50  S   UNL A   1      44.738  34.052  25.046  1.00  0.00     0.124 S 
ATOM     51  O   UNL A   1      43.613  34.892  25.458  1.00  0.00    -0.237 OA
ATOM     52  O   UNL A   1      46.051  34.699  25.085  1.00  0.00    -0.237 OA
ATOM     53  O   UNL A   1      44.496  33.201  23.894  1.00  0.00    -0.744 OA
ENDBRANCH  49  50
ENDBRANCH  28  42
BRANCH  29  54
ATOM     54  C   UNL A   1      45.843  24.244  35.953  1.00  0.00     0.058 A 
ATOM     55  C   UNL A   1      46.959  23.400  36.048  1.00  0.00     0.135 A 
ATOM     56  C   UNL A   1      44.884  24.187  36.977  1.00  0.00     0.135 A 
ATOM     57  F   UNL A   1      47.911  23.440  35.104  1.00  0.00    -0.206 F 
ATOM     58  C   UNL A   1      47.126  22.536  37.123  1.00  0.00     0.059 A 
ATOM     59  C   UNL A   1      45.040  23.343  38.073  1.00  0.00     0.059 A 
ATOM     60  F   UNL A   1      43.824  25.011  36.954  1.00  0.00    -0.206 F 
ATOM     61  C   UNL A   1      46.166  22.523  38.137  1.00  0.00     0.060 A 
BRANCH  61  62
ATOM     62  S   UNL A   1      46.451  21.461  39.568  1.00  0.00     0.124 S 
ATOM     63  O   UNL A   1      47.807  21.840  39.952  1.00  0.00    -0.237 OA
ATOM     64  O   UNL A   1      45.389  21.885  40.476  1.00  0.00    -0.237 OA
ATOM     65  O   UNL A   1      46.303  20.115  39.025  1.00  0.00    -0.744 OA
ENDBRANCH  61  62
ENDBRANCH  29  54
BRANCH  41  66
ATOM     66  C   UNL A   1      46.906  31.135  35.626  1.00  0.00     0.058 A 
ATOM     67  C   UNL A   1      45.956  31.823  36.398  1.00  0.00     0.135 A 
ATOM     68  C   UNL A   1      48.264  31.408  35.854  1.00  0.00     0.135 A 
ATOM     69  F   UNL A   1      44.644  31.607  36.208  1.00  0.00    -0.206 F 
ATOM     70  C   UNL A   1      46.337  32.779  37.331  1.00  0.00     0.059 A 
ATOM     71  C   UNL A   1      48.668  32.335  36.808  1.00  0.00     0.059 A 
ATOM     72  F   UNL A   1      49.211  30.773  35.147  1.00  0.00    -0.206 F 
ATOM     73  C   UNL A   1      47.696  33.027  37.528  1.00  0.00     0.060 A 
BRANCH  73  74
ATOM     74  S   UNL A   1      48.171  34.269  38.747  1.00  0.00     0.124 S 
ATOM     75  O   UNL A   1      48.251  35.472  37.924  1.00  0.00    -0.237 OA
ATOM     76  O   UNL A   1      47.060  34.219  39.691  1.00  0.00    -0.237 OA
ATOM     77  O   UNL A   1      49.445  33.774  39.259  1.00  0.00    -0.744 OA
ENDBRANCH  73  74
ENDBRANCH  41  66
ENDBRANCH  15  16
ENDBRANCH   8  10
ENDBRANCH   7   8
ENDBRANCH   6   7
ENDBRANCH   5   6
ENDBRANCH   4   5
ENDBRANCH   3   4
ENDBRANCH   2   3
ENDBRANCH   1   2
BRANCH   1  78
ATOM     78  C   UNL A   1      35.232  23.685  24.350  1.00  0.00     0.188 C 
BRANCH  78  79
ATOM     79  C   UNL A   1      34.515  24.826  25.070  1.00  0.00     0.188 C 
BRANCH  79  80
ATOM     80  O   UNL A   1      34.042  25.964  24.376  1.00  0.00    -0.376 OA
BRANCH  80  81
ATOM     81  C   UNL A   1      33.911  27.209  25.042  1.00  0.00     0.202 C 
BRANCH  81  82
ATOM     82  C   UNL A   1      33.174  27.234  26.390  1.00  0.00     0.261 C 
BRANCH  82  83
ATOM     83  O   UNL A   1      31.832  27.764  26.344  1.00  0.00    -0.461 OA
BRANCH  83  84
ATOM     84  C   UNL A   1      31.088  27.517  25.231  1.00  0.00     0.335 C 
ATOM     85  O   UNL A   1      30.994  28.273  24.270  1.00  0.00    -0.249 OA
BRANCH  84  86
ATOM     86  C   UNL A   1      30.394  26.118  25.253  1.00  0.00     0.228 C 
ATOM     87  C   UNL A   1      30.007  25.690  23.826  1.00  0.00     0.047 C 
ATOM     88  O   UNL A   1      31.050  24.980  25.837  1.00  0.00    -0.361 OA
ATOM     89  C   UNL A   1      30.556  24.285  23.651  1.00  0.00     0.037 C 
ATOM     90  C   UNL A   1      30.710  23.808  25.082  1.00  0.00     0.138 C 
BRANCH  90  91
ATOM     91  C   UNL A   1      31.640  22.585  25.302  1.00  0.00     0.147 C 
BRANCH  91  92
ATOM     92  N   UNL A   1      32.014  21.763  24.153  1.00  0.00    -0.353 N 
ATOM     93  C   UNL A   1      32.595  20.534  24.034  1.00  0.00     0.228 C 
ATOM     94  H   UNL A   1      31.803  22.182  23.288  1.00  0.00     0.163 HD
ATOM     95  O   UNL A   1      32.206  19.878  23.054  1.00  0.00    -0.274 OA
BRANCH  93  96
ATOM     96  C   UNL A   1      33.647  19.897  24.957  1.00  0.00     0.120 C 
ATOM     97  C   UNL A   1      35.110  20.233  24.673  1.00  0.00     0.093 C 
ATOM     98  C   UNL A   1      33.539  18.378  25.024  1.00  0.00    -0.021 A 
ATOM     99  S   UNL A   1      36.142  18.755  24.814  1.00  0.00    -0.125 SA
ATOM    100  C   UNL A   1      34.736  17.694  24.812  1.00  0.00     0.011 A 
ATOM    101  C   UNL A   1      32.388  17.642  25.314  1.00  0.00     0.006 A 
ATOM    102  C   UNL A   1      34.779  16.312  24.704  1.00  0.00     0.015 A 
ATOM    103  C   UNL A   1      32.426  16.243  25.239  1.00  0.00     0.000 A 
ATOM    104  C   UNL A   1      33.607  15.583  24.892  1.00  0.00     0.001 A 
ENDBRANCH  93  96
ENDBRANCH  91  92
ENDBRANCH  90  91
ENDBRANCH  84  86
ENDBRANCH  83  84
ENDBRANCH  82  83
ENDBRANCH  81  82
ENDBRANCH  80  81
ENDBRANCH  79  80
ENDBRANCH  78  79
ENDBRANCH   1  78
TORSDOF 26
ENDMDL
MODEL 3
REMARK VINA RESULT:      -7.0      5.867     12.577
REMARK SMILES O=C(OCCOCCOCCOCCOC(=O)[C@H]1CC[C@@H](CNC(=O)[C@@H]2CSc3ccccc32)O1)c1ccc(-c2c3nc(c(-c4c(F)cc(S(=O)(=O)[O-])cc4F)c4ccc([nH]4)c(-c4c(F)cc(S(=O)(=O)[O-])cc4F)c4nc(c(-c5c(F)cc(S(=O)(=O)[O-])cc5F)c5ccc2[nH]5)C=C4)C=C3)cc1
REMARK SMILES IDX 9 1 8 2 7 3 6 4 5 5 4 6 3 7 2 8 1 9 36 10 37 11 101 12 38 13
REMARK SMILES IDX 100 14 39 15 40 16 41 17 94 18 42 19 99 20 93 21 95 22 43 23
REMARK SMILES IDX 98 24 92 25 91 26 44 28 78 29 57 30 77 31 58 32 61 33 76 34
REMARK SMILES IDX 96 35 59 36 60 37 75 39 97 40 62 41 45 42 46 43 55 44 47 45
REMARK SMILES IDX 48 46 54 47 56 48 49 49 50 50 51 51 52 52 53 53 79 54 80 55
REMARK SMILES IDX 89 56 81 57 82 58 88 59 90 60 83 61 84 62 85 63 86 64 87 65
REMARK SMILES IDX 63 66 64 67 73 68 65 69 66 70 72 71 74 72 67 73 68 74 69 75
REMARK SMILES IDX 70 76 71 77 10 78 11 79 12 80 13 81 14 82 15 83 16 84 17 85
REMARK SMILES IDX 18 86 19 87 35 88 20 89 21 90 22 91 23 92 24 93 25 95 26 96
REMARK SMILES IDX 27 97 34 98 28 99 29 100 33 101 30 102 32 103 31 104
REMARK H PARENT 95 27 61 38 23 94
REMARK Flexibility Score: inf
ROOT
ATOM      1  O   UNL A   1      36.924  23.611  23.825  1.00  0.00    -0.377 OA
ENDROOT
BRANCH   1   2
ATOM      2  C   UNL A   1      37.096  23.194  25.160  1.00  0.00     0.188 C 
BRANCH   2   3
ATOM      3  C   UNL A   1      36.929  21.702  25.359  1.00  0.00     0.188 C 
BRANCH   3   4
ATOM      4  O   UNL A   1      38.172  21.020  25.555  1.00  0.00    -0.376 OA
BRANCH   4   5
ATOM      5  C   UNL A   1      39.289  21.866  25.833  1.00  0.00     0.202 C 
BRANCH   5   6
ATOM      6  C   UNL A   1      40.488  21.254  26.565  1.00  0.00     0.261 C 
BRANCH   6   7
ATOM      7  O   UNL A   1      41.735  21.339  25.861  1.00  0.00    -0.460 OA
BRANCH   7   8
ATOM      8  C   UNL A   1      42.456  22.463  25.598  1.00  0.00     0.338 C 
ATOM      9  O   UNL A   1      43.021  22.567  24.512  1.00  0.00    -0.246 OA
BRANCH   8  10
ATOM     10  C   UNL A   1      42.800  23.446  26.681  1.00  0.00     0.060 A 
ATOM     11  C   UNL A   1      41.721  24.100  27.312  1.00  0.00     0.016 A 
ATOM     12  C   UNL A   1      44.093  23.868  26.988  1.00  0.00     0.016 A 
ATOM     13  C   UNL A   1      41.940  25.166  28.194  1.00  0.00     0.010 A 
ATOM     14  C   UNL A   1      44.313  24.995  27.769  1.00  0.00     0.010 A 
ATOM     15  C   UNL A   1      43.245  25.616  28.418  1.00  0.00    -0.014 A 
BRANCH  15  16
ATOM     16  C   UNL A   1      43.609  26.435  29.587  1.00  0.00     0.031 A 
ATOM     17  C   UNL A   1      43.742  27.918  29.530  1.00  0.00     0.074 A 
ATOM     18  C   UNL A   1      44.024  25.717  30.649  1.00  0.00     0.049 A 
ATOM     19  N   UNL A   1      44.114  28.735  30.479  1.00  0.00    -0.248 NA
ATOM     20  C   UNL A   1      43.435  28.574  28.250  1.00  0.00     0.031 C 
ATOM     21  C   UNL A   1      44.004  24.248  30.718  1.00  0.00     0.029 A 
ATOM     22  N   UNL A   1      44.593  26.095  31.828  1.00  0.00    -0.354 N 
ATOM     23  C   UNL A   1      44.034  30.011  29.938  1.00  0.00     0.074 A 
ATOM     24  C   UNL A   1      43.648  29.852  28.550  1.00  0.00     0.031 C 
ATOM     25  C   UNL A   1      44.570  23.851  31.861  1.00  0.00     0.029 A 
ATOM     26  C   UNL A   1      44.966  25.032  32.612  1.00  0.00     0.049 A 
ATOM     27  H   UNL A   1      44.726  27.035  32.089  1.00  0.00     0.167 HD
ATOM     28  C   UNL A   1      44.245  31.194  30.568  1.00  0.00     0.037 A 
ATOM     29  C   UNL A   1      45.541  25.011  33.823  1.00  0.00     0.037 A 
ATOM     30  C   UNL A   1      44.714  31.284  31.933  1.00  0.00     0.049 A 
ATOM     31  C   UNL A   1      45.791  26.325  34.489  1.00  0.00     0.074 A 
ATOM     32  C   UNL A   1      44.943  32.412  32.701  1.00  0.00     0.029 A 
ATOM     33  N   UNL A   1      45.053  30.191  32.727  1.00  0.00    -0.354 N 
ATOM     34  N   UNL A   1      45.600  27.533  34.012  1.00  0.00    -0.248 NA
ATOM     35  C   UNL A   1      46.297  26.279  35.861  1.00  0.00     0.031 C 
ATOM     36  C   UNL A   1      45.465  32.003  33.935  1.00  0.00     0.029 A 
ATOM     37  C   UNL A   1      45.512  30.617  33.964  1.00  0.00     0.049 A 
ATOM     38  H   UNL A   1      44.978  29.250  32.448  1.00  0.00     0.167 HD
ATOM     39  C   UNL A   1      45.943  28.401  35.036  1.00  0.00     0.074 A 
ATOM     40  C   UNL A   1      46.333  27.569  36.163  1.00  0.00     0.031 C 
ATOM     41  C   UNL A   1      45.934  29.759  35.048  1.00  0.00     0.037 A 
BRANCH  28  42
ATOM     42  C   UNL A   1      43.950  32.460  29.800  1.00  0.00     0.058 A 
ATOM     43  C   UNL A   1      42.720  33.129  29.951  1.00  0.00     0.135 A 
ATOM     44  C   UNL A   1      44.896  33.043  28.942  1.00  0.00     0.135 A 
ATOM     45  F   UNL A   1      41.773  32.629  30.759  1.00  0.00    -0.206 F 
ATOM     46  C   UNL A   1      42.429  34.297  29.251  1.00  0.00     0.059 A 
ATOM     47  C   UNL A   1      44.635  34.228  28.250  1.00  0.00     0.059 A 
ATOM     48  F   UNL A   1      46.094  32.463  28.762  1.00  0.00    -0.206 F 
ATOM     49  C   UNL A   1      43.390  34.838  28.399  1.00  0.00     0.060 A 
BRANCH  49  50
ATOM     50  S   UNL A   1      42.981  36.339  27.481  1.00  0.00     0.124 S 
ATOM     51  O   UNL A   1      44.122  37.196  27.802  1.00  0.00    -0.237 OA
ATOM     52  O   UNL A   1      42.931  35.852  26.101  1.00  0.00    -0.237 OA
ATOM     53  O   UNL A   1      41.707  36.753  28.044  1.00  0.00    -0.744 OA
ENDBRANCH  49  50
ENDBRANCH  28  42
BRANCH  29  54
ATOM     54  C   UNL A   1      45.746  23.703  34.489  1.00  0.00     0.058 A 
ATOM     55  C   UNL A   1      47.041  23.180  34.610  1.00  0.00     0.135 A 
ATOM     56  C   UNL A   1      44.703  23.042  35.157  1.00  0.00     0.135 A 
ATOM     57  F   UNL A   1      48.071  23.795  34.008  1.00  0.00    -0.206 F 
ATOM     58  C   UNL A   1      47.299  22.047  35.371  1.00  0.00     0.059 A 
ATOM     59  C   UNL A   1      44.940  21.916  35.941  1.00  0.00     0.059 A 
ATOM     60  F   UNL A   1      43.455  23.534  35.111  1.00  0.00    -0.206 F 
ATOM     61  C   UNL A   1      46.242  21.429  36.043  1.00  0.00     0.060 A 
BRANCH  61  62
ATOM     62  S   UNL A   1      46.615  20.014  37.101  1.00  0.00     0.124 S 
ATOM     63  O   UNL A   1      46.066  20.450  38.380  1.00  0.00    -0.237 OA
ATOM     64  O   UNL A   1      45.893  18.936  36.431  1.00  0.00    -0.237 OA
ATOM     65  O   UNL A   1      48.069  19.919  37.038  1.00  0.00    -0.744 OA
ENDBRANCH  61  62
ENDBRANCH  29  54
BRANCH  41  66
ATOM     66  C   UNL A   1      46.385  30.408  36.325  1.00  0.00     0.058 A 
ATOM     67  C   UNL A   1      47.730  30.749  36.535  1.00  0.00     0.135 A 
ATOM     68  C   UNL A   1      45.465  30.689  37.348  1.00  0.00     0.135 A 
ATOM     69  F   UNL A   1      48.650  30.487  35.593  1.00  0.00    -0.206 F 
ATOM     70  C   UNL A   1      48.156  31.310  37.733  1.00  0.00     0.059 A 
ATOM     71  C   UNL A   1      45.864  31.281  38.541  1.00  0.00     0.059 A 
ATOM     72  F   UNL A   1      44.167  30.388  37.195  1.00  0.00    -0.206 F 
ATOM     73  C   UNL A   1      47.215  31.572  38.729  1.00  0.00     0.060 A 
BRANCH  73  74
ATOM     74  S   UNL A   1      47.787  32.303  40.276  1.00  0.00     0.124 S 
ATOM     75  O   UNL A   1      46.917  33.470  40.388  1.00  0.00    -0.237 OA
ATOM     76  O   UNL A   1      47.536  31.232  41.236  1.00  0.00    -0.237 OA
ATOM     77  O   UNL A   1      49.194  32.592  40.018  1.00  0.00    -0.744 OA
ENDBRANCH  73  74
ENDBRANCH  41  66
ENDBRANCH  15  16
ENDBRANCH   8  10
ENDBRANCH   7   8
ENDBRANCH   6   7
ENDBRANCH   5   6
ENDBRANCH   4   5
ENDBRANCH   3   4
ENDBRANCH   2   3
ENDBRANCH   1   2
BRANCH   1  78
ATOM     78  C   UNL A   1      35.789  23.098  23.176  1.00  0.00     0.188 C 
BRANCH  78  79
ATOM     79  C   UNL A   1      34.429  23.782  23.309  1.00  0.00     0.188 C 
BRANCH  79  80
ATOM     80  O   UNL A   1      33.871  24.540  22.253  1.00  0.00    -0.376 OA
BRANCH  80  81
ATOM     81  C   UNL A   1      33.776  25.952  22.354  1.00  0.00     0.202 C 
BRANCH  81  82
ATOM     82  C   UNL A   1      33.633  26.568  23.755  1.00  0.00     0.261 C 
BRANCH  82  83
ATOM     83  O   UNL A   1      33.458  28.001  23.779  1.00  0.00    -0.461 OA
BRANCH  83  84
ATOM     84  C   UNL A   1      32.283  28.505  23.311  1.00  0.00     0.335 C 
ATOM     85  O   UNL A   1      32.171  29.206  22.311  1.00  0.00    -0.249 OA
BRANCH  84  86
ATOM     86  C   UNL A   1      31.044  28.051  24.146  1.00  0.00     0.228 C 
ATOM     87  C   UNL A   1      30.041  27.300  23.250  1.00  0.00     0.047 C 
ATOM     88  O   UNL A   1      31.204  27.238  25.320  1.00  0.00    -0.361 OA
ATOM     89  C   UNL A   1      29.729  26.003  23.976  1.00  0.00     0.037 C 
ATOM     90  C   UNL A   1      30.099  26.327  25.410  1.00  0.00     0.138 C 
BRANCH  90  91
ATOM     91  C   UNL A   1      30.315  25.114  26.354  1.00  0.00     0.147 C 
BRANCH  91  92
ATOM     92  N   UNL A   1      31.662  24.828  26.844  1.00  0.00    -0.353 N 
ATOM     93  C   UNL A   1      32.527  23.791  26.647  1.00  0.00     0.228 C 
ATOM     94  H   UNL A   1      32.019  25.527  27.438  1.00  0.00     0.163 HD
ATOM     95  O   UNL A   1      33.725  24.117  26.646  1.00  0.00    -0.274 OA
BRANCH  93  96
ATOM     96  C   UNL A   1      32.183  22.307  26.431  1.00  0.00     0.120 C 
ATOM     97  C   UNL A   1      33.146  21.281  27.023  1.00  0.00     0.093 C 
ATOM     98  C   UNL A   1      31.990  21.948  24.963  1.00  0.00    -0.021 A 
ATOM     99  S   UNL A   1      33.434  19.929  25.858  1.00  0.00    -0.125 SA
ATOM    100  C   UNL A   1      32.708  20.834  24.531  1.00  0.00     0.011 A 
ATOM    101  C   UNL A   1      31.148  22.595  24.055  1.00  0.00     0.006 A 
ATOM    102  C   UNL A   1      32.748  20.461  23.195  1.00  0.00     0.015 A 
ATOM    103  C   UNL A   1      31.155  22.208  22.708  1.00  0.00     0.000 A 
ATOM    104  C   UNL A   1      31.986  21.173  22.273  1.00  0.00     0.001 A 
ENDBRANCH  93  96
ENDBRANCH  91  92
ENDBRANCH  90  91
ENDBRANCH  84  86
ENDBRANCH  83  84
ENDBRANCH  82  83
ENDBRANCH  81  82
ENDBRANCH  80  81
ENDBRANCH  79  80
ENDBRANCH  78  79
ENDBRANCH   1  78
TORSDOF 26
ENDMDL
