MODEL 1
REMARK VINA RESULT:      -6.7      0.000      0.000
REMARK SMILES O=C(CCCNc1ccccc1SC(F)F)OCCOCCOCCOCCOC(=O)c1ccc(-c2c3nc(c(-c4c(F)cc(S(=O)(=O)[O-])cc4F)c4ccc([nH]4)c(-c4c(F)cc(S(=O)(=O)[O-])cc4F)c4nc(c(-c5c(F)cc(S(=O)(=O)[O-])cc5F)c5ccc2[nH]5)C=C4)C=C3)cc1
REMARK SMILES IDX 21 1 20 2 19 3 18 4 17 5 2 6 1 7 3 8 4 9 5 10 6 11 7 13 8 14
REMARK SMILES IDX 12 15 9 16 11 17 10 18 13 19 14 20 15 21 16 22 22 23 23 24
REMARK SMILES IDX 24 25 25 26 26 27 27 28 28 29 29 30 30 31 31 32 32 33 33 34
REMARK SMILES IDX 97 35 34 36 96 37 35 38 36 39 37 40 90 41 38 42 95 43 89 44
REMARK SMILES IDX 91 45 39 46 94 47 88 48 87 49 40 51 74 52 53 53 73 54 54 55
REMARK SMILES IDX 57 56 72 57 92 58 55 59 56 60 71 62 93 63 58 64 41 65 42 66
REMARK SMILES IDX 51 67 43 68 44 69 50 70 52 71 45 72 46 73 47 74 48 75 49 76
REMARK SMILES IDX 75 77 76 78 85 79 77 80 78 81 84 82 86 83 79 84 80 85 81 86
REMARK SMILES IDX 82 87 83 88 59 89 60 90 69 91 61 92 62 93 68 94 70 95 63 96
REMARK SMILES IDX 64 97 65 98 66 99 67 100
REMARK H PARENT 6 12 91 50 57 61
REMARK Flexibility Score: inf
ROOT
ATOM      1  C   UNL A   1      37.234  31.012  28.782  1.00  0.00     0.188 C 
ENDROOT
BRANCH   1   2
ATOM      2  O   UNL A   1      38.250  30.705  29.738  1.00  0.00    -0.376 OA
BRANCH   2   3
ATOM      3  C   UNL A   1      39.452  30.173  29.198  1.00  0.00     0.202 C 
BRANCH   3   4
ATOM      4  C   UNL A   1      39.212  29.099  28.149  1.00  0.00     0.261 C 
BRANCH   4   5
ATOM      5  O   UNL A   1      40.350  28.870  27.307  1.00  0.00    -0.463 OA
BRANCH   5   6
ATOM      6  C   UNL A   1      41.522  28.545  27.906  1.00  0.00     0.305 C 
ATOM      7  O   UNL A   1      42.369  29.403  28.141  1.00  0.00    -0.252 OA
BRANCH   6   8
ATOM      8  C   UNL A   1      41.839  27.070  28.059  1.00  0.00     0.124 C 
BRANCH   8   9
ATOM      9  C   UNL A   1      42.761  26.465  27.007  1.00  0.00     0.033 C 
BRANCH   9  10
ATOM     10  C   UNL A   1      43.703  25.342  27.448  1.00  0.00     0.113 C 
BRANCH  10  11
ATOM     11  N   UNL A   1      43.046  24.059  27.597  1.00  0.00    -0.384 N 
ATOM     12  H   UNL A   1      42.364  23.993  28.304  1.00  0.00     0.160 HD
BRANCH  11  13
ATOM     13  C   UNL A   1      43.281  22.909  26.844  1.00  0.00     0.048 A 
ATOM     14  C   UNL A   1      44.555  22.847  26.228  1.00  0.00     0.027 A 
ATOM     15  C   UNL A   1      42.453  21.768  26.704  1.00  0.00     0.036 A 
ATOM     16  C   UNL A   1      44.991  21.738  25.495  1.00  0.00     0.002 A 
ATOM     17  C   UNL A   1      42.898  20.663  25.940  1.00  0.00     0.017 A 
ATOM     18  C   UNL A   1      44.154  20.647  25.340  1.00  0.00     0.001 A 
BRANCH  15  19
ATOM     19  S   UNL A   1      40.843  21.507  27.461  1.00  0.00    -0.053 SA
BRANCH  19  20
ATOM     20  C   UNL A   1      39.739  22.204  26.212  1.00  0.00     0.405 C 
ATOM     21  F   UNL A   1      38.465  21.794  26.460  1.00  0.00    -0.198 F 
ATOM     22  F   UNL A   1      39.713  23.558  26.224  1.00  0.00    -0.198 F 
ENDBRANCH  19  20
ENDBRANCH  15  19
ENDBRANCH  11  13
ENDBRANCH  10  11
ENDBRANCH   9  10
ENDBRANCH   8   9
ENDBRANCH   6   8
ENDBRANCH   5   6
ENDBRANCH   4   5
ENDBRANCH   3   4
ENDBRANCH   2   3
ENDBRANCH   1   2
BRANCH   1  23
ATOM     23  C   UNL A   1      36.802  32.480  28.703  1.00  0.00     0.188 C 
BRANCH  23  24
ATOM     24  O   UNL A   1      35.480  32.837  29.103  1.00  0.00    -0.377 OA
BRANCH  24  25
ATOM     25  C   UNL A   1      35.294  33.546  30.319  1.00  0.00     0.188 C 
BRANCH  25  26
ATOM     26  C   UNL A   1      34.086  34.477  30.421  1.00  0.00     0.188 C 
BRANCH  26  27
ATOM     27  O   UNL A   1      34.129  35.355  31.541  1.00  0.00    -0.376 OA
BRANCH  27  28
ATOM     28  C   UNL A   1      33.683  34.752  32.753  1.00  0.00     0.202 C 
BRANCH  28  29
ATOM     29  C   UNL A   1      34.726  34.732  33.883  1.00  0.00     0.261 C 
BRANCH  29  30
ATOM     30  O   UNL A   1      35.177  33.444  34.326  1.00  0.00    -0.460 OA
BRANCH  30  31
ATOM     31  C   UNL A   1      36.208  33.391  35.204  1.00  0.00     0.338 C 
ATOM     32  O   UNL A   1      36.153  33.594  36.395  1.00  0.00    -0.246 OA
BRANCH  31  33
ATOM     33  C   UNL A   1      37.411  32.912  34.473  1.00  0.00     0.060 A 
ATOM     34  C   UNL A   1      38.686  33.196  34.984  1.00  0.00     0.016 A 
ATOM     35  C   UNL A   1      37.281  32.193  33.283  1.00  0.00     0.016 A 
ATOM     36  C   UNL A   1      39.831  32.746  34.315  1.00  0.00     0.010 A 
ATOM     37  C   UNL A   1      38.425  31.784  32.591  1.00  0.00     0.010 A 
ATOM     38  C   UNL A   1      39.706  32.072  33.092  1.00  0.00    -0.014 A 
BRANCH  38  39
ATOM     39  C   UNL A   1      40.878  31.894  32.197  1.00  0.00     0.031 A 
ATOM     40  C   UNL A   1      41.714  30.658  32.387  1.00  0.00     0.074 A 
ATOM     41  C   UNL A   1      41.246  32.824  31.298  1.00  0.00     0.049 A 
ATOM     42  N   UNL A   1      42.871  30.345  31.866  1.00  0.00    -0.248 NA
ATOM     43  C   UNL A   1      41.170  29.646  33.307  1.00  0.00     0.031 C 
ATOM     44  C   UNL A   1      40.507  34.044  30.990  1.00  0.00     0.029 A 
ATOM     45  N   UNL A   1      42.365  32.896  30.502  1.00  0.00    -0.354 N 
ATOM     46  C   UNL A   1      43.203  29.111  32.412  1.00  0.00     0.074 A 
ATOM     47  C   UNL A   1      42.132  28.740  33.311  1.00  0.00     0.031 C 
ATOM     48  C   UNL A   1      41.212  34.766  30.099  1.00  0.00     0.029 A 
ATOM     49  C   UNL A   1      42.471  34.078  29.808  1.00  0.00     0.049 A 
ATOM     50  H   UNL A   1      43.027  32.169  30.436  1.00  0.00     0.167 HD
ATOM     51  C   UNL A   1      44.307  28.358  32.195  1.00  0.00     0.037 A 
ATOM     52  C   UNL A   1      43.484  34.565  29.060  1.00  0.00     0.037 A 
ATOM     53  C   UNL A   1      45.385  28.745  31.326  1.00  0.00     0.049 A 
ATOM     54  C   UNL A   1      44.736  33.744  28.874  1.00  0.00     0.074 A 
ATOM     55  C   UNL A   1      46.543  28.049  31.030  1.00  0.00     0.029 A 
ATOM     56  N   UNL A   1      45.448  29.944  30.633  1.00  0.00    -0.354 N 
ATOM     57  N   UNL A   1      45.032  32.566  29.371  1.00  0.00    -0.248 NA
ATOM     58  C   UNL A   1      45.795  34.317  28.028  1.00  0.00     0.031 C 
ATOM     59  C   UNL A   1      47.331  28.851  30.199  1.00  0.00     0.029 A 
ATOM     60  C   UNL A   1      46.637  30.021  29.927  1.00  0.00     0.049 A 
ATOM     61  H   UNL A   1      44.751  30.640  30.641  1.00  0.00     0.167 HD
ATOM     62  C   UNL A   1      46.293  32.244  28.876  1.00  0.00     0.074 A 
ATOM     63  C   UNL A   1      46.708  33.351  28.042  1.00  0.00     0.031 C 
ATOM     64  C   UNL A   1      47.033  31.126  29.087  1.00  0.00     0.037 A 
BRANCH  51  65
ATOM     65  C   UNL A   1      44.418  27.074  32.971  1.00  0.00     0.058 A 
ATOM     66  C   UNL A   1      44.778  27.054  34.328  1.00  0.00     0.135 A 
ATOM     67  C   UNL A   1      44.200  25.842  32.333  1.00  0.00     0.135 A 
ATOM     68  F   UNL A   1      45.019  28.202  34.981  1.00  0.00    -0.206 F 
ATOM     69  C   UNL A   1      44.971  25.858  35.010  1.00  0.00     0.059 A 
ATOM     70  C   UNL A   1      44.356  24.635  33.004  1.00  0.00     0.059 A 
ATOM     71  F   UNL A   1      43.856  25.803  31.036  1.00  0.00    -0.206 F 
ATOM     72  C   UNL A   1      44.767  24.652  34.336  1.00  0.00     0.060 A 
BRANCH  72  73
ATOM     73  S   UNL A   1      45.070  23.108  35.218  1.00  0.00     0.124 S 
ATOM     74  O   UNL A   1      45.454  23.598  36.538  1.00  0.00    -0.237 OA
ATOM     75  O   UNL A   1      43.773  22.443  35.142  1.00  0.00    -0.237 OA
ATOM     76  O   UNL A   1      46.138  22.480  34.446  1.00  0.00    -0.744 OA
ENDBRANCH  72  73
ENDBRANCH  51  65
BRANCH  52  77
ATOM     77  C   UNL A   1      43.358  35.917  28.449  1.00  0.00     0.058 A 
ATOM     78  C   UNL A   1      42.821  36.087  27.164  1.00  0.00     0.135 A 
ATOM     79  C   UNL A   1      43.730  37.070  29.159  1.00  0.00     0.135 A 
ATOM     80  F   UNL A   1      42.472  35.016  26.437  1.00  0.00    -0.206 F 
ATOM     81  C   UNL A   1      42.641  37.352  26.611  1.00  0.00     0.059 A 
ATOM     82  C   UNL A   1      43.539  38.346  28.636  1.00  0.00     0.059 A 
ATOM     83  F   UNL A   1      44.250  36.963  30.391  1.00  0.00    -0.206 F 
ATOM     84  C   UNL A   1      42.988  38.477  27.361  1.00  0.00     0.060 A 
BRANCH  84  85
ATOM     85  S   UNL A   1      42.641  40.113  26.679  1.00  0.00     0.124 S 
ATOM     86  O   UNL A   1      41.317  39.919  26.100  1.00  0.00    -0.237 OA
ATOM     87  O   UNL A   1      42.700  40.956  27.870  1.00  0.00    -0.237 OA
ATOM     88  O   UNL A   1      43.725  40.317  25.724  1.00  0.00    -0.744 OA
ENDBRANCH  84  85
ENDBRANCH  52  77
BRANCH  64  89
ATOM     89  C   UNL A   1      48.351  30.999  28.370  1.00  0.00     0.058 A 
ATOM     90  C   UNL A   1      48.474  30.306  27.156  1.00  0.00     0.135 A 
ATOM     91  C   UNL A   1      49.482  31.677  28.855  1.00  0.00     0.135 A 
ATOM     92  F   UNL A   1      47.427  29.637  26.649  1.00  0.00    -0.206 F 
ATOM     93  C   UNL A   1      49.675  30.288  26.450  1.00  0.00     0.059 A 
ATOM     94  C   UNL A   1      50.684  31.692  28.153  1.00  0.00     0.059 A 
ATOM     95  F   UNL A   1      49.416  32.364  30.007  1.00  0.00    -0.206 F 
ATOM     96  C   UNL A   1      50.771  30.991  26.952  1.00  0.00     0.060 A 
BRANCH  96  97
ATOM     97  S   UNL A   1      52.302  31.017  25.992  1.00  0.00     0.124 S 
ATOM     98  O   UNL A   1      51.821  30.665  24.660  1.00  0.00    -0.237 OA
ATOM     99  O   UNL A   1      52.753  32.394  26.161  1.00  0.00    -0.237 OA
ATOM    100  O   UNL A   1      53.130  30.008  26.646  1.00  0.00    -0.744 OA
ENDBRANCH  96  97
ENDBRANCH  64  89
ENDBRANCH  38  39
ENDBRANCH  31  33
ENDBRANCH  30  31
ENDBRANCH  29  30
ENDBRANCH  28  29
ENDBRANCH  27  28
ENDBRANCH  26  27
ENDBRANCH  25  26
ENDBRANCH  24  25
ENDBRANCH  23  24
ENDBRANCH   1  23
TORSDOF 29
ENDMDL
MODEL 2
REMARK VINA RESULT:      -6.7      5.134     11.945
REMARK SMILES O=C(CCCNc1ccccc1SC(F)F)OCCOCCOCCOCCOC(=O)c1ccc(-c2c3nc(c(-c4c(F)cc(S(=O)(=O)[O-])cc4F)c4ccc([nH]4)c(-c4c(F)cc(S(=O)(=O)[O-])cc4F)c4nc(c(-c5c(F)cc(S(=O)(=O)[O-])cc5F)c5ccc2[nH]5)C=C4)C=C3)cc1
REMARK SMILES IDX 21 1 20 2 19 3 18 4 17 5 2 6 1 7 3 8 4 9 5 10 6 11 7 13 8 14
REMARK SMILES IDX 12 15 9 16 11 17 10 18 13 19 14 20 15 21 16 22 22 23 23 24
REMARK SMILES IDX 24 25 25 26 26 27 27 28 28 29 29 30 30 31 31 32 32 33 33 34
REMARK SMILES IDX 97 35 34 36 96 37 35 38 36 39 37 40 90 41 38 42 95 43 89 44
REMARK SMILES IDX 91 45 39 46 94 47 88 48 87 49 40 51 74 52 53 53 73 54 54 55
REMARK SMILES IDX 57 56 72 57 92 58 55 59 56 60 71 62 93 63 58 64 41 65 42 66
REMARK SMILES IDX 51 67 43 68 44 69 50 70 52 71 45 72 46 73 47 74 48 75 49 76
REMARK SMILES IDX 75 77 76 78 85 79 77 80 78 81 84 82 86 83 79 84 80 85 81 86
REMARK SMILES IDX 82 87 83 88 59 89 60 90 69 91 61 92 62 93 68 94 70 95 63 96
REMARK SMILES IDX 64 97 65 98 66 99 67 100
REMARK H PARENT 6 12 91 50 57 61
REMARK Flexibility Score: inf
ROOT
ATOM      1  C   UNL A   1      32.015  23.463  26.756  1.00  0.00     0.188 C 
ENDROOT
BRANCH   1   2
ATOM      2  O   UNL A   1      31.281  24.688  26.705  1.00  0.00    -0.376 OA
BRANCH   2   3
ATOM      3  C   UNL A   1      32.066  25.861  26.542  1.00  0.00     0.202 C 
BRANCH   3   4
ATOM      4  C   UNL A   1      31.235  27.131  26.472  1.00  0.00     0.261 C 
BRANCH   4   5
ATOM      5  O   UNL A   1      31.191  27.704  25.159  1.00  0.00    -0.463 OA
BRANCH   5   6
ATOM      6  C   UNL A   1      32.362  28.114  24.610  1.00  0.00     0.305 C 
ATOM      7  O   UNL A   1      32.436  28.388  23.415  1.00  0.00    -0.252 OA
BRANCH   6   8
ATOM      8  C   UNL A   1      33.609  27.998  25.466  1.00  0.00     0.124 C 
BRANCH   8   9
ATOM      9  C   UNL A   1      34.200  29.307  25.976  1.00  0.00     0.033 C 
BRANCH   9  10
ATOM     10  C   UNL A   1      33.300  30.212  26.822  1.00  0.00     0.113 C 
BRANCH  10  11
ATOM     11  N   UNL A   1      33.856  30.530  28.122  1.00  0.00    -0.384 N 
ATOM     12  H   UNL A   1      33.532  29.995  28.882  1.00  0.00     0.160 HD
BRANCH  11  13
ATOM     13  C   UNL A   1      34.801  31.515  28.408  1.00  0.00     0.048 A 
ATOM     14  C   UNL A   1      34.419  32.832  28.047  1.00  0.00     0.027 A 
ATOM     15  C   UNL A   1      36.033  31.378  29.093  1.00  0.00     0.036 A 
ATOM     16  C   UNL A   1      35.209  33.954  28.322  1.00  0.00     0.002 A 
ATOM     17  C   UNL A   1      36.831  32.519  29.344  1.00  0.00     0.017 A 
ATOM     18  C   UNL A   1      36.425  33.795  28.962  1.00  0.00     0.001 A 
BRANCH  15  19
ATOM     19  S   UNL A   1      36.722  29.863  29.773  1.00  0.00    -0.053 SA
BRANCH  19  20
ATOM     20  C   UNL A   1      37.626  29.207  28.352  1.00  0.00     0.405 C 
ATOM     21  F   UNL A   1      37.259  29.888  27.233  1.00  0.00    -0.198 F 
ATOM     22  F   UNL A   1      38.968  29.353  28.465  1.00  0.00    -0.198 F 
ENDBRANCH  19  20
ENDBRANCH  15  19
ENDBRANCH  11  13
ENDBRANCH  10  11
ENDBRANCH   9  10
ENDBRANCH   8   9
ENDBRANCH   6   8
ENDBRANCH   5   6
ENDBRANCH   4   5
ENDBRANCH   3   4
ENDBRANCH   2   3
ENDBRANCH   1   2
BRANCH   1  23
ATOM     23  C   UNL A   1      32.431  22.869  25.407  1.00  0.00     0.188 C 
BRANCH  23  24
ATOM     24  O   UNL A   1      32.835  21.501  25.346  1.00  0.00    -0.377 OA
BRANCH  24  25
ATOM     25  C   UNL A   1      34.037  21.107  25.991  1.00  0.00     0.188 C 
BRANCH  25  26
ATOM     26  C   UNL A   1      35.325  21.124  25.167  1.00  0.00     0.188 C 
BRANCH  26  27
ATOM     27  O   UNL A   1      36.507  21.263  25.949  1.00  0.00    -0.376 OA
BRANCH  27  28
ATOM     28  C   UNL A   1      37.705  21.192  25.181  1.00  0.00     0.202 C 
BRANCH  28  29
ATOM     29  C   UNL A   1      38.787  22.209  25.583  1.00  0.00     0.261 C 
BRANCH  29  30
ATOM     30  O   UNL A   1      39.525  21.931  26.782  1.00  0.00    -0.460 OA
BRANCH  30  31
ATOM     31  C   UNL A   1      40.843  21.633  26.671  1.00  0.00     0.338 C 
ATOM     32  O   UNL A   1      41.330  20.758  25.994  1.00  0.00    -0.246 OA
BRANCH  31  33
ATOM     33  C   UNL A   1      41.611  22.657  27.429  1.00  0.00     0.060 A 
ATOM     34  C   UNL A   1      42.997  22.506  27.578  1.00  0.00     0.016 A 
ATOM     35  C   UNL A   1      40.963  23.755  27.999  1.00  0.00     0.016 A 
ATOM     36  C   UNL A   1      43.740  23.463  28.281  1.00  0.00     0.010 A 
ATOM     37  C   UNL A   1      41.697  24.685  28.740  1.00  0.00     0.010 A 
ATOM     38  C   UNL A   1      43.086  24.537  28.900  1.00  0.00    -0.014 A 
BRANCH  38  39
ATOM     39  C   UNL A   1      43.776  25.359  29.928  1.00  0.00     0.031 A 
ATOM     40  C   UNL A   1      44.098  26.785  29.573  1.00  0.00     0.074 A 
ATOM     41  C   UNL A   1      44.180  24.851  31.105  1.00  0.00     0.049 A 
ATOM     42  N   UNL A   1      44.836  27.657  30.207  1.00  0.00    -0.248 NA
ATOM     43  C   UNL A   1      43.515  27.284  28.317  1.00  0.00     0.031 C 
ATOM     44  C   UNL A   1      43.901  23.501  31.587  1.00  0.00     0.029 A 
ATOM     45  N   UNL A   1      44.948  25.412  32.099  1.00  0.00    -0.354 N 
ATOM     46  C   UNL A   1      44.825  28.799  29.418  1.00  0.00     0.074 A 
ATOM     47  C   UNL A   1      44.017  28.506  28.254  1.00  0.00     0.031 C 
ATOM     48  C   UNL A   1      44.524  23.324  32.766  1.00  0.00     0.029 A 
ATOM     49  C   UNL A   1      45.278  24.533  33.101  1.00  0.00     0.049 A 
ATOM     50  H   UNL A   1      45.234  26.355  32.091  1.00  0.00     0.167 HD
ATOM     51  C   UNL A   1      45.442  29.985  29.633  1.00  0.00     0.037 A 
ATOM     52  C   UNL A   1      46.125  24.673  34.144  1.00  0.00     0.037 A 
ATOM     53  C   UNL A   1      46.271  30.263  30.774  1.00  0.00     0.049 A 
ATOM     54  C   UNL A   1      46.856  25.979  34.342  1.00  0.00     0.074 A 
ATOM     55  C   UNL A   1      46.932  31.435  31.092  1.00  0.00     0.029 A 
ATOM     56  N   UNL A   1      46.571  29.348  31.773  1.00  0.00    -0.354 N 
ATOM     57  N   UNL A   1      46.819  27.064  33.605  1.00  0.00    -0.248 NA
ATOM     58  C   UNL A   1      47.745  26.080  35.509  1.00  0.00     0.031 C 
ATOM     59  C   UNL A   1      47.677  31.213  32.254  1.00  0.00     0.029 A 
ATOM     60  C   UNL A   1      47.429  29.921  32.696  1.00  0.00     0.049 A 
ATOM     61  H   UNL A   1      46.226  28.428  31.819  1.00  0.00     0.167 HD
ATOM     62  C   UNL A   1      47.652  27.985  34.234  1.00  0.00     0.074 A 
ATOM     63  C   UNL A   1      48.184  27.330  35.411  1.00  0.00     0.031 C 
ATOM     64  C   UNL A   1      47.941  29.261  33.874  1.00  0.00     0.037 A 
BRANCH  51  65
ATOM     65  C   UNL A   1      45.286  31.037  28.569  1.00  0.00     0.058 A 
ATOM     66  C   UNL A   1      44.183  31.906  28.539  1.00  0.00     0.135 A 
ATOM     67  C   UNL A   1      46.235  31.148  27.540  1.00  0.00     0.135 A 
ATOM     68  F   UNL A   1      43.234  31.828  29.486  1.00  0.00    -0.206 F 
ATOM     69  C   UNL A   1      43.999  32.809  27.499  1.00  0.00     0.059 A 
ATOM     70  C   UNL A   1      46.088  32.067  26.507  1.00  0.00     0.059 A 
ATOM     71  F   UNL A   1      47.307  30.341  27.519  1.00  0.00    -0.206 F 
ATOM     72  C   UNL A   1      44.953  32.875  26.481  1.00  0.00     0.060 A 
BRANCH  72  73
ATOM     73  S   UNL A   1      44.677  34.017  25.111  1.00  0.00     0.124 S 
ATOM     74  O   UNL A   1      44.089  33.131  24.110  1.00  0.00    -0.237 OA
ATOM     75  O   UNL A   1      43.770  34.998  25.699  1.00  0.00    -0.237 OA
ATOM     76  O   UNL A   1      46.016  34.509  24.804  1.00  0.00    -0.744 OA
ENDBRANCH  72  73
ENDBRANCH  51  65
BRANCH  52  77
ATOM     77  C   UNL A   1      46.343  23.527  35.070  1.00  0.00     0.058 A 
ATOM     78  C   UNL A   1      47.508  22.749  35.003  1.00  0.00     0.135 A 
ATOM     79  C   UNL A   1      45.409  23.219  36.073  1.00  0.00     0.135 A 
ATOM     80  F   UNL A   1      48.420  22.989  34.049  1.00  0.00    -0.206 F 
ATOM     81  C   UNL A   1      47.749  21.718  35.906  1.00  0.00     0.059 A 
ATOM     82  C   UNL A   1      45.638  22.207  37.001  1.00  0.00     0.059 A 
ATOM     83  F   UNL A   1      44.277  23.932  36.179  1.00  0.00    -0.206 F 
ATOM     84  C   UNL A   1      46.814  21.464  36.912  1.00  0.00     0.060 A 
BRANCH  84  85
ATOM     85  S   UNL A   1      47.193  20.201  38.147  1.00  0.00     0.124 S 
ATOM     86  O   UNL A   1      45.991  19.379  38.110  1.00  0.00    -0.237 OA
ATOM     87  O   UNL A   1      48.401  19.592  37.595  1.00  0.00    -0.237 OA
ATOM     88  O   UNL A   1      47.394  20.974  39.368  1.00  0.00    -0.744 OA
ENDBRANCH  84  85
ENDBRANCH  52  77
BRANCH  64  89
ATOM     89  C   UNL A   1      48.832  30.072  34.777  1.00  0.00     0.058 A 
ATOM     90  C   UNL A   1      50.231  30.034  34.672  1.00  0.00     0.135 A 
ATOM     91  C   UNL A   1      48.268  30.982  35.687  1.00  0.00     0.135 A 
ATOM     92  F   UNL A   1      50.823  29.180  33.823  1.00  0.00    -0.206 F 
ATOM     93  C   UNL A   1      51.039  30.869  35.442  1.00  0.00     0.059 A 
ATOM     94  C   UNL A   1      49.055  31.842  36.446  1.00  0.00     0.059 A 
ATOM     95  F   UNL A   1      46.934  31.066  35.819  1.00  0.00    -0.206 F 
ATOM     96  C   UNL A   1      50.441  31.776  36.318  1.00  0.00     0.060 A 
BRANCH  96  97
ATOM     97  S   UNL A   1      51.497  32.901  37.258  1.00  0.00     0.124 S 
ATOM     98  O   UNL A   1      50.624  33.266  38.369  1.00  0.00    -0.237 OA
ATOM     99  O   UNL A   1      52.634  32.051  37.597  1.00  0.00    -0.237 OA
ATOM    100  O   UNL A   1      51.785  33.972  36.308  1.00  0.00    -0.744 OA
ENDBRANCH  96  97
ENDBRANCH  64  89
ENDBRANCH  38  39
ENDBRANCH  31  33
ENDBRANCH  30  31
ENDBRANCH  29  30
ENDBRANCH  28  29
ENDBRANCH  27  28
ENDBRANCH  26  27
ENDBRANCH  25  26
ENDBRANCH  24  25
ENDBRANCH  23  24
ENDBRANCH   1  23
TORSDOF 29
ENDMDL
MODEL 3
REMARK VINA RESULT:      -6.7      2.174      2.627
REMARK SMILES O=C(CCCNc1ccccc1SC(F)F)OCCOCCOCCOCCOC(=O)c1ccc(-c2c3nc(c(-c4c(F)cc(S(=O)(=O)[O-])cc4F)c4ccc([nH]4)c(-c4c(F)cc(S(=O)(=O)[O-])cc4F)c4nc(c(-c5c(F)cc(S(=O)(=O)[O-])cc5F)c5ccc2[nH]5)C=C4)C=C3)cc1
REMARK SMILES IDX 21 1 20 2 19 3 18 4 17 5 2 6 1 7 3 8 4 9 5 10 6 11 7 13 8 14
REMARK SMILES IDX 12 15 9 16 11 17 10 18 13 19 14 20 15 21 16 22 22 23 23 24
REMARK SMILES IDX 24 25 25 26 26 27 27 28 28 29 29 30 30 31 31 32 32 33 33 34
REMARK SMILES IDX 97 35 34 36 96 37 35 38 36 39 37 40 90 41 38 42 95 43 89 44
REMARK SMILES IDX 91 45 39 46 94 47 88 48 87 49 40 51 74 52 53 53 73 54 54 55
REMARK SMILES IDX 57 56 72 57 92 58 55 59 56 60 71 62 93 63 58 64 41 65 42 66
REMARK SMILES IDX 51 67 43 68 44 69 50 70 52 71 45 72 46 73 47 74 48 75 49 76
REMARK SMILES IDX 75 77 76 78 85 79 77 80 78 81 84 82 86 83 79 84 80 85 81 86
REMARK SMILES IDX 82 87 83 88 59 89 60 90 69 91 61 92 62 93 68 94 70 95 63 96
REMARK SMILES IDX 64 97 65 98 66 99 67 100
REMARK H PARENT 6 12 91 50 57 61
REMARK Flexibility Score: inf
ROOT
ATOM      1  C   UNL A   1      36.949  30.749  28.841  1.00  0.00     0.188 C 
ENDROOT
BRANCH   1   2
ATOM      2  O   UNL A   1      37.438  29.951  29.921  1.00  0.00    -0.376 OA
BRANCH   2   3
ATOM      3  C   UNL A   1      38.547  29.118  29.608  1.00  0.00     0.202 C 
BRANCH   3   4
ATOM      4  C   UNL A   1      39.788  29.901  29.213  1.00  0.00     0.261 C 
BRANCH   4   5
ATOM      5  O   UNL A   1      41.007  29.275  29.637  1.00  0.00    -0.463 OA
BRANCH   5   6
ATOM      6  C   UNL A   1      41.404  28.158  28.978  1.00  0.00     0.305 C 
ATOM      7  O   UNL A   1      41.079  27.043  29.377  1.00  0.00    -0.252 OA
BRANCH   6   8
ATOM      8  C   UNL A   1      42.440  28.328  27.884  1.00  0.00     0.124 C 
BRANCH   8   9
ATOM      9  C   UNL A   1      43.899  28.250  28.319  1.00  0.00     0.033 C 
BRANCH   9  10
ATOM     10  C   UNL A   1      44.457  26.875  28.694  1.00  0.00     0.113 C 
BRANCH  10  11
ATOM     11  N   UNL A   1      45.220  26.250  27.633  1.00  0.00    -0.384 N 
ATOM     12  H   UNL A   1      44.720  25.993  26.824  1.00  0.00     0.160 HD
BRANCH  11  13
ATOM     13  C   UNL A   1      46.587  25.973  27.638  1.00  0.00     0.048 A 
ATOM     14  C   UNL A   1      47.144  25.741  28.920  1.00  0.00     0.027 A 
ATOM     15  C   UNL A   1      47.452  25.800  26.529  1.00  0.00     0.036 A 
ATOM     16  C   UNL A   1      48.483  25.379  29.112  1.00  0.00     0.002 A 
ATOM     17  C   UNL A   1      48.808  25.457  26.740  1.00  0.00     0.017 A 
ATOM     18  C   UNL A   1      49.320  25.248  28.018  1.00  0.00     0.001 A 
BRANCH  15  19
ATOM     19  S   UNL A   1      47.007  25.911  24.791  1.00  0.00    -0.053 SA
BRANCH  19  20
ATOM     20  C   UNL A   1      47.662  27.537  24.353  1.00  0.00     0.405 C 
ATOM     21  F   UNL A   1      48.086  27.519  23.061  1.00  0.00    -0.198 F 
ATOM     22  F   UNL A   1      46.734  28.521  24.436  1.00  0.00    -0.198 F 
ENDBRANCH  19  20
ENDBRANCH  15  19
ENDBRANCH  11  13
ENDBRANCH  10  11
ENDBRANCH   9  10
ENDBRANCH   8   9
ENDBRANCH   6   8
ENDBRANCH   5   6
ENDBRANCH   4   5
ENDBRANCH   3   4
ENDBRANCH   2   3
ENDBRANCH   1   2
BRANCH   1  23
ATOM     23  C   UNL A   1      36.905  32.261  29.085  1.00  0.00     0.188 C 
BRANCH  23  24
ATOM     24  O   UNL A   1      35.639  32.904  29.224  1.00  0.00    -0.377 OA
BRANCH  24  25
ATOM     25  C   UNL A   1      35.280  33.459  30.482  1.00  0.00     0.188 C 
BRANCH  25  26
ATOM     26  C   UNL A   1      34.199  34.539  30.499  1.00  0.00     0.188 C 
BRANCH  26  27
ATOM     27  O   UNL A   1      34.289  35.427  31.609  1.00  0.00    -0.376 OA
BRANCH  27  28
ATOM     28  C   UNL A   1      33.854  34.846  32.836  1.00  0.00     0.202 C 
BRANCH  28  29
ATOM     29  C   UNL A   1      34.922  34.808  33.942  1.00  0.00     0.261 C 
BRANCH  29  30
ATOM     30  O   UNL A   1      35.257  33.518  34.476  1.00  0.00    -0.460 OA
BRANCH  30  31
ATOM     31  C   UNL A   1      36.270  33.437  35.372  1.00  0.00     0.338 C 
ATOM     32  O   UNL A   1      36.192  33.605  36.567  1.00  0.00    -0.246 OA
BRANCH  31  33
ATOM     33  C   UNL A   1      37.486  32.976  34.650  1.00  0.00     0.060 A 
ATOM     34  C   UNL A   1      38.752  33.319  35.145  1.00  0.00     0.016 A 
ATOM     35  C   UNL A   1      37.376  32.217  33.483  1.00  0.00     0.016 A 
ATOM     36  C   UNL A   1      39.910  32.888  34.485  1.00  0.00     0.010 A 
ATOM     37  C   UNL A   1      38.530  31.826  32.799  1.00  0.00     0.010 A 
ATOM     38  C   UNL A   1      39.803  32.173  33.285  1.00  0.00    -0.014 A 
BRANCH  38  39
ATOM     39  C   UNL A   1      40.977  32.007  32.389  1.00  0.00     0.031 A 
ATOM     40  C   UNL A   1      41.858  30.810  32.617  1.00  0.00     0.074 A 
ATOM     41  C   UNL A   1      41.306  32.919  31.458  1.00  0.00     0.049 A 
ATOM     42  N   UNL A   1      43.024  30.522  32.101  1.00  0.00    -0.248 NA
ATOM     43  C   UNL A   1      41.356  29.811  33.574  1.00  0.00     0.031 C 
ATOM     44  C   UNL A   1      40.522  34.099  31.111  1.00  0.00     0.029 A 
ATOM     45  N   UNL A   1      42.419  33.004  30.653  1.00  0.00    -0.354 N 
ATOM     46  C   UNL A   1      43.404  29.321  32.687  1.00  0.00     0.074 A 
ATOM     47  C   UNL A   1      42.351  28.941  33.604  1.00  0.00     0.031 C 
ATOM     48  C   UNL A   1      41.196  34.815  30.193  1.00  0.00     0.029 A 
ATOM     49  C   UNL A   1      42.478  34.164  29.918  1.00  0.00     0.049 A 
ATOM     50  H   UNL A   1      43.108  32.300  30.609  1.00  0.00     0.167 HD
ATOM     51  C   UNL A   1      44.534  28.601  32.490  1.00  0.00     0.037 A 
ATOM     52  C   UNL A   1      43.470  34.662  29.149  1.00  0.00     0.037 A 
ATOM     53  C   UNL A   1      45.593  28.997  31.603  1.00  0.00     0.049 A 
ATOM     54  C   UNL A   1      44.751  33.881  28.984  1.00  0.00     0.074 A 
ATOM     55  C   UNL A   1      46.774  28.334  31.324  1.00  0.00     0.029 A 
ATOM     56  N   UNL A   1      45.609  30.174  30.868  1.00  0.00    -0.354 N 
ATOM     57  N   UNL A   1      45.092  32.733  29.520  1.00  0.00    -0.248 NA
ATOM     58  C   UNL A   1      45.784  34.463  28.113  1.00  0.00     0.031 C 
ATOM     59  C   UNL A   1      47.529  29.136  30.462  1.00  0.00     0.029 A 
ATOM     60  C   UNL A   1      46.791  30.270  30.154  1.00  0.00     0.049 A 
ATOM     61  H   UNL A   1      44.887  30.843  30.856  1.00  0.00     0.167 HD
ATOM     62  C   UNL A   1      46.361  32.440  29.029  1.00  0.00     0.074 A 
ATOM     63  C   UNL A   1      46.732  33.533  28.155  1.00  0.00     0.031 C 
ATOM     64  C   UNL A   1      47.143  31.359  29.274  1.00  0.00     0.037 A 
BRANCH  51  65
ATOM     65  C   UNL A   1      44.695  27.349  33.309  1.00  0.00     0.058 A 
ATOM     66  C   UNL A   1      45.314  27.360  34.569  1.00  0.00     0.135 A 
ATOM     67  C   UNL A   1      44.260  26.114  32.803  1.00  0.00     0.135 A 
ATOM     68  F   UNL A   1      45.768  28.512  35.090  1.00  0.00    -0.206 F 
ATOM     69  C   UNL A   1      45.544  26.184  35.275  1.00  0.00     0.059 A 
ATOM     70  C   UNL A   1      44.451  24.930  33.506  1.00  0.00     0.059 A 
ATOM     71  F   UNL A   1      43.664  26.046  31.602  1.00  0.00    -0.206 F 
ATOM     72  C   UNL A   1      45.117  24.972  34.729  1.00  0.00     0.060 A 
BRANCH  72  73
ATOM     73  S   UNL A   1      45.467  23.449  35.632  1.00  0.00     0.124 S 
ATOM     74  O   UNL A   1      44.621  23.609  36.811  1.00  0.00    -0.237 OA
ATOM     75  O   UNL A   1      45.047  22.420  34.685  1.00  0.00    -0.237 OA
ATOM     76  O   UNL A   1      46.904  23.522  35.876  1.00  0.00    -0.744 OA
ENDBRANCH  72  73
ENDBRANCH  51  65
BRANCH  52  77
ATOM     77  C   UNL A   1      43.292  35.987  28.492  1.00  0.00     0.058 A 
ATOM     78  C   UNL A   1      42.756  36.092  27.200  1.00  0.00     0.135 A 
ATOM     79  C   UNL A   1      43.611  37.177  29.165  1.00  0.00     0.135 A 
ATOM     80  F   UNL A   1      42.456  34.984  26.507  1.00  0.00    -0.206 F 
ATOM     81  C   UNL A   1      42.527  37.329  26.604  1.00  0.00     0.059 A 
ATOM     82  C   UNL A   1      43.370  38.426  28.599  1.00  0.00     0.059 A 
ATOM     83  F   UNL A   1      44.127  37.132  30.403  1.00  0.00    -0.206 F 
ATOM     84  C   UNL A   1      42.822  38.491  27.318  1.00  0.00     0.060 A 
BRANCH  84  85
ATOM     85  S   UNL A   1      42.412  40.088  26.580  1.00  0.00     0.124 S 
ATOM     86  O   UNL A   1      41.108  39.816  25.989  1.00  0.00    -0.237 OA
ATOM     87  O   UNL A   1      42.414  40.969  27.745  1.00  0.00    -0.237 OA
ATOM     88  O   UNL A   1      43.501  40.313  25.635  1.00  0.00    -0.744 OA
ENDBRANCH  84  85
ENDBRANCH  52  77
BRANCH  64  89
ATOM     89  C   UNL A   1      48.462  31.256  28.555  1.00  0.00     0.058 A 
ATOM     90  C   UNL A   1      48.609  30.510  27.375  1.00  0.00     0.135 A 
ATOM     91  C   UNL A   1      49.564  32.005  28.998  1.00  0.00     0.135 A 
ATOM     92  F   UNL A   1      47.591  29.772  26.908  1.00  0.00    -0.206 F 
ATOM     93  C   UNL A   1      49.807  30.511  26.662  1.00  0.00     0.059 A 
ATOM     94  C   UNL A   1      50.760  32.040  28.288  1.00  0.00     0.059 A 
ATOM     95  F   UNL A   1      49.473  32.744  30.116  1.00  0.00    -0.206 F 
ATOM     96  C   UNL A   1      50.873  31.286  27.121  1.00  0.00     0.060 A 
BRANCH  96  97
ATOM     97  S   UNL A   1      52.396  31.332  26.151  1.00  0.00     0.124 S 
ATOM     98  O   UNL A   1      51.876  31.381  24.788  1.00  0.00    -0.237 OA
ATOM     99  O   UNL A   1      53.034  32.554  26.631  1.00  0.00    -0.237 OA
ATOM    100  O   UNL A   1      53.073  30.092  26.519  1.00  0.00    -0.744 OA
ENDBRANCH  96  97
ENDBRANCH  64  89
ENDBRANCH  38  39
ENDBRANCH  31  33
ENDBRANCH  30  31
ENDBRANCH  29  30
ENDBRANCH  28  29
ENDBRANCH  27  28
ENDBRANCH  26  27
ENDBRANCH  25  26
ENDBRANCH  24  25
ENDBRANCH  23  24
ENDBRANCH   1  23
TORSDOF 29
ENDMDL
