MODEL 1
REMARK VINA RESULT:      -8.1      0.000      0.000
REMARK SMILES CC(C)(Cn1ccc2ccc([N+](=O)[O-])cc21)C(=O)OCCOCCOCCOCCOC(=O)c1ccc(-c2c3nc(c(-c4c(F)cc(S(=O)(=O)[O-])cc4F)c4ccc([nH]4)c(-c4c(F)cc(S(=O)(=O)[O-])cc4F)c4nc(c(-c5c(F)cc(S(=O)(=O)[O-])cc5F)c5ccc2[nH]5)C=C4)C=C3)cc1
REMARK SMILES IDX 25 1 24 2 23 3 22 4 21 5 20 6 19 7 17 8 18 9 2 10 1 11 3 12
REMARK SMILES IDX 4 13 5 14 6 15 16 16 7 17 8 18 15 19 9 20 11 21 10 22 12 23
REMARK SMILES IDX 13 24 14 25 26 26 27 27 28 28 29 29 30 30 31 31 32 32 33 33
REMARK SMILES IDX 34 34 35 35 99 36 36 37 98 38 37 39 38 40 39 41 92 42 40 43
REMARK SMILES IDX 97 44 91 45 93 46 41 47 96 48 90 49 89 50 42 52 76 53 55 54
REMARK SMILES IDX 75 55 56 56 59 57 74 58 94 59 57 60 58 61 73 63 95 64 60 65
REMARK SMILES IDX 43 66 44 67 53 68 45 69 46 70 52 71 54 72 47 73 48 74 49 75
REMARK SMILES IDX 50 76 51 77 77 78 78 79 87 80 79 81 80 82 86 83 88 84 81 85
REMARK SMILES IDX 82 86 83 87 84 88 85 89 61 90 62 91 71 92 63 93 64 94 70 95
REMARK SMILES IDX 72 96 65 97 66 98 67 99 68 100 69 101
REMARK H PARENT 93 51 59 62
REMARK Flexibility Score: inf
ROOT
ATOM      1  O   UNL A   1      50.168  36.054  28.397  1.00  0.00    -0.377 OA
ENDROOT
BRANCH   1   2
ATOM      2  C   UNL A   1      49.681  35.015  29.179  1.00  0.00     0.188 C 
BRANCH   2   3
ATOM      3  C   UNL A   1      48.808  33.901  28.601  1.00  0.00     0.188 C 
BRANCH   3   4
ATOM      4  O   UNL A   1      48.299  34.091  27.291  1.00  0.00    -0.376 OA
BRANCH   4   5
ATOM      5  C   UNL A   1      46.944  33.709  27.104  1.00  0.00     0.202 C 
BRANCH   5   6
ATOM      6  C   UNL A   1      45.931  34.231  28.187  1.00  0.00     0.261 C 
BRANCH   6   7
ATOM      7  O   UNL A   1      44.487  34.388  27.863  1.00  0.00    -0.463 OA
BRANCH   7   8
ATOM      8  C   UNL A   1      43.795  35.419  28.435  1.00  0.00     0.313 C 
ATOM      9  O   UNL A   1      43.988  35.738  29.605  1.00  0.00    -0.252 OA
BRANCH   8  10
ATOM     10  C   UNL A   1      42.681  36.204  27.501  1.00  0.00     0.080 C 
ATOM     11  C   UNL A   1      41.345  35.810  28.143  1.00  0.00     0.025 C 
ATOM     12  C   UNL A   1      42.892  35.424  26.173  1.00  0.00     0.025 C 
BRANCH  10  13
ATOM     13  C   UNL A   1      42.474  37.831  27.038  1.00  0.00     0.140 C 
BRANCH  13  14
ATOM     14  N   UNL A   1      42.753  39.156  27.746  1.00  0.00    -0.346 N 
ATOM     15  C   UNL A   1      42.221  39.681  28.913  1.00  0.00     0.087 A 
ATOM     16  C   UNL A   1      43.670  40.146  27.255  1.00  0.00     0.055 A 
ATOM     17  C   UNL A   1      42.884  40.837  29.399  1.00  0.00     0.028 A 
ATOM     18  C   UNL A   1      43.972  41.242  28.533  1.00  0.00     0.000 A 
ATOM     19  C   UNL A   1      44.819  39.796  26.112  1.00  0.00     0.112 A 
ATOM     20  C   UNL A   1      45.609  42.056  28.752  1.00  0.00     0.017 A 
ATOM     21  C   UNL A   1      46.439  40.441  26.137  1.00  0.00     0.271 A 
ATOM     22  C   UNL A   1      46.946  41.557  27.576  1.00  0.00     0.086 A 
BRANCH  21  23
ATOM     23  N   UNL A   1      46.353  40.644  24.523  1.00  0.00     0.062 N 
ATOM     24  O   UNL A   1      45.766  41.675  24.155  1.00  0.00    -0.258 OA
ATOM     25  O   UNL A   1      47.008  39.958  23.724  1.00  0.00    -0.258 OA
ENDBRANCH  21  23
ENDBRANCH  13  14
ENDBRANCH  10  13
ENDBRANCH   8  10
ENDBRANCH   7   8
ENDBRANCH   6   7
ENDBRANCH   5   6
ENDBRANCH   4   5
ENDBRANCH   3   4
ENDBRANCH   2   3
ENDBRANCH   1   2
BRANCH   1  26
ATOM     26  C   UNL A   1      49.590  37.291  28.677  1.00  0.00     0.188 C 
BRANCH  26  27
ATOM     27  C   UNL A   1      48.107  37.489  28.359  1.00  0.00     0.188 C 
BRANCH  27  28
ATOM     28  O   UNL A   1      47.060  37.354  29.299  1.00  0.00    -0.376 OA
BRANCH  28  29
ATOM     29  C   UNL A   1      46.466  38.288  30.372  1.00  0.00     0.202 C 
BRANCH  29  30
ATOM     30  C   UNL A   1      47.224  40.132  31.295  1.00  0.00     0.261 C 
BRANCH  30  31
ATOM     31  O   UNL A   1      47.013  40.323  33.158  1.00  0.00    -0.460 OA
BRANCH  31  32
ATOM     32  C   UNL A   1      46.337  39.664  34.385  1.00  0.00     0.338 C 
ATOM     33  O   UNL A   1      46.790  39.987  35.487  1.00  0.00    -0.246 OA
BRANCH  32  34
ATOM     34  C   UNL A   1      44.949  38.719  34.487  1.00  0.00     0.060 A 
ATOM     35  C   UNL A   1      44.360  38.273  35.683  1.00  0.00     0.016 A 
ATOM     36  C   UNL A   1      44.160  38.332  33.378  1.00  0.00     0.016 A 
ATOM     37  C   UNL A   1      43.451  37.157  35.744  1.00  0.00     0.010 A 
ATOM     38  C   UNL A   1      43.128  37.288  33.436  1.00  0.00     0.010 A 
ATOM     39  C   UNL A   1      42.859  36.571  34.604  1.00  0.00    -0.014 A 
BRANCH  39  40
ATOM     40  C   UNL A   1      41.860  35.404  34.771  1.00  0.00     0.031 A 
ATOM     41  C   UNL A   1      42.305  34.232  33.933  1.00  0.00     0.074 A 
ATOM     42  C   UNL A   1      40.736  35.230  35.554  1.00  0.00     0.049 A 
ATOM     43  N   UNL A   1      41.702  33.661  32.938  1.00  0.00    -0.248 NA
ATOM     44  C   UNL A   1      43.707  33.806  34.101  1.00  0.00     0.031 C 
ATOM     45  C   UNL A   1      40.130  36.166  36.509  1.00  0.00     0.029 A 
ATOM     46  N   UNL A   1      39.883  34.126  35.712  1.00  0.00    -0.354 N 
ATOM     47  C   UNL A   1      42.575  32.665  32.497  1.00  0.00     0.074 A 
ATOM     48  C   UNL A   1      43.851  32.939  33.102  1.00  0.00     0.031 C 
ATOM     49  C   UNL A   1      39.212  35.547  37.291  1.00  0.00     0.029 A 
ATOM     50  C   UNL A   1      39.061  34.169  36.872  1.00  0.00     0.049 A 
ATOM     51  H   UNL A   1      39.855  33.379  35.071  1.00  0.00     0.167 HD
ATOM     52  C   UNL A   1      42.150  31.532  31.873  1.00  0.00     0.037 A 
ATOM     53  C   UNL A   1      38.302  33.187  37.467  1.00  0.00     0.037 A 
ATOM     54  C   UNL A   1      40.834  31.679  31.325  1.00  0.00     0.049 A 
ATOM     55  C   UNL A   1      38.031  32.151  36.443  1.00  0.00     0.074 A 
ATOM     56  C   UNL A   1      40.272  32.450  30.329  1.00  0.00     0.029 A 
ATOM     57  N   UNL A   1      39.787  31.204  32.072  1.00  0.00    -0.354 N 
ATOM     58  N   UNL A   1      37.261  32.355  35.413  1.00  0.00    -0.248 NA
ATOM     59  C   UNL A   1      39.045  31.121  36.299  1.00  0.00     0.031 C 
ATOM     60  C   UNL A   1      38.979  32.795  30.814  1.00  0.00     0.029 A 
ATOM     61  C   UNL A   1      38.781  32.134  32.025  1.00  0.00     0.049 A 
ATOM     62  H   UNL A   1      39.763  30.347  32.555  1.00  0.00     0.167 HD
ATOM     63  C   UNL A   1      37.994  31.851  34.352  1.00  0.00     0.074 A 
ATOM     64  C   UNL A   1      39.095  31.108  34.967  1.00  0.00     0.031 C 
ATOM     65  C   UNL A   1      37.815  32.310  33.082  1.00  0.00     0.037 A 
BRANCH  52  66
ATOM     66  C   UNL A   1      42.793  30.189  32.111  1.00  0.00     0.058 A 
ATOM     67  C   UNL A   1      42.638  29.527  33.342  1.00  0.00     0.135 A 
ATOM     68  C   UNL A   1      43.777  29.654  31.247  1.00  0.00     0.135 A 
ATOM     69  F   UNL A   1      41.767  29.981  34.256  1.00  0.00    -0.206 F 
ATOM     70  C   UNL A   1      43.412  28.415  33.689  1.00  0.00     0.059 A 
ATOM     71  C   UNL A   1      44.518  28.521  31.548  1.00  0.00     0.059 A 
ATOM     72  F   UNL A   1      44.124  30.267  30.107  1.00  0.00    -0.206 F 
ATOM     73  C   UNL A   1      44.346  27.918  32.781  1.00  0.00     0.060 A 
BRANCH  73  74
ATOM     74  S   UNL A   1      45.363  26.502  33.239  1.00  0.00     0.124 S 
ATOM     75  O   UNL A   1      45.624  26.767  34.648  1.00  0.00    -0.237 OA
ATOM     76  O   UNL A   1      44.465  25.387  32.952  1.00  0.00    -0.237 OA
ATOM     77  O   UNL A   1      46.516  26.614  32.352  1.00  0.00    -0.744 OA
ENDBRANCH  73  74
ENDBRANCH  52  66
BRANCH  53  78
ATOM     78  C   UNL A   1      38.177  32.837  38.937  1.00  0.00     0.058 A 
ATOM     79  C   UNL A   1      39.273  32.871  39.841  1.00  0.00     0.135 A 
ATOM     80  C   UNL A   1      36.912  32.784  39.548  1.00  0.00     0.135 A 
ATOM     81  F   UNL A   1      40.532  32.920  39.377  1.00  0.00    -0.206 F 
ATOM     82  C   UNL A   1      39.110  32.932  41.241  1.00  0.00     0.059 A 
ATOM     83  C   UNL A   1      36.726  32.843  40.932  1.00  0.00     0.059 A 
ATOM     84  F   UNL A   1      35.795  32.772  38.809  1.00  0.00    -0.206 F 
ATOM     85  C   UNL A   1      37.824  32.954  41.776  1.00  0.00     0.060 A 
BRANCH  85  86
ATOM     86  S   UNL A   1      37.565  33.267  43.546  1.00  0.00     0.124 S 
ATOM     87  O   UNL A   1      36.190  32.820  43.744  1.00  0.00    -0.237 OA
ATOM     88  O   UNL A   1      38.598  32.441  44.162  1.00  0.00    -0.237 OA
ATOM     89  O   UNL A   1      37.774  34.709  43.669  1.00  0.00    -0.744 OA
ENDBRANCH  85  86
ENDBRANCH  53  78
BRANCH  65  90
ATOM     90  C   UNL A   1      36.617  33.172  32.784  1.00  0.00     0.058 A 
ATOM     91  C   UNL A   1      36.554  34.568  32.950  1.00  0.00     0.135 A 
ATOM     92  C   UNL A   1      35.516  32.552  32.173  1.00  0.00     0.135 A 
ATOM     93  F   UNL A   1      37.602  35.256  33.433  1.00  0.00    -0.206 F 
ATOM     94  C   UNL A   1      35.425  35.297  32.564  1.00  0.00     0.059 A 
ATOM     95  C   UNL A   1      34.404  33.264  31.740  1.00  0.00     0.059 A 
ATOM     96  F   UNL A   1      35.533  31.228  31.946  1.00  0.00    -0.206 F 
ATOM     97  C   UNL A   1      34.359  34.638  31.951  1.00  0.00     0.060 A 
BRANCH  97  98
ATOM     98  S   UNL A   1      32.917  35.587  31.418  1.00  0.00     0.124 S 
ATOM     99  O   UNL A   1      31.905  35.174  32.383  1.00  0.00    -0.237 OA
ATOM    100  O   UNL A   1      33.390  36.963  31.538  1.00  0.00    -0.237 OA
ATOM    101  O   UNL A   1      32.694  35.129  30.047  1.00  0.00    -0.744 OA
ENDBRANCH  97  98
ENDBRANCH  65  90
ENDBRANCH  39  40
ENDBRANCH  32  34
ENDBRANCH  31  32
ENDBRANCH  30  31
ENDBRANCH  29  30
ENDBRANCH  28  29
ENDBRANCH  27  28
ENDBRANCH  26  27
ENDBRANCH   1  26
TORSDOF 26
ENDMDL
MODEL 2
REMARK VINA RESULT:      -7.7      6.289     12.100
REMARK SMILES CC(C)(Cn1ccc2ccc([N+](=O)[O-])cc21)C(=O)OCCOCCOCCOCCOC(=O)c1ccc(-c2c3nc(c(-c4c(F)cc(S(=O)(=O)[O-])cc4F)c4ccc([nH]4)c(-c4c(F)cc(S(=O)(=O)[O-])cc4F)c4nc(c(-c5c(F)cc(S(=O)(=O)[O-])cc5F)c5ccc2[nH]5)C=C4)C=C3)cc1
REMARK SMILES IDX 25 1 24 2 23 3 22 4 21 5 20 6 19 7 17 8 18 9 2 10 1 11 3 12
REMARK SMILES IDX 4 13 5 14 6 15 16 16 7 17 8 18 15 19 9 20 11 21 10 22 12 23
REMARK SMILES IDX 13 24 14 25 26 26 27 27 28 28 29 29 30 30 31 31 32 32 33 33
REMARK SMILES IDX 34 34 35 35 99 36 36 37 98 38 37 39 38 40 39 41 92 42 40 43
REMARK SMILES IDX 97 44 91 45 93 46 41 47 96 48 90 49 89 50 42 52 76 53 55 54
REMARK SMILES IDX 75 55 56 56 59 57 74 58 94 59 57 60 58 61 73 63 95 64 60 65
REMARK SMILES IDX 43 66 44 67 53 68 45 69 46 70 52 71 54 72 47 73 48 74 49 75
REMARK SMILES IDX 50 76 51 77 77 78 78 79 87 80 79 81 80 82 86 83 88 84 81 85
REMARK SMILES IDX 82 86 83 87 84 88 85 89 61 90 62 91 71 92 63 93 64 94 70 95
REMARK SMILES IDX 72 96 65 97 66 98 67 99 68 100 69 101
REMARK H PARENT 93 51 59 62
REMARK Flexibility Score: inf
ROOT
ATOM      1  O   UNL A   1      42.057  25.258  25.871  1.00  0.00    -0.377 OA
ENDROOT
BRANCH   1   2
ATOM      2  C   UNL A   1      41.454  25.571  27.083  1.00  0.00     0.188 C 
BRANCH   2   3
ATOM      3  C   UNL A   1      41.171  24.511  28.148  1.00  0.00     0.188 C 
BRANCH   3   4
ATOM      4  O   UNL A   1      40.241  23.492  27.818  1.00  0.00    -0.376 OA
BRANCH   4   5
ATOM      5  C   UNL A   1      39.971  23.342  26.432  1.00  0.00     0.202 C 
BRANCH   5   6
ATOM      6  C   UNL A   1      38.452  23.369  26.025  1.00  0.00     0.261 C 
BRANCH   6   7
ATOM      7  O   UNL A   1      37.903  22.363  25.076  1.00  0.00    -0.463 OA
BRANCH   7   8
ATOM      8  C   UNL A   1      36.723  22.634  24.442  1.00  0.00     0.313 C 
ATOM      9  O   UNL A   1      36.683  23.402  23.484  1.00  0.00    -0.252 OA
BRANCH   8  10
ATOM     10  C   UNL A   1      35.357  21.908  25.022  1.00  0.00     0.080 C 
ATOM     11  C   UNL A   1      35.156  22.580  26.386  1.00  0.00     0.025 C 
ATOM     12  C   UNL A   1      35.913  20.468  25.206  1.00  0.00     0.025 C 
BRANCH  10  13
ATOM     13  C   UNL A   1      33.782  21.706  24.403  1.00  0.00     0.140 C 
BRANCH  13  14
ATOM     14  N   UNL A   1      32.416  22.220  24.853  1.00  0.00    -0.346 N 
ATOM     15  C   UNL A   1      31.548  21.738  25.821  1.00  0.00     0.087 A 
ATOM     16  C   UNL A   1      31.763  23.361  24.276  1.00  0.00     0.055 A 
ATOM     17  C   UNL A   1      30.468  22.605  26.131  1.00  0.00     0.028 A 
ATOM     18  C   UNL A   1      30.492  23.810  25.329  1.00  0.00     0.000 A 
ATOM     19  C   UNL A   1      32.580  24.480  23.365  1.00  0.00     0.112 A 
ATOM     20  C   UNL A   1      29.991  25.567  25.560  1.00  0.00     0.017 A 
ATOM     21  C   UNL A   1      32.281  26.196  23.440  1.00  0.00     0.271 A 
ATOM     22  C   UNL A   1      30.996  26.838  24.668  1.00  0.00     0.086 A 
BRANCH  21  23
ATOM     23  N   UNL A   1      32.431  26.264  21.819  1.00  0.00     0.062 N 
ATOM     24  O   UNL A   1      31.417  26.653  21.215  1.00  0.00    -0.258 OA
ATOM     25  O   UNL A   1      33.524  26.160  21.240  1.00  0.00    -0.258 OA
ENDBRANCH  21  23
ENDBRANCH  13  14
ENDBRANCH  10  13
ENDBRANCH   8  10
ENDBRANCH   7   8
ENDBRANCH   6   7
ENDBRANCH   5   6
ENDBRANCH   4   5
ENDBRANCH   3   4
ENDBRANCH   2   3
ENDBRANCH   1   2
BRANCH   1  26
ATOM     26  C   UNL A   1      43.360  25.739  25.749  1.00  0.00     0.188 C 
BRANCH  26  27
ATOM     27  C   UNL A   1      43.742  27.009  26.510  1.00  0.00     0.188 C 
BRANCH  27  28
ATOM     28  O   UNL A   1      44.902  27.150  27.305  1.00  0.00    -0.376 OA
BRANCH  28  29
ATOM     29  C   UNL A   1      45.406  26.455  28.586  1.00  0.00     0.202 C 
BRANCH  29  30
ATOM     30  C   UNL A   1      44.597  24.788  29.767  1.00  0.00     0.261 C 
BRANCH  30  31
ATOM     31  O   UNL A   1      45.054  24.714  31.593  1.00  0.00    -0.460 OA
BRANCH  31  32
ATOM     32  C   UNL A   1      44.576  25.176  32.992  1.00  0.00     0.338 C 
ATOM     33  O   UNL A   1      45.113  24.620  33.955  1.00  0.00    -0.246 OA
BRANCH  32  34
ATOM     34  C   UNL A   1      43.577  26.454  33.435  1.00  0.00     0.060 A 
ATOM     35  C   UNL A   1      42.858  27.266  32.542  1.00  0.00     0.016 A 
ATOM     36  C   UNL A   1      43.275  26.808  34.772  1.00  0.00     0.016 A 
ATOM     37  C   UNL A   1      42.359  28.572  32.893  1.00  0.00     0.010 A 
ATOM     38  C   UNL A   1      42.643  28.077  35.156  1.00  0.00     0.010 A 
ATOM     39  C   UNL A   1      42.307  29.056  34.218  1.00  0.00    -0.014 A 
BRANCH  39  40
ATOM     40  C   UNL A   1      41.715  30.454  34.503  1.00  0.00     0.031 A 
ATOM     41  C   UNL A   1      42.826  31.419  34.832  1.00  0.00     0.074 A 
ATOM     42  C   UNL A   1      40.432  30.963  34.450  1.00  0.00     0.049 A 
ATOM     43  N   UNL A   1      43.043  32.076  35.928  1.00  0.00    -0.248 NA
ATOM     44  C   UNL A   1      43.952  31.464  33.880  1.00  0.00     0.031 C 
ATOM     45  C   UNL A   1      39.187  30.274  34.088  1.00  0.00     0.029 A 
ATOM     46  N   UNL A   1      39.943  32.261  34.670  1.00  0.00    -0.354 N 
ATOM     47  C   UNL A   1      44.229  32.779  35.711  1.00  0.00     0.074 A 
ATOM     48  C   UNL A   1      44.837  32.207  34.539  1.00  0.00     0.031 C 
ATOM     49  C   UNL A   1      38.180  31.156  33.876  1.00  0.00     0.029 A 
ATOM     50  C   UNL A   1      38.637  32.500  34.161  1.00  0.00     0.049 A 
ATOM     51  H   UNL A   1      40.464  32.953  35.138  1.00  0.00     0.167 HD
ATOM     52  C   UNL A   1      44.522  33.949  36.343  1.00  0.00     0.037 A 
ATOM     53  C   UNL A   1      37.951  33.680  33.979  1.00  0.00     0.037 A 
ATOM     54  C   UNL A   1      43.745  34.128  37.533  1.00  0.00     0.049 A 
ATOM     55  C   UNL A   1      38.563  34.694  34.868  1.00  0.00     0.074 A 
ATOM     56  C   UNL A   1      43.659  33.483  38.749  1.00  0.00     0.029 A 
ATOM     57  N   UNL A   1      42.619  34.904  37.436  1.00  0.00    -0.354 N 
ATOM     58  N   UNL A   1      38.473  34.648  36.166  1.00  0.00    -0.248 NA
ATOM     59  C   UNL A   1      39.705  35.407  34.324  1.00  0.00     0.031 C 
ATOM     60  C   UNL A   1      42.278  33.522  39.090  1.00  0.00     0.029 A 
ATOM     61  C   UNL A   1      41.614  34.275  38.124  1.00  0.00     0.049 A 
ATOM     62  H   UNL A   1      42.547  35.761  36.958  1.00  0.00     0.167 HD
ATOM     63  C   UNL A   1      39.769  34.881  36.593  1.00  0.00     0.074 A 
ATOM     64  C   UNL A   1      40.487  35.335  35.401  1.00  0.00     0.031 C 
ATOM     65  C   UNL A   1      40.218  34.419  37.793  1.00  0.00     0.037 A 
BRANCH  52  66
ATOM     66  C   UNL A   1      45.236  35.083  35.651  1.00  0.00     0.058 A 
ATOM     67  C   UNL A   1      44.658  35.725  34.541  1.00  0.00     0.135 A 
ATOM     68  C   UNL A   1      46.597  35.383  35.893  1.00  0.00     0.135 A 
ATOM     69  F   UNL A   1      43.387  35.474  34.193  1.00  0.00    -0.206 F 
ATOM     70  C   UNL A   1      45.386  36.600  33.728  1.00  0.00     0.059 A 
ATOM     71  C   UNL A   1      47.323  36.288  35.132  1.00  0.00     0.059 A 
ATOM     72  F   UNL A   1      47.308  34.738  36.828  1.00  0.00    -0.206 F 
ATOM     73  C   UNL A   1      46.717  36.877  34.036  1.00  0.00     0.060 A 
BRANCH  73  74
ATOM     74  S   UNL A   1      47.663  37.982  32.972  1.00  0.00     0.124 S 
ATOM     75  O   UNL A   1      48.910  38.113  33.714  1.00  0.00    -0.237 OA
ATOM     76  O   UNL A   1      47.733  37.212  31.733  1.00  0.00    -0.237 OA
ATOM     77  O   UNL A   1      46.835  39.182  32.910  1.00  0.00    -0.744 OA
ENDBRANCH  73  74
ENDBRANCH  52  66
BRANCH  53  78
ATOM     78  C   UNL A   1      37.124  34.128  32.790  1.00  0.00     0.058 A 
ATOM     79  C   UNL A   1      37.507  33.894  31.442  1.00  0.00     0.135 A 
ATOM     80  C   UNL A   1      35.779  34.501  32.962  1.00  0.00     0.135 A 
ATOM     81  F   UNL A   1      38.768  33.534  31.150  1.00  0.00    -0.206 F 
ATOM     82  C   UNL A   1      36.598  33.948  30.365  1.00  0.00     0.059 A 
ATOM     83  C   UNL A   1      34.860  34.561  31.911  1.00  0.00     0.059 A 
ATOM     84  F   UNL A   1      35.283  34.727  34.186  1.00  0.00    -0.206 F 
ATOM     85  C   UNL A   1      35.261  34.248  30.619  1.00  0.00     0.060 A 
BRANCH  85  86
ATOM     86  S   UNL A   1      34.016  34.099  29.305  1.00  0.00     0.124 S 
ATOM     87  O   UNL A   1      32.882  34.828  29.866  1.00  0.00    -0.237 OA
ATOM     88  O   UNL A   1      34.682  34.732  28.172  1.00  0.00    -0.237 OA
ATOM     89  O   UNL A   1      33.826  32.655  29.181  1.00  0.00    -0.744 OA
ENDBRANCH  85  86
ENDBRANCH  53  78
BRANCH  65  90
ATOM     90  C   UNL A   1      39.216  33.893  38.788  1.00  0.00     0.058 A 
ATOM     91  C   UNL A   1      38.698  34.611  39.881  1.00  0.00     0.135 A 
ATOM     92  C   UNL A   1      38.659  32.629  38.531  1.00  0.00     0.135 A 
ATOM     93  F   UNL A   1      39.100  35.866  40.139  1.00  0.00    -0.206 F 
ATOM     94  C   UNL A   1      37.703  34.069  40.702  1.00  0.00     0.059 A 
ATOM     95  C   UNL A   1      37.639  32.094  39.307  1.00  0.00     0.059 A 
ATOM     96  F   UNL A   1      39.080  31.913  37.475  1.00  0.00    -0.206 F 
ATOM     97  C   UNL A   1      37.174  32.814  40.401  1.00  0.00     0.060 A 
BRANCH  97  98
ATOM     98  S   UNL A   1      35.862  32.132  41.440  1.00  0.00     0.124 S 
ATOM     99  O   UNL A   1      36.621  31.450  42.482  1.00  0.00    -0.237 OA
ATOM    100  O   UNL A   1      35.142  33.332  41.857  1.00  0.00    -0.237 OA
ATOM    101  O   UNL A   1      35.126  31.255  40.531  1.00  0.00    -0.744 OA
ENDBRANCH  97  98
ENDBRANCH  65  90
ENDBRANCH  39  40
ENDBRANCH  32  34
ENDBRANCH  31  32
ENDBRANCH  30  31
ENDBRANCH  29  30
ENDBRANCH  28  29
ENDBRANCH  27  28
ENDBRANCH  26  27
ENDBRANCH   1  26
TORSDOF 26
ENDMDL
MODEL 3
REMARK VINA RESULT:      -7.6      6.316     13.617
REMARK SMILES CC(C)(Cn1ccc2ccc([N+](=O)[O-])cc21)C(=O)OCCOCCOCCOCCOC(=O)c1ccc(-c2c3nc(c(-c4c(F)cc(S(=O)(=O)[O-])cc4F)c4ccc([nH]4)c(-c4c(F)cc(S(=O)(=O)[O-])cc4F)c4nc(c(-c5c(F)cc(S(=O)(=O)[O-])cc5F)c5ccc2[nH]5)C=C4)C=C3)cc1
REMARK SMILES IDX 25 1 24 2 23 3 22 4 21 5 20 6 19 7 17 8 18 9 2 10 1 11 3 12
REMARK SMILES IDX 4 13 5 14 6 15 16 16 7 17 8 18 15 19 9 20 11 21 10 22 12 23
REMARK SMILES IDX 13 24 14 25 26 26 27 27 28 28 29 29 30 30 31 31 32 32 33 33
REMARK SMILES IDX 34 34 35 35 99 36 36 37 98 38 37 39 38 40 39 41 92 42 40 43
REMARK SMILES IDX 97 44 91 45 93 46 41 47 96 48 90 49 89 50 42 52 76 53 55 54
REMARK SMILES IDX 75 55 56 56 59 57 74 58 94 59 57 60 58 61 73 63 95 64 60 65
REMARK SMILES IDX 43 66 44 67 53 68 45 69 46 70 52 71 54 72 47 73 48 74 49 75
REMARK SMILES IDX 50 76 51 77 77 78 78 79 87 80 79 81 80 82 86 83 88 84 81 85
REMARK SMILES IDX 82 86 83 87 84 88 85 89 61 90 62 91 71 92 63 93 64 94 70 95
REMARK SMILES IDX 72 96 65 97 66 98 67 99 68 100 69 101
REMARK H PARENT 93 51 59 62
REMARK Flexibility Score: inf
ROOT
ATOM      1  O   UNL A   1      35.026  21.935  26.204  1.00  0.00    -0.377 OA
ENDROOT
BRANCH   1   2
ATOM      2  C   UNL A   1      33.963  22.445  26.938  1.00  0.00     0.188 C 
BRANCH   2   3
ATOM      3  C   UNL A   1      32.574  22.641  26.329  1.00  0.00     0.188 C 
BRANCH   3   4
ATOM      4  O   UNL A   1      31.574  23.201  27.164  1.00  0.00    -0.376 OA
BRANCH   4   5
ATOM      5  C   UNL A   1      30.542  23.905  26.488  1.00  0.00     0.202 C 
BRANCH   5   6
ATOM      6  C   UNL A   1      30.745  25.459  26.362  1.00  0.00     0.261 C 
BRANCH   6   7
ATOM      7  O   UNL A   1      32.110  26.051  26.384  1.00  0.00    -0.463 OA
BRANCH   7   8
ATOM      8  C   UNL A   1      32.382  27.104  25.556  1.00  0.00     0.313 C 
ATOM      9  O   UNL A   1      32.242  27.004  24.339  1.00  0.00    -0.252 OA
BRANCH   8  10
ATOM     10  C   UNL A   1      32.921  28.504  26.248  1.00  0.00     0.080 C 
ATOM     11  C   UNL A   1      31.788  28.878  27.211  1.00  0.00     0.025 C 
ATOM     12  C   UNL A   1      32.886  29.418  24.991  1.00  0.00     0.025 C 
BRANCH  10  13
ATOM     13  C   UNL A   1      34.349  28.931  27.074  1.00  0.00     0.140 C 
BRANCH  13  14
ATOM     14  N   UNL A   1      34.940  30.273  27.501  1.00  0.00    -0.346 N 
ATOM     15  C   UNL A   1      34.321  31.485  27.765  1.00  0.00     0.087 A 
ATOM     16  C   UNL A   1      36.345  30.504  27.685  1.00  0.00     0.055 A 
ATOM     17  C   UNL A   1      35.160  32.460  28.363  1.00  0.00     0.028 A 
ATOM     18  C   UNL A   1      36.514  31.977  28.538  1.00  0.00     0.000 A 
ATOM     19  C   UNL A   1      37.429  29.262  27.862  1.00  0.00     0.112 A 
ATOM     20  C   UNL A   1      37.875  32.253  29.748  1.00  0.00     0.017 A 
ATOM     21  C   UNL A   1      38.780  29.303  28.963  1.00  0.00     0.271 A 
ATOM     22  C   UNL A   1      39.000  30.820  30.069  1.00  0.00     0.086 A 
BRANCH  21  23
ATOM     23  N   UNL A   1      39.698  28.593  27.820  1.00  0.00     0.062 N 
ATOM     24  O   UNL A   1      39.995  27.408  28.048  1.00  0.00    -0.258 OA
ATOM     25  O   UNL A   1      39.900  29.103  26.707  1.00  0.00    -0.258 OA
ENDBRANCH  21  23
ENDBRANCH  13  14
ENDBRANCH  10  13
ENDBRANCH   8  10
ENDBRANCH   7   8
ENDBRANCH   6   7
ENDBRANCH   5   6
ENDBRANCH   4   5
ENDBRANCH   3   4
ENDBRANCH   2   3
ENDBRANCH   1   2
BRANCH   1  26
ATOM     26  C   UNL A   1      35.758  22.906  25.521  1.00  0.00     0.188 C 
BRANCH  26  27
ATOM     27  C   UNL A   1      37.170  22.555  25.050  1.00  0.00     0.188 C 
BRANCH  27  28
ATOM     28  O   UNL A   1      37.958  21.510  25.585  1.00  0.00    -0.376 OA
BRANCH  28  29
ATOM     29  C   UNL A   1      39.391  21.439  26.149  1.00  0.00     0.202 C 
BRANCH  29  30
ATOM     30  C   UNL A   1      41.016  19.992  25.851  1.00  0.00     0.261 C 
BRANCH  30  31
ATOM     31  O   UNL A   1      42.756  20.674  25.612  1.00  0.00    -0.460 OA
BRANCH  31  32
ATOM     32  C   UNL A   1      43.536  22.001  25.444  1.00  0.00     0.338 C 
ATOM     33  O   UNL A   1      43.624  22.431  24.289  1.00  0.00    -0.246 OA
BRANCH  32  34
ATOM     34  C   UNL A   1      44.128  23.071  26.598  1.00  0.00     0.060 A 
ATOM     35  C   UNL A   1      43.342  23.941  27.374  1.00  0.00     0.016 A 
ATOM     36  C   UNL A   1      45.487  23.160  26.986  1.00  0.00     0.016 A 
ATOM     37  C   UNL A   1      43.875  25.108  28.031  1.00  0.00     0.010 A 
ATOM     38  C   UNL A   1      46.038  24.271  27.773  1.00  0.00     0.010 A 
ATOM     39  C   UNL A   1      45.256  25.353  28.185  1.00  0.00    -0.014 A 
BRANCH  39  40
ATOM     40  C   UNL A   1      45.734  26.611  28.944  1.00  0.00     0.031 A 
ATOM     41  C   UNL A   1      45.132  26.629  30.325  1.00  0.00     0.074 A 
ATOM     42  C   UNL A   1      46.613  27.628  28.624  1.00  0.00     0.049 A 
ATOM     43  N   UNL A   1      44.324  27.493  30.856  1.00  0.00    -0.248 NA
ATOM     44  C   UNL A   1      45.288  25.396  31.119  1.00  0.00     0.031 C 
ATOM     45  C   UNL A   1      47.389  27.815  27.391  1.00  0.00     0.029 A 
ATOM     46  N   UNL A   1      47.059  28.731  29.368  1.00  0.00    -0.354 N 
ATOM     47  C   UNL A   1      44.044  27.003  32.133  1.00  0.00     0.074 A 
ATOM     48  C   UNL A   1      44.487  25.634  32.154  1.00  0.00     0.031 C 
ATOM     49  C   UNL A   1      48.346  28.761  27.551  1.00  0.00     0.029 A 
ATOM     50  C   UNL A   1      48.238  29.350  28.869  1.00  0.00     0.049 A 
ATOM     51  H   UNL A   1      46.593  29.052  30.175  1.00  0.00     0.167 HD
ATOM     52  C   UNL A   1      43.703  27.809  33.176  1.00  0.00     0.037 A 
ATOM     53  C   UNL A   1      49.078  30.272  29.451  1.00  0.00     0.037 A 
ATOM     54  C   UNL A   1      43.230  29.088  32.737  1.00  0.00     0.049 A 
ATOM     55  C   UNL A   1      48.317  30.956  30.522  1.00  0.00     0.074 A 
ATOM     56  C   UNL A   1      42.135  29.532  32.025  1.00  0.00     0.029 A 
ATOM     57  N   UNL A   1      44.131  30.121  32.729  1.00  0.00    -0.354 N 
ATOM     58  N   UNL A   1      47.323  31.763  30.283  1.00  0.00    -0.248 NA
ATOM     59  C   UNL A   1      48.322  30.303  31.819  1.00  0.00     0.031 C 
ATOM     60  C   UNL A   1      42.626  30.601  31.222  1.00  0.00     0.029 A 
ATOM     61  C   UNL A   1      43.959  30.820  31.562  1.00  0.00     0.049 A 
ATOM     62  H   UNL A   1      44.784  30.324  33.437  1.00  0.00     0.167 HD
ATOM     63  C   UNL A   1      46.344  31.347  31.168  1.00  0.00     0.074 A 
ATOM     64  C   UNL A   1      47.023  30.432  32.087  1.00  0.00     0.031 C 
ATOM     65  C   UNL A   1      45.020  31.550  30.913  1.00  0.00     0.037 A 
BRANCH  52  66
ATOM     66  C   UNL A   1      44.173  27.548  34.585  1.00  0.00     0.058 A 
ATOM     67  C   UNL A   1      43.263  27.544  35.657  1.00  0.00     0.135 A 
ATOM     68  C   UNL A   1      45.542  27.557  34.942  1.00  0.00     0.135 A 
ATOM     69  F   UNL A   1      41.941  27.584  35.430  1.00  0.00    -0.206 F 
ATOM     70  C   UNL A   1      43.687  27.555  36.989  1.00  0.00     0.059 A 
ATOM     71  C   UNL A   1      45.985  27.514  36.256  1.00  0.00     0.059 A 
ATOM     72  F   UNL A   1      46.511  27.701  34.027  1.00  0.00    -0.206 F 
ATOM     73  C   UNL A   1      45.051  27.535  37.277  1.00  0.00     0.060 A 
BRANCH  73  74
ATOM     74  S   UNL A   1      45.597  27.578  38.994  1.00  0.00     0.124 S 
ATOM     75  O   UNL A   1      44.942  28.783  39.484  1.00  0.00    -0.237 OA
ATOM     76  O   UNL A   1      45.076  26.313  39.503  1.00  0.00    -0.237 OA
ATOM     77  O   UNL A   1      47.051  27.650  38.884  1.00  0.00    -0.744 OA
ENDBRANCH  73  74
ENDBRANCH  52  66
BRANCH  53  78
ATOM     78  C   UNL A   1      50.594  30.301  29.475  1.00  0.00     0.058 A 
ATOM     79  C   UNL A   1      51.353  31.482  29.260  1.00  0.00     0.135 A 
ATOM     80  C   UNL A   1      51.314  29.234  30.040  1.00  0.00     0.135 A 
ATOM     81  F   UNL A   1      50.776  32.570  28.723  1.00  0.00    -0.206 F 
ATOM     82  C   UNL A   1      52.702  31.609  29.655  1.00  0.00     0.059 A 
ATOM     83  C   UNL A   1      52.650  29.336  30.439  1.00  0.00     0.059 A 
ATOM     84  F   UNL A   1      50.709  28.070  30.316  1.00  0.00    -0.206 F 
ATOM     85  C   UNL A   1      53.332  30.536  30.280  1.00  0.00     0.060 A 
BRANCH  85  86
ATOM     86  S   UNL A   1      54.982  30.732  31.013  1.00  0.00     0.124 S 
ATOM     87  O   UNL A   1      54.673  30.961  32.420  1.00  0.00    -0.237 OA
ATOM     88  O   UNL A   1      55.615  29.455  30.700  1.00  0.00    -0.237 OA
ATOM     89  O   UNL A   1      55.533  31.883  30.301  1.00  0.00    -0.744 OA
ENDBRANCH  85  86
ENDBRANCH  53  78
BRANCH  65  90
ATOM     90  C   UNL A   1      44.632  32.483  29.796  1.00  0.00     0.058 A 
ATOM     91  C   UNL A   1      44.444  32.113  28.452  1.00  0.00     0.135 A 
ATOM     92  C   UNL A   1      44.310  33.804  30.146  1.00  0.00     0.135 A 
ATOM     93  F   UNL A   1      44.631  30.845  28.050  1.00  0.00    -0.206 F 
ATOM     94  C   UNL A   1      43.997  33.034  27.499  1.00  0.00     0.059 A 
ATOM     95  C   UNL A   1      43.822  34.721  29.224  1.00  0.00     0.059 A 
ATOM     96  F   UNL A   1      44.426  34.207  31.423  1.00  0.00    -0.206 F 
ATOM     97  C   UNL A   1      43.680  34.333  27.897  1.00  0.00     0.060 A 
BRANCH  97  98
ATOM     98  S   UNL A   1      43.066  35.510  26.671  1.00  0.00     0.124 S 
ATOM     99  O   UNL A   1      43.072  34.713  25.451  1.00  0.00    -0.237 OA
ATOM    100  O   UNL A   1      41.750  35.854  27.203  1.00  0.00    -0.237 OA
ATOM    101  O   UNL A   1      44.050  36.591  26.713  1.00  0.00    -0.744 OA
ENDBRANCH  97  98
ENDBRANCH  65  90
ENDBRANCH  39  40
ENDBRANCH  32  34
ENDBRANCH  31  32
ENDBRANCH  30  31
ENDBRANCH  29  30
ENDBRANCH  28  29
ENDBRANCH  27  28
ENDBRANCH  26  27
ENDBRANCH   1  26
TORSDOF 26
ENDMDL
