MODEL 1
REMARK VINA RESULT:      -9.5      0.000      0.000
REMARK SMILES N#Cc1ccccc1Cn1cccc1C(=O)OCCOCCOCCOCCOC(=O)c1ccc(-c2c3nc(c(-c4c(F)cc(S(=O)(=O)[O-])cc4F)c4ccc([nH]4)c(-c4c(F)cc(S(=O)(=O)[O-])cc4F)c4nc(c(-c5c(F)cc(S(=O)(=O)[O-])cc5F)c5ccc2[nH]5)C=C4)C=C3)cc1
REMARK SMILES IDX 23 1 22 2 21 3 20 4 19 5 18 6 17 7 15 8 16 9 14 10 10 11
REMARK SMILES IDX 11 12 12 13 13 14 9 15 8 16 3 17 4 18 5 19 7 20 6 21 2 22
REMARK SMILES IDX 1 23 24 24 25 25 26 26 27 27 28 28 29 29 30 30 31 31 32 32
REMARK SMILES IDX 33 33 97 34 34 35 96 36 35 37 36 38 37 39 90 40 38 41 95 42
REMARK SMILES IDX 89 43 91 44 39 45 94 46 88 47 87 48 40 50 74 51 53 52 73 53
REMARK SMILES IDX 54 54 57 55 72 56 92 57 55 58 56 59 71 61 93 62 58 63 41 64
REMARK SMILES IDX 42 65 51 66 43 67 44 68 50 69 52 70 45 71 46 72 47 73 48 74
REMARK SMILES IDX 49 75 75 76 76 77 85 78 77 79 78 80 84 81 86 82 79 83 80 84
REMARK SMILES IDX 81 85 82 86 83 87 59 88 60 89 69 90 61 91 62 92 68 93 70 94
REMARK SMILES IDX 63 95 64 96 65 97 66 98 67 99
REMARK H PARENT 91 49 57 60
REMARK Flexibility Score: inf
ROOT
ATOM      1  O   UNL A   1      44.135  22.317  26.355  1.00  0.00    -0.377 OA
ENDROOT
BRANCH   1   2
ATOM      2  C   UNL A   1      43.458  22.661  27.553  1.00  0.00     0.188 C 
BRANCH   2   3
ATOM      3  C   UNL A   1      42.039  22.156  27.903  1.00  0.00     0.188 C 
BRANCH   3   4
ATOM      4  O   UNL A   1      41.068  22.298  26.894  1.00  0.00    -0.376 OA
BRANCH   4   5
ATOM      5  C   UNL A   1      39.823  21.640  26.892  1.00  0.00     0.202 C 
BRANCH   5   6
ATOM      6  C   UNL A   1      38.824  21.718  25.727  1.00  0.00     0.261 C 
BRANCH   6   7
ATOM      7  O   UNL A   1      37.610  22.431  25.967  1.00  0.00    -0.459 OA
BRANCH   7   8
ATOM      8  C   UNL A   1      36.652  22.297  25.017  1.00  0.00     0.355 C 
ATOM      9  O   UNL A   1      36.860  21.910  23.874  1.00  0.00    -0.244 OA
BRANCH   8  10
ATOM     10  C   UNL A   1      35.333  22.460  25.603  1.00  0.00     0.127 A 
ATOM     11  N   UNL A   1      34.239  23.219  25.189  1.00  0.00    -0.338 N 
ATOM     12  C   UNL A   1      33.165  22.859  25.980  1.00  0.00     0.087 A 
ATOM     13  C   UNL A   1      33.621  22.159  27.067  1.00  0.00     0.020 A 
ATOM     14  C   UNL A   1      34.972  21.881  26.818  1.00  0.00     0.035 A 
BRANCH  11  15
ATOM     15  C   UNL A   1      34.138  24.141  24.036  1.00  0.00     0.159 C 
BRANCH  15  16
ATOM     16  C   UNL A   1      33.903  25.609  24.407  1.00  0.00    -0.010 A 
ATOM     17  C   UNL A   1      33.662  26.618  23.448  1.00  0.00     0.057 A 
ATOM     18  C   UNL A   1      33.518  27.963  23.841  1.00  0.00     0.020 A 
ATOM     19  C   UNL A   1      33.562  28.323  25.186  1.00  0.00     0.001 A 
ATOM     20  C   UNL A   1      33.851  25.999  25.761  1.00  0.00     0.007 A 
ATOM     21  C   UNL A   1      33.705  27.335  26.147  1.00  0.00     0.000 A 
BRANCH  17  22
ATOM     22  C   UNL A   1      33.452  26.310  22.053  1.00  0.00     0.099 C 
ATOM     23  N   UNL A   1      33.264  26.008  20.959  1.00  0.00    -0.192 NA
ENDBRANCH  17  22
ENDBRANCH  15  16
ENDBRANCH  11  15
ENDBRANCH   8  10
ENDBRANCH   7   8
ENDBRANCH   6   7
ENDBRANCH   5   6
ENDBRANCH   4   5
ENDBRANCH   3   4
ENDBRANCH   2   3
ENDBRANCH   1   2
BRANCH   1  24
ATOM     24  C   UNL A   1      45.161  23.157  25.869  1.00  0.00     0.188 C 
BRANCH  24  25
ATOM     25  C   UNL A   1      44.669  24.417  25.139  1.00  0.00     0.188 C 
BRANCH  25  26
ATOM     26  O   UNL A   1      45.005  25.695  25.650  1.00  0.00    -0.376 OA
BRANCH  26  27
ATOM     27  C   UNL A   1      44.136  26.554  26.372  1.00  0.00     0.202 C 
BRANCH  27  28
ATOM     28  C   UNL A   1      43.171  26.173  27.498  1.00  0.00     0.261 C 
BRANCH  28  29
ATOM     29  O   UNL A   1      41.919  25.649  27.126  1.00  0.00    -0.460 OA
BRANCH  29  30
ATOM     30  C   UNL A   1      41.328  26.397  26.187  1.00  0.00     0.338 C 
ATOM     31  O   UNL A   1      41.537  26.398  24.985  1.00  0.00    -0.246 OA
BRANCH  30  32
ATOM     32  C   UNL A   1      40.462  27.360  26.862  1.00  0.00     0.060 A 
ATOM     33  C   UNL A   1      41.028  28.631  26.934  1.00  0.00     0.016 A 
ATOM     34  C   UNL A   1      39.749  26.777  27.916  1.00  0.00     0.016 A 
ATOM     35  C   UNL A   1      41.189  29.170  28.187  1.00  0.00     0.010 A 
ATOM     36  C   UNL A   1      39.958  27.282  29.176  1.00  0.00     0.010 A 
ATOM     37  C   UNL A   1      40.712  28.458  29.303  1.00  0.00    -0.014 A 
BRANCH  37  38
ATOM     38  C   UNL A   1      40.609  29.214  30.552  1.00  0.00     0.031 A 
ATOM     39  C   UNL A   1      41.664  28.519  31.515  1.00  0.00     0.074 A 
ATOM     40  C   UNL A   1      39.657  30.223  30.603  1.00  0.00     0.049 A 
ATOM     41  N   UNL A   1      41.643  28.392  32.798  1.00  0.00    -0.248 NA
ATOM     42  C   UNL A   1      42.839  27.718  30.989  1.00  0.00     0.031 C 
ATOM     43  C   UNL A   1      38.805  30.698  29.471  1.00  0.00     0.029 A 
ATOM     44  N   UNL A   1      39.208  31.096  31.586  1.00  0.00    -0.354 N 
ATOM     45  C   UNL A   1      42.912  27.919  33.211  1.00  0.00     0.074 A 
ATOM     46  C   UNL A   1      43.508  27.316  32.073  1.00  0.00     0.031 C 
ATOM     47  C   UNL A   1      37.894  31.634  29.867  1.00  0.00     0.029 A 
ATOM     48  C   UNL A   1      38.066  31.933  31.281  1.00  0.00     0.049 A 
ATOM     49  H   UNL A   1      39.653  31.144  32.464  1.00  0.00     0.167 HD
ATOM     50  C   UNL A   1      43.463  28.305  34.400  1.00  0.00     0.037 A 
ATOM     51  C   UNL A   1      37.351  32.765  32.139  1.00  0.00     0.037 A 
ATOM     52  C   UNL A   1      42.536  29.182  35.037  1.00  0.00     0.049 A 
ATOM     53  C   UNL A   1      38.259  32.853  33.284  1.00  0.00     0.074 A 
ATOM     54  C   UNL A   1      41.258  28.944  35.481  1.00  0.00     0.029 A 
ATOM     55  N   UNL A   1      42.697  30.519  34.743  1.00  0.00    -0.354 N 
ATOM     56  N   UNL A   1      39.384  33.504  33.269  1.00  0.00    -0.248 NA
ATOM     57  C   UNL A   1      37.947  32.076  34.487  1.00  0.00     0.031 C 
ATOM     58  C   UNL A   1      40.559  30.000  34.876  1.00  0.00     0.029 A 
ATOM     59  C   UNL A   1      41.448  31.035  34.557  1.00  0.00     0.049 A 
ATOM     60  H   UNL A   1      43.550  31.007  34.678  1.00  0.00     0.167 HD
ATOM     61  C   UNL A   1      40.066  32.895  34.285  1.00  0.00     0.074 A 
ATOM     62  C   UNL A   1      39.065  32.312  35.170  1.00  0.00     0.031 C 
ATOM     63  C   UNL A   1      41.283  32.351  34.007  1.00  0.00     0.037 A 
BRANCH  50  64
ATOM     64  C   UNL A   1      44.850  28.301  34.972  1.00  0.00     0.058 A 
ATOM     65  C   UNL A   1      44.990  27.760  36.277  1.00  0.00     0.135 A 
ATOM     66  C   UNL A   1      45.908  29.097  34.515  1.00  0.00     0.135 A 
ATOM     67  F   UNL A   1      44.052  26.942  36.786  1.00  0.00    -0.206 F 
ATOM     68  C   UNL A   1      46.027  28.110  37.128  1.00  0.00     0.059 A 
ATOM     69  C   UNL A   1      46.996  29.416  35.339  1.00  0.00     0.059 A 
ATOM     70  F   UNL A   1      45.882  29.645  33.292  1.00  0.00    -0.206 F 
ATOM     71  C   UNL A   1      47.020  28.955  36.657  1.00  0.00     0.060 A 
BRANCH  71  72
ATOM     72  S   UNL A   1      48.328  29.423  37.808  1.00  0.00     0.124 S 
ATOM     73  O   UNL A   1      49.289  28.342  37.629  1.00  0.00    -0.237 OA
ATOM     74  O   UNL A   1      48.736  30.725  37.285  1.00  0.00    -0.237 OA
ATOM     75  O   UNL A   1      47.643  29.461  39.096  1.00  0.00    -0.744 OA
ENDBRANCH  71  72
ENDBRANCH  50  64
BRANCH  51  76
ATOM     76  C   UNL A   1      36.046  33.579  32.376  1.00  0.00     0.058 A 
ATOM     77  C   UNL A   1      35.822  34.597  33.308  1.00  0.00     0.135 A 
ATOM     78  C   UNL A   1      34.961  33.457  31.433  1.00  0.00     0.135 A 
ATOM     79  F   UNL A   1      36.637  34.736  34.363  1.00  0.00    -0.206 F 
ATOM     80  C   UNL A   1      34.743  35.525  33.187  1.00  0.00     0.059 A 
ATOM     81  C   UNL A   1      33.940  34.394  31.244  1.00  0.00     0.059 A 
ATOM     82  F   UNL A   1      34.855  32.408  30.606  1.00  0.00    -0.206 F 
ATOM     83  C   UNL A   1      33.861  35.465  32.099  1.00  0.00     0.060 A 
BRANCH  83  84
ATOM     84  S   UNL A   1      32.724  36.829  31.708  1.00  0.00     0.124 S 
ATOM     85  O   UNL A   1      31.487  36.407  32.354  1.00  0.00    -0.237 OA
ATOM     86  O   UNL A   1      33.399  37.974  32.310  1.00  0.00    -0.237 OA
ATOM     87  O   UNL A   1      32.692  36.842  30.246  1.00  0.00    -0.744 OA
ENDBRANCH  83  84
ENDBRANCH  51  76
BRANCH  63  88
ATOM     88  C   UNL A   1      42.122  33.027  32.932  1.00  0.00     0.058 A 
ATOM     89  C   UNL A   1      42.414  34.398  33.063  1.00  0.00     0.135 A 
ATOM     90  C   UNL A   1      42.638  32.409  31.775  1.00  0.00     0.135 A 
ATOM     91  F   UNL A   1      41.988  35.073  34.143  1.00  0.00    -0.206 F 
ATOM     92  C   UNL A   1      43.172  35.106  32.126  1.00  0.00     0.059 A 
ATOM     93  C   UNL A   1      43.397  33.099  30.813  1.00  0.00     0.059 A 
ATOM     94  F   UNL A   1      42.438  31.107  31.552  1.00  0.00    -0.206 F 
ATOM     95  C   UNL A   1      43.673  34.449  31.006  1.00  0.00     0.060 A 
BRANCH  95  96
ATOM     96  S   UNL A   1      44.747  35.366  29.874  1.00  0.00     0.124 S 
ATOM     97  O   UNL A   1      43.798  35.908  28.906  1.00  0.00    -0.237 OA
ATOM     98  O   UNL A   1      45.364  36.343  30.765  1.00  0.00    -0.237 OA
ATOM     99  O   UNL A   1      45.651  34.345  29.350  1.00  0.00    -0.744 OA
ENDBRANCH  95  96
ENDBRANCH  63  88
ENDBRANCH  37  38
ENDBRANCH  30  32
ENDBRANCH  29  30
ENDBRANCH  28  29
ENDBRANCH  27  28
ENDBRANCH  26  27
ENDBRANCH  25  26
ENDBRANCH  24  25
ENDBRANCH   1  24
TORSDOF 26
ENDMDL
MODEL 2
REMARK VINA RESULT:      -9.0      3.708      9.238
REMARK SMILES N#Cc1ccccc1Cn1cccc1C(=O)OCCOCCOCCOCCOC(=O)c1ccc(-c2c3nc(c(-c4c(F)cc(S(=O)(=O)[O-])cc4F)c4ccc([nH]4)c(-c4c(F)cc(S(=O)(=O)[O-])cc4F)c4nc(c(-c5c(F)cc(S(=O)(=O)[O-])cc5F)c5ccc2[nH]5)C=C4)C=C3)cc1
REMARK SMILES IDX 23 1 22 2 21 3 20 4 19 5 18 6 17 7 15 8 16 9 14 10 10 11
REMARK SMILES IDX 11 12 12 13 13 14 9 15 8 16 3 17 4 18 5 19 7 20 6 21 2 22
REMARK SMILES IDX 1 23 24 24 25 25 26 26 27 27 28 28 29 29 30 30 31 31 32 32
REMARK SMILES IDX 33 33 97 34 34 35 96 36 35 37 36 38 37 39 90 40 38 41 95 42
REMARK SMILES IDX 89 43 91 44 39 45 94 46 88 47 87 48 40 50 74 51 53 52 73 53
REMARK SMILES IDX 54 54 57 55 72 56 92 57 55 58 56 59 71 61 93 62 58 63 41 64
REMARK SMILES IDX 42 65 51 66 43 67 44 68 50 69 52 70 45 71 46 72 47 73 48 74
REMARK SMILES IDX 49 75 75 76 76 77 85 78 77 79 78 80 84 81 86 82 79 83 80 84
REMARK SMILES IDX 81 85 82 86 83 87 59 88 60 89 69 90 61 91 62 92 68 93 70 94
REMARK SMILES IDX 63 95 64 96 65 97 66 98 67 99
REMARK H PARENT 91 49 57 60
REMARK Flexibility Score: inf
ROOT
ATOM      1  O   UNL A   1      34.247  31.601  27.370  1.00  0.00    -0.377 OA
ENDROOT
BRANCH   1   2
ATOM      2  C   UNL A   1      33.920  30.321  26.853  1.00  0.00     0.188 C 
BRANCH   2   3
ATOM      3  C   UNL A   1      33.251  29.209  27.695  1.00  0.00     0.188 C 
BRANCH   3   4
ATOM      4  O   UNL A   1      32.887  28.043  26.997  1.00  0.00    -0.376 OA
BRANCH   4   5
ATOM      5  C   UNL A   1      31.631  27.414  27.101  1.00  0.00     0.202 C 
BRANCH   5   6
ATOM      6  C   UNL A   1      31.130  26.350  26.112  1.00  0.00     0.261 C 
BRANCH   6   7
ATOM      7  O   UNL A   1      30.851  25.055  26.646  1.00  0.00    -0.459 OA
BRANCH   7   8
ATOM      8  C   UNL A   1      31.280  24.006  25.902  1.00  0.00     0.355 C 
ATOM      9  O   UNL A   1      30.770  23.653  24.846  1.00  0.00    -0.244 OA
BRANCH   8  10
ATOM     10  C   UNL A   1      32.546  23.510  26.411  1.00  0.00     0.127 A 
ATOM     11  N   UNL A   1      33.854  23.925  26.163  1.00  0.00    -0.338 N 
ATOM     12  C   UNL A   1      34.674  23.262  27.056  1.00  0.00     0.087 A 
ATOM     13  C   UNL A   1      33.978  22.223  27.620  1.00  0.00     0.020 A 
ATOM     14  C   UNL A   1      32.640  22.395  27.242  1.00  0.00     0.035 A 
BRANCH  11  15
ATOM     15  C   UNL A   1      34.329  24.978  25.238  1.00  0.00     0.159 C 
BRANCH  15  16
ATOM     16  C   UNL A   1      33.856  24.821  23.789  1.00  0.00    -0.010 A 
ATOM     17  C   UNL A   1      33.450  25.911  22.988  1.00  0.00     0.057 A 
ATOM     18  C   UNL A   1      32.961  25.701  21.683  1.00  0.00     0.020 A 
ATOM     19  C   UNL A   1      32.915  24.421  21.136  1.00  0.00     0.001 A 
ATOM     20  C   UNL A   1      33.879  23.555  23.169  1.00  0.00     0.007 A 
ATOM     21  C   UNL A   1      33.396  23.351  21.872  1.00  0.00     0.000 A 
BRANCH  17  22
ATOM     22  C   UNL A   1      33.608  27.279  23.423  1.00  0.00     0.099 C 
ATOM     23  N   UNL A   1      33.794  28.364  23.754  1.00  0.00    -0.192 NA
ENDBRANCH  17  22
ENDBRANCH  15  16
ENDBRANCH  11  15
ENDBRANCH   8  10
ENDBRANCH   7   8
ENDBRANCH   6   7
ENDBRANCH   5   6
ENDBRANCH   4   5
ENDBRANCH   3   4
ENDBRANCH   2   3
ENDBRANCH   1   2
BRANCH   1  24
ATOM     24  C   UNL A   1      33.241  32.585  27.482  1.00  0.00     0.188 C 
BRANCH  24  25
ATOM     25  C   UNL A   1      33.681  33.877  28.188  1.00  0.00     0.188 C 
BRANCH  25  26
ATOM     26  O   UNL A   1      33.178  34.173  29.480  1.00  0.00    -0.376 OA
BRANCH  26  27
ATOM     27  C   UNL A   1      33.830  34.964  30.461  1.00  0.00     0.202 C 
BRANCH  27  28
ATOM     28  C   UNL A   1      34.872  34.507  31.486  1.00  0.00     0.261 C 
BRANCH  28  29
ATOM     29  O   UNL A   1      34.823  33.165  31.902  1.00  0.00    -0.460 OA
BRANCH  29  30
ATOM     30  C   UNL A   1      35.424  32.351  31.025  1.00  0.00     0.338 C 
ATOM     31  O   UNL A   1      34.925  31.451  30.372  1.00  0.00    -0.246 OA
BRANCH  30  32
ATOM     32  C   UNL A   1      36.859  32.615  31.081  1.00  0.00     0.060 A 
ATOM     33  C   UNL A   1      37.428  32.753  29.816  1.00  0.00     0.016 A 
ATOM     34  C   UNL A   1      37.480  31.927  32.130  1.00  0.00     0.016 A 
ATOM     35  C   UNL A   1      38.452  31.896  29.497  1.00  0.00     0.010 A 
ATOM     36  C   UNL A   1      38.464  31.027  31.800  1.00  0.00     0.010 A 
ATOM     37  C   UNL A   1      38.916  30.994  30.473  1.00  0.00    -0.014 A 
BRANCH  37  38
ATOM     38  C   UNL A   1      40.201  30.351  30.195  1.00  0.00     0.031 A 
ATOM     39  C   UNL A   1      41.270  31.502  30.429  1.00  0.00     0.074 A 
ATOM     40  C   UNL A   1      40.167  29.028  29.775  1.00  0.00     0.049 A 
ATOM     41  N   UNL A   1      42.413  31.685  29.861  1.00  0.00    -0.248 NA
ATOM     42  C   UNL A   1      40.986  32.709  31.301  1.00  0.00     0.031 C 
ATOM     43  C   UNL A   1      38.958  28.153  29.692  1.00  0.00     0.029 A 
ATOM     44  N   UNL A   1      41.123  28.109  29.359  1.00  0.00    -0.354 N 
ATOM     45  C   UNL A   1      43.097  32.701  30.574  1.00  0.00     0.074 A 
ATOM     46  C   UNL A   1      42.108  33.434  31.279  1.00  0.00     0.031 C 
ATOM     47  C   UNL A   1      39.239  26.936  29.143  1.00  0.00     0.029 A 
ATOM     48  C   UNL A   1      40.661  26.833  28.852  1.00  0.00     0.049 A 
ATOM     49  H   UNL A   1      42.083  28.319  29.406  1.00  0.00     0.167 HD
ATOM     50  C   UNL A   1      44.455  32.676  30.720  1.00  0.00     0.037 A 
ATOM     51  C   UNL A   1      41.405  25.824  28.246  1.00  0.00     0.037 A 
ATOM     52  C   UNL A   1      44.938  31.518  30.041  1.00  0.00     0.049 A 
ATOM     53  C   UNL A   1      42.772  26.222  28.591  1.00  0.00     0.074 A 
ATOM     54  C   UNL A   1      44.879  31.187  28.710  1.00  0.00     0.029 A 
ATOM     55  N   UNL A   1      45.022  30.378  30.812  1.00  0.00    -0.354 N 
ATOM     56  N   UNL A   1      43.269  26.143  29.790  1.00  0.00    -0.248 NA
ATOM     57  C   UNL A   1      43.601  26.850  27.558  1.00  0.00     0.031 C 
ATOM     58  C   UNL A   1      44.335  29.894  28.775  1.00  0.00     0.029 A 
ATOM     59  C   UNL A   1      44.564  29.348  30.045  1.00  0.00     0.049 A 
ATOM     60  H   UNL A   1      45.349  30.320  31.739  1.00  0.00     0.167 HD
ATOM     61  C   UNL A   1      44.286  27.054  29.725  1.00  0.00     0.074 A 
ATOM     62  C   UNL A   1      44.643  27.182  28.316  1.00  0.00     0.031 C 
ATOM     63  C   UNL A   1      44.302  28.067  30.635  1.00  0.00     0.037 A 
BRANCH  50  64
ATOM     64  C   UNL A   1      45.429  33.334  31.653  1.00  0.00     0.058 A 
ATOM     65  C   UNL A   1      45.193  33.150  33.040  1.00  0.00     0.135 A 
ATOM     66  C   UNL A   1      46.287  34.385  31.303  1.00  0.00     0.135 A 
ATOM     67  F   UNL A   1      44.426  32.137  33.479  1.00  0.00    -0.206 F 
ATOM     68  C   UNL A   1      45.647  34.038  34.003  1.00  0.00     0.059 A 
ATOM     69  C   UNL A   1      46.805  35.261  32.268  1.00  0.00     0.059 A 
ATOM     70  F   UNL A   1      46.587  34.636  30.022  1.00  0.00    -0.206 F 
ATOM     71  C   UNL A   1      46.439  35.105  33.606  1.00  0.00     0.060 A 
BRANCH  71  72
ATOM     72  S   UNL A   1      46.971  36.264  34.882  1.00  0.00     0.124 S 
ATOM     73  O   UNL A   1      45.700  36.808  35.346  1.00  0.00    -0.237 OA
ATOM     74  O   UNL A   1      47.661  35.382  35.820  1.00  0.00    -0.237 OA
ATOM     75  O   UNL A   1      47.833  37.190  34.155  1.00  0.00    -0.744 OA
ENDBRANCH  71  72
ENDBRANCH  50  64
BRANCH  51  76
ATOM     76  C   UNL A   1      41.385  24.530  27.383  1.00  0.00     0.058 A 
ATOM     77  C   UNL A   1      42.420  23.990  26.611  1.00  0.00     0.135 A 
ATOM     78  C   UNL A   1      40.266  23.626  27.498  1.00  0.00     0.135 A 
ATOM     79  F   UNL A   1      43.460  24.755  26.252  1.00  0.00    -0.206 F 
ATOM     80  C   UNL A   1      42.427  22.628  26.181  1.00  0.00     0.059 A 
ATOM     81  C   UNL A   1      40.278  22.271  27.157  1.00  0.00     0.059 A 
ATOM     82  F   UNL A   1      39.083  24.023  27.989  1.00  0.00    -0.206 F 
ATOM     83  C   UNL A   1      41.390  21.756  26.538  1.00  0.00     0.060 A 
BRANCH  83  84
ATOM     84  S   UNL A   1      41.539  19.954  26.338  1.00  0.00     0.124 S 
ATOM     85  O   UNL A   1      41.944  19.520  27.670  1.00  0.00    -0.237 OA
ATOM     86  O   UNL A   1      40.190  19.578  25.928  1.00  0.00    -0.237 OA
ATOM     87  O   UNL A   1      42.555  19.806  25.297  1.00  0.00    -0.744 OA
ENDBRANCH  83  84
ENDBRANCH  51  76
BRANCH  63  88
ATOM     88  C   UNL A   1      43.739  27.771  32.018  1.00  0.00     0.058 A 
ATOM     89  C   UNL A   1      44.243  26.669  32.734  1.00  0.00     0.135 A 
ATOM     90  C   UNL A   1      42.721  28.498  32.669  1.00  0.00     0.135 A 
ATOM     91  F   UNL A   1      45.231  25.926  32.210  1.00  0.00    -0.206 F 
ATOM     92  C   UNL A   1      43.785  26.316  34.007  1.00  0.00     0.059 A 
ATOM     93  C   UNL A   1      42.237  28.161  33.946  1.00  0.00     0.059 A 
ATOM     94  F   UNL A   1      42.178  29.574  32.094  1.00  0.00    -0.206 F 
ATOM     95  C   UNL A   1      42.789  27.073  34.616  1.00  0.00     0.060 A 
BRANCH  95  96
ATOM     96  S   UNL A   1      42.302  26.660  36.310  1.00  0.00     0.124 S 
ATOM     97  O   UNL A   1      41.066  25.911  36.110  1.00  0.00    -0.237 OA
ATOM     98  O   UNL A   1      43.445  25.878  36.772  1.00  0.00    -0.237 OA
ATOM     99  O   UNL A   1      42.142  27.962  36.952  1.00  0.00    -0.744 OA
ENDBRANCH  95  96
ENDBRANCH  63  88
ENDBRANCH  37  38
ENDBRANCH  30  32
ENDBRANCH  29  30
ENDBRANCH  28  29
ENDBRANCH  27  28
ENDBRANCH  26  27
ENDBRANCH  25  26
ENDBRANCH  24  25
ENDBRANCH   1  24
TORSDOF 26
ENDMDL
MODEL 3
REMARK VINA RESULT:      -9.0      3.508      8.443
REMARK SMILES N#Cc1ccccc1Cn1cccc1C(=O)OCCOCCOCCOCCOC(=O)c1ccc(-c2c3nc(c(-c4c(F)cc(S(=O)(=O)[O-])cc4F)c4ccc([nH]4)c(-c4c(F)cc(S(=O)(=O)[O-])cc4F)c4nc(c(-c5c(F)cc(S(=O)(=O)[O-])cc5F)c5ccc2[nH]5)C=C4)C=C3)cc1
REMARK SMILES IDX 23 1 22 2 21 3 20 4 19 5 18 6 17 7 15 8 16 9 14 10 10 11
REMARK SMILES IDX 11 12 12 13 13 14 9 15 8 16 3 17 4 18 5 19 7 20 6 21 2 22
REMARK SMILES IDX 1 23 24 24 25 25 26 26 27 27 28 28 29 29 30 30 31 31 32 32
REMARK SMILES IDX 33 33 97 34 34 35 96 36 35 37 36 38 37 39 90 40 38 41 95 42
REMARK SMILES IDX 89 43 91 44 39 45 94 46 88 47 87 48 40 50 74 51 53 52 73 53
REMARK SMILES IDX 54 54 57 55 72 56 92 57 55 58 56 59 71 61 93 62 58 63 41 64
REMARK SMILES IDX 42 65 51 66 43 67 44 68 50 69 52 70 45 71 46 72 47 73 48 74
REMARK SMILES IDX 49 75 75 76 76 77 85 78 77 79 78 80 84 81 86 82 79 83 80 84
REMARK SMILES IDX 81 85 82 86 83 87 59 88 60 89 69 90 61 91 62 92 68 93 70 94
REMARK SMILES IDX 63 95 64 96 65 97 66 98 67 99
REMARK H PARENT 91 49 57 60
REMARK Flexibility Score: inf
ROOT
ATOM      1  O   UNL A   1      33.740  32.321  28.127  1.00  0.00    -0.377 OA
ENDROOT
BRANCH   1   2
ATOM      2  C   UNL A   1      33.174  31.305  27.316  1.00  0.00     0.188 C 
BRANCH   2   3
ATOM      3  C   UNL A   1      33.879  29.961  27.019  1.00  0.00     0.188 C 
BRANCH   3   4
ATOM      4  O   UNL A   1      33.214  29.100  26.127  1.00  0.00    -0.376 OA
BRANCH   4   5
ATOM      5  C   UNL A   1      33.100  29.326  24.741  1.00  0.00     0.202 C 
BRANCH   5   6
ATOM      6  C   UNL A   1      33.690  28.388  23.677  1.00  0.00     0.261 C 
BRANCH   6   7
ATOM      7  O   UNL A   1      33.526  26.986  23.892  1.00  0.00    -0.459 OA
BRANCH   7   8
ATOM      8  C   UNL A   1      32.350  26.460  23.470  1.00  0.00     0.355 C 
ATOM      9  O   UNL A   1      31.937  26.525  22.319  1.00  0.00    -0.244 OA
BRANCH   8  10
ATOM     10  C   UNL A   1      31.769  25.627  24.507  1.00  0.00     0.127 A 
ATOM     11  N   UNL A   1      32.197  24.418  25.053  1.00  0.00    -0.338 N 
ATOM     12  C   UNL A   1      31.400  24.155  26.151  1.00  0.00     0.087 A 
ATOM     13  C   UNL A   1      30.299  24.973  26.114  1.00  0.00     0.020 A 
ATOM     14  C   UNL A   1      30.543  25.915  25.105  1.00  0.00     0.035 A 
BRANCH  11  15
ATOM     15  C   UNL A   1      33.368  23.596  24.673  1.00  0.00     0.159 C 
BRANCH  15  16
ATOM     16  C   UNL A   1      33.041  22.146  24.304  1.00  0.00    -0.010 A 
ATOM     17  C   UNL A   1      33.276  21.057  25.172  1.00  0.00     0.057 A 
ATOM     18  C   UNL A   1      33.017  19.736  24.755  1.00  0.00     0.020 A 
ATOM     19  C   UNL A   1      32.478  19.478  23.497  1.00  0.00     0.001 A 
ATOM     20  C   UNL A   1      32.412  21.851  23.076  1.00  0.00     0.007 A 
ATOM     21  C   UNL A   1      32.154  20.539  22.667  1.00  0.00     0.000 A 
BRANCH  17  22
ATOM     22  C   UNL A   1      33.690  21.249  26.542  1.00  0.00     0.099 C 
ATOM     23  N   UNL A   1      34.032  21.462  27.619  1.00  0.00    -0.192 NA
ENDBRANCH  17  22
ENDBRANCH  15  16
ENDBRANCH  11  15
ENDBRANCH   8  10
ENDBRANCH   7   8
ENDBRANCH   6   7
ENDBRANCH   5   6
ENDBRANCH   4   5
ENDBRANCH   3   4
ENDBRANCH   2   3
ENDBRANCH   1   2
BRANCH   1  24
ATOM     24  C   UNL A   1      33.255  33.644  28.027  1.00  0.00     0.188 C 
BRANCH  24  25
ATOM     25  C   UNL A   1      33.727  34.588  29.144  1.00  0.00     0.188 C 
BRANCH  25  26
ATOM     26  O   UNL A   1      32.771  35.195  29.997  1.00  0.00    -0.376 OA
BRANCH  26  27
ATOM     27  C   UNL A   1      33.014  35.666  31.313  1.00  0.00     0.202 C 
BRANCH  27  28
ATOM     28  C   UNL A   1      34.310  35.550  32.120  1.00  0.00     0.261 C 
BRANCH  28  29
ATOM     29  O   UNL A   1      34.327  34.634  33.187  1.00  0.00    -0.460 OA
BRANCH  29  30
ATOM     30  C   UNL A   1      34.487  33.376  32.758  1.00  0.00     0.338 C 
ATOM     31  O   UNL A   1      33.744  32.727  32.040  1.00  0.00    -0.246 OA
BRANCH  30  32
ATOM     32  C   UNL A   1      35.660  32.820  33.427  1.00  0.00     0.060 A 
ATOM     33  C   UNL A   1      36.536  33.805  33.879  1.00  0.00     0.016 A 
ATOM     34  C   UNL A   1      36.086  31.627  32.833  1.00  0.00     0.016 A 
ATOM     35  C   UNL A   1      37.825  33.754  33.409  1.00  0.00     0.010 A 
ATOM     36  C   UNL A   1      37.358  31.600  32.312  1.00  0.00     0.010 A 
ATOM     37  C   UNL A   1      38.206  32.686  32.574  1.00  0.00    -0.014 A 
BRANCH  37  38
ATOM     38  C   UNL A   1      39.644  32.503  32.379  1.00  0.00     0.031 A 
ATOM     39  C   UNL A   1      40.089  31.589  33.599  1.00  0.00     0.074 A 
ATOM     40  C   UNL A   1      40.225  33.164  31.305  1.00  0.00     0.049 A 
ATOM     41  N   UNL A   1      41.216  31.547  34.224  1.00  0.00    -0.248 NA
ATOM     42  C   UNL A   1      39.114  30.696  34.342  1.00  0.00     0.031 C 
ATOM     43  C   UNL A   1      39.510  33.949  30.254  1.00  0.00     0.029 A 
ATOM     44  N   UNL A   1      41.523  33.305  30.829  1.00  0.00    -0.354 N 
ATOM     45  C   UNL A   1      41.206  30.412  35.070  1.00  0.00     0.074 A 
ATOM     46  C   UNL A   1      39.843  30.072  35.272  1.00  0.00     0.031 C 
ATOM     47  C   UNL A   1      40.372  34.564  29.392  1.00  0.00     0.029 A 
ATOM     48  C   UNL A   1      41.745  34.219  29.727  1.00  0.00     0.049 A 
ATOM     49  H   UNL A   1      42.268  32.800  31.228  1.00  0.00     0.167 HD
ATOM     50  C   UNL A   1      42.343  29.696  35.313  1.00  0.00     0.037 A 
ATOM     51  C   UNL A   1      42.957  34.636  29.183  1.00  0.00     0.037 A 
ATOM     52  C   UNL A   1      43.406  30.323  34.598  1.00  0.00     0.049 A 
ATOM     53  C   UNL A   1      43.885  33.653  29.748  1.00  0.00     0.074 A 
ATOM     54  C   UNL A   1      43.936  31.583  34.729  1.00  0.00     0.029 A 
ATOM     55  N   UNL A   1      43.608  29.852  33.317  1.00  0.00    -0.354 N 
ATOM     56  N   UNL A   1      43.926  32.405  29.388  1.00  0.00    -0.248 NA
ATOM     57  C   UNL A   1      44.746  34.063  30.861  1.00  0.00     0.031 C 
ATOM     58  C   UNL A   1      43.893  32.036  33.401  1.00  0.00     0.029 A 
ATOM     59  C   UNL A   1      43.839  30.941  32.529  1.00  0.00     0.049 A 
ATOM     60  H   UNL A   1      43.589  28.911  33.029  1.00  0.00     0.167 HD
ATOM     61  C   UNL A   1      44.513  31.826  30.479  1.00  0.00     0.074 A 
ATOM     62  C   UNL A   1      45.271  32.874  31.152  1.00  0.00     0.031 C 
ATOM     63  C   UNL A   1      43.854  30.809  31.100  1.00  0.00     0.037 A 
BRANCH  50  64
ATOM     64  C   UNL A   1      42.634  28.316  35.827  1.00  0.00     0.058 A 
ATOM     65  C   UNL A   1      43.730  28.196  36.721  1.00  0.00     0.135 A 
ATOM     66  C   UNL A   1      42.184  27.129  35.234  1.00  0.00     0.135 A 
ATOM     67  F   UNL A   1      44.200  29.270  37.379  1.00  0.00    -0.206 F 
ATOM     68  C   UNL A   1      44.432  27.014  36.894  1.00  0.00     0.059 A 
ATOM     69  C   UNL A   1      42.845  25.910  35.442  1.00  0.00     0.059 A 
ATOM     70  F   UNL A   1      41.147  27.129  34.386  1.00  0.00    -0.206 F 
ATOM     71  C   UNL A   1      43.993  25.875  36.235  1.00  0.00     0.060 A 
BRANCH  71  72
ATOM     72  S   UNL A   1      44.960  24.367  36.449  1.00  0.00     0.124 S 
ATOM     73  O   UNL A   1      44.228  23.419  35.618  1.00  0.00    -0.237 OA
ATOM     74  O   UNL A   1      46.267  24.774  35.940  1.00  0.00    -0.237 OA
ATOM     75  O   UNL A   1      44.902  24.132  37.888  1.00  0.00    -0.744 OA
ENDBRANCH  71  72
ENDBRANCH  50  64
BRANCH  51  76
ATOM     76  C   UNL A   1      43.694  35.673  28.287  1.00  0.00     0.058 A 
ATOM     77  C   UNL A   1      43.951  37.021  28.560  1.00  0.00     0.135 A 
ATOM     78  C   UNL A   1      44.391  35.215  27.110  1.00  0.00     0.135 A 
ATOM     79  F   UNL A   1      43.253  37.661  29.508  1.00  0.00    -0.206 F 
ATOM     80  C   UNL A   1      44.950  37.769  27.864  1.00  0.00     0.059 A 
ATOM     81  C   UNL A   1      45.426  35.896  26.462  1.00  0.00     0.059 A 
ATOM     82  F   UNL A   1      44.112  34.037  26.535  1.00  0.00    -0.206 F 
ATOM     83  C   UNL A   1      45.742  37.167  26.877  1.00  0.00     0.060 A 
BRANCH  83  84
ATOM     84  S   UNL A   1      47.251  37.957  26.242  1.00  0.00     0.124 S 
ATOM     85  O   UNL A   1      47.821  38.561  27.440  1.00  0.00    -0.237 OA
ATOM     86  O   UNL A   1      47.984  36.822  25.691  1.00  0.00    -0.237 OA
ATOM     87  O   UNL A   1      46.751  38.901  25.244  1.00  0.00    -0.744 OA
ENDBRANCH  83  84
ENDBRANCH  51  76
BRANCH  63  88
ATOM     88  C   UNL A   1      42.985  29.908  30.234  1.00  0.00     0.058 A 
ATOM     89  C   UNL A   1      43.572  29.250  29.137  1.00  0.00     0.135 A 
ATOM     90  C   UNL A   1      41.607  29.670  30.412  1.00  0.00     0.135 A 
ATOM     91  F   UNL A   1      44.885  29.393  28.896  1.00  0.00    -0.206 F 
ATOM     92  C   UNL A   1      42.855  28.408  28.283  1.00  0.00     0.059 A 
ATOM     93  C   UNL A   1      40.859  28.833  29.564  1.00  0.00     0.059 A 
ATOM     94  F   UNL A   1      40.945  30.228  31.430  1.00  0.00    -0.206 F 
ATOM     95  C   UNL A   1      41.498  28.192  28.508  1.00  0.00     0.060 A 
BRANCH  95  96
ATOM     96  S   UNL A   1      40.626  27.005  27.455  1.00  0.00     0.124 S 
ATOM     97  O   UNL A   1      39.269  27.043  27.993  1.00  0.00    -0.237 OA
ATOM     98  O   UNL A   1      40.795  27.593  26.130  1.00  0.00    -0.237 OA
ATOM     99  O   UNL A   1      41.345  25.753  27.674  1.00  0.00    -0.744 OA
ENDBRANCH  95  96
ENDBRANCH  63  88
ENDBRANCH  37  38
ENDBRANCH  30  32
ENDBRANCH  29  30
ENDBRANCH  28  29
ENDBRANCH  27  28
ENDBRANCH  26  27
ENDBRANCH  25  26
ENDBRANCH  24  25
ENDBRANCH   1  24
TORSDOF 26
ENDMDL
