MODEL 1
REMARK VINA RESULT:      -9.7      0.000      0.000
REMARK SMILES O=C(OCCOCCOCCOCCOC(=O)[C@@H](CO)N1C(=O)c2c(Cl)c(Cl)c(Cl)c(Cl)c2C1=O)c1ccc(-c2c3nc(c(-c4c(F)cc(S(=O)(=O)[O-])cc4F)c4ccc([nH]4)c(-c4c(F)cc(S(=O)(=O)[O-])cc4F)c4nc(c(-c5c(F)cc(S(=O)(=O)[O-])cc5F)c5ccc2[nH]5)C=C4)C=C3)cc1
REMARK SMILES IDX 8 1 7 2 6 3 5 4 4 5 3 6 2 7 1 8 36 9 37 10 101 11 38 12
REMARK SMILES IDX 100 13 39 14 40 15 41 16 94 17 42 18 99 19 93 20 95 21 43 22
REMARK SMILES IDX 98 23 92 24 91 25 44 27 78 28 57 29 77 30 58 31 61 32 76 33
REMARK SMILES IDX 96 34 59 35 60 36 75 38 97 39 62 40 45 41 46 42 55 43 47 44
REMARK SMILES IDX 48 45 54 46 56 47 49 48 50 49 51 50 52 51 53 52 79 53 80 54
REMARK SMILES IDX 89 55 81 56 82 57 88 58 90 59 83 60 84 61 85 62 86 63 87 64
REMARK SMILES IDX 63 65 64 66 73 67 65 68 66 69 72 70 74 71 67 72 68 73 69 74
REMARK SMILES IDX 70 75 71 76 9 77 10 78 11 79 12 80 13 81 14 82 15 83 16 84
REMARK SMILES IDX 17 85 18 86 19 87 20 88 21 90 22 91 34 92 23 93 24 94 33 95
REMARK SMILES IDX 35 96 25 97 31 98 26 99 27 100 29 101 32 102 28 103 30 104
REMARK H PARENT 95 26 61 37 20 89
REMARK Flexibility Score: inf
ROOT
ATOM      1  C   UNL A   1      32.125  28.978  27.115  1.00  0.00     0.188 C 
ENDROOT
BRANCH   1   2
ATOM      2  C   UNL A   1      32.876  30.283  27.287  1.00  0.00     0.188 C 
BRANCH   2   3
ATOM      3  O   UNL A   1      34.114  30.162  26.632  1.00  0.00    -0.376 OA
BRANCH   3   4
ATOM      4  C   UNL A   1      35.313  29.841  27.302  1.00  0.00     0.202 C 
BRANCH   4   5
ATOM      5  C   UNL A   1      35.495  30.379  28.702  1.00  0.00     0.261 C 
BRANCH   5   6
ATOM      6  O   UNL A   1      35.896  29.447  29.726  1.00  0.00    -0.460 OA
BRANCH   6   7
ATOM      7  C   UNL A   1      36.982  29.309  30.514  1.00  0.00     0.338 C 
ATOM      8  O   UNL A   1      36.809  29.221  31.729  1.00  0.00    -0.246 OA
BRANCH   7   9
ATOM      9  C   UNL A   1      38.379  29.237  30.017  1.00  0.00     0.060 A 
ATOM     10  C   UNL A   1      38.785  29.561  28.730  1.00  0.00     0.016 A 
ATOM     11  C   UNL A   1      39.382  28.974  30.957  1.00  0.00     0.016 A 
ATOM     12  C   UNL A   1      40.084  29.460  28.305  1.00  0.00     0.010 A 
ATOM     13  C   UNL A   1      40.726  28.976  30.575  1.00  0.00     0.010 A 
ATOM     14  C   UNL A   1      41.063  29.181  29.232  1.00  0.00    -0.014 A 
BRANCH  14  15
ATOM     15  C   UNL A   1      42.395  28.941  28.688  1.00  0.00     0.031 A 
ATOM     16  C   UNL A   1      42.650  27.577  28.145  1.00  0.00     0.074 A 
ATOM     17  C   UNL A   1      43.242  29.972  28.519  1.00  0.00     0.049 A 
ATOM     18  N   UNL A   1      43.765  27.054  27.734  1.00  0.00    -0.248 NA
ATOM     19  C   UNL A   1      41.482  26.679  28.043  1.00  0.00     0.031 C 
ATOM     20  C   UNL A   1      42.943  31.378  28.824  1.00  0.00     0.029 A 
ATOM     21  N   UNL A   1      44.513  30.005  28.025  1.00  0.00    -0.354 N 
ATOM     22  C   UNL A   1      43.450  25.747  27.394  1.00  0.00     0.074 A 
ATOM     23  C   UNL A   1      42.038  25.556  27.621  1.00  0.00     0.031 C 
ATOM     24  C   UNL A   1      44.012  32.131  28.520  1.00  0.00     0.029 A 
ATOM     25  C   UNL A   1      45.091  31.250  28.101  1.00  0.00     0.049 A 
ATOM     26  H   UNL A   1      44.970  29.217  27.650  1.00  0.00     0.167 HD
ATOM     27  C   UNL A   1      44.300  24.795  26.961  1.00  0.00     0.037 A 
ATOM     28  C   UNL A   1      46.378  31.599  27.926  1.00  0.00     0.037 A 
ATOM     29  C   UNL A   1      45.694  25.061  26.750  1.00  0.00     0.049 A 
ATOM     30  C   UNL A   1      47.333  30.493  27.567  1.00  0.00     0.074 A 
ATOM     31  C   UNL A   1      46.694  24.191  26.374  1.00  0.00     0.029 A 
ATOM     32  N   UNL A   1      46.279  26.313  26.913  1.00  0.00    -0.354 N 
ATOM     33  N   UNL A   1      47.070  29.224  27.334  1.00  0.00    -0.248 NA
ATOM     34  C   UNL A   1      48.751  30.844  27.468  1.00  0.00     0.031 C 
ATOM     35  C   UNL A   1      47.897  24.904  26.373  1.00  0.00     0.029 A 
ATOM     36  C   UNL A   1      47.636  26.235  26.678  1.00  0.00     0.049 A 
ATOM     37  H   UNL A   1      45.796  27.135  27.160  1.00  0.00     0.167 HD
ATOM     38  C   UNL A   1      48.288  28.629  27.042  1.00  0.00     0.074 A 
ATOM     39  C   UNL A   1      49.284  29.682  27.110  1.00  0.00     0.031 C 
ATOM     40  C   UNL A   1      48.570  27.334  26.748  1.00  0.00     0.037 A 
BRANCH  27  41
ATOM     41  C   UNL A   1      43.759  23.405  26.815  1.00  0.00     0.058 A 
ATOM     42  C   UNL A   1      43.448  22.593  27.916  1.00  0.00     0.135 A 
ATOM     43  C   UNL A   1      43.593  22.861  25.530  1.00  0.00     0.135 A 
ATOM     44  F   UNL A   1      43.640  23.044  29.166  1.00  0.00    -0.206 F 
ATOM     45  C   UNL A   1      43.000  21.287  27.749  1.00  0.00     0.059 A 
ATOM     46  C   UNL A   1      43.120  21.568  25.340  1.00  0.00     0.059 A 
ATOM     47  F   UNL A   1      43.912  23.582  24.444  1.00  0.00    -0.206 F 
ATOM     48  C   UNL A   1      42.834  20.785  26.456  1.00  0.00     0.060 A 
BRANCH  48  49
ATOM     49  S   UNL A   1      42.226  19.098  26.256  1.00  0.00     0.124 S 
ATOM     50  O   UNL A   1      42.353  18.578  27.615  1.00  0.00    -0.237 OA
ATOM     51  O   UNL A   1      40.861  19.317  25.787  1.00  0.00    -0.237 OA
ATOM     52  O   UNL A   1      43.138  18.520  25.276  1.00  0.00    -0.744 OA
ENDBRANCH  48  49
ENDBRANCH  27  41
BRANCH  28  53
ATOM     53  C   UNL A   1      46.833  32.992  28.185  1.00  0.00     0.058 A 
ATOM     54  C   UNL A   1      46.832  33.963  27.173  1.00  0.00     0.135 A 
ATOM     55  C   UNL A   1      47.295  33.384  29.455  1.00  0.00     0.135 A 
ATOM     56  F   UNL A   1      46.402  33.646  25.942  1.00  0.00    -0.206 F 
ATOM     57  C   UNL A   1      47.296  35.257  27.400  1.00  0.00     0.059 A 
ATOM     58  C   UNL A   1      47.734  34.678  29.714  1.00  0.00     0.059 A 
ATOM     59  F   UNL A   1      47.311  32.504  30.469  1.00  0.00    -0.206 F 
ATOM     60  C   UNL A   1      47.747  35.604  28.675  1.00  0.00     0.060 A 
BRANCH  60  61
ATOM     61  S   UNL A   1      48.342  37.285  28.958  1.00  0.00     0.124 S 
ATOM     62  O   UNL A   1      48.765  37.677  27.618  1.00  0.00    -0.237 OA
ATOM     63  O   UNL A   1      47.148  37.949  29.472  1.00  0.00    -0.237 OA
ATOM     64  O   UNL A   1      49.417  37.103  29.930  1.00  0.00    -0.744 OA
ENDBRANCH  60  61
ENDBRANCH  28  53
BRANCH  40  65
ATOM     65  C   UNL A   1      49.998  27.008  26.438  1.00  0.00     0.058 A 
ATOM     66  C   UNL A   1      50.899  26.629  27.443  1.00  0.00     0.135 A 
ATOM     67  C   UNL A   1      50.434  26.975  25.104  1.00  0.00     0.135 A 
ATOM     68  F   UNL A   1      50.526  26.655  28.733  1.00  0.00    -0.206 F 
ATOM     69  C   UNL A   1      52.194  26.236  27.135  1.00  0.00     0.059 A 
ATOM     70  C   UNL A   1      51.711  26.550  24.771  1.00  0.00     0.059 A 
ATOM     71  F   UNL A   1      49.598  27.317  24.111  1.00  0.00    -0.206 F 
ATOM     72  C   UNL A   1      52.585  26.189  25.795  1.00  0.00     0.060 A 
BRANCH  72  73
ATOM     73  S   UNL A   1      54.246  25.604  25.406  1.00  0.00     0.124 S 
ATOM     74  O   UNL A   1      54.878  25.624  26.721  1.00  0.00    -0.237 OA
ATOM     75  O   UNL A   1      53.984  24.282  24.846  1.00  0.00    -0.237 OA
ATOM     76  O   UNL A   1      54.741  26.596  24.456  1.00  0.00    -0.744 OA
ENDBRANCH  72  73
ENDBRANCH  40  65
ENDBRANCH  14  15
ENDBRANCH   7   9
ENDBRANCH   6   7
ENDBRANCH   5   6
ENDBRANCH   4   5
ENDBRANCH   3   4
ENDBRANCH   2   3
ENDBRANCH   1   2
BRANCH   1  77
ATOM     77  O   UNL A   1      32.165  28.443  25.790  1.00  0.00    -0.377 OA
BRANCH  77  78
ATOM     78  C   UNL A   1      30.952  28.366  25.020  1.00  0.00     0.188 C 
BRANCH  78  79
ATOM     79  C   UNL A   1      30.709  29.331  23.858  1.00  0.00     0.188 C 
BRANCH  79  80
ATOM     80  O   UNL A   1      30.762  28.710  22.602  1.00  0.00    -0.376 OA
BRANCH  80  81
ATOM     81  C   UNL A   1      31.745  27.719  22.351  1.00  0.00     0.202 C 
BRANCH  81  82
ATOM     82  C   UNL A   1      31.489  26.266  21.853  1.00  0.00     0.261 C 
BRANCH  82  83
ATOM     83  O   UNL A   1      31.845  25.108  22.641  1.00  0.00    -0.462 OA
BRANCH  83  84
ATOM     84  C   UNL A   1      31.265  25.036  23.871  1.00  0.00     0.331 C 
ATOM     85  O   UNL A   1      30.049  25.138  24.029  1.00  0.00    -0.250 OA
BRANCH  84  86
ATOM     86  C   UNL A   1      32.218  24.833  25.090  1.00  0.00     0.229 C 
BRANCH  86  87
ATOM     87  C   UNL A   1      31.628  24.922  26.514  1.00  0.00     0.193 C 
BRANCH  87  88
ATOM     88  O   UNL A   1      30.487  24.092  26.693  1.00  0.00    -0.394 OA
ATOM     89  H   UNL A   1      30.427  23.822  27.623  1.00  0.00     0.210 HD
ENDBRANCH  87  88
ENDBRANCH  86  87
BRANCH  86  90
ATOM     90  N   UNL A   1      33.047  23.645  24.873  1.00  0.00    -0.257 N 
ATOM     91  C   UNL A   1      34.376  23.624  25.191  1.00  0.00     0.264 C 
ATOM     92  C   UNL A   1      32.571  22.366  24.836  1.00  0.00     0.264 C 
ATOM     93  O   UNL A   1      35.057  24.485  25.695  1.00  0.00    -0.268 OA
ATOM     94  C   UNL A   1      34.843  22.263  24.976  1.00  0.00     0.075 A 
ATOM     95  C   UNL A   1      33.720  21.477  24.798  1.00  0.00     0.075 A 
ATOM     96  O   UNL A   1      31.438  21.937  24.967  1.00  0.00    -0.268 OA
ATOM     97  C   UNL A   1      36.116  21.735  24.997  1.00  0.00     0.074 A 
ATOM     98  C   UNL A   1      33.795  20.102  24.688  1.00  0.00     0.074 A 
ATOM     99  Cl  UNL A   1      37.493  22.765  25.141  1.00  0.00    -0.082 Cl
ATOM    100  C   UNL A   1      36.232  20.342  24.871  1.00  0.00     0.080 A 
ATOM    101  C   UNL A   1      35.075  19.526  24.734  1.00  0.00     0.080 A 
ATOM    102  Cl  UNL A   1      32.367  19.146  24.514  1.00  0.00    -0.082 Cl
ATOM    103  Cl  UNL A   1      37.811  19.611  24.894  1.00  0.00    -0.081 Cl
ATOM    104  Cl  UNL A   1      35.235  17.797  24.634  1.00  0.00    -0.081 Cl
ENDBRANCH  86  90
ENDBRANCH  84  86
ENDBRANCH  83  84
ENDBRANCH  82  83
ENDBRANCH  81  82
ENDBRANCH  80  81
ENDBRANCH  79  80
ENDBRANCH  78  79
ENDBRANCH  77  78
ENDBRANCH   1  77
TORSDOF 26
ENDMDL
MODEL 2
REMARK VINA RESULT:      -9.6      6.674     12.137
REMARK SMILES O=C(OCCOCCOCCOCCOC(=O)[C@@H](CO)N1C(=O)c2c(Cl)c(Cl)c(Cl)c(Cl)c2C1=O)c1ccc(-c2c3nc(c(-c4c(F)cc(S(=O)(=O)[O-])cc4F)c4ccc([nH]4)c(-c4c(F)cc(S(=O)(=O)[O-])cc4F)c4nc(c(-c5c(F)cc(S(=O)(=O)[O-])cc5F)c5ccc2[nH]5)C=C4)C=C3)cc1
REMARK SMILES IDX 8 1 7 2 6 3 5 4 4 5 3 6 2 7 1 8 36 9 37 10 101 11 38 12
REMARK SMILES IDX 100 13 39 14 40 15 41 16 94 17 42 18 99 19 93 20 95 21 43 22
REMARK SMILES IDX 98 23 92 24 91 25 44 27 78 28 57 29 77 30 58 31 61 32 76 33
REMARK SMILES IDX 96 34 59 35 60 36 75 38 97 39 62 40 45 41 46 42 55 43 47 44
REMARK SMILES IDX 48 45 54 46 56 47 49 48 50 49 51 50 52 51 53 52 79 53 80 54
REMARK SMILES IDX 89 55 81 56 82 57 88 58 90 59 83 60 84 61 85 62 86 63 87 64
REMARK SMILES IDX 63 65 64 66 73 67 65 68 66 69 72 70 74 71 67 72 68 73 69 74
REMARK SMILES IDX 70 75 71 76 9 77 10 78 11 79 12 80 13 81 14 82 15 83 16 84
REMARK SMILES IDX 17 85 18 86 19 87 20 88 21 90 22 91 34 92 23 93 24 94 33 95
REMARK SMILES IDX 35 96 25 97 31 98 26 99 27 100 29 101 32 102 28 103 30 104
REMARK H PARENT 95 26 61 37 20 89
REMARK Flexibility Score: inf
ROOT
ATOM      1  C   UNL A   1      41.004  21.703  26.880  1.00  0.00     0.188 C 
ENDROOT
BRANCH   1   2
ATOM      2  C   UNL A   1      42.284  21.151  26.284  1.00  0.00     0.188 C 
BRANCH   2   3
ATOM      3  O   UNL A   1      42.623  21.944  25.173  1.00  0.00    -0.376 OA
BRANCH   3   4
ATOM      4  C   UNL A   1      43.791  22.733  25.116  1.00  0.00     0.202 C 
BRANCH   4   5
ATOM      5  C   UNL A   1      43.618  24.234  25.101  1.00  0.00     0.261 C 
BRANCH   5   6
ATOM      6  O   UNL A   1      42.830  24.825  26.153  1.00  0.00    -0.460 OA
BRANCH   6   7
ATOM      7  C   UNL A   1      41.869  25.769  26.205  1.00  0.00     0.338 C 
ATOM      8  O   UNL A   1      41.166  25.937  25.208  1.00  0.00    -0.246 OA
BRANCH   7   9
ATOM      9  C   UNL A   1      41.581  26.616  27.390  1.00  0.00     0.060 A 
ATOM     10  C   UNL A   1      42.088  27.890  27.600  1.00  0.00     0.016 A 
ATOM     11  C   UNL A   1      40.607  26.159  28.285  1.00  0.00     0.016 A 
ATOM     12  C   UNL A   1      41.815  28.632  28.720  1.00  0.00     0.010 A 
ATOM     13  C   UNL A   1      40.227  26.944  29.377  1.00  0.00     0.010 A 
ATOM     14  C   UNL A   1      40.869  28.166  29.606  1.00  0.00    -0.014 A 
BRANCH  14  15
ATOM     15  C   UNL A   1      40.739  28.926  30.845  1.00  0.00     0.031 A 
ATOM     16  C   UNL A   1      39.622  29.910  30.902  1.00  0.00     0.074 A 
ATOM     17  C   UNL A   1      41.475  28.584  31.917  1.00  0.00     0.049 A 
ATOM     18  N   UNL A   1      39.359  30.801  31.808  1.00  0.00    -0.248 NA
ATOM     19  C   UNL A   1      38.658  29.878  29.782  1.00  0.00     0.031 C 
ATOM     20  C   UNL A   1      42.425  27.464  31.977  1.00  0.00     0.029 A 
ATOM     21  N   UNL A   1      41.521  29.121  33.170  1.00  0.00    -0.354 N 
ATOM     22  C   UNL A   1      38.249  31.483  31.336  1.00  0.00     0.074 A 
ATOM     23  C   UNL A   1      37.865  30.894  30.077  1.00  0.00     0.031 C 
ATOM     24  C   UNL A   1      42.967  27.411  33.203  1.00  0.00     0.029 A 
ATOM     25  C   UNL A   1      42.481  28.547  33.970  1.00  0.00     0.049 A 
ATOM     26  H   UNL A   1      40.927  29.846  33.472  1.00  0.00     0.167 HD
ATOM     27  C   UNL A   1      37.638  32.537  31.916  1.00  0.00     0.037 A 
ATOM     28  C   UNL A   1      42.955  28.964  35.157  1.00  0.00     0.037 A 
ATOM     29  C   UNL A   1      38.072  33.066  33.177  1.00  0.00     0.049 A 
ATOM     30  C   UNL A   1      42.345  30.218  35.724  1.00  0.00     0.074 A 
ATOM     31  C   UNL A   1      37.600  34.163  33.865  1.00  0.00     0.029 A 
ATOM     32  N   UNL A   1      39.103  32.520  33.935  1.00  0.00    -0.354 N 
ATOM     33  N   UNL A   1      41.354  30.938  35.244  1.00  0.00    -0.248 NA
ATOM     34  C   UNL A   1      42.919  30.735  36.968  1.00  0.00     0.031 C 
ATOM     35  C   UNL A   1      38.389  34.319  35.007  1.00  0.00     0.029 A 
ATOM     36  C   UNL A   1      39.307  33.276  35.070  1.00  0.00     0.049 A 
ATOM     37  H   UNL A   1      39.613  31.711  33.697  1.00  0.00     0.167 HD
ATOM     38  C   UNL A   1      41.171  31.983  36.137  1.00  0.00     0.074 A 
ATOM     39  C   UNL A   1      42.145  31.788  37.196  1.00  0.00     0.031 C 
ATOM     40  C   UNL A   1      40.289  33.013  36.095  1.00  0.00     0.037 A 
BRANCH  27  41
ATOM     41  C   UNL A   1      36.554  33.218  31.136  1.00  0.00     0.058 A 
ATOM     42  C   UNL A   1      36.810  33.974  29.983  1.00  0.00     0.135 A 
ATOM     43  C   UNL A   1      35.227  33.142  31.591  1.00  0.00     0.135 A 
ATOM     44  F   UNL A   1      38.067  34.125  29.537  1.00  0.00    -0.206 F 
ATOM     45  C   UNL A   1      35.789  34.641  29.313  1.00  0.00     0.059 A 
ATOM     46  C   UNL A   1      34.188  33.775  30.920  1.00  0.00     0.059 A 
ATOM     47  F   UNL A   1      34.933  32.462  32.710  1.00  0.00    -0.206 F 
ATOM     48  C   UNL A   1      34.480  34.530  29.786  1.00  0.00     0.060 A 
BRANCH  48  49
ATOM     49  S   UNL A   1      33.164  35.378  28.889  1.00  0.00     0.124 S 
ATOM     50  O   UNL A   1      32.265  35.754  29.975  1.00  0.00    -0.237 OA
ATOM     51  O   UNL A   1      33.884  36.477  28.253  1.00  0.00    -0.237 OA
ATOM     52  O   UNL A   1      32.656  34.355  27.981  1.00  0.00    -0.744 OA
ENDBRANCH  48  49
ENDBRANCH  27  41
BRANCH  28  53
ATOM     53  C   UNL A   1      44.100  28.270  35.809  1.00  0.00     0.058 A 
ATOM     54  C   UNL A   1      43.899  27.220  36.716  1.00  0.00     0.135 A 
ATOM     55  C   UNL A   1      45.429  28.653  35.548  1.00  0.00     0.135 A 
ATOM     56  F   UNL A   1      42.653  26.813  37.003  1.00  0.00    -0.206 F 
ATOM     57  C   UNL A   1      44.965  26.595  37.360  1.00  0.00     0.059 A 
ATOM     58  C   UNL A   1      46.511  28.023  36.154  1.00  0.00     0.059 A 
ATOM     59  F   UNL A   1      45.688  29.644  34.680  1.00  0.00    -0.206 F 
ATOM     60  C   UNL A   1      46.268  27.006  37.072  1.00  0.00     0.060 A 
BRANCH  60  61
ATOM     61  S   UNL A   1      47.642  26.187  37.910  1.00  0.00     0.124 S 
ATOM     62  O   UNL A   1      48.770  26.568  37.067  1.00  0.00    -0.237 OA
ATOM     63  O   UNL A   1      47.599  26.797  39.235  1.00  0.00    -0.237 OA
ATOM     64  O   UNL A   1      47.271  24.775  37.866  1.00  0.00    -0.744 OA
ENDBRANCH  60  61
ENDBRANCH  28  53
BRANCH  40  65
ATOM     65  C   UNL A   1      40.316  33.971  37.246  1.00  0.00     0.058 A 
ATOM     66  C   UNL A   1      41.128  35.114  37.231  1.00  0.00     0.135 A 
ATOM     67  C   UNL A   1      39.437  33.790  38.326  1.00  0.00     0.135 A 
ATOM     68  F   UNL A   1      41.989  35.321  36.221  1.00  0.00    -0.206 F 
ATOM     69  C   UNL A   1      41.075  36.045  38.258  1.00  0.00     0.059 A 
ATOM     70  C   UNL A   1      39.342  34.727  39.344  1.00  0.00     0.059 A 
ATOM     71  F   UNL A   1      38.633  32.716  38.372  1.00  0.00    -0.206 F 
ATOM     72  C   UNL A   1      40.170  35.848  39.304  1.00  0.00     0.060 A 
BRANCH  72  73
ATOM     73  S   UNL A   1      40.059  37.105  40.592  1.00  0.00     0.124 S 
ATOM     74  O   UNL A   1      40.331  36.319  41.790  1.00  0.00    -0.237 OA
ATOM     75  O   UNL A   1      41.104  38.044  40.197  1.00  0.00    -0.237 OA
ATOM     76  O   UNL A   1      38.693  37.603  40.463  1.00  0.00    -0.744 OA
ENDBRANCH  72  73
ENDBRANCH  40  65
ENDBRANCH  14  15
ENDBRANCH   7   9
ENDBRANCH   6   7
ENDBRANCH   5   6
ENDBRANCH   4   5
ENDBRANCH   3   4
ENDBRANCH   2   3
ENDBRANCH   1   2
BRANCH   1  77
ATOM     77  O   UNL A   1      40.004  22.047  25.918  1.00  0.00    -0.377 OA
BRANCH  77  78
ATOM     78  C   UNL A   1      38.668  22.345  26.361  1.00  0.00     0.188 C 
BRANCH  78  79
ATOM     79  C   UNL A   1      38.044  23.712  26.078  1.00  0.00     0.188 C 
BRANCH  79  80
ATOM     80  O   UNL A   1      36.835  23.634  25.372  1.00  0.00    -0.376 OA
BRANCH  80  81
ATOM     81  C   UNL A   1      35.724  22.972  25.956  1.00  0.00     0.202 C 
BRANCH  81  82
ATOM     82  C   UNL A   1      34.888  21.826  25.314  1.00  0.00     0.261 C 
BRANCH  82  83
ATOM     83  O   UNL A   1      33.586  22.057  24.730  1.00  0.00    -0.462 OA
BRANCH  83  84
ATOM     84  C   UNL A   1      33.064  23.299  24.935  1.00  0.00     0.331 C 
ATOM     85  O   UNL A   1      32.317  23.547  25.881  1.00  0.00    -0.250 OA
BRANCH  84  86
ATOM     86  C   UNL A   1      33.445  24.404  23.902  1.00  0.00     0.229 C 
BRANCH  86  87
ATOM     87  C   UNL A   1      33.367  24.070  22.397  1.00  0.00     0.193 C 
BRANCH  87  88
ATOM     88  O   UNL A   1      32.404  23.067  22.103  1.00  0.00    -0.394 OA
ATOM     89  H   UNL A   1      31.534  23.349  22.425  1.00  0.00     0.210 HD
ENDBRANCH  87  88
ENDBRANCH  86  87
BRANCH  86  90
ATOM     90  N   UNL A   1      32.780  25.660  24.259  1.00  0.00    -0.257 N 
ATOM     91  C   UNL A   1      33.362  26.573  25.093  1.00  0.00     0.264 C 
ATOM     92  C   UNL A   1      31.842  26.284  23.490  1.00  0.00     0.264 C 
ATOM     93  O   UNL A   1      34.448  26.545  25.623  1.00  0.00    -0.268 OA
ATOM     94  C   UNL A   1      32.495  27.741  25.114  1.00  0.00     0.075 A 
ATOM     95  C   UNL A   1      31.579  27.581  24.092  1.00  0.00     0.075 A 
ATOM     96  O   UNL A   1      31.371  25.977  22.408  1.00  0.00    -0.268 OA
ATOM     97  C   UNL A   1      32.531  28.874  25.900  1.00  0.00     0.074 A 
ATOM     98  C   UNL A   1      30.676  28.568  23.751  1.00  0.00     0.074 A 
ATOM     99  Cl  UNL A   1      33.640  28.996  27.217  1.00  0.00    -0.082 Cl
ATOM    100  C   UNL A   1      31.616  29.894  25.593  1.00  0.00     0.080 A 
ATOM    101  C   UNL A   1      30.703  29.748  24.512  1.00  0.00     0.080 A 
ATOM    102  Cl  UNL A   1      29.577  28.351  22.436  1.00  0.00    -0.082 Cl
ATOM    103  Cl  UNL A   1      31.612  31.351  26.543  1.00  0.00    -0.081 Cl
ATOM    104  Cl  UNL A   1      29.614  31.045  24.112  1.00  0.00    -0.081 Cl
ENDBRANCH  86  90
ENDBRANCH  84  86
ENDBRANCH  83  84
ENDBRANCH  82  83
ENDBRANCH  81  82
ENDBRANCH  80  81
ENDBRANCH  79  80
ENDBRANCH  78  79
ENDBRANCH  77  78
ENDBRANCH   1  77
TORSDOF 26
ENDMDL
MODEL 3
REMARK VINA RESULT:      -9.6      6.559     11.934
REMARK SMILES O=C(OCCOCCOCCOCCOC(=O)[C@@H](CO)N1C(=O)c2c(Cl)c(Cl)c(Cl)c(Cl)c2C1=O)c1ccc(-c2c3nc(c(-c4c(F)cc(S(=O)(=O)[O-])cc4F)c4ccc([nH]4)c(-c4c(F)cc(S(=O)(=O)[O-])cc4F)c4nc(c(-c5c(F)cc(S(=O)(=O)[O-])cc5F)c5ccc2[nH]5)C=C4)C=C3)cc1
REMARK SMILES IDX 8 1 7 2 6 3 5 4 4 5 3 6 2 7 1 8 36 9 37 10 101 11 38 12
REMARK SMILES IDX 100 13 39 14 40 15 41 16 94 17 42 18 99 19 93 20 95 21 43 22
REMARK SMILES IDX 98 23 92 24 91 25 44 27 78 28 57 29 77 30 58 31 61 32 76 33
REMARK SMILES IDX 96 34 59 35 60 36 75 38 97 39 62 40 45 41 46 42 55 43 47 44
REMARK SMILES IDX 48 45 54 46 56 47 49 48 50 49 51 50 52 51 53 52 79 53 80 54
REMARK SMILES IDX 89 55 81 56 82 57 88 58 90 59 83 60 84 61 85 62 86 63 87 64
REMARK SMILES IDX 63 65 64 66 73 67 65 68 66 69 72 70 74 71 67 72 68 73 69 74
REMARK SMILES IDX 70 75 71 76 9 77 10 78 11 79 12 80 13 81 14 82 15 83 16 84
REMARK SMILES IDX 17 85 18 86 19 87 20 88 21 90 22 91 34 92 23 93 24 94 33 95
REMARK SMILES IDX 35 96 25 97 31 98 26 99 27 100 29 101 32 102 28 103 30 104
REMARK H PARENT 95 26 61 37 20 89
REMARK Flexibility Score: inf
ROOT
ATOM      1  C   UNL A   1      40.930  21.903  26.899  1.00  0.00     0.188 C 
ENDROOT
BRANCH   1   2
ATOM      2  C   UNL A   1      42.157  21.262  26.283  1.00  0.00     0.188 C 
BRANCH   2   3
ATOM      3  O   UNL A   1      42.555  22.049  25.188  1.00  0.00    -0.376 OA
BRANCH   3   4
ATOM      4  C   UNL A   1      43.808  22.692  25.114  1.00  0.00     0.202 C 
BRANCH   4   5
ATOM      5  C   UNL A   1      43.815  24.200  25.031  1.00  0.00     0.261 C 
BRANCH   5   6
ATOM      6  O   UNL A   1      43.131  24.927  26.072  1.00  0.00    -0.460 OA
BRANCH   6   7
ATOM      7  C   UNL A   1      42.210  25.911  26.096  1.00  0.00     0.338 C 
ATOM      8  O   UNL A   1      41.586  26.147  25.062  1.00  0.00    -0.246 OA
BRANCH   7   9
ATOM      9  C   UNL A   1      41.877  26.726  27.292  1.00  0.00     0.060 A 
ATOM     10  C   UNL A   1      42.335  28.014  27.531  1.00  0.00     0.016 A 
ATOM     11  C   UNL A   1      40.908  26.219  28.165  1.00  0.00     0.016 A 
ATOM     12  C   UNL A   1      42.021  28.725  28.660  1.00  0.00     0.010 A 
ATOM     13  C   UNL A   1      40.486  26.971  29.265  1.00  0.00     0.010 A 
ATOM     14  C   UNL A   1      41.081  28.210  29.524  1.00  0.00    -0.014 A 
BRANCH  14  15
ATOM     15  C   UNL A   1      40.908  28.943  30.774  1.00  0.00     0.031 A 
ATOM     16  C   UNL A   1      39.770  29.903  30.824  1.00  0.00     0.074 A 
ATOM     17  C   UNL A   1      41.625  28.594  31.857  1.00  0.00     0.049 A 
ATOM     18  N   UNL A   1      39.469  30.772  31.741  1.00  0.00    -0.248 NA
ATOM     19  C   UNL A   1      38.833  29.875  29.682  1.00  0.00     0.031 C 
ATOM     20  C   UNL A   1      42.595  27.491  31.916  1.00  0.00     0.029 A 
ATOM     21  N   UNL A   1      41.633  29.107  33.121  1.00  0.00    -0.354 N 
ATOM     22  C   UNL A   1      38.357  31.442  31.257  1.00  0.00     0.074 A 
ATOM     23  C   UNL A   1      38.014  30.870  29.978  1.00  0.00     0.031 C 
ATOM     24  C   UNL A   1      43.111  27.425  33.153  1.00  0.00     0.029 A 
ATOM     25  C   UNL A   1      42.585  28.536  33.931  1.00  0.00     0.049 A 
ATOM     26  H   UNL A   1      41.018  29.815  33.422  1.00  0.00     0.167 HD
ATOM     27  C   UNL A   1      37.713  32.472  31.842  1.00  0.00     0.037 A 
ATOM     28  C   UNL A   1      43.024  28.938  35.137  1.00  0.00     0.037 A 
ATOM     29  C   UNL A   1      38.107  32.984  33.123  1.00  0.00     0.049 A 
ATOM     30  C   UNL A   1      42.376  30.168  35.713  1.00  0.00     0.074 A 
ATOM     31  C   UNL A   1      37.598  34.058  33.821  1.00  0.00     0.029 A 
ATOM     32  N   UNL A   1      39.131  32.443  33.895  1.00  0.00    -0.354 N 
ATOM     33  N   UNL A   1      41.382  30.879  35.224  1.00  0.00    -0.248 NA
ATOM     34  C   UNL A   1      42.911  30.672  36.980  1.00  0.00     0.031 C 
ATOM     35  C   UNL A   1      38.358  34.206  34.984  1.00  0.00     0.029 A 
ATOM     36  C   UNL A   1      39.294  33.180  35.049  1.00  0.00     0.049 A 
ATOM     37  H   UNL A   1      39.662  31.649  33.653  1.00  0.00     0.167 HD
ATOM     38  C   UNL A   1      41.159  31.902  36.133  1.00  0.00     0.074 A 
ATOM     39  C   UNL A   1      42.112  31.705  37.210  1.00  0.00     0.031 C 
ATOM     40  C   UNL A   1      40.258  32.916  36.091  1.00  0.00     0.037 A 
BRANCH  27  41
ATOM     41  C   UNL A   1      36.634  33.147  31.051  1.00  0.00     0.058 A 
ATOM     42  C   UNL A   1      36.905  33.966  29.945  1.00  0.00     0.135 A 
ATOM     43  C   UNL A   1      35.294  32.999  31.447  1.00  0.00     0.135 A 
ATOM     44  F   UNL A   1      38.171  34.185  29.558  1.00  0.00    -0.206 F 
ATOM     45  C   UNL A   1      35.885  34.624  29.265  1.00  0.00     0.059 A 
ATOM     46  C   UNL A   1      34.258  33.624  30.764  1.00  0.00     0.059 A 
ATOM     47  F   UNL A   1      34.984  32.256  32.521  1.00  0.00    -0.206 F 
ATOM     48  C   UNL A   1      34.563  34.442  29.678  1.00  0.00     0.060 A 
BRANCH  48  49
ATOM     49  S   UNL A   1      33.250  35.280  28.768  1.00  0.00     0.124 S 
ATOM     50  O   UNL A   1      32.481  35.882  29.853  1.00  0.00    -0.237 OA
ATOM     51  O   UNL A   1      34.002  36.211  27.933  1.00  0.00    -0.237 OA
ATOM     52  O   UNL A   1      32.585  34.196  28.053  1.00  0.00    -0.744 OA
ENDBRANCH  48  49
ENDBRANCH  27  41
BRANCH  28  53
ATOM     53  C   UNL A   1      44.166  28.254  35.801  1.00  0.00     0.058 A 
ATOM     54  C   UNL A   1      45.495  28.562  35.475  1.00  0.00     0.135 A 
ATOM     55  C   UNL A   1      43.955  27.258  36.773  1.00  0.00     0.135 A 
ATOM     56  F   UNL A   1      45.757  29.503  34.554  1.00  0.00    -0.206 F 
ATOM     57  C   UNL A   1      46.567  27.895  36.063  1.00  0.00     0.059 A 
ATOM     58  C   UNL A   1      45.009  26.600  37.398  1.00  0.00     0.059 A 
ATOM     59  F   UNL A   1      42.706  26.925  37.137  1.00  0.00    -0.206 F 
ATOM     60  C   UNL A   1      46.313  26.913  37.023  1.00  0.00     0.060 A 
BRANCH  60  61
ATOM     61  S   UNL A   1      47.710  26.057  37.782  1.00  0.00     0.124 S 
ATOM     62  O   UNL A   1      48.039  25.070  36.760  1.00  0.00    -0.237 OA
ATOM     63  O   UNL A   1      48.672  27.141  37.958  1.00  0.00    -0.237 OA
ATOM     64  O   UNL A   1      47.147  25.522  39.018  1.00  0.00    -0.744 OA
ENDBRANCH  60  61
ENDBRANCH  28  53
BRANCH  40  65
ATOM     65  C   UNL A   1      40.239  33.851  37.260  1.00  0.00     0.058 A 
ATOM     66  C   UNL A   1      39.350  33.673  38.329  1.00  0.00     0.135 A 
ATOM     67  C   UNL A   1      41.197  34.873  37.352  1.00  0.00     0.135 A 
ATOM     68  F   UNL A   1      38.412  32.713  38.278  1.00  0.00    -0.206 F 
ATOM     69  C   UNL A   1      39.405  34.486  39.452  1.00  0.00     0.059 A 
ATOM     70  C   UNL A   1      41.293  35.674  38.481  1.00  0.00     0.059 A 
ATOM     71  F   UNL A   1      42.076  35.068  36.356  1.00  0.00    -0.206 F 
ATOM     72  C   UNL A   1      40.388  35.476  39.522  1.00  0.00     0.060 A 
BRANCH  72  73
ATOM     73  S   UNL A   1      40.495  36.475  41.019  1.00  0.00     0.124 S 
ATOM     74  O   UNL A   1      41.360  35.653  41.858  1.00  0.00    -0.237 OA
ATOM     75  O   UNL A   1      41.082  37.715  40.521  1.00  0.00    -0.237 OA
ATOM     76  O   UNL A   1      39.106  36.577  41.459  1.00  0.00    -0.744 OA
ENDBRANCH  72  73
ENDBRANCH  40  65
ENDBRANCH  14  15
ENDBRANCH   7   9
ENDBRANCH   6   7
ENDBRANCH   5   6
ENDBRANCH   4   5
ENDBRANCH   3   4
ENDBRANCH   2   3
ENDBRANCH   1   2
BRANCH   1  77
ATOM     77  O   UNL A   1      39.929  22.291  25.955  1.00  0.00    -0.377 OA
BRANCH  77  78
ATOM     78  C   UNL A   1      38.613  22.640  26.420  1.00  0.00     0.188 C 
BRANCH  78  79
ATOM     79  C   UNL A   1      37.830  23.772  25.753  1.00  0.00     0.188 C 
BRANCH  79  80
ATOM     80  O   UNL A   1      36.623  23.347  25.179  1.00  0.00    -0.376 OA
BRANCH  80  81
ATOM     81  C   UNL A   1      35.579  22.871  26.013  1.00  0.00     0.202 C 
BRANCH  81  82
ATOM     82  C   UNL A   1      35.122  21.391  26.170  1.00  0.00     0.261 C 
BRANCH  82  83
ATOM     83  O   UNL A   1      33.731  21.003  26.094  1.00  0.00    -0.462 OA
BRANCH  83  84
ATOM     84  C   UNL A   1      32.852  21.857  26.690  1.00  0.00     0.331 C 
ATOM     85  O   UNL A   1      32.883  22.090  27.897  1.00  0.00    -0.250 OA
BRANCH  84  86
ATOM     86  C   UNL A   1      31.782  22.524  25.771  1.00  0.00     0.229 C 
BRANCH  86  87
ATOM     87  C   UNL A   1      30.289  22.357  26.129  1.00  0.00     0.193 C 
BRANCH  87  88
ATOM     88  O   UNL A   1      30.038  22.487  27.523  1.00  0.00    -0.394 OA
ATOM     89  H   UNL A   1      29.467  21.760  27.817  1.00  0.00     0.210 HD
ENDBRANCH  87  88
ENDBRANCH  86  87
BRANCH  86  90
ATOM     90  N   UNL A   1      32.167  23.911  25.496  1.00  0.00    -0.257 N 
ATOM     91  C   UNL A   1      32.364  24.366  24.223  1.00  0.00     0.264 C 
ATOM     92  C   UNL A   1      31.891  24.967  26.316  1.00  0.00     0.264 C 
ATOM     93  O   UNL A   1      32.242  23.782  23.172  1.00  0.00    -0.268 OA
ATOM     94  C   UNL A   1      32.595  25.799  24.315  1.00  0.00     0.075 A 
ATOM     95  C   UNL A   1      32.260  26.178  25.602  1.00  0.00     0.075 A 
ATOM     96  O   UNL A   1      31.305  25.010  27.383  1.00  0.00    -0.268 OA
ATOM     97  C   UNL A   1      32.992  26.710  23.360  1.00  0.00     0.074 A 
ATOM     98  C   UNL A   1      32.246  27.500  26.000  1.00  0.00     0.074 A 
ATOM     99  Cl  UNL A   1      33.478  26.182  21.790  1.00  0.00    -0.082 Cl
ATOM    100  C   UNL A   1      33.007  28.063  23.733  1.00  0.00     0.080 A 
ATOM    101  C   UNL A   1      32.619  28.459  25.043  1.00  0.00     0.080 A 
ATOM    102  Cl  UNL A   1      31.777  27.940  27.603  1.00  0.00    -0.082 Cl
ATOM    103  Cl  UNL A   1      33.495  29.264  22.573  1.00  0.00    -0.081 Cl
ATOM    104  Cl  UNL A   1      32.591  30.145  25.472  1.00  0.00    -0.081 Cl
ENDBRANCH  86  90
ENDBRANCH  84  86
ENDBRANCH  83  84
ENDBRANCH  82  83
ENDBRANCH  81  82
ENDBRANCH  80  81
ENDBRANCH  79  80
ENDBRANCH  78  79
ENDBRANCH  77  78
ENDBRANCH   1  77
TORSDOF 26
ENDMDL
