MODEL 1
REMARK VINA RESULT:      -6.7      0.000      0.000
REMARK SMILES Cc1ccc(CNC(=O)c2csc(/C=C/C(=O)OCCOCCOCCOCCOC(=O)c3ccc(-c4c5nc(c(-c6c(F)cc(S(=O)(=O)[O-])cc6F)c6ccc([nH]6)c(-c6c(F)cc(S(=O)(=O)[O-])cc6F)c6nc(c(-c7c(F)cc(S(=O)(=O)[O-])cc7F)c7ccc4[nH]7)C=C6)C=C5)cc3)c2)s1
REMARK SMILES IDX 23 1 22 2 21 3 20 4 19 5 18 6 16 7 17 8 15 9 14 10 13 11
REMARK SMILES IDX 10 12 11 13 99 14 12 15 8 16 7 17 9 19 6 20 5 21 1 22 2 23
REMARK SMILES IDX 3 24 100 25 4 26 24 27 25 28 26 29 27 30 28 31 29 32 30 33
REMARK SMILES IDX 31 34 32 35 33 36 34 37 98 38 35 39 97 40 36 41 37 42 38 43
REMARK SMILES IDX 91 44 39 45 96 46 90 47 92 48 40 49 95 50 89 51 88 52 41 54
REMARK SMILES IDX 75 55 54 56 74 57 55 58 58 59 73 60 93 61 56 62 57 63 72 65
REMARK SMILES IDX 94 66 59 67 42 68 43 69 52 70 44 71 45 72 51 73 53 74 46 75
REMARK SMILES IDX 47 76 48 77 49 78 50 79 76 80 77 81 86 82 78 83 79 84 85 85
REMARK SMILES IDX 87 86 80 87 81 88 82 89 83 90 84 91 60 92 61 93 70 94 62 95
REMARK SMILES IDX 63 96 69 97 71 98 64 99 65 100 66 101 67 102 68 103
REMARK H PARENT 7 18 92 53 58 64
REMARK Flexibility Score: inf
ROOT
ATOM      1  C   UNL A   1      45.124  19.924  23.970  1.00  0.00     0.188 C 
ENDROOT
BRANCH   1   2
ATOM      2  C   UNL A   1      46.372  20.490  24.672  1.00  0.00     0.188 C 
BRANCH   2   3
ATOM      3  O   UNL A   1      46.102  21.612  25.492  1.00  0.00    -0.376 OA
BRANCH   3   4
ATOM      4  C   UNL A   1      45.941  22.902  24.930  1.00  0.00     0.202 C 
BRANCH   4   5
ATOM      5  C   UNL A   1      46.450  24.185  25.611  1.00  0.00     0.261 C 
BRANCH   5   6
ATOM      6  O   UNL A   1      45.799  25.406  25.259  1.00  0.00    -0.460 OA
BRANCH   6   7
ATOM      7  C   UNL A   1      46.580  26.456  24.942  1.00  0.00     0.330 C 
ATOM      8  O   UNL A   1      47.245  26.583  23.925  1.00  0.00    -0.247 OA
BRANCH   7   9
ATOM      9  C   UNL A   1      46.406  27.549  25.924  1.00  0.00     0.095 C 
ATOM     10  C   UNL A   1      45.755  28.695  25.668  1.00  0.00     0.026 C 
BRANCH  10  11
ATOM     11  C   UNL A   1      45.606  29.730  26.640  1.00  0.00     0.028 A 
ATOM     12  C   UNL A   1      46.182  31.555  28.013  1.00  0.00     0.051 A 
ATOM     13  C   UNL A   1      44.802  31.593  28.059  1.00  0.00     0.079 A 
ATOM     14  C   UNL A   1      46.617  30.361  27.345  1.00  0.00     0.033 A 
ATOM     15  S   UNL A   1      44.080  30.351  27.141  1.00  0.00    -0.144 S 
BRANCH  12  16
ATOM     16  C   UNL A   1      47.001  32.609  28.605  1.00  0.00     0.252 C 
ATOM     17  N   UNL A   1      47.538  33.571  27.788  1.00  0.00    -0.347 N 
ATOM     18  H   UNL A   1      48.153  34.202  28.227  1.00  0.00     0.164 HD
ATOM     19  O   UNL A   1      47.175  32.689  29.820  1.00  0.00    -0.269 OA
BRANCH  17  20
ATOM     20  C   UNL A   1      47.324  33.793  26.372  1.00  0.00     0.163 C 
BRANCH  20  21
ATOM     21  C   UNL A   1      48.166  34.922  25.873  1.00  0.00     0.024 A 
ATOM     22  C   UNL A   1      51.425  36.817  24.794  1.00  0.00     0.056 C 
ATOM     23  C   UNL A   1      50.072  36.335  25.187  1.00  0.00     0.002 A 
ATOM     24  C   UNL A   1      48.929  37.074  25.409  1.00  0.00     0.015 A 
ATOM     25  S   UNL A   1      49.805  34.666  25.441  1.00  0.00    -0.144 S 
ATOM     26  C   UNL A   1      47.828  36.258  25.799  1.00  0.00     0.017 A 
ENDBRANCH  20  21
ENDBRANCH  17  20
ENDBRANCH  12  16
ENDBRANCH  10  11
ENDBRANCH   7   9
ENDBRANCH   6   7
ENDBRANCH   5   6
ENDBRANCH   4   5
ENDBRANCH   3   4
ENDBRANCH   2   3
ENDBRANCH   1   2
BRANCH   1  27
ATOM     27  O   UNL A   1      43.935  19.896  24.743  1.00  0.00    -0.377 OA
BRANCH  27  28
ATOM     28  C   UNL A   1      43.522  18.673  25.357  1.00  0.00     0.188 C 
BRANCH  28  29
ATOM     29  C   UNL A   1      42.479  18.605  26.502  1.00  0.00     0.188 C 
BRANCH  29  30
ATOM     30  O   UNL A   1      41.129  18.761  26.094  1.00  0.00    -0.376 OA
BRANCH  30  31
ATOM     31  C   UNL A   1      40.642  20.076  25.896  1.00  0.00     0.202 C 
BRANCH  31  32
ATOM     32  C   UNL A   1      40.867  21.070  27.043  1.00  0.00     0.261 C 
BRANCH  32  33
ATOM     33  O   UNL A   1      42.167  21.673  27.107  1.00  0.00    -0.460 OA
BRANCH  33  34
ATOM     34  C   UNL A   1      42.421  22.679  26.238  1.00  0.00     0.338 C 
ATOM     35  O   UNL A   1      42.487  22.603  25.030  1.00  0.00    -0.246 OA
BRANCH  34  36
ATOM     36  C   UNL A   1      42.421  23.941  27.012  1.00  0.00     0.060 A 
ATOM     37  C   UNL A   1      42.640  25.152  26.343  1.00  0.00     0.016 A 
ATOM     38  C   UNL A   1      42.195  23.923  28.390  1.00  0.00     0.016 A 
ATOM     39  C   UNL A   1      42.665  26.350  27.060  1.00  0.00     0.010 A 
ATOM     40  C   UNL A   1      42.239  25.120  29.108  1.00  0.00     0.010 A 
ATOM     41  C   UNL A   1      42.507  26.335  28.453  1.00  0.00    -0.014 A 
BRANCH  41  42
ATOM     42  C   UNL A   1      42.812  27.552  29.246  1.00  0.00     0.031 A 
ATOM     43  C   UNL A   1      44.223  27.754  29.728  1.00  0.00     0.074 A 
ATOM     44  C   UNL A   1      41.863  28.462  29.529  1.00  0.00     0.049 A 
ATOM     45  N   UNL A   1      44.716  28.698  30.485  1.00  0.00    -0.248 NA
ATOM     46  C   UNL A   1      45.211  26.750  29.296  1.00  0.00     0.031 C 
ATOM     47  C   UNL A   1      40.471  28.400  29.087  1.00  0.00     0.029 A 
ATOM     48  N   UNL A   1      41.929  29.618  30.270  1.00  0.00    -0.354 N 
ATOM     49  C   UNL A   1      46.066  28.398  30.630  1.00  0.00     0.074 A 
ATOM     50  C   UNL A   1      46.308  27.168  29.909  1.00  0.00     0.031 C 
ATOM     51  C   UNL A   1      39.810  29.464  29.577  1.00  0.00     0.029 A 
ATOM     52  C   UNL A   1      40.722  30.263  30.396  1.00  0.00     0.049 A 
ATOM     53  H   UNL A   1      42.763  29.953  30.670  1.00  0.00     0.167 HD
ATOM     54  C   UNL A   1      47.021  29.091  31.297  1.00  0.00     0.037 A 
ATOM     55  C   UNL A   1      40.386  31.356  31.114  1.00  0.00     0.037 A 
ATOM     56  C   UNL A   1      46.772  30.314  32.015  1.00  0.00     0.049 A 
ATOM     57  C   UNL A   1      41.450  32.069  31.911  1.00  0.00     0.074 A 
ATOM     58  C   UNL A   1      47.674  31.101  32.708  1.00  0.00     0.029 A 
ATOM     59  N   UNL A   1      45.531  30.920  32.144  1.00  0.00    -0.354 N 
ATOM     60  N   UNL A   1      42.728  31.791  32.019  1.00  0.00    -0.248 NA
ATOM     61  C   UNL A   1      41.027  33.247  32.682  1.00  0.00     0.031 C 
ATOM     62  C   UNL A   1      46.968  32.150  33.307  1.00  0.00     0.029 A 
ATOM     63  C   UNL A   1      45.638  32.055  32.931  1.00  0.00     0.049 A 
ATOM     64  H   UNL A   1      44.697  30.592  31.736  1.00  0.00     0.167 HD
ATOM     65  C   UNL A   1      43.266  32.777  32.844  1.00  0.00     0.074 A 
ATOM     66  C   UNL A   1      42.177  33.663  33.196  1.00  0.00     0.031 C 
ATOM     67  C   UNL A   1      44.545  32.934  33.268  1.00  0.00     0.037 A 
BRANCH  54  68
ATOM     68  C   UNL A   1      48.415  28.526  31.306  1.00  0.00     0.058 A 
ATOM     69  C   UNL A   1      49.365  28.875  30.331  1.00  0.00     0.135 A 
ATOM     70  C   UNL A   1      48.817  27.645  32.323  1.00  0.00     0.135 A 
ATOM     71  F   UNL A   1      49.030  29.696  29.323  1.00  0.00    -0.206 F 
ATOM     72  C   UNL A   1      50.654  28.351  30.351  1.00  0.00     0.059 A 
ATOM     73  C   UNL A   1      50.110  27.134  32.382  1.00  0.00     0.059 A 
ATOM     74  F   UNL A   1      47.949  27.274  33.278  1.00  0.00    -0.206 F 
ATOM     75  C   UNL A   1      51.018  27.482  31.382  1.00  0.00     0.060 A 
BRANCH  75  76
ATOM     76  S   UNL A   1      52.696  26.820  31.398  1.00  0.00     0.124 S 
ATOM     77  O   UNL A   1      53.466  27.986  31.820  1.00  0.00    -0.237 OA
ATOM     78  O   UNL A   1      52.594  25.741  32.375  1.00  0.00    -0.237 OA
ATOM     79  O   UNL A   1      52.908  26.394  30.018  1.00  0.00    -0.744 OA
ENDBRANCH  75  76
ENDBRANCH  54  68
BRANCH  55  80
ATOM     80  C   UNL A   1      38.978  31.837  31.127  1.00  0.00     0.058 A 
ATOM     81  C   UNL A   1      38.020  31.264  31.977  1.00  0.00     0.135 A 
ATOM     82  C   UNL A   1      38.557  32.875  30.279  1.00  0.00     0.135 A 
ATOM     83  F   UNL A   1      38.366  30.258  32.795  1.00  0.00    -0.206 F 
ATOM     84  C   UNL A   1      36.696  31.692  31.980  1.00  0.00     0.059 A 
ATOM     85  C   UNL A   1      37.245  33.340  30.285  1.00  0.00     0.059 A 
ATOM     86  F   UNL A   1      39.432  33.463  29.449  1.00  0.00    -0.206 F 
ATOM     87  C   UNL A   1      36.320  32.736  31.134  1.00  0.00     0.060 A 
BRANCH  87  88
ATOM     88  S   UNL A   1      34.612  33.321  31.185  1.00  0.00     0.124 S 
ATOM     89  O   UNL A   1      34.796  34.758  31.345  1.00  0.00    -0.237 OA
ATOM     90  O   UNL A   1      34.100  32.881  29.891  1.00  0.00    -0.237 OA
ATOM     91  O   UNL A   1      34.052  32.624  32.342  1.00  0.00    -0.744 OA
ENDBRANCH  87  88
ENDBRANCH  55  80
BRANCH  67  92
ATOM     92  C   UNL A   1      44.854  34.131  34.129  1.00  0.00     0.058 A 
ATOM     93  C   UNL A   1      44.784  34.078  35.530  1.00  0.00     0.135 A 
ATOM     94  C   UNL A   1      45.287  35.333  33.543  1.00  0.00     0.135 A 
ATOM     95  F   UNL A   1      44.373  32.958  36.144  1.00  0.00    -0.206 F 
ATOM     96  C   UNL A   1      45.104  35.181  36.317  1.00  0.00     0.059 A 
ATOM     97  C   UNL A   1      45.644  36.437  34.312  1.00  0.00     0.059 A 
ATOM     98  F   UNL A   1      45.386  35.438  32.208  1.00  0.00    -0.206 F 
ATOM     99  C   UNL A   1      45.537  36.355  35.698  1.00  0.00     0.060 A 
BRANCH  99 100
ATOM    100  S   UNL A   1      45.981  37.765  36.734  1.00  0.00     0.124 S 
ATOM    101  O   UNL A   1      46.083  37.143  38.050  1.00  0.00    -0.237 OA
ATOM    102  O   UNL A   1      47.241  38.204  36.141  1.00  0.00    -0.237 OA
ATOM    103  O   UNL A   1      44.861  38.683  36.559  1.00  0.00    -0.744 OA
ENDBRANCH  99 100
ENDBRANCH  67  92
ENDBRANCH  41  42
ENDBRANCH  34  36
ENDBRANCH  33  34
ENDBRANCH  32  33
ENDBRANCH  31  32
ENDBRANCH  30  31
ENDBRANCH  29  30
ENDBRANCH  28  29
ENDBRANCH  27  28
ENDBRANCH   1  27
TORSDOF 27
ENDMDL
MODEL 2
REMARK VINA RESULT:      -6.6      5.170     12.542
REMARK SMILES Cc1ccc(CNC(=O)c2csc(/C=C/C(=O)OCCOCCOCCOCCOC(=O)c3ccc(-c4c5nc(c(-c6c(F)cc(S(=O)(=O)[O-])cc6F)c6ccc([nH]6)c(-c6c(F)cc(S(=O)(=O)[O-])cc6F)c6nc(c(-c7c(F)cc(S(=O)(=O)[O-])cc7F)c7ccc4[nH]7)C=C6)C=C5)cc3)c2)s1
REMARK SMILES IDX 23 1 22 2 21 3 20 4 19 5 18 6 16 7 17 8 15 9 14 10 13 11
REMARK SMILES IDX 10 12 11 13 99 14 12 15 8 16 7 17 9 19 6 20 5 21 1 22 2 23
REMARK SMILES IDX 3 24 100 25 4 26 24 27 25 28 26 29 27 30 28 31 29 32 30 33
REMARK SMILES IDX 31 34 32 35 33 36 34 37 98 38 35 39 97 40 36 41 37 42 38 43
REMARK SMILES IDX 91 44 39 45 96 46 90 47 92 48 40 49 95 50 89 51 88 52 41 54
REMARK SMILES IDX 75 55 54 56 74 57 55 58 58 59 73 60 93 61 56 62 57 63 72 65
REMARK SMILES IDX 94 66 59 67 42 68 43 69 52 70 44 71 45 72 51 73 53 74 46 75
REMARK SMILES IDX 47 76 48 77 49 78 50 79 76 80 77 81 86 82 78 83 79 84 85 85
REMARK SMILES IDX 87 86 80 87 81 88 82 89 83 90 84 91 60 92 61 93 70 94 62 95
REMARK SMILES IDX 63 96 69 97 71 98 64 99 65 100 66 101 67 102 68 103
REMARK H PARENT 7 18 92 53 58 64
REMARK Flexibility Score: inf
ROOT
ATOM      1  C   UNL A   1      38.707  29.723  32.457  1.00  0.00     0.188 C 
ENDROOT
BRANCH   1   2
ATOM      2  C   UNL A   1      37.232  29.412  32.142  1.00  0.00     0.188 C 
BRANCH   2   3
ATOM      3  O   UNL A   1      36.767  30.017  30.949  1.00  0.00    -0.376 OA
BRANCH   3   4
ATOM      4  C   UNL A   1      36.922  29.373  29.697  1.00  0.00     0.202 C 
BRANCH   4   5
ATOM      5  C   UNL A   1      36.458  29.996  28.369  1.00  0.00     0.261 C 
BRANCH   5   6
ATOM      6  O   UNL A   1      35.459  29.286  27.635  1.00  0.00    -0.460 OA
BRANCH   6   7
ATOM      7  C   UNL A   1      34.315  29.939  27.356  1.00  0.00     0.330 C 
ATOM      8  O   UNL A   1      33.869  30.908  27.951  1.00  0.00    -0.247 OA
BRANCH   7   9
ATOM      9  C   UNL A   1      33.722  29.433  26.098  1.00  0.00     0.095 C 
ATOM     10  C   UNL A   1      33.463  28.138  25.855  1.00  0.00     0.026 C 
BRANCH  10  11
ATOM     11  C   UNL A   1      32.890  27.684  24.629  1.00  0.00     0.028 A 
ATOM     12  C   UNL A   1      32.587  26.370  22.697  1.00  0.00     0.051 A 
ATOM     13  C   UNL A   1      31.371  27.017  22.790  1.00  0.00     0.079 A 
ATOM     14  C   UNL A   1      33.506  26.915  23.656  1.00  0.00     0.033 A 
ATOM     15  S   UNL A   1      31.290  28.076  24.125  1.00  0.00    -0.144 S 
BRANCH  12  16
ATOM     16  C   UNL A   1      32.824  25.312  21.720  1.00  0.00     0.252 C 
ATOM     17  N   UNL A   1      32.554  24.013  22.069  1.00  0.00    -0.347 N 
ATOM     18  H   UNL A   1      32.817  23.334  21.405  1.00  0.00     0.164 HD
ATOM     19  O   UNL A   1      33.202  25.559  20.576  1.00  0.00    -0.269 OA
BRANCH  17  20
ATOM     20  C   UNL A   1      31.936  23.498  23.273  1.00  0.00     0.163 C 
BRANCH  20  21
ATOM     21  C   UNL A   1      32.799  22.463  23.919  1.00  0.00     0.024 A 
ATOM     22  C   UNL A   1      36.107  20.716  25.096  1.00  0.00     0.056 C 
ATOM     23  C   UNL A   1      34.734  21.153  24.722  1.00  0.00     0.002 A 
ATOM     24  C   UNL A   1      33.565  20.421  24.739  1.00  0.00     0.015 A 
ATOM     25  S   UNL A   1      34.472  22.747  24.164  1.00  0.00    -0.144 S 
ATOM     26  C   UNL A   1      32.448  21.178  24.281  1.00  0.00     0.017 A 
ENDBRANCH  20  21
ENDBRANCH  17  20
ENDBRANCH  12  16
ENDBRANCH  10  11
ENDBRANCH   7   9
ENDBRANCH   6   7
ENDBRANCH   5   6
ENDBRANCH   4   5
ENDBRANCH   3   4
ENDBRANCH   2   3
ENDBRANCH   1   2
BRANCH   1  27
ATOM     27  O   UNL A   1      39.202  29.204  33.680  1.00  0.00    -0.377 OA
BRANCH  27  28
ATOM     28  C   UNL A   1      39.333  30.069  34.811  1.00  0.00     0.188 C 
BRANCH  28  29
ATOM     29  C   UNL A   1      38.125  30.744  35.510  1.00  0.00     0.188 C 
BRANCH  29  30
ATOM     30  O   UNL A   1      38.445  31.874  36.306  1.00  0.00    -0.376 OA
BRANCH  30  31
ATOM     31  C   UNL A   1      38.659  33.110  35.649  1.00  0.00     0.202 C 
BRANCH  31  32
ATOM     32  C   UNL A   1      37.735  33.425  34.465  1.00  0.00     0.261 C 
BRANCH  32  33
ATOM     33  O   UNL A   1      38.238  33.081  33.166  1.00  0.00    -0.460 OA
BRANCH  33  34
ATOM     34  C   UNL A   1      39.262  33.826  32.686  1.00  0.00     0.338 C 
ATOM     35  O   UNL A   1      39.427  35.019  32.826  1.00  0.00    -0.246 OA
BRANCH  34  36
ATOM     36  C   UNL A   1      40.255  32.891  32.112  1.00  0.00     0.060 A 
ATOM     37  C   UNL A   1      41.157  32.245  32.968  1.00  0.00     0.016 A 
ATOM     38  C   UNL A   1      40.286  32.649  30.737  1.00  0.00     0.016 A 
ATOM     39  C   UNL A   1      42.116  31.376  32.442  1.00  0.00     0.010 A 
ATOM     40  C   UNL A   1      41.257  31.795  30.212  1.00  0.00     0.010 A 
ATOM     41  C   UNL A   1      42.198  31.179  31.057  1.00  0.00    -0.014 A 
BRANCH  41  42
ATOM     42  C   UNL A   1      43.376  30.491  30.474  1.00  0.00     0.031 A 
ATOM     43  C   UNL A   1      44.681  31.239  30.414  1.00  0.00     0.074 A 
ATOM     44  C   UNL A   1      43.297  29.230  30.014  1.00  0.00     0.049 A 
ATOM     45  N   UNL A   1      45.825  30.876  29.896  1.00  0.00    -0.248 NA
ATOM     46  C   UNL A   1      44.693  32.581  31.020  1.00  0.00     0.031 C 
ATOM     47  C   UNL A   1      42.103  28.388  30.052  1.00  0.00     0.029 A 
ATOM     48  N   UNL A   1      44.246  28.439  29.412  1.00  0.00    -0.354 N 
ATOM     49  C   UNL A   1      46.689  31.945  30.103  1.00  0.00     0.074 A 
ATOM     50  C   UNL A   1      45.930  32.983  30.765  1.00  0.00     0.031 C 
ATOM     51  C   UNL A   1      42.387  27.202  29.484  1.00  0.00     0.029 A 
ATOM     52  C   UNL A   1      43.771  27.214  29.010  1.00  0.00     0.049 A 
ATOM     53  H   UNL A   1      45.180  28.724  29.282  1.00  0.00     0.167 HD
ATOM     54  C   UNL A   1      48.000  32.050  29.779  1.00  0.00     0.037 A 
ATOM     55  C   UNL A   1      44.376  26.227  28.316  1.00  0.00     0.037 A 
ATOM     56  C   UNL A   1      48.749  31.013  29.118  1.00  0.00     0.049 A 
ATOM     57  C   UNL A   1      45.816  26.396  27.897  1.00  0.00     0.074 A 
ATOM     58  C   UNL A   1      50.086  31.014  28.762  1.00  0.00     0.029 A 
ATOM     59  N   UNL A   1      48.225  29.798  28.701  1.00  0.00    -0.354 N 
ATOM     60  N   UNL A   1      46.630  27.400  28.122  1.00  0.00    -0.248 NA
ATOM     61  C   UNL A   1      46.421  25.295  27.134  1.00  0.00     0.031 C 
ATOM     62  C   UNL A   1      50.356  29.825  28.076  1.00  0.00     0.029 A 
ATOM     63  C   UNL A   1      49.205  29.054  28.064  1.00  0.00     0.049 A 
ATOM     64  H   UNL A   1      47.295  29.507  28.838  1.00  0.00     0.167 HD
ATOM     65  C   UNL A   1      47.850  27.039  27.555  1.00  0.00     0.074 A 
ATOM     66  C   UNL A   1      47.669  25.719  26.988  1.00  0.00     0.031 C 
ATOM     67  C   UNL A   1      49.013  27.735  27.511  1.00  0.00     0.037 A 
BRANCH  54  68
ATOM     68  C   UNL A   1      48.700  33.340  30.108  1.00  0.00     0.058 A 
ATOM     69  C   UNL A   1      48.738  34.416  29.206  1.00  0.00     0.135 A 
ATOM     70  C   UNL A   1      49.317  33.514  31.358  1.00  0.00     0.135 A 
ATOM     71  F   UNL A   1      48.184  34.299  27.989  1.00  0.00    -0.206 F 
ATOM     72  C   UNL A   1      49.383  35.608  29.522  1.00  0.00     0.059 A 
ATOM     73  C   UNL A   1      49.940  34.708  31.708  1.00  0.00     0.059 A 
ATOM     74  F   UNL A   1      49.315  32.517  32.257  1.00  0.00    -0.206 F 
ATOM     75  C   UNL A   1      49.980  35.745  30.777  1.00  0.00     0.060 A 
BRANCH  75  76
ATOM     76  S   UNL A   1      50.804  37.301  31.174  1.00  0.00     0.124 S 
ATOM     77  O   UNL A   1      52.188  36.995  30.823  1.00  0.00    -0.237 OA
ATOM     78  O   UNL A   1      50.121  38.246  30.296  1.00  0.00    -0.237 OA
ATOM     79  O   UNL A   1      50.543  37.472  32.599  1.00  0.00    -0.744 OA
ENDBRANCH  75  76
ENDBRANCH  54  68
BRANCH  55  80
ATOM     80  C   UNL A   1      43.620  24.997  27.955  1.00  0.00     0.058 A 
ATOM     81  C   UNL A   1      42.872  24.922  26.770  1.00  0.00     0.135 A 
ATOM     82  C   UNL A   1      43.622  23.871  28.795  1.00  0.00     0.135 A 
ATOM     83  F   UNL A   1      42.824  25.975  25.940  1.00  0.00    -0.206 F 
ATOM     84  C   UNL A   1      42.145  23.783  26.436  1.00  0.00     0.059 A 
ATOM     85  C   UNL A   1      42.926  22.711  28.468  1.00  0.00     0.059 A 
ATOM     86  F   UNL A   1      44.325  23.885  29.938  1.00  0.00    -0.206 F 
ATOM     87  C   UNL A   1      42.183  22.680  27.289  1.00  0.00     0.060 A 
BRANCH  87  88
ATOM     88  S   UNL A   1      41.280  21.188  26.819  1.00  0.00     0.124 S 
ATOM     89  O   UNL A   1      40.287  21.722  25.896  1.00  0.00    -0.237 OA
ATOM     90  O   UNL A   1      42.333  20.370  26.225  1.00  0.00    -0.237 OA
ATOM     91  O   UNL A   1      40.759  20.696  28.092  1.00  0.00    -0.744 OA
ENDBRANCH  87  88
ENDBRANCH  55  80
BRANCH  67  92
ATOM     92  C   UNL A   1      50.201  27.073  26.863  1.00  0.00     0.058 A 
ATOM     93  C   UNL A   1      51.078  26.247  27.584  1.00  0.00     0.135 A 
ATOM     94  C   UNL A   1      50.430  27.219  25.484  1.00  0.00     0.135 A 
ATOM     95  F   UNL A   1      50.910  26.074  28.904  1.00  0.00    -0.206 F 
ATOM     96  C   UNL A   1      52.153  25.613  26.969  1.00  0.00     0.059 A 
ATOM     97  C   UNL A   1      51.479  26.569  24.841  1.00  0.00     0.059 A 
ATOM     98  F   UNL A   1      49.617  27.987  24.740  1.00  0.00    -0.206 F 
ATOM     99  C   UNL A   1      52.343  25.777  25.595  1.00  0.00     0.060 A 
BRANCH  99 100
ATOM    100  S   UNL A   1      53.722  24.922  24.804  1.00  0.00     0.124 S 
ATOM    101  O   UNL A   1      53.396  23.525  25.073  1.00  0.00    -0.237 OA
ATOM    102  O   UNL A   1      53.596  25.345  23.413  1.00  0.00    -0.237 OA
ATOM    103  O   UNL A   1      54.892  25.439  25.506  1.00  0.00    -0.744 OA
ENDBRANCH  99 100
ENDBRANCH  67  92
ENDBRANCH  41  42
ENDBRANCH  34  36
ENDBRANCH  33  34
ENDBRANCH  32  33
ENDBRANCH  31  32
ENDBRANCH  30  31
ENDBRANCH  29  30
ENDBRANCH  28  29
ENDBRANCH  27  28
ENDBRANCH   1  27
TORSDOF 27
ENDMDL
MODEL 3
REMARK VINA RESULT:      -6.2      5.302      9.227
REMARK SMILES Cc1ccc(CNC(=O)c2csc(/C=C/C(=O)OCCOCCOCCOCCOC(=O)c3ccc(-c4c5nc(c(-c6c(F)cc(S(=O)(=O)[O-])cc6F)c6ccc([nH]6)c(-c6c(F)cc(S(=O)(=O)[O-])cc6F)c6nc(c(-c7c(F)cc(S(=O)(=O)[O-])cc7F)c7ccc4[nH]7)C=C6)C=C5)cc3)c2)s1
REMARK SMILES IDX 23 1 22 2 21 3 20 4 19 5 18 6 16 7 17 8 15 9 14 10 13 11
REMARK SMILES IDX 10 12 11 13 99 14 12 15 8 16 7 17 9 19 6 20 5 21 1 22 2 23
REMARK SMILES IDX 3 24 100 25 4 26 24 27 25 28 26 29 27 30 28 31 29 32 30 33
REMARK SMILES IDX 31 34 32 35 33 36 34 37 98 38 35 39 97 40 36 41 37 42 38 43
REMARK SMILES IDX 91 44 39 45 96 46 90 47 92 48 40 49 95 50 89 51 88 52 41 54
REMARK SMILES IDX 75 55 54 56 74 57 55 58 58 59 73 60 93 61 56 62 57 63 72 65
REMARK SMILES IDX 94 66 59 67 42 68 43 69 52 70 44 71 45 72 51 73 53 74 46 75
REMARK SMILES IDX 47 76 48 77 49 78 50 79 76 80 77 81 86 82 78 83 79 84 85 85
REMARK SMILES IDX 87 86 80 87 81 88 82 89 83 90 84 91 60 92 61 93 70 94 62 95
REMARK SMILES IDX 63 96 69 97 71 98 64 99 65 100 66 101 67 102 68 103
REMARK H PARENT 7 18 92 53 58 64
REMARK Flexibility Score: inf
ROOT
ATOM      1  C   UNL A   1      39.287  19.568  25.434  1.00  0.00     0.188 C 
ENDROOT
BRANCH   1   2
ATOM      2  C   UNL A   1      37.987  19.939  24.695  1.00  0.00     0.188 C 
BRANCH   2   3
ATOM      3  O   UNL A   1      37.097  20.722  25.469  1.00  0.00    -0.376 OA
BRANCH   3   4
ATOM      4  C   UNL A   1      36.519  21.903  24.943  1.00  0.00     0.202 C 
BRANCH   4   5
ATOM      5  C   UNL A   1      34.999  22.121  24.841  1.00  0.00     0.261 C 
BRANCH   5   6
ATOM      6  O   UNL A   1      34.161  21.099  25.381  1.00  0.00    -0.460 OA
BRANCH   6   7
ATOM      7  C   UNL A   1      32.976  20.886  24.778  1.00  0.00     0.330 C 
ATOM      8  O   UNL A   1      32.261  19.905  24.912  1.00  0.00    -0.247 OA
BRANCH   7   9
ATOM      9  C   UNL A   1      32.547  22.092  24.036  1.00  0.00     0.095 C 
ATOM     10  C   UNL A   1      31.766  23.055  24.551  1.00  0.00     0.026 C 
BRANCH  10  11
ATOM     11  C   UNL A   1      31.370  24.207  23.805  1.00  0.00     0.028 A 
ATOM     12  C   UNL A   1      30.355  26.280  23.337  1.00  0.00     0.051 A 
ATOM     13  C   UNL A   1      31.254  26.165  22.295  1.00  0.00     0.079 A 
ATOM     14  C   UNL A   1      30.310  25.054  24.082  1.00  0.00     0.033 A 
ATOM     15  S   UNL A   1      32.155  24.719  22.360  1.00  0.00    -0.144 S 
BRANCH  12  16
ATOM     16  C   UNL A   1      29.586  27.501  23.560  1.00  0.00     0.252 C 
ATOM     17  N   UNL A   1      30.257  28.677  23.785  1.00  0.00    -0.347 N 
ATOM     18  H   UNL A   1      29.691  29.447  24.018  1.00  0.00     0.164 HD
ATOM     19  O   UNL A   1      28.359  27.515  23.495  1.00  0.00    -0.269 OA
BRANCH  17  20
ATOM     20  C   UNL A   1      31.680  28.945  23.724  1.00  0.00     0.163 C 
BRANCH  20  21
ATOM     21  C   UNL A   1      32.280  28.969  25.092  1.00  0.00     0.024 A 
ATOM     22  C   UNL A   1      35.071  29.319  27.825  1.00  0.00     0.056 C 
ATOM     23  C   UNL A   1      33.861  29.097  26.986  1.00  0.00     0.002 A 
ATOM     24  C   UNL A   1      32.656  28.533  27.350  1.00  0.00     0.015 A 
ATOM     25  S   UNL A   1      33.875  29.547  25.337  1.00  0.00    -0.144 S 
ATOM     26  C   UNL A   1      31.742  28.465  26.259  1.00  0.00     0.017 A 
ENDBRANCH  20  21
ENDBRANCH  17  20
ENDBRANCH  12  16
ENDBRANCH  10  11
ENDBRANCH   7   9
ENDBRANCH   6   7
ENDBRANCH   5   6
ENDBRANCH   4   5
ENDBRANCH   3   4
ENDBRANCH   2   3
ENDBRANCH   1   2
BRANCH   1  27
ATOM     27  O   UNL A   1      39.772  20.530  26.356  1.00  0.00    -0.377 OA
BRANCH  27  28
ATOM     28  C   UNL A   1      41.180  20.744  26.474  1.00  0.00     0.188 C 
BRANCH  28  29
ATOM     29  C   UNL A   1      41.913  21.954  25.841  1.00  0.00     0.188 C 
BRANCH  29  30
ATOM     30  O   UNL A   1      42.811  22.633  26.705  1.00  0.00    -0.376 OA
BRANCH  30  31
ATOM     31  C   UNL A   1      44.190  22.602  26.389  1.00  0.00     0.202 C 
BRANCH  31  32
ATOM     32  C   UNL A   1      45.082  23.619  27.113  1.00  0.00     0.261 C 
BRANCH  32  33
ATOM     33  O   UNL A   1      46.442  23.697  26.662  1.00  0.00    -0.460 OA
BRANCH  33  34
ATOM     34  C   UNL A   1      46.688  24.479  25.584  1.00  0.00     0.338 C 
ATOM     35  O   UNL A   1      46.820  24.120  24.434  1.00  0.00    -0.246 OA
BRANCH  34  36
ATOM     36  C   UNL A   1      46.583  25.887  26.029  1.00  0.00     0.060 A 
ATOM     37  C   UNL A   1      46.970  26.221  27.334  1.00  0.00     0.016 A 
ATOM     38  C   UNL A   1      46.113  26.870  25.156  1.00  0.00     0.016 A 
ATOM     39  C   UNL A   1      46.857  27.539  27.778  1.00  0.00     0.010 A 
ATOM     40  C   UNL A   1      45.983  28.185  25.609  1.00  0.00     0.010 A 
ATOM     41  C   UNL A   1      46.323  28.521  26.931  1.00  0.00    -0.014 A 
BRANCH  41  42
ATOM     42  C   UNL A   1      45.939  29.845  27.480  1.00  0.00     0.031 A 
ATOM     43  C   UNL A   1      46.901  30.991  27.316  1.00  0.00     0.074 A 
ATOM     44  C   UNL A   1      44.762  30.033  28.103  1.00  0.00     0.049 A 
ATOM     45  N   UNL A   1      46.818  32.217  27.762  1.00  0.00    -0.248 NA
ATOM     46  C   UNL A   1      48.124  30.711  26.545  1.00  0.00     0.031 C 
ATOM     47  C   UNL A   1      43.730  29.015  28.290  1.00  0.00     0.029 A 
ATOM     48  N   UNL A   1      44.241  31.153  28.706  1.00  0.00    -0.354 N 
ATOM     49  C   UNL A   1      47.980  32.851  27.336  1.00  0.00     0.074 A 
ATOM     50  C   UNL A   1      48.765  31.868  26.624  1.00  0.00     0.031 C 
ATOM     51  C   UNL A   1      42.705  29.552  28.974  1.00  0.00     0.029 A 
ATOM     52  C   UNL A   1      43.023  30.942  29.305  1.00  0.00     0.049 A 
ATOM     53  H   UNL A   1      44.698  32.025  28.706  1.00  0.00     0.167 HD
ATOM     54  C   UNL A   1      48.354  34.141  27.515  1.00  0.00     0.037 A 
ATOM     55  C   UNL A   1      42.265  31.767  30.058  1.00  0.00     0.037 A 
ATOM     56  C   UNL A   1      47.568  35.114  28.227  1.00  0.00     0.049 A 
ATOM     57  C   UNL A   1      42.738  33.178  30.309  1.00  0.00     0.074 A 
ATOM     58  C   UNL A   1      47.850  36.450  28.449  1.00  0.00     0.029 A 
ATOM     59  N   UNL A   1      46.353  34.855  28.845  1.00  0.00    -0.354 N 
ATOM     60  N   UNL A   1      43.825  33.775  29.880  1.00  0.00    -0.248 NA
ATOM     61  C   UNL A   1      41.878  34.030  31.145  1.00  0.00     0.031 C 
ATOM     62  C   UNL A   1      46.837  36.984  29.251  1.00  0.00     0.029 A 
ATOM     63  C   UNL A   1      45.888  35.998  29.474  1.00  0.00     0.049 A 
ATOM     64  H   UNL A   1      45.890  33.986  28.838  1.00  0.00     0.167 HD
ATOM     65  C   UNL A   1      43.764  35.078  30.366  1.00  0.00     0.074 A 
ATOM     66  C   UNL A   1      42.528  35.185  31.113  1.00  0.00     0.031 C 
ATOM     67  C   UNL A   1      44.649  36.094  30.208  1.00  0.00     0.037 A 
BRANCH  54  68
ATOM     68  C   UNL A   1      49.685  34.565  26.957  1.00  0.00     0.058 A 
ATOM     69  C   UNL A   1      49.818  35.072  25.653  1.00  0.00     0.135 A 
ATOM     70  C   UNL A   1      50.842  34.492  27.749  1.00  0.00     0.135 A 
ATOM     71  F   UNL A   1      48.749  35.144  24.843  1.00  0.00    -0.206 F 
ATOM     72  C   UNL A   1      51.052  35.467  25.148  1.00  0.00     0.059 A 
ATOM     73  C   UNL A   1      52.082  34.911  27.277  1.00  0.00     0.059 A 
ATOM     74  F   UNL A   1      50.776  34.012  29.001  1.00  0.00    -0.206 F 
ATOM     75  C   UNL A   1      52.179  35.384  25.969  1.00  0.00     0.060 A 
BRANCH  75  76
ATOM     76  S   UNL A   1      53.771  35.910  25.300  1.00  0.00     0.124 S 
ATOM     77  O   UNL A   1      53.839  35.135  24.065  1.00  0.00    -0.237 OA
ATOM     78  O   UNL A   1      53.580  37.347  25.137  1.00  0.00    -0.237 OA
ATOM     79  O   UNL A   1      54.722  35.520  26.337  1.00  0.00    -0.744 OA
ENDBRANCH  75  76
ENDBRANCH  54  68
BRANCH  55  80
ATOM     80  C   UNL A   1      40.987  31.279  30.646  1.00  0.00     0.058 A 
ATOM     81  C   UNL A   1      40.977  30.377  31.721  1.00  0.00     0.135 A 
ATOM     82  C   UNL A   1      39.747  31.698  30.136  1.00  0.00     0.135 A 
ATOM     83  F   UNL A   1      42.134  29.934  32.235  1.00  0.00    -0.206 F 
ATOM     84  C   UNL A   1      39.787  29.899  32.261  1.00  0.00     0.059 A 
ATOM     85  C   UNL A   1      38.544  31.256  30.679  1.00  0.00     0.059 A 
ATOM     86  F   UNL A   1      39.698  32.564  29.112  1.00  0.00    -0.206 F 
ATOM     87  C   UNL A   1      38.575  30.349  31.737  1.00  0.00     0.060 A 
BRANCH  87  88
ATOM     88  S   UNL A   1      37.037  29.765  32.482  1.00  0.00     0.124 S 
ATOM     89  O   UNL A   1      36.640  30.916  33.282  1.00  0.00    -0.237 OA
ATOM     90  O   UNL A   1      36.216  29.487  31.307  1.00  0.00    -0.237 OA
ATOM     91  O   UNL A   1      37.456  28.586  33.236  1.00  0.00    -0.744 OA
ENDBRANCH  87  88
ENDBRANCH  55  80
BRANCH  67  92
ATOM     92  C   UNL A   1      44.301  37.428  30.816  1.00  0.00     0.058 A 
ATOM     93  C   UNL A   1      44.641  37.753  32.139  1.00  0.00     0.135 A 
ATOM     94  C   UNL A   1      43.671  38.417  30.042  1.00  0.00     0.135 A 
ATOM     95  F   UNL A   1      45.241  36.846  32.925  1.00  0.00    -0.206 F 
ATOM     96  C   UNL A   1      44.344  39.001  32.680  1.00  0.00     0.059 A 
ATOM     97  C   UNL A   1      43.395  39.682  30.552  1.00  0.00     0.059 A 
ATOM     98  F   UNL A   1      43.334  38.166  28.767  1.00  0.00    -0.206 F 
ATOM     99  C   UNL A   1      43.724  39.960  31.877  1.00  0.00     0.060 A 
BRANCH  99 100
ATOM    100  S   UNL A   1      43.376  41.585  32.583  1.00  0.00     0.124 S 
ATOM    101  O   UNL A   1      44.203  41.567  33.785  1.00  0.00    -0.237 OA
ATOM    102  O   UNL A   1      43.818  42.487  31.523  1.00  0.00    -0.237 OA
ATOM    103  O   UNL A   1      41.935  41.556  32.812  1.00  0.00    -0.744 OA
ENDBRANCH  99 100
ENDBRANCH  67  92
ENDBRANCH  41  42
ENDBRANCH  34  36
ENDBRANCH  33  34
ENDBRANCH  32  33
ENDBRANCH  31  32
ENDBRANCH  30  31
ENDBRANCH  29  30
ENDBRANCH  28  29
ENDBRANCH  27  28
ENDBRANCH   1  27
TORSDOF 27
ENDMDL
