MODEL 1
REMARK VINA RESULT:     -10.4      0.000      0.000
REMARK SMILES CS(=O)(=O)c1ccc(/C=C(/C(=O)OCCOCCOCCOCCOC(=O)c2ccc(-c3c4nc(c(-c5c(F)cc(S(=O)(=O)[O-])cc5F)c5ccc([nH]5)c(-c5c(F)cc(S(=O)(=O)[O-])cc5F)c5nc(c(-c6c(F)cc(S(=O)(=O)[O-])cc6F)c6ccc3[nH]6)C=C5)C=C4)cc2)c2cccc(Br)c2)cc1
REMARK SMILES IDX 20 1 19 2 18 3 17 4 16 5 15 6 14 7 13 8 11 9 12 10 10 11
REMARK SMILES IDX 9 12 8 13 5 14 6 15 102 16 7 17 101 18 2 19 1 20 3 21 4 22
REMARK SMILES IDX 94 23 95 24 100 25 96 26 98 27 97 28 99 29 21 30 22 31 23 32
REMARK SMILES IDX 24 33 25 34 26 35 27 36 28 37 29 38 93 39 30 40 92 41 31 42
REMARK SMILES IDX 32 43 33 44 86 45 34 46 91 47 85 48 87 49 35 50 90 51 84 52
REMARK SMILES IDX 83 53 36 55 70 56 49 57 69 58 50 59 53 60 68 61 88 62 51 63
REMARK SMILES IDX 52 64 67 66 89 67 54 68 37 69 38 70 47 71 39 72 40 73 46 74
REMARK SMILES IDX 48 75 41 76 42 77 43 78 44 79 45 80 71 81 72 82 81 83 73 84
REMARK SMILES IDX 74 85 80 86 82 87 75 88 76 89 77 90 78 91 79 92 55 93 56 94
REMARK SMILES IDX 65 95 57 96 58 97 64 98 66 99 59 100 60 101 61 102 62 103
REMARK SMILES IDX 63 104
REMARK H PARENT 87 54 53 65
REMARK Flexibility Score: inf
ROOT
ATOM      1  C   UNL A   1      37.873  23.678  25.742  1.00  0.00     0.188 C 
ENDROOT
BRANCH   1   2
ATOM      2  O   UNL A   1      36.505  23.500  26.089  1.00  0.00    -0.377 OA
BRANCH   2   3
ATOM      3  C   UNL A   1      35.617  22.929  25.142  1.00  0.00     0.188 C 
BRANCH   3   4
ATOM      4  C   UNL A   1      35.326  21.413  25.196  1.00  0.00     0.188 C 
BRANCH   4   5
ATOM      5  O   UNL A   1      34.210  21.061  25.995  1.00  0.00    -0.376 OA
BRANCH   5   6
ATOM      6  C   UNL A   1      34.215  21.505  27.341  1.00  0.00     0.202 C 
BRANCH   6   7
ATOM      7  C   UNL A   1      32.927  22.154  27.870  1.00  0.00     0.261 C 
BRANCH   7   8
ATOM      8  O   UNL A   1      32.548  23.389  27.239  1.00  0.00    -0.460 OA
BRANCH   8   9
ATOM      9  C   UNL A   1      31.246  23.553  26.915  1.00  0.00     0.338 C 
ATOM     10  O   UNL A   1      30.297  23.159  27.577  1.00  0.00    -0.246 OA
BRANCH   9  11
ATOM     11  C   UNL A   1      31.110  24.434  25.700  1.00  0.00     0.067 C 
ATOM     12  C   UNL A   1      30.405  25.588  25.799  1.00  0.00     0.024 C 
BRANCH  12  13
ATOM     13  C   UNL A   1      30.303  26.697  24.820  1.00  0.00    -0.025 A 
ATOM     14  C   UNL A   1      29.642  28.965  23.312  1.00  0.00     0.067 A 
ATOM     15  C   UNL A   1      30.799  28.964  24.085  1.00  0.00     0.021 A 
ATOM     16  C   UNL A   1      28.879  27.804  23.180  1.00  0.00     0.021 A 
ATOM     17  C   UNL A   1      31.147  27.816  24.798  1.00  0.00     0.009 A 
ATOM     18  C   UNL A   1      29.219  26.672  23.928  1.00  0.00     0.009 A 
BRANCH  14  19
ATOM     19  S   UNL A   1      29.050  30.485  22.612  1.00  0.00     0.175 S 
ATOM     20  C   UNL A   1      27.293  30.381  22.770  1.00  0.00     0.163 C 
ATOM     21  O   UNL A   1      29.364  30.473  21.195  1.00  0.00    -0.224 OA
ATOM     22  O   UNL A   1      29.521  31.560  23.463  1.00  0.00    -0.224 OA
ENDBRANCH  14  19
ENDBRANCH  12  13
BRANCH  11  23
ATOM     23  C   UNL A   1      31.774  23.990  24.455  1.00  0.00    -0.010 A 
ATOM     24  C   UNL A   1      32.704  24.833  23.818  1.00  0.00     0.009 A 
ATOM     25  C   UNL A   1      31.579  22.701  23.955  1.00  0.00     0.024 A 
ATOM     26  C   UNL A   1      33.427  24.402  22.707  1.00  0.00     0.002 A 
ATOM     27  C   UNL A   1      32.321  22.267  22.855  1.00  0.00     0.018 A 
ATOM     28  C   UNL A   1      33.240  23.110  22.228  1.00  0.00     0.016 A 
ATOM     29  Br  UNL A   1      32.121  20.492  22.236  1.00  0.00    -0.051 Br
ENDBRANCH  11  23
ENDBRANCH   9  11
ENDBRANCH   8   9
ENDBRANCH   7   8
ENDBRANCH   6   7
ENDBRANCH   5   6
ENDBRANCH   4   5
ENDBRANCH   3   4
ENDBRANCH   2   3
ENDBRANCH   1   2
BRANCH   1  30
ATOM     30  C   UNL A   1      38.983  23.414  26.785  1.00  0.00     0.188 C 
BRANCH  30  31
ATOM     31  O   UNL A   1      39.501  22.091  26.787  1.00  0.00    -0.376 OA
BRANCH  31  32
ATOM     32  C   UNL A   1      39.085  21.231  25.740  1.00  0.00     0.202 C 
BRANCH  32  33
ATOM     33  C   UNL A   1      39.671  19.813  25.749  1.00  0.00     0.261 C 
BRANCH  33  34
ATOM     34  O   UNL A   1      40.700  19.563  26.719  1.00  0.00    -0.460 OA
BRANCH  34  35
ATOM     35  C   UNL A   1      41.976  19.509  26.278  1.00  0.00     0.338 C 
ATOM     36  O   UNL A   1      42.511  18.589  25.683  1.00  0.00    -0.246 OA
BRANCH  35  37
ATOM     37  C   UNL A   1      42.562  20.851  26.468  1.00  0.00     0.060 A 
ATOM     38  C   UNL A   1      42.694  21.367  27.765  1.00  0.00     0.016 A 
ATOM     39  C   UNL A   1      43.018  21.578  25.366  1.00  0.00     0.016 A 
ATOM     40  C   UNL A   1      43.271  22.623  27.959  1.00  0.00     0.010 A 
ATOM     41  C   UNL A   1      43.570  22.844  25.561  1.00  0.00     0.010 A 
ATOM     42  C   UNL A   1      43.677  23.383  26.856  1.00  0.00    -0.014 A 
BRANCH  42  43
ATOM     43  C   UNL A   1      44.046  24.808  27.028  1.00  0.00     0.031 A 
ATOM     44  C   UNL A   1      45.484  25.200  26.824  1.00  0.00     0.074 A 
ATOM     45  C   UNL A   1      43.128  25.733  27.364  1.00  0.00     0.049 A 
ATOM     46  N   UNL A   1      46.060  26.360  26.994  1.00  0.00    -0.248 NA
ATOM     47  C   UNL A   1      46.392  24.135  26.369  1.00  0.00     0.031 C 
ATOM     48  C   UNL A   1      41.701  25.481  27.550  1.00  0.00     0.029 A 
ATOM     49  N   UNL A   1      43.271  27.074  27.621  1.00  0.00    -0.354 N 
ATOM     50  C   UNL A   1      47.399  26.165  26.675  1.00  0.00     0.074 A 
ATOM     51  C   UNL A   1      47.554  24.768  26.329  1.00  0.00     0.031 C 
ATOM     52  C   UNL A   1      41.100  26.629  27.911  1.00  0.00     0.029 A 
ATOM     53  C   UNL A   1      42.106  27.686  28.017  1.00  0.00     0.049 A 
ATOM     54  H   UNL A   1      44.127  27.552  27.531  1.00  0.00     0.167 HD
ATOM     55  C   UNL A   1      48.405  27.069  26.665  1.00  0.00     0.037 A 
ATOM     56  C   UNL A   1      41.886  28.947  28.442  1.00  0.00     0.037 A 
ATOM     57  C   UNL A   1      48.244  28.456  27.019  1.00  0.00     0.049 A 
ATOM     58  C   UNL A   1      43.037  29.919  28.501  1.00  0.00     0.074 A 
ATOM     59  C   UNL A   1      49.198  29.457  27.027  1.00  0.00     0.029 A 
ATOM     60  N   UNL A   1      47.054  29.032  27.441  1.00  0.00    -0.354 N 
ATOM     61  N   UNL A   1      44.295  29.731  28.173  1.00  0.00    -0.248 NA
ATOM     62  C   UNL A   1      42.743  31.275  28.985  1.00  0.00     0.031 C 
ATOM     63  C   UNL A   1      48.599  30.626  27.508  1.00  0.00     0.029 A 
ATOM     64  C   UNL A   1      47.257  30.369  27.740  1.00  0.00     0.049 A 
ATOM     65  H   UNL A   1      46.193  28.561  27.516  1.00  0.00     0.167 HD
ATOM     66  C   UNL A   1      44.933  30.950  28.386  1.00  0.00     0.074 A 
ATOM     67  C   UNL A   1      43.920  31.871  28.857  1.00  0.00     0.031 C 
ATOM     68  C   UNL A   1      46.237  31.277  28.205  1.00  0.00     0.037 A 
BRANCH  55  69
ATOM     69  C   UNL A   1      49.778  26.581  26.292  1.00  0.00     0.058 A 
ATOM     70  C   UNL A   1      50.635  25.988  27.234  1.00  0.00     0.135 A 
ATOM     71  C   UNL A   1      50.231  26.680  24.967  1.00  0.00     0.135 A 
ATOM     72  F   UNL A   1      50.262  25.887  28.520  1.00  0.00    -0.206 F 
ATOM     73  C   UNL A   1      51.902  25.533  26.879  1.00  0.00     0.059 A 
ATOM     74  C   UNL A   1      51.482  26.205  24.583  1.00  0.00     0.059 A 
ATOM     75  F   UNL A   1      49.456  27.245  24.028  1.00  0.00    -0.206 F 
ATOM     76  C   UNL A   1      52.315  25.645  25.550  1.00  0.00     0.060 A 
BRANCH  76  77
ATOM     77  S   UNL A   1      53.957  25.041  25.105  1.00  0.00     0.124 S 
ATOM     78  O   UNL A   1      54.206  25.764  23.862  1.00  0.00    -0.237 OA
ATOM     79  O   UNL A   1      54.760  25.454  26.250  1.00  0.00    -0.237 OA
ATOM     80  O   UNL A   1      53.763  23.601  24.964  1.00  0.00    -0.744 OA
ENDBRANCH  76  77
ENDBRANCH  55  69
BRANCH  56  81
ATOM     81  C   UNL A   1      40.520  29.362  28.869  1.00  0.00     0.058 A 
ATOM     82  C   UNL A   1      40.204  29.539  30.223  1.00  0.00     0.135 A 
ATOM     83  C   UNL A   1      39.502  29.585  27.928  1.00  0.00     0.135 A 
ATOM     84  F   UNL A   1      41.138  29.325  31.163  1.00  0.00    -0.206 F 
ATOM     85  C   UNL A   1      38.927  29.909  30.633  1.00  0.00     0.059 A 
ATOM     86  C   UNL A   1      38.225  29.983  28.310  1.00  0.00     0.059 A 
ATOM     87  F   UNL A   1      39.751  29.435  26.617  1.00  0.00    -0.206 F 
ATOM     88  C   UNL A   1      37.944  30.134  29.667  1.00  0.00     0.060 A 
BRANCH  88  89
ATOM     89  S   UNL A   1      36.306  30.669  30.207  1.00  0.00     0.124 S 
ATOM     90  O   UNL A   1      36.094  29.829  31.380  1.00  0.00    -0.237 OA
ATOM     91  O   UNL A   1      36.520  32.089  30.467  1.00  0.00    -0.237 OA
ATOM     92  O   UNL A   1      35.460  30.370  29.055  1.00  0.00    -0.744 OA
ENDBRANCH  88  89
ENDBRANCH  56  81
BRANCH  68  93
ATOM     93  C   UNL A   1      46.644  32.700  28.485  1.00  0.00     0.058 A 
ATOM     94  C   UNL A   1      46.484  33.718  27.532  1.00  0.00     0.135 A 
ATOM     95  C   UNL A   1      47.150  33.059  29.746  1.00  0.00     0.135 A 
ATOM     96  F   UNL A   1      46.009  33.432  26.309  1.00  0.00    -0.206 F 
ATOM     97  C   UNL A   1      46.835  35.037  27.810  1.00  0.00     0.059 A 
ATOM     98  C   UNL A   1      47.477  34.375  30.056  1.00  0.00     0.059 A 
ATOM     99  F   UNL A   1      47.312  32.128  30.700  1.00  0.00    -0.206 F 
ATOM    100  C   UNL A   1      47.328  35.355  29.077  1.00  0.00     0.060 A 
BRANCH 100 101
ATOM    101  S   UNL A   1      47.750  37.074  29.434  1.00  0.00     0.124 S 
ATOM    102  O   UNL A   1      48.959  37.252  28.637  1.00  0.00    -0.237 OA
ATOM    103  O   UNL A   1      46.568  37.789  28.960  1.00  0.00    -0.237 OA
ATOM    104  O   UNL A   1      47.944  37.085  30.880  1.00  0.00    -0.744 OA
ENDBRANCH 100 101
ENDBRANCH  68  93
ENDBRANCH  42  43
ENDBRANCH  35  37
ENDBRANCH  34  35
ENDBRANCH  33  34
ENDBRANCH  32  33
ENDBRANCH  31  32
ENDBRANCH  30  31
ENDBRANCH   1  30
TORSDOF 26
ENDMDL
MODEL 2
REMARK VINA RESULT:     -10.3      0.831      7.862
REMARK SMILES CS(=O)(=O)c1ccc(/C=C(/C(=O)OCCOCCOCCOCCOC(=O)c2ccc(-c3c4nc(c(-c5c(F)cc(S(=O)(=O)[O-])cc5F)c5ccc([nH]5)c(-c5c(F)cc(S(=O)(=O)[O-])cc5F)c5nc(c(-c6c(F)cc(S(=O)(=O)[O-])cc6F)c6ccc3[nH]6)C=C5)C=C4)cc2)c2cccc(Br)c2)cc1
REMARK SMILES IDX 20 1 19 2 18 3 17 4 16 5 15 6 14 7 13 8 11 9 12 10 10 11
REMARK SMILES IDX 9 12 8 13 5 14 6 15 102 16 7 17 101 18 2 19 1 20 3 21 4 22
REMARK SMILES IDX 94 23 95 24 100 25 96 26 98 27 97 28 99 29 21 30 22 31 23 32
REMARK SMILES IDX 24 33 25 34 26 35 27 36 28 37 29 38 93 39 30 40 92 41 31 42
REMARK SMILES IDX 32 43 33 44 86 45 34 46 91 47 85 48 87 49 35 50 90 51 84 52
REMARK SMILES IDX 83 53 36 55 70 56 49 57 69 58 50 59 53 60 68 61 88 62 51 63
REMARK SMILES IDX 52 64 67 66 89 67 54 68 37 69 38 70 47 71 39 72 40 73 46 74
REMARK SMILES IDX 48 75 41 76 42 77 43 78 44 79 45 80 71 81 72 82 81 83 73 84
REMARK SMILES IDX 74 85 80 86 82 87 75 88 76 89 77 90 78 91 79 92 55 93 56 94
REMARK SMILES IDX 65 95 57 96 58 97 64 98 66 99 59 100 60 101 61 102 62 103
REMARK SMILES IDX 63 104
REMARK H PARENT 87 54 53 65
REMARK Flexibility Score: inf
ROOT
ATOM      1  C   UNL A   1      37.673  23.928  25.715  1.00  0.00     0.188 C 
ENDROOT
BRANCH   1   2
ATOM      2  O   UNL A   1      36.328  23.693  26.114  1.00  0.00    -0.377 OA
BRANCH   2   3
ATOM      3  C   UNL A   1      35.463  22.974  25.251  1.00  0.00     0.188 C 
BRANCH   3   4
ATOM      4  C   UNL A   1      35.307  21.449  25.434  1.00  0.00     0.188 C 
BRANCH   4   5
ATOM      5  O   UNL A   1      34.239  21.070  26.285  1.00  0.00    -0.376 OA
BRANCH   5   6
ATOM      6  C   UNL A   1      34.221  21.632  27.586  1.00  0.00     0.202 C 
BRANCH   6   7
ATOM      7  C   UNL A   1      32.907  22.276  28.053  1.00  0.00     0.261 C 
BRANCH   7   8
ATOM      8  O   UNL A   1      32.446  23.390  27.268  1.00  0.00    -0.460 OA
BRANCH   8   9
ATOM      9  C   UNL A   1      31.132  23.432  26.951  1.00  0.00     0.338 C 
ATOM     10  O   UNL A   1      30.227  22.969  27.629  1.00  0.00    -0.246 OA
BRANCH   9  11
ATOM     11  C   UNL A   1      30.911  24.272  25.721  1.00  0.00     0.067 C 
ATOM     12  C   UNL A   1      30.101  25.356  25.800  1.00  0.00     0.024 C 
BRANCH  12  13
ATOM     13  C   UNL A   1      29.893  26.432  24.801  1.00  0.00    -0.025 A 
ATOM     14  C   UNL A   1      29.060  28.639  23.288  1.00  0.00     0.067 A 
ATOM     15  C   UNL A   1      30.280  28.682  23.956  1.00  0.00     0.021 A 
ATOM     16  C   UNL A   1      28.311  27.463  23.260  1.00  0.00     0.021 A 
ATOM     17  C   UNL A   1      30.711  27.563  24.670  1.00  0.00     0.009 A 
ATOM     18  C   UNL A   1      28.736  26.361  24.009  1.00  0.00     0.009 A 
BRANCH  14  19
ATOM     19  S   UNL A   1      28.381  30.126  22.597  1.00  0.00     0.175 S 
ATOM     20  C   UNL A   1      29.370  31.418  23.288  1.00  0.00     0.163 C 
ATOM     21  O   UNL A   1      27.033  30.282  23.114  1.00  0.00    -0.224 OA
ATOM     22  O   UNL A   1      28.623  30.083  21.167  1.00  0.00    -0.224 OA
ENDBRANCH  14  19
ENDBRANCH  12  13
BRANCH  11  23
ATOM     23  C   UNL A   1      31.611  23.868  24.482  1.00  0.00    -0.010 A 
ATOM     24  C   UNL A   1      31.854  22.506  24.225  1.00  0.00     0.009 A 
ATOM     25  C   UNL A   1      31.943  24.809  23.503  1.00  0.00     0.024 A 
ATOM     26  C   UNL A   1      32.411  22.086  23.018  1.00  0.00     0.002 A 
ATOM     27  C   UNL A   1      32.482  24.380  22.289  1.00  0.00     0.018 A 
ATOM     28  C   UNL A   1      32.720  23.027  22.043  1.00  0.00     0.016 A 
ATOM     29  Br  UNL A   1      32.845  25.645  20.932  1.00  0.00    -0.051 Br
ENDBRANCH  11  23
ENDBRANCH   9  11
ENDBRANCH   8   9
ENDBRANCH   7   8
ENDBRANCH   6   7
ENDBRANCH   5   6
ENDBRANCH   4   5
ENDBRANCH   3   4
ENDBRANCH   2   3
ENDBRANCH   1   2
BRANCH   1  30
ATOM     30  C   UNL A   1      38.833  23.705  26.713  1.00  0.00     0.188 C 
BRANCH  30  31
ATOM     31  O   UNL A   1      39.358  22.385  26.735  1.00  0.00    -0.376 OA
BRANCH  31  32
ATOM     32  C   UNL A   1      38.920  21.496  25.721  1.00  0.00     0.202 C 
BRANCH  32  33
ATOM     33  C   UNL A   1      39.439  20.054  25.808  1.00  0.00     0.261 C 
BRANCH  33  34
ATOM     34  O   UNL A   1      40.520  19.829  26.726  1.00  0.00    -0.460 OA
BRANCH  34  35
ATOM     35  C   UNL A   1      41.761  19.690  26.210  1.00  0.00     0.338 C 
ATOM     36  O   UNL A   1      42.167  18.785  25.502  1.00  0.00    -0.246 OA
BRANCH  35  37
ATOM     37  C   UNL A   1      42.494  20.940  26.493  1.00  0.00     0.060 A 
ATOM     38  C   UNL A   1      42.592  21.397  27.815  1.00  0.00     0.016 A 
ATOM     39  C   UNL A   1      43.118  21.635  25.455  1.00  0.00     0.016 A 
ATOM     40  C   UNL A   1      43.306  22.563  28.098  1.00  0.00     0.010 A 
ATOM     41  C   UNL A   1      43.808  22.814  25.736  1.00  0.00     0.010 A 
ATOM     42  C   UNL A   1      43.885  23.297  27.055  1.00  0.00    -0.014 A 
BRANCH  42  43
ATOM     43  C   UNL A   1      44.415  24.658  27.308  1.00  0.00     0.031 A 
ATOM     44  C   UNL A   1      43.442  25.739  27.692  1.00  0.00     0.074 A 
ATOM     45  C   UNL A   1      45.727  24.930  27.195  1.00  0.00     0.049 A 
ATOM     46  N   UNL A   1      43.652  27.014  27.885  1.00  0.00    -0.248 NA
ATOM     47  C   UNL A   1      42.043  25.322  27.880  1.00  0.00     0.031 C 
ATOM     48  C   UNL A   1      46.768  23.959  26.868  1.00  0.00     0.029 A 
ATOM     49  N   UNL A   1      46.403  26.118  27.331  1.00  0.00    -0.354 N 
ATOM     50  C   UNL A   1      42.413  27.554  28.209  1.00  0.00     0.074 A 
ATOM     51  C   UNL A   1      41.452  26.474  28.158  1.00  0.00     0.031 C 
ATOM     52  C   UNL A   1      47.953  24.594  26.811  1.00  0.00     0.029 A 
ATOM     53  C   UNL A   1      47.747  26.020  27.060  1.00  0.00     0.049 A 
ATOM     54  H   UNL A   1      45.967  26.959  27.598  1.00  0.00     0.167 HD
ATOM     55  C   UNL A   1      42.106  28.833  28.526  1.00  0.00     0.037 A 
ATOM     56  C   UNL A   1      48.694  26.979  26.992  1.00  0.00     0.037 A 
ATOM     57  C   UNL A   1      43.067  29.905  28.566  1.00  0.00     0.049 A 
ATOM     58  C   UNL A   1      48.315  28.412  27.271  1.00  0.00     0.074 A 
ATOM     59  C   UNL A   1      42.860  31.233  28.890  1.00  0.00     0.029 A 
ATOM     60  N   UNL A   1      44.413  29.772  28.258  1.00  0.00    -0.354 N 
ATOM     61  N   UNL A   1      47.144  28.908  27.601  1.00  0.00    -0.248 NA
ATOM     62  C   UNL A   1      49.383  29.417  27.170  1.00  0.00     0.031 C 
ATOM     63  C   UNL A   1      44.069  31.916  28.724  1.00  0.00     0.029 A 
ATOM     64  C   UNL A   1      45.043  31.002  28.356  1.00  0.00     0.049 A 
ATOM     65  H   UNL A   1      44.856  28.929  28.007  1.00  0.00     0.167 HD
ATOM     66  C   UNL A   1      47.344  30.276  27.773  1.00  0.00     0.074 A 
ATOM     67  C   UNL A   1      48.748  30.525  27.523  1.00  0.00     0.031 C 
ATOM     68  C   UNL A   1      46.446  31.236  28.108  1.00  0.00     0.037 A 
BRANCH  55  69
ATOM     69  C   UNL A   1      40.666  29.152  28.822  1.00  0.00     0.058 A 
ATOM     70  C   UNL A   1      40.184  29.252  30.137  1.00  0.00     0.135 A 
ATOM     71  C   UNL A   1      39.762  29.391  27.774  1.00  0.00     0.135 A 
ATOM     72  F   UNL A   1      40.999  29.012  31.177  1.00  0.00    -0.206 F 
ATOM     73  C   UNL A   1      38.851  29.554  30.402  1.00  0.00     0.059 A 
ATOM     74  C   UNL A   1      38.432  29.723  28.016  1.00  0.00     0.059 A 
ATOM     75  F   UNL A   1      40.168  29.302  26.498  1.00  0.00    -0.206 F 
ATOM     76  C   UNL A   1      37.984  29.789  29.334  1.00  0.00     0.060 A 
BRANCH  76  77
ATOM     77  S   UNL A   1      36.261  30.189  29.696  1.00  0.00     0.124 S 
ATOM     78  O   UNL A   1      35.563  29.440  28.655  1.00  0.00    -0.237 OA
ATOM     79  O   UNL A   1      36.104  29.682  31.054  1.00  0.00    -0.237 OA
ATOM     80  O   UNL A   1      36.213  31.642  29.561  1.00  0.00    -0.744 OA
ENDBRANCH  76  77
ENDBRANCH  55  69
BRANCH  56  81
ATOM     81  C   UNL A   1      50.092  26.622  26.625  1.00  0.00     0.058 A 
ATOM     82  C   UNL A   1      50.519  26.636  25.289  1.00  0.00     0.135 A 
ATOM     83  C   UNL A   1      51.029  26.252  27.604  1.00  0.00     0.135 A 
ATOM     84  F   UNL A   1      49.659  26.967  24.314  1.00  0.00    -0.206 F 
ATOM     85  C   UNL A   1      51.818  26.286  24.934  1.00  0.00     0.059 A 
ATOM     86  C   UNL A   1      52.341  25.926  27.278  1.00  0.00     0.059 A 
ATOM     87  F   UNL A   1      50.674  26.227  28.899  1.00  0.00    -0.206 F 
ATOM     88  C   UNL A   1      52.724  25.937  25.937  1.00  0.00     0.060 A 
BRANCH  88  89
ATOM     89  S   UNL A   1      54.423  25.540  25.471  1.00  0.00     0.124 S 
ATOM     90  O   UNL A   1      54.465  24.102  25.709  1.00  0.00    -0.237 OA
ATOM     91  O   UNL A   1      54.460  25.958  24.073  1.00  0.00    -0.237 OA
ATOM     92  O   UNL A   1      55.220  26.355  26.383  1.00  0.00    -0.744 OA
ENDBRANCH  88  89
ENDBRANCH  56  81
BRANCH  68  93
ATOM     93  C   UNL A   1      46.956  32.645  28.260  1.00  0.00     0.058 A 
ATOM     94  C   UNL A   1      46.909  33.569  27.205  1.00  0.00     0.135 A 
ATOM     95  C   UNL A   1      47.447  33.091  29.499  1.00  0.00     0.135 A 
ATOM     96  F   UNL A   1      46.453  33.195  25.999  1.00  0.00    -0.206 F 
ATOM     97  C   UNL A   1      47.354  34.878  27.364  1.00  0.00     0.059 A 
ATOM     98  C   UNL A   1      47.868  34.404  29.690  1.00  0.00     0.059 A 
ATOM     99  F   UNL A   1      47.503  32.254  30.547  1.00  0.00    -0.206 F 
ATOM    100  C   UNL A   1      47.829  35.287  28.612  1.00  0.00     0.060 A 
BRANCH 100 101
ATOM    101  S   UNL A   1      48.375  36.997  28.813  1.00  0.00     0.124 S 
ATOM    102  O   UNL A   1      49.266  36.888  29.963  1.00  0.00    -0.237 OA
ATOM    103  O   UNL A   1      49.023  37.268  27.533  1.00  0.00    -0.237 OA
ATOM    104  O   UNL A   1      47.133  37.726  29.048  1.00  0.00    -0.744 OA
ENDBRANCH 100 101
ENDBRANCH  68  93
ENDBRANCH  42  43
ENDBRANCH  35  37
ENDBRANCH  34  35
ENDBRANCH  33  34
ENDBRANCH  32  33
ENDBRANCH  31  32
ENDBRANCH  30  31
ENDBRANCH   1  30
TORSDOF 26
ENDMDL
MODEL 3
REMARK VINA RESULT:     -10.1      5.980     10.446
REMARK SMILES CS(=O)(=O)c1ccc(/C=C(/C(=O)OCCOCCOCCOCCOC(=O)c2ccc(-c3c4nc(c(-c5c(F)cc(S(=O)(=O)[O-])cc5F)c5ccc([nH]5)c(-c5c(F)cc(S(=O)(=O)[O-])cc5F)c5nc(c(-c6c(F)cc(S(=O)(=O)[O-])cc6F)c6ccc3[nH]6)C=C5)C=C4)cc2)c2cccc(Br)c2)cc1
REMARK SMILES IDX 20 1 19 2 18 3 17 4 16 5 15 6 14 7 13 8 11 9 12 10 10 11
REMARK SMILES IDX 9 12 8 13 5 14 6 15 102 16 7 17 101 18 2 19 1 20 3 21 4 22
REMARK SMILES IDX 94 23 95 24 100 25 96 26 98 27 97 28 99 29 21 30 22 31 23 32
REMARK SMILES IDX 24 33 25 34 26 35 27 36 28 37 29 38 93 39 30 40 92 41 31 42
REMARK SMILES IDX 32 43 33 44 86 45 34 46 91 47 85 48 87 49 35 50 90 51 84 52
REMARK SMILES IDX 83 53 36 55 70 56 49 57 69 58 50 59 53 60 68 61 88 62 51 63
REMARK SMILES IDX 52 64 67 66 89 67 54 68 37 69 38 70 47 71 39 72 40 73 46 74
REMARK SMILES IDX 48 75 41 76 42 77 43 78 44 79 45 80 71 81 72 82 81 83 73 84
REMARK SMILES IDX 74 85 80 86 82 87 75 88 76 89 77 90 78 91 79 92 55 93 56 94
REMARK SMILES IDX 65 95 57 96 58 97 64 98 66 99 59 100 60 101 61 102 62 103
REMARK SMILES IDX 63 104
REMARK H PARENT 87 54 53 65
REMARK Flexibility Score: inf
ROOT
ATOM      1  C   UNL A   1      37.156  22.322  25.792  1.00  0.00     0.188 C 
ENDROOT
BRANCH   1   2
ATOM      2  O   UNL A   1      35.902  21.960  25.226  1.00  0.00    -0.377 OA
BRANCH   2   3
ATOM      3  C   UNL A   1      35.542  20.590  25.155  1.00  0.00     0.188 C 
BRANCH   3   4
ATOM      4  C   UNL A   1      34.094  20.207  24.780  1.00  0.00     0.188 C 
BRANCH   4   5
ATOM      5  O   UNL A   1      33.139  21.225  25.023  1.00  0.00    -0.376 OA
BRANCH   5   6
ATOM      6  C   UNL A   1      32.152  21.436  24.028  1.00  0.00     0.202 C 
BRANCH   6   7
ATOM      7  C   UNL A   1      31.568  22.851  23.909  1.00  0.00     0.261 C 
BRANCH   7   8
ATOM      8  O   UNL A   1      31.937  23.767  24.955  1.00  0.00    -0.460 OA
BRANCH   8   9
ATOM      9  C   UNL A   1      30.960  24.536  25.488  1.00  0.00     0.338 C 
ATOM     10  O   UNL A   1      30.337  24.281  26.507  1.00  0.00    -0.246 OA
BRANCH   9  11
ATOM     11  C   UNL A   1      30.849  25.840  24.742  1.00  0.00     0.067 C 
ATOM     12  C   UNL A   1      29.770  26.054  23.948  1.00  0.00     0.024 C 
BRANCH  12  13
ATOM     13  C   UNL A   1      29.342  27.310  23.286  1.00  0.00    -0.025 A 
ATOM     14  C   UNL A   1      28.583  29.918  22.594  1.00  0.00     0.067 A 
ATOM     15  C   UNL A   1      29.820  29.429  22.186  1.00  0.00     0.021 A 
ATOM     16  C   UNL A   1      27.667  29.080  23.231  1.00  0.00     0.021 A 
ATOM     17  C   UNL A   1      30.174  28.114  22.495  1.00  0.00     0.009 A 
ATOM     18  C   UNL A   1      28.048  27.777  23.566  1.00  0.00     0.009 A 
BRANCH  14  19
ATOM     19  S   UNL A   1      28.225  31.649  22.438  1.00  0.00     0.175 S 
ATOM     20  C   UNL A   1      27.895  31.872  20.716  1.00  0.00     0.163 C 
ATOM     21  O   UNL A   1      29.438  32.384  22.750  1.00  0.00    -0.224 OA
ATOM     22  O   UNL A   1      27.000  31.900  23.172  1.00  0.00    -0.224 OA
ENDBRANCH  14  19
ENDBRANCH  12  13
BRANCH  11  23
ATOM     23  C   UNL A   1      31.929  26.832  24.932  1.00  0.00    -0.010 A 
ATOM     24  C   UNL A   1      33.055  26.812  24.089  1.00  0.00     0.009 A 
ATOM     25  C   UNL A   1      31.804  27.863  25.867  1.00  0.00     0.024 A 
ATOM     26  C   UNL A   1      34.037  27.799  24.170  1.00  0.00     0.002 A 
ATOM     27  C   UNL A   1      32.780  28.860  25.930  1.00  0.00     0.018 A 
ATOM     28  C   UNL A   1      33.895  28.831  25.090  1.00  0.00     0.016 A 
ATOM     29  Br  UNL A   1      32.563  30.301  27.133  1.00  0.00    -0.051 Br
ENDBRANCH  11  23
ENDBRANCH   9  11
ENDBRANCH   8   9
ENDBRANCH   7   8
ENDBRANCH   6   7
ENDBRANCH   5   6
ENDBRANCH   4   5
ENDBRANCH   3   4
ENDBRANCH   2   3
ENDBRANCH   1   2
BRANCH   1  30
ATOM     30  C   UNL A   1      38.441  21.557  25.398  1.00  0.00     0.188 C 
BRANCH  30  31
ATOM     31  O   UNL A   1      39.404  21.430  26.435  1.00  0.00    -0.376 OA
BRANCH  31  32
ATOM     32  C   UNL A   1      40.037  22.618  26.881  1.00  0.00     0.202 C 
BRANCH  32  33
ATOM     33  C   UNL A   1      41.356  22.988  26.190  1.00  0.00     0.261 C 
BRANCH  33  34
ATOM     34  O   UNL A   1      42.119  24.035  26.809  1.00  0.00    -0.460 OA
BRANCH  34  35
ATOM     35  C   UNL A   1      42.015  25.277  26.288  1.00  0.00     0.338 C 
ATOM     36  O   UNL A   1      42.010  25.584  25.109  1.00  0.00    -0.246 OA
BRANCH  35  37
ATOM     37  C   UNL A   1      41.704  26.194  27.404  1.00  0.00     0.060 A 
ATOM     38  C   UNL A   1      42.485  27.343  27.588  1.00  0.00     0.016 A 
ATOM     39  C   UNL A   1      40.615  25.935  28.238  1.00  0.00     0.016 A 
ATOM     40  C   UNL A   1      42.184  28.231  28.622  1.00  0.00     0.010 A 
ATOM     41  C   UNL A   1      40.333  26.810  29.288  1.00  0.00     0.010 A 
ATOM     42  C   UNL A   1      41.131  27.949  29.500  1.00  0.00    -0.014 A 
BRANCH  42  43
ATOM     43  C   UNL A   1      40.967  28.738  30.744  1.00  0.00     0.031 A 
ATOM     44  C   UNL A   1      39.902  29.801  30.776  1.00  0.00     0.074 A 
ATOM     45  C   UNL A   1      41.746  28.521  31.819  1.00  0.00     0.049 A 
ATOM     46  N   UNL A   1      39.623  30.667  31.713  1.00  0.00    -0.248 NA
ATOM     47  C   UNL A   1      39.042  29.899  29.586  1.00  0.00     0.031 C 
ATOM     48  C   UNL A   1      42.782  27.496  31.919  1.00  0.00     0.029 A 
ATOM     49  N   UNL A   1      41.792  29.168  33.029  1.00  0.00    -0.354 N 
ATOM     50  C   UNL A   1      38.560  31.418  31.226  1.00  0.00     0.074 A 
ATOM     51  C   UNL A   1      38.265  30.925  29.898  1.00  0.00     0.031 C 
ATOM     52  C   UNL A   1      43.375  27.594  33.123  1.00  0.00     0.029 A 
ATOM     53  C   UNL A   1      42.787  28.712  33.860  1.00  0.00     0.049 A 
ATOM     54  H   UNL A   1      41.171  29.890  33.278  1.00  0.00     0.167 HD
ATOM     55  C   UNL A   1      37.888  32.424  31.833  1.00  0.00     0.037 A 
ATOM     56  C   UNL A   1      43.192  29.165  35.064  1.00  0.00     0.037 A 
ATOM     57  C   UNL A   1      38.194  32.915  33.152  1.00  0.00     0.049 A 
ATOM     58  C   UNL A   1      42.481  30.339  35.688  1.00  0.00     0.074 A 
ATOM     59  C   UNL A   1      37.563  33.919  33.862  1.00  0.00     0.029 A 
ATOM     60  N   UNL A   1      39.226  32.446  33.951  1.00  0.00    -0.354 N 
ATOM     61  N   UNL A   1      41.460  31.027  35.229  1.00  0.00    -0.248 NA
ATOM     62  C   UNL A   1      42.973  30.801  36.994  1.00  0.00     0.031 C 
ATOM     63  C   UNL A   1      38.249  34.097  35.068  1.00  0.00     0.029 A 
ATOM     64  C   UNL A   1      39.268  33.162  35.136  1.00  0.00     0.049 A 
ATOM     65  H   UNL A   1      39.838  31.713  33.712  1.00  0.00     0.167 HD
ATOM     66  C   UNL A   1      41.174  31.982  36.202  1.00  0.00     0.074 A 
ATOM     67  C   UNL A   1      42.119  31.773  37.279  1.00  0.00     0.031 C 
ATOM     68  C   UNL A   1      40.214  32.941  36.204  1.00  0.00     0.037 A 
BRANCH  55  69
ATOM     69  C   UNL A   1      36.776  33.084  31.063  1.00  0.00     0.058 A 
ATOM     70  C   UNL A   1      37.030  34.063  30.089  1.00  0.00     0.135 A 
ATOM     71  C   UNL A   1      35.441  32.710  31.284  1.00  0.00     0.135 A 
ATOM     72  F   UNL A   1      38.285  34.474  29.852  1.00  0.00    -0.206 F 
ATOM     73  C   UNL A   1      35.996  34.664  29.377  1.00  0.00     0.059 A 
ATOM     74  C   UNL A   1      34.394  33.277  30.563  1.00  0.00     0.059 A 
ATOM     75  F   UNL A   1      35.142  31.785  32.209  1.00  0.00    -0.206 F 
ATOM     76  C   UNL A   1      34.681  34.262  29.621  1.00  0.00     0.060 A 
BRANCH  76  77
ATOM     77  S   UNL A   1      33.353  35.046  28.681  1.00  0.00     0.124 S 
ATOM     78  O   UNL A   1      34.098  35.996  27.861  1.00  0.00    -0.237 OA
ATOM     79  O   UNL A   1      32.769  33.915  27.968  1.00  0.00    -0.237 OA
ATOM     80  O   UNL A   1      32.509  35.638  29.714  1.00  0.00    -0.744 OA
ENDBRANCH  76  77
ENDBRANCH  55  69
BRANCH  56  81
ATOM     81  C   UNL A   1      44.345  28.522  35.754  1.00  0.00     0.058 A 
ATOM     82  C   UNL A   1      44.152  27.485  36.678  1.00  0.00     0.135 A 
ATOM     83  C   UNL A   1      45.663  28.937  35.506  1.00  0.00     0.135 A 
ATOM     84  F   UNL A   1      42.910  27.062  36.962  1.00  0.00    -0.206 F 
ATOM     85  C   UNL A   1      45.221  26.890  37.342  1.00  0.00     0.059 A 
ATOM     86  C   UNL A   1      46.750  28.339  36.135  1.00  0.00     0.059 A 
ATOM     87  F   UNL A   1      45.905  29.922  34.626  1.00  0.00    -0.206 F 
ATOM     88  C   UNL A   1      46.518  27.321  37.059  1.00  0.00     0.060 A 
BRANCH  88  89
ATOM     89  S   UNL A   1      47.902  26.503  37.882  1.00  0.00     0.124 S 
ATOM     90  O   UNL A   1      47.336  25.192  38.175  1.00  0.00    -0.237 OA
ATOM     91  O   UNL A   1      48.934  26.539  36.851  1.00  0.00    -0.237 OA
ATOM     92  O   UNL A   1      48.153  27.356  39.041  1.00  0.00    -0.744 OA
ENDBRANCH  88  89
ENDBRANCH  56  81
BRANCH  68  93
ATOM     93  C   UNL A   1      40.111  33.822  37.421  1.00  0.00     0.058 A 
ATOM     94  C   UNL A   1      39.221  33.538  38.468  1.00  0.00     0.135 A 
ATOM     95  C   UNL A   1      40.956  34.935  37.565  1.00  0.00     0.135 A 
ATOM     96  F   UNL A   1      38.387  32.489  38.382  1.00  0.00    -0.206 F 
ATOM     97  C   UNL A   1      39.154  34.341  39.604  1.00  0.00     0.059 A 
ATOM     98  C   UNL A   1      40.929  35.733  38.704  1.00  0.00     0.059 A 
ATOM     99  F   UNL A   1      41.836  35.246  36.600  1.00  0.00    -0.206 F 
ATOM    100  C   UNL A   1      40.015  35.435  39.714  1.00  0.00     0.060 A 
BRANCH 100 101
ATOM    101  S   UNL A   1      39.939  36.449  41.205  1.00  0.00     0.124 S 
ATOM    102  O   UNL A   1      40.957  35.820  42.041  1.00  0.00    -0.237 OA
ATOM    103  O   UNL A   1      40.270  37.777  40.696  1.00  0.00    -0.237 OA
ATOM    104  O   UNL A   1      38.562  36.284  41.661  1.00  0.00    -0.744 OA
ENDBRANCH 100 101
ENDBRANCH  68  93
ENDBRANCH  42  43
ENDBRANCH  35  37
ENDBRANCH  34  35
ENDBRANCH  33  34
ENDBRANCH  32  33
ENDBRANCH  31  32
ENDBRANCH  30  31
ENDBRANCH   1  30
TORSDOF 26
ENDMDL
