MODEL 1
REMARK VINA RESULT:      -9.2      0.000      0.000
REMARK SMILES [NH3+][C@@]1(C(=O)OCCOCCOCCOCCOC(=O)c2ccc(-c3c4nc(c(-c5c(F)cc(S(=O)(=O)[O-])cc5F)c5ccc([nH]5)c(-c5c(F)cc(S(=O)(=O)[O-])cc5F)c5nc(c(-c6c(F)cc(S(=O)(=O)[O-])cc6F)c6ccc3[nH]6)C=C5)C=C4)cc2)CC[C@@H](Sc2ccc(Cl)c(Cl)c2)C1
REMARK SMILES IDX 12 1 11 2 10 3 9 4 8 5 7 6 6 7 5 8 3 9 4 10 2 11 86 12 98 13
REMARK SMILES IDX 87 14 88 15 1 16 89 20 90 21 91 22 97 23 92 24 95 25 93 26
REMARK SMILES IDX 96 27 94 28 13 29 14 30 15 31 16 32 17 33 18 34 19 35 20 36
REMARK SMILES IDX 21 37 85 38 22 39 84 40 23 41 24 42 25 43 78 44 26 45 83 46
REMARK SMILES IDX 77 47 79 48 27 49 82 50 76 51 75 52 28 54 62 55 41 56 61 57
REMARK SMILES IDX 42 58 45 59 60 60 80 61 43 62 44 63 59 65 81 66 46 67 29 68
REMARK SMILES IDX 30 69 39 70 31 71 32 72 38 73 40 74 33 75 34 76 35 77 36 78
REMARK SMILES IDX 37 79 63 80 64 81 73 82 65 83 66 84 72 85 74 86 67 87 68 88
REMARK SMILES IDX 69 89 70 90 71 91 47 92 48 93 57 94 49 95 50 96 56 97 58 98
REMARK SMILES IDX 51 99 52 100 53 101 54 102 55 103
REMARK H PARENT 1 17 1 18 1 19 79 53 45 64
REMARK Flexibility Score: inf
ROOT
ATOM      1  C   UNL A   1      44.105  21.926  24.843  1.00  0.00     0.188 C 
ENDROOT
BRANCH   1   2
ATOM      2  O   UNL A   1      43.448  20.706  25.160  1.00  0.00    -0.377 OA
BRANCH   2   3
ATOM      3  C   UNL A   1      42.650  20.690  26.322  1.00  0.00     0.188 C 
BRANCH   3   4
ATOM      4  C   UNL A   1      41.640  19.534  26.388  1.00  0.00     0.188 C 
BRANCH   4   5
ATOM      5  O   UNL A   1      40.367  19.640  25.766  1.00  0.00    -0.376 OA
BRANCH   5   6
ATOM      6  C   UNL A   1      39.529  20.767  26.000  1.00  0.00     0.202 C 
BRANCH   6   7
ATOM      7  C   UNL A   1      38.321  21.073  25.095  1.00  0.00     0.261 C 
BRANCH   7   8
ATOM      8  O   UNL A   1      37.108  21.442  25.776  1.00  0.00    -0.459 OA
BRANCH   8   9
ATOM      9  C   UNL A   1      36.795  22.760  25.813  1.00  0.00     0.368 C 
ATOM     10  O   UNL A   1      37.619  23.662  25.946  1.00  0.00    -0.245 OA
BRANCH   9  11
ATOM     11  C   UNL A   1      35.286  23.061  25.525  1.00  0.00     0.193 C 
ATOM     12  C   UNL A   1      34.517  23.134  26.851  1.00  0.00     0.082 C 
ATOM     13  C   UNL A   1      34.524  22.016  24.681  1.00  0.00     0.095 C 
ATOM     14  C   UNL A   1      33.900  21.755  27.017  1.00  0.00     0.022 C 
ATOM     15  C   UNL A   1      33.544  21.304  25.607  1.00  0.00     0.059 C 
BRANCH  11  16
ATOM     16  N   UNL A   1      35.215  24.415  24.903  1.00  0.00    -0.343 N 
ATOM     17  H   UNL A   1      35.250  25.127  25.633  1.00  0.00     0.345 HD
ATOM     18  H   UNL A   1      34.342  24.504  24.383  1.00  0.00     0.345 HD
ATOM     19  H   UNL A   1      36.003  24.539  24.268  1.00  0.00     0.345 HD
ENDBRANCH  11  16
BRANCH  15  20
ATOM     20  S   UNL A   1      31.779  21.442  25.097  1.00  0.00    -0.122 SA
BRANCH  20  21
ATOM     21  C   UNL A   1      31.486  23.181  24.845  1.00  0.00     0.009 A 
ATOM     22  C   UNL A   1      30.908  23.911  25.887  1.00  0.00     0.017 A 
ATOM     23  C   UNL A   1      31.656  23.800  23.602  1.00  0.00     0.037 A 
ATOM     24  C   UNL A   1      30.537  25.246  25.703  1.00  0.00     0.023 A 
ATOM     25  C   UNL A   1      31.305  25.144  23.417  1.00  0.00     0.060 A 
ATOM     26  C   UNL A   1      30.740  25.868  24.470  1.00  0.00     0.059 A 
ATOM     27  Cl  UNL A   1      31.566  25.837  21.854  1.00  0.00    -0.083 Cl
ATOM     28  Cl  UNL A   1      30.241  27.514  24.304  1.00  0.00    -0.083 Cl
ENDBRANCH  20  21
ENDBRANCH  15  20
ENDBRANCH   9  11
ENDBRANCH   8   9
ENDBRANCH   7   8
ENDBRANCH   6   7
ENDBRANCH   5   6
ENDBRANCH   4   5
ENDBRANCH   3   4
ENDBRANCH   2   3
ENDBRANCH   1   2
BRANCH   1  29
ATOM     29  C   UNL A   1      45.600  22.051  25.196  1.00  0.00     0.188 C 
BRANCH  29  30
ATOM     30  O   UNL A   1      46.060  23.394  25.303  1.00  0.00    -0.376 OA
BRANCH  30  31
ATOM     31  C   UNL A   1      46.232  23.959  26.597  1.00  0.00     0.202 C 
BRANCH  31  32
ATOM     32  C   UNL A   1      45.066  23.875  27.599  1.00  0.00     0.261 C 
BRANCH  32  33
ATOM     33  O   UNL A   1      43.742  24.130  27.100  1.00  0.00    -0.460 OA
BRANCH  33  34
ATOM     34  C   UNL A   1      43.499  25.302  26.471  1.00  0.00     0.338 C 
ATOM     35  O   UNL A   1      43.549  25.516  25.281  1.00  0.00    -0.246 OA
BRANCH  34  36
ATOM     36  C   UNL A   1      42.948  26.240  27.480  1.00  0.00     0.060 A 
ATOM     37  C   UNL A   1      43.148  27.616  27.309  1.00  0.00     0.016 A 
ATOM     38  C   UNL A   1      42.232  25.764  28.580  1.00  0.00     0.016 A 
ATOM     39  C   UNL A   1      42.655  28.520  28.252  1.00  0.00     0.010 A 
ATOM     40  C   UNL A   1      41.759  26.669  29.537  1.00  0.00     0.010 A 
ATOM     41  C   UNL A   1      41.991  28.049  29.392  1.00  0.00    -0.014 A 
BRANCH  41  42
ATOM     42  C   UNL A   1      41.680  28.975  30.510  1.00  0.00     0.031 A 
ATOM     43  C   UNL A   1      42.517  28.901  31.760  1.00  0.00     0.074 A 
ATOM     44  C   UNL A   1      40.679  29.869  30.419  1.00  0.00     0.049 A 
ATOM     45  N   UNL A   1      42.387  29.552  32.886  1.00  0.00    -0.248 NA
ATOM     46  C   UNL A   1      43.650  27.962  31.735  1.00  0.00     0.031 C 
ATOM     47  C   UNL A   1      39.825  30.064  29.249  1.00  0.00     0.029 A 
ATOM     48  N   UNL A   1      40.201  30.770  31.339  1.00  0.00    -0.354 N 
ATOM     49  C   UNL A   1      43.413  29.097  33.707  1.00  0.00     0.074 A 
ATOM     50  C   UNL A   1      44.140  28.094  32.959  1.00  0.00     0.031 C 
ATOM     51  C   UNL A   1      38.913  31.013  29.528  1.00  0.00     0.029 A 
ATOM     52  C   UNL A   1      39.094  31.464  30.908  1.00  0.00     0.049 A 
ATOM     53  H   UNL A   1      40.612  30.907  32.223  1.00  0.00     0.167 HD
ATOM     54  C   UNL A   1      43.722  29.482  34.967  1.00  0.00     0.037 A 
ATOM     55  C   UNL A   1      38.301  32.337  31.562  1.00  0.00     0.037 A 
ATOM     56  C   UNL A   1      42.991  30.478  35.707  1.00  0.00     0.049 A 
ATOM     57  C   UNL A   1      38.620  32.695  32.993  1.00  0.00     0.074 A 
ATOM     58  C   UNL A   1      43.239  30.956  36.982  1.00  0.00     0.029 A 
ATOM     59  N   UNL A   1      41.861  31.139  35.246  1.00  0.00    -0.354 N 
ATOM     60  N   UNL A   1      39.611  32.280  33.747  1.00  0.00    -0.248 NA
ATOM     61  C   UNL A   1      37.714  33.641  33.662  1.00  0.00     0.031 C 
ATOM     62  C   UNL A   1      42.224  31.858  37.316  1.00  0.00     0.029 A 
ATOM     63  C   UNL A   1      41.382  31.995  36.225  1.00  0.00     0.049 A 
ATOM     64  H   UNL A   1      41.459  31.018  34.356  1.00  0.00     0.167 HD
ATOM     65  C   UNL A   1      39.461  32.934  34.968  1.00  0.00     0.074 A 
ATOM     66  C   UNL A   1      38.296  33.784  34.845  1.00  0.00     0.031 C 
ATOM     67  C   UNL A   1      40.221  32.841  36.088  1.00  0.00     0.037 A 
BRANCH  54  68
ATOM     68  C   UNL A   1      44.884  28.806  35.644  1.00  0.00     0.058 A 
ATOM     69  C   UNL A   1      46.188  29.321  35.572  1.00  0.00     0.135 A 
ATOM     70  C   UNL A   1      44.680  27.650  36.416  1.00  0.00     0.135 A 
ATOM     71  F   UNL A   1      46.445  30.412  34.832  1.00  0.00    -0.206 F 
ATOM     72  C   UNL A   1      47.251  28.705  36.226  1.00  0.00     0.059 A 
ATOM     73  C   UNL A   1      45.721  27.034  37.103  1.00  0.00     0.059 A 
ATOM     74  F   UNL A   1      43.454  27.111  36.514  1.00  0.00    -0.206 F 
ATOM     75  C   UNL A   1      47.007  27.564  36.993  1.00  0.00     0.060 A 
BRANCH  75  76
ATOM     76  S   UNL A   1      48.393  26.789  37.850  1.00  0.00     0.124 S 
ATOM     77  O   UNL A   1      48.006  25.383  37.817  1.00  0.00    -0.237 OA
ATOM     78  O   UNL A   1      49.524  27.155  37.004  1.00  0.00    -0.237 OA
ATOM     79  O   UNL A   1      48.371  27.414  39.169  1.00  0.00    -0.744 OA
ENDBRANCH  75  76
ENDBRANCH  54  68
BRANCH  55  80
ATOM     80  C   UNL A   1      37.109  32.917  30.884  1.00  0.00     0.058 A 
ATOM     81  C   UNL A   1      37.238  33.936  29.928  1.00  0.00     0.135 A 
ATOM     82  C   UNL A   1      35.811  32.473  31.189  1.00  0.00     0.135 A 
ATOM     83  F   UNL A   1      38.454  34.407  29.611  1.00  0.00    -0.206 F 
ATOM     84  C   UNL A   1      36.128  34.504  29.311  1.00  0.00     0.059 A 
ATOM     85  C   UNL A   1      34.688  33.004  30.565  1.00  0.00     0.059 A 
ATOM     86  F   UNL A   1      35.630  31.497  32.091  1.00  0.00    -0.206 F 
ATOM     87  C   UNL A   1      34.855  34.027  29.633  1.00  0.00     0.060 A 
BRANCH  87  88
ATOM     88  S   UNL A   1      33.426  34.737  28.789  1.00  0.00     0.124 S 
ATOM     89  O   UNL A   1      33.162  33.736  27.763  1.00  0.00    -0.237 OA
ATOM     90  O   UNL A   1      32.446  34.822  29.868  1.00  0.00    -0.237 OA
ATOM     91  O   UNL A   1      33.926  36.021  28.305  1.00  0.00    -0.744 OA
ENDBRANCH  87  88
ENDBRANCH  55  80
BRANCH  67  92
ATOM     92  C   UNL A   1      39.840  33.702  37.265  1.00  0.00     0.058 A 
ATOM     93  C   UNL A   1      38.866  33.302  38.193  1.00  0.00     0.135 A 
ATOM     94  C   UNL A   1      40.501  34.920  37.496  1.00  0.00     0.135 A 
ATOM     95  F   UNL A   1      38.199  32.150  38.018  1.00  0.00    -0.206 F 
ATOM     96  C   UNL A   1      38.540  34.091  39.291  1.00  0.00     0.059 A 
ATOM     97  C   UNL A   1      40.215  35.709  38.606  1.00  0.00     0.059 A 
ATOM     98  F   UNL A   1      41.451  35.347  36.648  1.00  0.00    -0.206 F 
ATOM     99  C   UNL A   1      39.224  35.292  39.492  1.00  0.00     0.060 A 
BRANCH  99 100
ATOM    100  S   UNL A   1      38.812  36.290  40.939  1.00  0.00     0.124 S 
ATOM    101  O   UNL A   1      37.824  35.449  41.607  1.00  0.00    -0.237 OA
ATOM    102  O   UNL A   1      40.102  36.409  41.612  1.00  0.00    -0.237 OA
ATOM    103  O   UNL A   1      38.295  37.528  40.364  1.00  0.00    -0.744 OA
ENDBRANCH  99 100
ENDBRANCH  67  92
ENDBRANCH  41  42
ENDBRANCH  34  36
ENDBRANCH  33  34
ENDBRANCH  32  33
ENDBRANCH  31  32
ENDBRANCH  30  31
ENDBRANCH  29  30
ENDBRANCH   1  29
TORSDOF 26
ENDMDL
MODEL 2
REMARK VINA RESULT:      -8.7      5.501     12.233
REMARK SMILES [NH3+][C@@]1(C(=O)OCCOCCOCCOCCOC(=O)c2ccc(-c3c4nc(c(-c5c(F)cc(S(=O)(=O)[O-])cc5F)c5ccc([nH]5)c(-c5c(F)cc(S(=O)(=O)[O-])cc5F)c5nc(c(-c6c(F)cc(S(=O)(=O)[O-])cc6F)c6ccc3[nH]6)C=C5)C=C4)cc2)CC[C@@H](Sc2ccc(Cl)c(Cl)c2)C1
REMARK SMILES IDX 12 1 11 2 10 3 9 4 8 5 7 6 6 7 5 8 3 9 4 10 2 11 86 12 98 13
REMARK SMILES IDX 87 14 88 15 1 16 89 20 90 21 91 22 97 23 92 24 95 25 93 26
REMARK SMILES IDX 96 27 94 28 13 29 14 30 15 31 16 32 17 33 18 34 19 35 20 36
REMARK SMILES IDX 21 37 85 38 22 39 84 40 23 41 24 42 25 43 78 44 26 45 83 46
REMARK SMILES IDX 77 47 79 48 27 49 82 50 76 51 75 52 28 54 62 55 41 56 61 57
REMARK SMILES IDX 42 58 45 59 60 60 80 61 43 62 44 63 59 65 81 66 46 67 29 68
REMARK SMILES IDX 30 69 39 70 31 71 32 72 38 73 40 74 33 75 34 76 35 77 36 78
REMARK SMILES IDX 37 79 63 80 64 81 73 82 65 83 66 84 72 85 74 86 67 87 68 88
REMARK SMILES IDX 69 89 70 90 71 91 47 92 48 93 57 94 49 95 50 96 56 97 58 98
REMARK SMILES IDX 51 99 52 100 53 101 54 102 55 103
REMARK H PARENT 1 17 1 18 1 19 79 53 45 64
REMARK Flexibility Score: inf
ROOT
ATOM      1  C   UNL A   1      33.317  35.122  29.873  1.00  0.00     0.188 C 
ENDROOT
BRANCH   1   2
ATOM      2  O   UNL A   1      32.995  34.936  28.500  1.00  0.00    -0.377 OA
BRANCH   2   3
ATOM      3  C   UNL A   1      32.970  33.612  28.019  1.00  0.00     0.188 C 
BRANCH   3   4
ATOM      4  C   UNL A   1      31.775  33.282  27.113  1.00  0.00     0.188 C 
BRANCH   4   5
ATOM      5  O   UNL A   1      31.569  31.963  26.628  1.00  0.00    -0.376 OA
BRANCH   5   6
ATOM      6  C   UNL A   1      32.521  30.935  26.876  1.00  0.00     0.202 C 
BRANCH   6   7
ATOM      7  C   UNL A   1      32.731  29.775  25.884  1.00  0.00     0.261 C 
BRANCH   7   8
ATOM      8  O   UNL A   1      31.553  29.019  25.549  1.00  0.00    -0.459 OA
BRANCH   8   9
ATOM      9  C   UNL A   1      30.902  29.357  24.411  1.00  0.00     0.368 C 
ATOM     10  O   UNL A   1      30.293  30.413  24.251  1.00  0.00    -0.245 OA
BRANCH   9  11
ATOM     11  C   UNL A   1      31.110  28.342  23.237  1.00  0.00     0.193 C 
ATOM     12  C   UNL A   1      30.015  27.269  23.287  1.00  0.00     0.082 C 
ATOM     13  C   UNL A   1      32.439  27.553  23.235  1.00  0.00     0.095 C 
ATOM     14  C   UNL A   1      30.653  26.098  24.015  1.00  0.00     0.022 C 
ATOM     15  C   UNL A   1      32.112  26.105  23.580  1.00  0.00     0.059 C 
BRANCH  11  16
ATOM     16  N   UNL A   1      30.927  29.095  21.962  1.00  0.00    -0.343 N 
ATOM     17  H   UNL A   1      31.135  30.082  22.117  1.00  0.00     0.345 HD
ATOM     18  H   UNL A   1      29.962  28.997  21.646  1.00  0.00     0.345 HD
ATOM     19  H   UNL A   1      31.557  28.722  21.253  1.00  0.00     0.345 HD
ENDBRANCH  11  16
BRANCH  15  20
ATOM     20  S   UNL A   1      32.615  24.885  22.294  1.00  0.00    -0.122 SA
BRANCH  20  21
ATOM     21  C   UNL A   1      33.402  23.553  23.176  1.00  0.00     0.009 A 
ATOM     22  C   UNL A   1      34.767  23.665  23.459  1.00  0.00     0.017 A 
ATOM     23  C   UNL A   1      32.755  22.343  23.447  1.00  0.00     0.037 A 
ATOM     24  C   UNL A   1      35.466  22.599  24.032  1.00  0.00     0.023 A 
ATOM     25  C   UNL A   1      33.445  21.279  24.041  1.00  0.00     0.060 A 
ATOM     26  C   UNL A   1      34.806  21.406  24.330  1.00  0.00     0.059 A 
ATOM     27  Cl  UNL A   1      32.564  19.824  24.358  1.00  0.00    -0.083 Cl
ATOM     28  Cl  UNL A   1      35.734  20.121  25.021  1.00  0.00    -0.083 Cl
ENDBRANCH  20  21
ENDBRANCH  15  20
ENDBRANCH   9  11
ENDBRANCH   8   9
ENDBRANCH   7   8
ENDBRANCH   6   7
ENDBRANCH   5   6
ENDBRANCH   4   5
ENDBRANCH   3   4
ENDBRANCH   2   3
ENDBRANCH   1   2
BRANCH   1  29
ATOM     29  C   UNL A   1      34.506  34.327  30.446  1.00  0.00     0.188 C 
BRANCH  29  30
ATOM     30  O   UNL A   1      34.127  33.203  31.232  1.00  0.00    -0.376 OA
BRANCH  30  31
ATOM     31  C   UNL A   1      34.903  32.014  31.146  1.00  0.00     0.202 C 
BRANCH  31  32
ATOM     32  C   UNL A   1      36.435  32.137  31.064  1.00  0.00     0.261 C 
BRANCH  32  33
ATOM     33  O   UNL A   1      37.156  32.289  32.298  1.00  0.00    -0.460 OA
BRANCH  33  34
ATOM     34  C   UNL A   1      38.284  33.035  32.305  1.00  0.00     0.338 C 
ATOM     35  O   UNL A   1      38.441  34.116  32.826  1.00  0.00    -0.246 OA
BRANCH  34  36
ATOM     36  C   UNL A   1      39.370  32.199  31.738  1.00  0.00     0.060 A 
ATOM     37  C   UNL A   1      40.092  31.354  32.591  1.00  0.00     0.016 A 
ATOM     38  C   UNL A   1      39.666  32.242  30.374  1.00  0.00     0.016 A 
ATOM     39  C   UNL A   1      41.130  30.567  32.086  1.00  0.00     0.010 A 
ATOM     40  C   UNL A   1      40.722  31.472  29.874  1.00  0.00     0.010 A 
ATOM     41  C   UNL A   1      41.477  30.651  30.731  1.00  0.00    -0.014 A 
BRANCH  41  42
ATOM     42  C   UNL A   1      42.722  30.010  30.240  1.00  0.00     0.031 A 
ATOM     43  C   UNL A   1      43.996  30.815  30.243  1.00  0.00     0.074 A 
ATOM     44  C   UNL A   1      42.728  28.738  29.802  1.00  0.00     0.049 A 
ATOM     45  N   UNL A   1      45.181  30.494  29.795  1.00  0.00    -0.248 NA
ATOM     46  C   UNL A   1      43.917  32.163  30.829  1.00  0.00     0.031 C 
ATOM     47  C   UNL A   1      41.570  27.845  29.786  1.00  0.00     0.029 A 
ATOM     48  N   UNL A   1      43.744  27.982  29.270  1.00  0.00    -0.354 N 
ATOM     49  C   UNL A   1      45.987  31.602  30.034  1.00  0.00     0.074 A 
ATOM     50  C   UNL A   1      45.149  32.612  30.642  1.00  0.00     0.031 C 
ATOM     51  C   UNL A   1      41.936  26.667  29.251  1.00  0.00     0.029 A 
ATOM     52  C   UNL A   1      43.342  26.734  28.852  1.00  0.00     0.049 A 
ATOM     53  H   UNL A   1      44.671  28.302  29.195  1.00  0.00     0.167 HD
ATOM     54  C   UNL A   1      47.306  31.760  29.774  1.00  0.00     0.037 A 
ATOM     55  C   UNL A   1      44.022  25.772  28.194  1.00  0.00     0.037 A 
ATOM     56  C   UNL A   1      48.133  30.750  29.165  1.00  0.00     0.049 A 
ATOM     57  C   UNL A   1      45.472  26.000  27.846  1.00  0.00     0.074 A 
ATOM     58  C   UNL A   1      49.487  30.805  28.881  1.00  0.00     0.029 A 
ATOM     59  N   UNL A   1      47.685  29.510  28.733  1.00  0.00    -0.354 N 
ATOM     60  N   UNL A   1      46.231  27.040  28.105  1.00  0.00    -0.248 NA
ATOM     61  C   UNL A   1      46.160  24.924  27.118  1.00  0.00     0.031 C 
ATOM     62  C   UNL A   1      49.843  29.625  28.221  1.00  0.00     0.029 A 
ATOM     63  C   UNL A   1      48.728  28.806  28.154  1.00  0.00     0.049 A 
ATOM     64  H   UNL A   1      46.762  29.180  28.824  1.00  0.00     0.167 HD
ATOM     65  C   UNL A   1      47.489  26.731  27.595  1.00  0.00     0.074 A 
ATOM     66  C   UNL A   1      47.394  25.402  27.029  1.00  0.00     0.031 C 
ATOM     67  C   UNL A   1      48.621  27.479  27.597  1.00  0.00     0.037 A 
BRANCH  54  68
ATOM     68  C   UNL A   1      47.937  33.083  30.118  1.00  0.00     0.058 A 
ATOM     69  C   UNL A   1      48.522  33.324  31.371  1.00  0.00     0.135 A 
ATOM     70  C   UNL A   1      47.998  34.108  29.160  1.00  0.00     0.135 A 
ATOM     71  F   UNL A   1      48.476  32.386  32.332  1.00  0.00    -0.206 F 
ATOM     72  C   UNL A   1      49.129  34.540  31.668  1.00  0.00     0.059 A 
ATOM     73  C   UNL A   1      48.627  35.321  29.424  1.00  0.00     0.059 A 
ATOM     74  F   UNL A   1      47.450  33.934  27.947  1.00  0.00    -0.206 F 
ATOM     75  C   UNL A   1      49.180  35.532  30.687  1.00  0.00     0.060 A 
BRANCH  75  76
ATOM     76  S   UNL A   1      49.989  37.096  31.083  1.00  0.00     0.124 S 
ATOM     77  O   UNL A   1      51.395  36.705  31.080  1.00  0.00    -0.237 OA
ATOM     78  O   UNL A   1      49.568  37.950  29.978  1.00  0.00    -0.237 OA
ATOM     79  O   UNL A   1      49.438  37.444  32.388  1.00  0.00    -0.744 OA
ENDBRANCH  75  76
ENDBRANCH  54  68
BRANCH  55  80
ATOM     80  C   UNL A   1      43.336  24.512  27.795  1.00  0.00     0.058 A 
ATOM     81  C   UNL A   1      43.247  23.422  28.673  1.00  0.00     0.135 A 
ATOM     82  C   UNL A   1      42.766  24.368  26.519  1.00  0.00     0.135 A 
ATOM     83  F   UNL A   1      43.789  23.501  29.898  1.00  0.00    -0.206 F 
ATOM     84  C   UNL A   1      42.634  22.230  28.297  1.00  0.00     0.059 A 
ATOM     85  C   UNL A   1      42.121  23.199  26.131  1.00  0.00     0.059 A 
ATOM     86  F   UNL A   1      42.816  25.383  25.642  1.00  0.00    -0.206 F 
ATOM     87  C   UNL A   1      42.069  22.130  27.024  1.00  0.00     0.060 A 
BRANCH  87  88
ATOM     88  S   UNL A   1      41.232  20.597  26.567  1.00  0.00     0.124 S 
ATOM     89  O   UNL A   1      40.875  20.056  27.872  1.00  0.00    -0.237 OA
ATOM     90  O   UNL A   1      40.124  21.087  25.751  1.00  0.00    -0.237 OA
ATOM     91  O   UNL A   1      42.259  19.859  25.836  1.00  0.00    -0.744 OA
ENDBRANCH  87  88
ENDBRANCH  55  80
BRANCH  67  92
ATOM     92  C   UNL A   1      49.863  26.870  26.998  1.00  0.00     0.058 A 
ATOM     93  C   UNL A   1      50.797  26.171  27.778  1.00  0.00     0.135 A 
ATOM     94  C   UNL A   1      50.091  26.940  25.613  1.00  0.00     0.135 A 
ATOM     95  F   UNL A   1      50.632  26.077  29.107  1.00  0.00    -0.206 F 
ATOM     96  C   UNL A   1      51.927  25.589  27.213  1.00  0.00     0.059 A 
ATOM     97  C   UNL A   1      51.196  26.337  25.022  1.00  0.00     0.059 A 
ATOM     98  F   UNL A   1      49.223  27.585  24.816  1.00  0.00    -0.206 F 
ATOM     99  C   UNL A   1      52.116  25.673  25.832  1.00  0.00     0.060 A 
BRANCH  99 100
ATOM    100  S   UNL A   1      53.571  24.886  25.108  1.00  0.00     0.124 S 
ATOM    101  O   UNL A   1      54.591  25.172  26.111  1.00  0.00    -0.237 OA
ATOM    102  O   UNL A   1      53.152  23.491  25.009  1.00  0.00    -0.237 OA
ATOM    103  O   UNL A   1      53.734  25.578  23.833  1.00  0.00    -0.744 OA
ENDBRANCH  99 100
ENDBRANCH  67  92
ENDBRANCH  41  42
ENDBRANCH  34  36
ENDBRANCH  33  34
ENDBRANCH  32  33
ENDBRANCH  31  32
ENDBRANCH  30  31
ENDBRANCH  29  30
ENDBRANCH   1  29
TORSDOF 26
ENDMDL
MODEL 3
REMARK VINA RESULT:      -8.6      5.806     13.194
REMARK SMILES [NH3+][C@@]1(C(=O)OCCOCCOCCOCCOC(=O)c2ccc(-c3c4nc(c(-c5c(F)cc(S(=O)(=O)[O-])cc5F)c5ccc([nH]5)c(-c5c(F)cc(S(=O)(=O)[O-])cc5F)c5nc(c(-c6c(F)cc(S(=O)(=O)[O-])cc6F)c6ccc3[nH]6)C=C5)C=C4)cc2)CC[C@@H](Sc2ccc(Cl)c(Cl)c2)C1
REMARK SMILES IDX 12 1 11 2 10 3 9 4 8 5 7 6 6 7 5 8 3 9 4 10 2 11 86 12 98 13
REMARK SMILES IDX 87 14 88 15 1 16 89 20 90 21 91 22 97 23 92 24 95 25 93 26
REMARK SMILES IDX 96 27 94 28 13 29 14 30 15 31 16 32 17 33 18 34 19 35 20 36
REMARK SMILES IDX 21 37 85 38 22 39 84 40 23 41 24 42 25 43 78 44 26 45 83 46
REMARK SMILES IDX 77 47 79 48 27 49 82 50 76 51 75 52 28 54 62 55 41 56 61 57
REMARK SMILES IDX 42 58 45 59 60 60 80 61 43 62 44 63 59 65 81 66 46 67 29 68
REMARK SMILES IDX 30 69 39 70 31 71 32 72 38 73 40 74 33 75 34 76 35 77 36 78
REMARK SMILES IDX 37 79 63 80 64 81 73 82 65 83 66 84 72 85 74 86 67 87 68 88
REMARK SMILES IDX 69 89 70 90 71 91 47 92 48 93 57 94 49 95 50 96 56 97 58 98
REMARK SMILES IDX 51 99 52 100 53 101 54 102 55 103
REMARK H PARENT 1 17 1 18 1 19 79 53 45 64
REMARK Flexibility Score: inf
ROOT
ATOM      1  C   UNL A   1      33.159  37.577  31.241  1.00  0.00     0.188 C 
ENDROOT
BRANCH   1   2
ATOM      2  O   UNL A   1      32.646  36.490  30.480  1.00  0.00    -0.377 OA
BRANCH   2   3
ATOM      3  C   UNL A   1      32.972  36.455  29.109  1.00  0.00     0.188 C 
BRANCH   3   4
ATOM      4  C   UNL A   1      34.208  35.610  28.767  1.00  0.00     0.188 C 
BRANCH   4   5
ATOM      5  O   UNL A   1      34.084  34.400  28.034  1.00  0.00    -0.376 OA
BRANCH   5   6
ATOM      6  C   UNL A   1      34.819  33.239  28.408  1.00  0.00     0.202 C 
BRANCH   6   7
ATOM      7  C   UNL A   1      36.331  33.122  28.139  1.00  0.00     0.261 C 
BRANCH   7   8
ATOM      8  O   UNL A   1      36.868  31.787  28.161  1.00  0.00    -0.459 OA
BRANCH   8   9
ATOM      9  C   UNL A   1      37.451  31.373  29.312  1.00  0.00     0.368 C 
ATOM     10  O   UNL A   1      37.788  32.124  30.225  1.00  0.00    -0.245 OA
BRANCH   9  11
ATOM     11  C   UNL A   1      37.536  29.816  29.453  1.00  0.00     0.193 C 
ATOM     12  C   UNL A   1      38.296  29.460  30.737  1.00  0.00     0.082 C 
ATOM     13  C   UNL A   1      38.280  29.061  28.329  1.00  0.00     0.095 C 
ATOM     14  C   UNL A   1      39.721  29.195  30.284  1.00  0.00     0.022 C 
ATOM     15  C   UNL A   1      39.590  28.545  28.914  1.00  0.00     0.059 C 
BRANCH  11  16
ATOM     16  N   UNL A   1      36.142  29.309  29.614  1.00  0.00    -0.343 N 
ATOM     17  H   UNL A   1      35.584  30.002  30.115  1.00  0.00     0.345 HD
ATOM     18  H   UNL A   1      36.157  28.438  30.145  1.00  0.00     0.345 HD
ATOM     19  H   UNL A   1      35.733  29.141  28.696  1.00  0.00     0.345 HD
ENDBRANCH  11  16
BRANCH  15  20
ATOM     20  S   UNL A   1      39.794  26.716  28.824  1.00  0.00    -0.122 SA
BRANCH  20  21
ATOM     21  C   UNL A   1      41.547  26.434  28.688  1.00  0.00     0.009 A 
ATOM     22  C   UNL A   1      42.390  27.546  28.604  1.00  0.00     0.017 A 
ATOM     23  C   UNL A   1      42.092  25.160  28.497  1.00  0.00     0.037 A 
ATOM     24  C   UNL A   1      43.758  27.388  28.367  1.00  0.00     0.023 A 
ATOM     25  C   UNL A   1      43.466  24.993  28.280  1.00  0.00     0.060 A 
ATOM     26  C   UNL A   1      44.301  26.111  28.210  1.00  0.00     0.059 A 
ATOM     27  Cl  UNL A   1      44.059  23.382  28.072  1.00  0.00    -0.083 Cl
ATOM     28  Cl  UNL A   1      45.997  25.987  27.900  1.00  0.00    -0.083 Cl
ENDBRANCH  20  21
ENDBRANCH  15  20
ENDBRANCH   9  11
ENDBRANCH   8   9
ENDBRANCH   7   8
ENDBRANCH   6   7
ENDBRANCH   5   6
ENDBRANCH   4   5
ENDBRANCH   3   4
ENDBRANCH   2   3
ENDBRANCH   1   2
BRANCH   1  29
ATOM     29  C   UNL A   1      34.023  37.248  32.473  1.00  0.00     0.188 C 
BRANCH  29  30
ATOM     30  O   UNL A   1      33.612  36.081  33.175  1.00  0.00    -0.376 OA
BRANCH  30  31
ATOM     31  C   UNL A   1      34.531  35.004  33.313  1.00  0.00     0.202 C 
BRANCH  31  32
ATOM     32  C   UNL A   1      35.125  34.715  34.703  1.00  0.00     0.261 C 
BRANCH  32  33
ATOM     33  O   UNL A   1      35.730  33.427  34.912  1.00  0.00    -0.460 OA
BRANCH  33  34
ATOM     34  C   UNL A   1      36.673  33.300  35.873  1.00  0.00     0.338 C 
ATOM     35  O   UNL A   1      36.516  33.408  37.068  1.00  0.00    -0.246 OA
BRANCH  34  36
ATOM     36  C   UNL A   1      37.904  32.792  35.219  1.00  0.00     0.060 A 
ATOM     37  C   UNL A   1      39.149  33.095  35.787  1.00  0.00     0.016 A 
ATOM     38  C   UNL A   1      37.829  32.014  34.062  1.00  0.00     0.016 A 
ATOM     39  C   UNL A   1      40.324  32.642  35.183  1.00  0.00     0.010 A 
ATOM     40  C   UNL A   1      39.008  31.582  33.445  1.00  0.00     0.010 A 
ATOM     41  C   UNL A   1      40.262  31.917  33.986  1.00  0.00    -0.014 A 
BRANCH  41  42
ATOM     42  C   UNL A   1      41.501  31.644  33.215  1.00  0.00     0.031 A 
ATOM     43  C   UNL A   1      41.957  32.662  32.202  1.00  0.00     0.074 A 
ATOM     44  C   UNL A   1      42.212  30.519  33.409  1.00  0.00     0.049 A 
ATOM     45  N   UNL A   1      42.959  32.608  31.364  1.00  0.00    -0.248 NA
ATOM     46  C   UNL A   1      41.173  33.905  32.125  1.00  0.00     0.031 C 
ATOM     47  C   UNL A   1      41.896  29.478  34.386  1.00  0.00     0.029 A 
ATOM     48  N   UNL A   1      43.341  30.057  32.778  1.00  0.00    -0.354 N 
ATOM     49  C   UNL A   1      42.921  33.802  30.654  1.00  0.00     0.074 A 
ATOM     50  C   UNL A   1      41.782  34.549  31.140  1.00  0.00     0.031 C 
ATOM     51  C   UNL A   1      42.800  28.488  34.276  1.00  0.00     0.029 A 
ATOM     52  C   UNL A   1      43.734  28.806  33.197  1.00  0.00     0.049 A 
ATOM     53  H   UNL A   1      43.824  30.571  32.093  1.00  0.00     0.167 HD
ATOM     54  C   UNL A   1      43.762  34.237  29.687  1.00  0.00     0.037 A 
ATOM     55  C   UNL A   1      44.714  28.000  32.739  1.00  0.00     0.037 A 
ATOM     56  C   UNL A   1      44.893  33.487  29.205  1.00  0.00     0.049 A 
ATOM     57  C   UNL A   1      45.592  28.475  31.608  1.00  0.00     0.074 A 
ATOM     58  C   UNL A   1      45.820  33.851  28.244  1.00  0.00     0.029 A 
ATOM     59  N   UNL A   1      45.243  32.214  29.635  1.00  0.00    -0.354 N 
ATOM     60  N   UNL A   1      45.566  29.619  30.965  1.00  0.00    -0.248 NA
ATOM     61  C   UNL A   1      46.635  27.550  31.140  1.00  0.00     0.031 C 
ATOM     62  C   UNL A   1      46.692  32.775  28.048  1.00  0.00     0.029 A 
ATOM     63  C   UNL A   1      46.351  31.767  28.934  1.00  0.00     0.049 A 
ATOM     64  H   UNL A   1      44.773  31.705  30.334  1.00  0.00     0.167 HD
ATOM     65  C   UNL A   1      46.603  29.560  30.038  1.00  0.00     0.074 A 
ATOM     66  C   UNL A   1      47.248  28.276  30.215  1.00  0.00     0.031 C 
ATOM     67  C   UNL A   1      46.988  30.485  29.123  1.00  0.00     0.037 A 
BRANCH  54  68
ATOM     68  C   UNL A   1      43.479  35.576  29.059  1.00  0.00     0.058 A 
ATOM     69  C   UNL A   1      43.815  36.781  29.696  1.00  0.00     0.135 A 
ATOM     70  C   UNL A   1      42.907  35.652  27.778  1.00  0.00     0.135 A 
ATOM     71  F   UNL A   1      44.347  36.770  30.930  1.00  0.00    -0.206 F 
ATOM     72  C   UNL A   1      43.577  38.013  29.095  1.00  0.00     0.059 A 
ATOM     73  C   UNL A   1      42.687  36.871  27.145  1.00  0.00     0.059 A 
ATOM     74  F   UNL A   1      42.561  34.531  27.126  1.00  0.00    -0.206 F 
ATOM     75  C   UNL A   1      43.016  38.048  27.817  1.00  0.00     0.060 A 
BRANCH  75  76
ATOM     76  S   UNL A   1      42.732  39.654  27.043  1.00  0.00     0.124 S 
ATOM     77  O   UNL A   1      41.487  39.413  26.322  1.00  0.00    -0.237 OA
ATOM     78  O   UNL A   1      42.633  40.540  28.198  1.00  0.00    -0.237 OA
ATOM     79  O   UNL A   1      43.913  39.844  26.208  1.00  0.00    -0.744 OA
ENDBRANCH  75  76
ENDBRANCH  54  68
BRANCH  55  80
ATOM     80  C   UNL A   1      44.905  26.646  33.329  1.00  0.00     0.058 A 
ATOM     81  C   UNL A   1      45.523  26.476  34.577  1.00  0.00     0.135 A 
ATOM     82  C   UNL A   1      44.484  25.491  32.649  1.00  0.00     0.135 A 
ATOM     83  F   UNL A   1      45.958  27.545  35.261  1.00  0.00    -0.206 F 
ATOM     84  C   UNL A   1      45.732  25.212  35.122  1.00  0.00     0.059 A 
ATOM     85  C   UNL A   1      44.654  24.220  33.187  1.00  0.00     0.059 A 
ATOM     86  F   UNL A   1      43.881  25.597  31.455  1.00  0.00    -0.206 F 
ATOM     87  C   UNL A   1      45.289  24.089  34.421  1.00  0.00     0.060 A 
BRANCH  87  88
ATOM     88  S   UNL A   1      45.519  22.459  35.162  1.00  0.00     0.124 S 
ATOM     89  O   UNL A   1      46.838  22.092  34.662  1.00  0.00    -0.237 OA
ATOM     90  O   UNL A   1      45.435  22.759  36.588  1.00  0.00    -0.237 OA
ATOM     91  O   UNL A   1      44.402  21.686  34.625  1.00  0.00    -0.744 OA
ENDBRANCH  87  88
ENDBRANCH  55  80
BRANCH  67  92
ATOM     92  C   UNL A   1      48.181  30.163  28.261  1.00  0.00     0.058 A 
ATOM     93  C   UNL A   1      49.475  30.591  28.597  1.00  0.00     0.135 A 
ATOM     94  C   UNL A   1      48.034  29.368  27.112  1.00  0.00     0.135 A 
ATOM     95  F   UNL A   1      49.674  31.358  29.681  1.00  0.00    -0.206 F 
ATOM     96  C   UNL A   1      50.576  30.266  27.810  1.00  0.00     0.059 A 
ATOM     97  C   UNL A   1      49.125  29.003  26.330  1.00  0.00     0.059 A 
ATOM     98  F   UNL A   1      46.820  28.920  26.750  1.00  0.00    -0.206 F 
ATOM     99  C   UNL A   1      50.391  29.468  26.680  1.00  0.00     0.060 A 
BRANCH  99 100
ATOM    100  S   UNL A   1      51.833  29.029  25.686  1.00  0.00     0.124 S 
ATOM    101  O   UNL A   1      51.869  27.579  25.841  1.00  0.00    -0.237 OA
ATOM    102  O   UNL A   1      51.457  29.516  24.361  1.00  0.00    -0.237 OA
ATOM    103  O   UNL A   1      52.924  29.756  26.327  1.00  0.00    -0.744 OA
ENDBRANCH  99 100
ENDBRANCH  67  92
ENDBRANCH  41  42
ENDBRANCH  34  36
ENDBRANCH  33  34
ENDBRANCH  32  33
ENDBRANCH  31  32
ENDBRANCH  30  31
ENDBRANCH  29  30
ENDBRANCH   1  29
TORSDOF 26
ENDMDL
