MODEL 1
REMARK VINA RESULT:      -9.4      0.000      0.000
REMARK SMILES CCC[C@H](NC(=O)c1cc2ccccc2[nH]1)C(=O)OCCOCCOCCOCCOC(=O)c1ccc(-c2c3nc(c(-c4c(F)cc(S(=O)(=O)[O-])cc4F)c4ccc([nH]4)c(-c4c(F)cc(S(=O)(=O)[O-])cc4F)c4nc(c(-c5c(F)cc(S(=O)(=O)[O-])cc5F)c5ccc2[nH]5)C=C4)C=C3)cc1
REMARK SMILES IDX 26 1 25 2 24 3 23 4 22 5 21 6 20 7 19 8 17 9 18 10 4 11 3 12
REMARK SMILES IDX 2 13 1 14 5 15 6 16 7 18 8 19 9 20 16 21 10 22 15 23 11 25
REMARK SMILES IDX 14 26 12 27 13 28 27 29 28 30 29 31 30 32 31 33 32 34 33 35
REMARK SMILES IDX 34 36 35 37 99 38 36 39 98 40 37 41 38 42 39 43 92 44 40 45
REMARK SMILES IDX 97 46 91 47 93 48 41 49 96 50 90 51 89 52 42 54 76 55 55 56
REMARK SMILES IDX 75 57 56 58 59 59 74 60 94 61 57 62 58 63 73 65 95 66 60 67
REMARK SMILES IDX 43 68 44 69 53 70 45 71 46 72 52 73 54 74 47 75 48 76 49 77
REMARK SMILES IDX 50 78 51 79 77 80 78 81 87 82 79 83 80 84 86 85 88 86 81 87
REMARK SMILES IDX 82 88 83 89 84 90 85 91 61 92 62 93 71 94 63 95 64 96 70 97
REMARK SMILES IDX 72 98 65 99 66 100 67 101 68 102 69 103
REMARK H PARENT 5 17 16 24 93 53 59 64
REMARK Flexibility Score: inf
ROOT
ATOM      1  C   UNL A   1      36.011  21.652  24.954  1.00  0.00     0.188 C 
ENDROOT
BRANCH   1   2
ATOM      2  O   UNL A   1      36.039  20.266  25.296  1.00  0.00    -0.377 OA
BRANCH   2   3
ATOM      3  C   UNL A   1      34.856  19.547  25.012  1.00  0.00     0.188 C 
BRANCH   3   4
ATOM      4  C   UNL A   1      33.754  20.331  24.271  1.00  0.00     0.188 C 
BRANCH   4   5
ATOM      5  O   UNL A   1      32.549  20.801  24.866  1.00  0.00    -0.376 OA
BRANCH   5   6
ATOM      6  C   UNL A   1      32.375  22.138  25.307  1.00  0.00     0.202 C 
BRANCH   6   7
ATOM      7  C   UNL A   1      32.908  23.221  24.374  1.00  0.00     0.261 C 
BRANCH   7   8
ATOM      8  O   UNL A   1      32.078  23.441  23.228  1.00  0.00    -0.462 OA
BRANCH   8   9
ATOM      9  C   UNL A   1      32.245  24.636  22.604  1.00  0.00     0.328 C 
ATOM     10  O   UNL A   1      32.699  24.784  21.475  1.00  0.00    -0.250 OA
BRANCH   9  11
ATOM     11  C   UNL A   1      31.924  25.812  23.541  1.00  0.00     0.192 C 
BRANCH  11  12
ATOM     12  C   UNL A   1      30.631  25.409  24.264  1.00  0.00     0.037 C 
BRANCH  12  13
ATOM     13  C   UNL A   1      29.694  26.581  24.618  1.00  0.00    -0.001 C 
ATOM     14  C   UNL A   1      28.366  26.619  23.870  1.00  0.00     0.004 C 
ENDBRANCH  12  13
ENDBRANCH  11  12
BRANCH  11  15
ATOM     15  N   UNL A   1      31.888  27.103  22.826  1.00  0.00    -0.337 N 
ATOM     16  C   UNL A   1      32.620  28.241  23.074  1.00  0.00     0.268 C 
ATOM     17  H   UNL A   1      31.258  27.156  22.073  1.00  0.00     0.164 HD
ATOM     18  O   UNL A   1      32.942  28.973  22.143  1.00  0.00    -0.268 OA
BRANCH  16  19
ATOM     19  C   UNL A   1      32.848  28.575  24.452  1.00  0.00     0.105 A 
ATOM     20  C   UNL A   1      33.856  28.074  25.256  1.00  0.00     0.042 A 
ATOM     21  N   UNL A   1      32.182  29.518  25.200  1.00  0.00    -0.351 N 
ATOM     22  C   UNL A   1      34.035  28.992  26.322  1.00  0.00     0.000 A 
ATOM     23  C   UNL A   1      32.983  29.908  26.257  1.00  0.00     0.046 A 
ATOM     24  H   UNL A   1      31.278  29.862  25.012  1.00  0.00     0.167 HD
ATOM     25  C   UNL A   1      35.055  29.186  27.270  1.00  0.00     0.010 A 
ATOM     26  C   UNL A   1      32.907  31.025  27.097  1.00  0.00     0.026 A 
ATOM     27  C   UNL A   1      35.022  30.326  28.079  1.00  0.00     0.001 A 
ATOM     28  C   UNL A   1      33.966  31.231  27.990  1.00  0.00     0.002 A 
ENDBRANCH  16  19
ENDBRANCH  11  15
ENDBRANCH   9  11
ENDBRANCH   8   9
ENDBRANCH   7   8
ENDBRANCH   6   7
ENDBRANCH   5   6
ENDBRANCH   4   5
ENDBRANCH   3   4
ENDBRANCH   2   3
ENDBRANCH   1   2
BRANCH   1  29
ATOM     29  C   UNL A   1      36.988  22.535  25.741  1.00  0.00     0.188 C 
BRANCH  29  30
ATOM     30  O   UNL A   1      38.336  22.319  25.306  1.00  0.00    -0.376 OA
BRANCH  30  31
ATOM     31  C   UNL A   1      39.140  21.562  26.216  1.00  0.00     0.202 C 
BRANCH  31  32
ATOM     32  C   UNL A   1      40.570  22.099  26.373  1.00  0.00     0.261 C 
BRANCH  32  33
ATOM     33  O   UNL A   1      40.694  23.202  27.288  1.00  0.00    -0.460 OA
BRANCH  33  34
ATOM     34  C   UNL A   1      41.502  24.216  26.907  1.00  0.00     0.338 C 
ATOM     35  O   UNL A   1      42.296  24.206  25.982  1.00  0.00    -0.246 OA
BRANCH  34  36
ATOM     36  C   UNL A   1      41.135  25.423  27.675  1.00  0.00     0.060 A 
ATOM     37  C   UNL A   1      42.055  26.477  27.733  1.00  0.00     0.016 A 
ATOM     38  C   UNL A   1      39.921  25.503  28.363  1.00  0.00     0.016 A 
ATOM     39  C   UNL A   1      41.787  27.591  28.528  1.00  0.00     0.010 A 
ATOM     40  C   UNL A   1      39.662  26.611  29.175  1.00  0.00     0.010 A 
ATOM     41  C   UNL A   1      40.613  27.638  29.292  1.00  0.00    -0.014 A 
BRANCH  41  42
ATOM     42  C   UNL A   1      40.485  28.638  30.376  1.00  0.00     0.031 A 
ATOM     43  C   UNL A   1      41.378  28.498  31.580  1.00  0.00     0.074 A 
ATOM     44  C   UNL A   1      39.599  29.647  30.303  1.00  0.00     0.049 A 
ATOM     45  N   UNL A   1      41.446  29.239  32.655  1.00  0.00    -0.248 NA
ATOM     46  C   UNL A   1      42.324  27.368  31.566  1.00  0.00     0.031 C 
ATOM     47  C   UNL A   1      38.689  29.898  29.186  1.00  0.00     0.029 A 
ATOM     48  N   UNL A   1      39.317  30.646  31.201  1.00  0.00    -0.354 N 
ATOM     49  C   UNL A   1      42.442  28.673  33.439  1.00  0.00     0.074 A 
ATOM     50  C   UNL A   1      42.938  27.515  32.729  1.00  0.00     0.031 C 
ATOM     51  C   UNL A   1      37.933  30.973  29.475  1.00  0.00     0.029 A 
ATOM     52  C   UNL A   1      38.298  31.476  30.799  1.00  0.00     0.049 A 
ATOM     53  H   UNL A   1      39.799  30.756  32.052  1.00  0.00     0.167 HD
ATOM     54  C   UNL A   1      42.909  29.081  34.641  1.00  0.00     0.037 A 
ATOM     55  C   UNL A   1      37.721  32.512  31.438  1.00  0.00     0.037 A 
ATOM     56  C   UNL A   1      42.405  30.217  35.362  1.00  0.00     0.049 A 
ATOM     57  C   UNL A   1      38.218  32.917  32.802  1.00  0.00     0.074 A 
ATOM     58  C   UNL A   1      42.818  30.717  36.584  1.00  0.00     0.029 A 
ATOM     59  N   UNL A   1      41.364  31.023  34.928  1.00  0.00    -0.354 N 
ATOM     60  N   UNL A   1      39.188  32.396  33.513  1.00  0.00    -0.248 NA
ATOM     61  C   UNL A   1      37.540  34.050  33.448  1.00  0.00     0.031 C 
ATOM     62  C   UNL A   1      42.005  31.812  36.904  1.00  0.00     0.029 A 
ATOM     63  C   UNL A   1      41.107  32.007  35.866  1.00  0.00     0.049 A 
ATOM     64  H   UNL A   1      40.880  30.913  34.079  1.00  0.00     0.167 HD
ATOM     65  C   UNL A   1      39.250  33.149  34.683  1.00  0.00     0.074 A 
ATOM     66  C   UNL A   1      38.222  34.164  34.580  1.00  0.00     0.031 C 
ATOM     67  C   UNL A   1      40.083  33.013  35.743  1.00  0.00     0.037 A 
BRANCH  54  68
ATOM     68  C   UNL A   1      44.014  28.273  35.251  1.00  0.00     0.058 A 
ATOM     69  C   UNL A   1      43.742  27.121  36.005  1.00  0.00     0.135 A 
ATOM     70  C   UNL A   1      45.353  28.658  35.092  1.00  0.00     0.135 A 
ATOM     71  F   UNL A   1      42.475  26.727  36.204  1.00  0.00    -0.206 F 
ATOM     72  C   UNL A   1      44.763  26.388  36.601  1.00  0.00     0.059 A 
ATOM     73  C   UNL A   1      46.392  27.932  35.668  1.00  0.00     0.059 A 
ATOM     74  F   UNL A   1      45.662  29.760  34.390  1.00  0.00    -0.206 F 
ATOM     75  C   UNL A   1      46.084  26.807  36.434  1.00  0.00     0.060 A 
BRANCH  75  76
ATOM     76  S   UNL A   1      47.401  25.861  37.226  1.00  0.00     0.124 S 
ATOM     77  O   UNL A   1      46.634  24.905  38.018  1.00  0.00    -0.237 OA
ATOM     78  O   UNL A   1      48.124  25.305  36.086  1.00  0.00    -0.237 OA
ATOM     79  O   UNL A   1      48.128  26.871  37.990  1.00  0.00    -0.744 OA
ENDBRANCH  75  76
ENDBRANCH  54  68
BRANCH  55  80
ATOM     80  C   UNL A   1      36.597  33.242  30.801  1.00  0.00     0.058 A 
ATOM     81  C   UNL A   1      36.830  34.222  29.825  1.00  0.00     0.135 A 
ATOM     82  C   UNL A   1      35.266  32.979  31.162  1.00  0.00     0.135 A 
ATOM     83  F   UNL A   1      38.087  34.515  29.458  1.00  0.00    -0.206 F 
ATOM     84  C   UNL A   1      35.784  34.923  29.233  1.00  0.00     0.059 A 
ATOM     85  C   UNL A   1      34.203  33.654  30.572  1.00  0.00     0.059 A 
ATOM     86  F   UNL A   1      34.993  32.045  32.087  1.00  0.00    -0.206 F 
ATOM     87  C   UNL A   1      34.473  34.632  29.614  1.00  0.00     0.060 A 
BRANCH  87  88
ATOM     88  S   UNL A   1      33.114  35.507  28.807  1.00  0.00     0.124 S 
ATOM     89  O   UNL A   1      33.834  36.424  27.933  1.00  0.00    -0.237 OA
ATOM     90  O   UNL A   1      32.396  34.423  28.143  1.00  0.00    -0.237 OA
ATOM     91  O   UNL A   1      32.406  36.121  29.927  1.00  0.00    -0.744 OA
ENDBRANCH  87  88
ENDBRANCH  55  80
BRANCH  67  92
ATOM     92  C   UNL A   1      39.935  33.993  36.869  1.00  0.00     0.058 A 
ATOM     93  C   UNL A   1      40.575  35.241  36.840  1.00  0.00     0.135 A 
ATOM     94  C   UNL A   1      39.092  33.708  37.954  1.00  0.00     0.135 A 
ATOM     95  F   UNL A   1      41.393  35.557  35.824  1.00  0.00    -0.206 F 
ATOM     96  C   UNL A   1      40.392  36.173  37.856  1.00  0.00     0.059 A 
ATOM     97  C   UNL A   1      38.884  34.631  38.974  1.00  0.00     0.059 A 
ATOM     98  F   UNL A   1      38.452  32.531  38.021  1.00  0.00    -0.206 F 
ATOM     99  C   UNL A   1      39.544  35.858  38.920  1.00  0.00     0.060 A 
BRANCH  99 100
ATOM    100  S   UNL A   1      39.272  37.088  40.215  1.00  0.00     0.124 S 
ATOM    101  O   UNL A   1      38.469  36.334  41.170  1.00  0.00    -0.237 OA
ATOM    102  O   UNL A   1      40.631  37.406  40.642  1.00  0.00    -0.237 OA
ATOM    103  O   UNL A   1      38.575  38.163  39.515  1.00  0.00    -0.744 OA
ENDBRANCH  99 100
ENDBRANCH  67  92
ENDBRANCH  41  42
ENDBRANCH  34  36
ENDBRANCH  33  34
ENDBRANCH  32  33
ENDBRANCH  31  32
ENDBRANCH  30  31
ENDBRANCH  29  30
ENDBRANCH   1  29
TORSDOF 27
ENDMDL
MODEL 2
REMARK VINA RESULT:      -9.3      6.245     10.660
REMARK SMILES CCC[C@H](NC(=O)c1cc2ccccc2[nH]1)C(=O)OCCOCCOCCOCCOC(=O)c1ccc(-c2c3nc(c(-c4c(F)cc(S(=O)(=O)[O-])cc4F)c4ccc([nH]4)c(-c4c(F)cc(S(=O)(=O)[O-])cc4F)c4nc(c(-c5c(F)cc(S(=O)(=O)[O-])cc5F)c5ccc2[nH]5)C=C4)C=C3)cc1
REMARK SMILES IDX 26 1 25 2 24 3 23 4 22 5 21 6 20 7 19 8 17 9 18 10 4 11 3 12
REMARK SMILES IDX 2 13 1 14 5 15 6 16 7 18 8 19 9 20 16 21 10 22 15 23 11 25
REMARK SMILES IDX 14 26 12 27 13 28 27 29 28 30 29 31 30 32 31 33 32 34 33 35
REMARK SMILES IDX 34 36 35 37 99 38 36 39 98 40 37 41 38 42 39 43 92 44 40 45
REMARK SMILES IDX 97 46 91 47 93 48 41 49 96 50 90 51 89 52 42 54 76 55 55 56
REMARK SMILES IDX 75 57 56 58 59 59 74 60 94 61 57 62 58 63 73 65 95 66 60 67
REMARK SMILES IDX 43 68 44 69 53 70 45 71 46 72 52 73 54 74 47 75 48 76 49 77
REMARK SMILES IDX 50 78 51 79 77 80 78 81 87 82 79 83 80 84 86 85 88 86 81 87
REMARK SMILES IDX 82 88 83 89 84 90 85 91 61 92 62 93 71 94 63 95 64 96 70 97
REMARK SMILES IDX 72 98 65 99 66 100 67 101 68 102 69 103
REMARK H PARENT 5 17 16 24 93 53 59 64
REMARK Flexibility Score: inf
ROOT
ATOM      1  C   UNL A   1      35.748  21.109  24.934  1.00  0.00     0.188 C 
ENDROOT
BRANCH   1   2
ATOM      2  O   UNL A   1      34.879  20.389  25.810  1.00  0.00    -0.377 OA
BRANCH   2   3
ATOM      3  C   UNL A   1      33.514  20.749  25.740  1.00  0.00     0.188 C 
BRANCH   3   4
ATOM      4  C   UNL A   1      32.969  21.048  24.328  1.00  0.00     0.188 C 
BRANCH   4   5
ATOM      5  O   UNL A   1      31.909  21.955  24.041  1.00  0.00    -0.376 OA
BRANCH   5   6
ATOM      6  C   UNL A   1      31.820  22.679  22.825  1.00  0.00     0.202 C 
BRANCH   6   7
ATOM      7  C   UNL A   1      33.029  23.541  22.473  1.00  0.00     0.261 C 
BRANCH   7   8
ATOM      8  O   UNL A   1      33.300  24.560  23.441  1.00  0.00    -0.462 OA
BRANCH   8   9
ATOM      9  C   UNL A   1      33.297  25.834  22.967  1.00  0.00     0.328 C 
ATOM     10  O   UNL A   1      33.790  26.192  21.904  1.00  0.00    -0.250 OA
BRANCH   9  11
ATOM     11  C   UNL A   1      32.718  26.817  23.998  1.00  0.00     0.192 C 
BRANCH  11  12
ATOM     12  C   UNL A   1      33.752  26.865  25.133  1.00  0.00     0.037 C 
BRANCH  12  13
ATOM     13  C   UNL A   1      34.023  28.271  25.703  1.00  0.00    -0.001 C 
ATOM     14  C   UNL A   1      33.154  29.392  25.147  1.00  0.00     0.004 C 
ENDBRANCH  12  13
ENDBRANCH  11  12
BRANCH  11  15
ATOM     15  N   UNL A   1      31.341  26.465  24.394  1.00  0.00    -0.337 N 
ATOM     16  C   UNL A   1      30.155  26.871  23.827  1.00  0.00     0.268 C 
ATOM     17  H   UNL A   1      31.260  25.859  25.165  1.00  0.00     0.164 HD
ATOM     18  O   UNL A   1      29.188  26.115  23.829  1.00  0.00    -0.268 OA
BRANCH  16  19
ATOM     19  C   UNL A   1      30.086  28.234  23.381  1.00  0.00     0.105 A 
ATOM     20  C   UNL A   1      29.898  28.656  22.076  1.00  0.00     0.042 A 
ATOM     21  N   UNL A   1      30.092  29.366  24.162  1.00  0.00    -0.351 N 
ATOM     22  C   UNL A   1      29.399  29.983  22.134  1.00  0.00     0.000 A 
ATOM     23  C   UNL A   1      29.509  30.405  23.460  1.00  0.00     0.046 A 
ATOM     24  H   UNL A   1      30.454  29.427  25.075  1.00  0.00     0.167 HD
ATOM     25  C   UNL A   1      28.768  30.820  21.198  1.00  0.00     0.010 A 
ATOM     26  C   UNL A   1      29.005  31.634  23.901  1.00  0.00     0.026 A 
ATOM     27  C   UNL A   1      28.210  32.026  21.633  1.00  0.00     0.001 A 
ATOM     28  C   UNL A   1      28.325  32.423  22.964  1.00  0.00     0.002 A 
ENDBRANCH  16  19
ENDBRANCH  11  15
ENDBRANCH   9  11
ENDBRANCH   8   9
ENDBRANCH   7   8
ENDBRANCH   6   7
ENDBRANCH   5   6
ENDBRANCH   4   5
ENDBRANCH   3   4
ENDBRANCH   2   3
ENDBRANCH   1   2
BRANCH   1  29
ATOM     29  C   UNL A   1      36.197  22.483  25.450  1.00  0.00     0.188 C 
BRANCH  29  30
ATOM     30  O   UNL A   1      37.620  22.623  25.356  1.00  0.00    -0.376 OA
BRANCH  30  31
ATOM     31  C   UNL A   1      38.353  21.420  25.606  1.00  0.00     0.202 C 
BRANCH  31  32
ATOM     32  C   UNL A   1      39.610  21.628  26.463  1.00  0.00     0.261 C 
BRANCH  32  33
ATOM     33  O   UNL A   1      40.223  20.411  26.926  1.00  0.00    -0.460 OA
BRANCH  33  34
ATOM     34  C   UNL A   1      41.420  20.093  26.385  1.00  0.00     0.338 C 
ATOM     35  O   UNL A   1      41.672  19.116  25.702  1.00  0.00    -0.246 OA
BRANCH  34  36
ATOM     36  C   UNL A   1      42.346  21.224  26.594  1.00  0.00     0.060 A 
ATOM     37  C   UNL A   1      42.598  21.641  27.907  1.00  0.00     0.016 A 
ATOM     38  C   UNL A   1      42.929  21.892  25.513  1.00  0.00     0.016 A 
ATOM     39  C   UNL A   1      43.388  22.767  28.140  1.00  0.00     0.010 A 
ATOM     40  C   UNL A   1      43.705  23.031  25.746  1.00  0.00     0.010 A 
ATOM     41  C   UNL A   1      43.902  23.495  27.058  1.00  0.00    -0.014 A 
BRANCH  41  42
ATOM     42  C   UNL A   1      44.445  24.854  27.283  1.00  0.00     0.031 A 
ATOM     43  C   UNL A   1      43.485  25.946  27.673  1.00  0.00     0.074 A 
ATOM     44  C   UNL A   1      45.755  25.121  27.144  1.00  0.00     0.049 A 
ATOM     45  N   UNL A   1      43.718  27.210  27.914  1.00  0.00    -0.248 NA
ATOM     46  C   UNL A   1      42.071  25.556  27.811  1.00  0.00     0.031 C 
ATOM     47  C   UNL A   1      46.786  24.148  26.784  1.00  0.00     0.029 A 
ATOM     48  N   UNL A   1      46.439  26.303  27.283  1.00  0.00    -0.354 N 
ATOM     49  C   UNL A   1      42.485  27.763  28.238  1.00  0.00     0.074 A 
ATOM     50  C   UNL A   1      41.504  26.705  28.144  1.00  0.00     0.031 C 
ATOM     51  C   UNL A   1      47.972  24.780  26.711  1.00  0.00     0.029 A 
ATOM     52  C   UNL A   1      47.781  26.199  27.008  1.00  0.00     0.049 A 
ATOM     53  H   UNL A   1      46.008  27.145  27.555  1.00  0.00     0.167 HD
ATOM     54  C   UNL A   1      42.195  29.037  28.590  1.00  0.00     0.037 A 
ATOM     55  C   UNL A   1      48.737  27.148  26.984  1.00  0.00     0.037 A 
ATOM     56  C   UNL A   1      43.162  30.096  28.664  1.00  0.00     0.049 A 
ATOM     57  C   UNL A   1      48.382  28.572  27.323  1.00  0.00     0.074 A 
ATOM     58  C   UNL A   1      42.967  31.420  29.017  1.00  0.00     0.029 A 
ATOM     59  N   UNL A   1      44.508  29.954  28.363  1.00  0.00    -0.354 N 
ATOM     60  N   UNL A   1      47.220  29.072  27.668  1.00  0.00    -0.248 NA
ATOM     61  C   UNL A   1      49.470  29.560  27.271  1.00  0.00     0.031 C 
ATOM     62  C   UNL A   1      44.194  32.086  28.904  1.00  0.00     0.029 A 
ATOM     63  C   UNL A   1      45.154  31.169  28.505  1.00  0.00     0.049 A 
ATOM     64  H   UNL A   1      44.939  29.114  28.089  1.00  0.00     0.167 HD
ATOM     65  C   UNL A   1      47.440  30.428  27.890  1.00  0.00     0.074 A 
ATOM     66  C   UNL A   1      48.847  30.669  27.647  1.00  0.00     0.031 C 
ATOM     67  C   UNL A   1      46.557  31.386  28.264  1.00  0.00     0.037 A 
BRANCH  54  68
ATOM     68  C   UNL A   1      40.763  29.345  28.904  1.00  0.00     0.058 A 
ATOM     69  C   UNL A   1      40.328  29.513  30.228  1.00  0.00     0.135 A 
ATOM     70  C   UNL A   1      39.814  29.462  27.877  1.00  0.00     0.135 A 
ATOM     71  F   UNL A   1      41.195  29.387  31.245  1.00  0.00    -0.206 F 
ATOM     72  C   UNL A   1      38.993  29.766  30.526  1.00  0.00     0.059 A 
ATOM     73  C   UNL A   1      38.476  29.728  28.151  1.00  0.00     0.059 A 
ATOM     74  F   UNL A   1      40.180  29.297  26.597  1.00  0.00    -0.206 F 
ATOM     75  C   UNL A   1      38.073  29.862  29.480  1.00  0.00     0.060 A 
BRANCH  75  76
ATOM     76  S   UNL A   1      36.339  30.170  29.875  1.00  0.00     0.124 S 
ATOM     77  O   UNL A   1      36.320  31.626  29.976  1.00  0.00    -0.237 OA
ATOM     78  O   UNL A   1      35.645  29.606  28.722  1.00  0.00    -0.237 OA
ATOM     79  O   UNL A   1      36.147  29.451  31.131  1.00  0.00    -0.744 OA
ENDBRANCH  75  76
ENDBRANCH  54  68
BRANCH  55  80
ATOM     80  C   UNL A   1      50.130  26.787  26.616  1.00  0.00     0.058 A 
ATOM     81  C   UNL A   1      51.027  26.297  27.575  1.00  0.00     0.135 A 
ATOM     82  C   UNL A   1      50.590  26.933  25.299  1.00  0.00     0.135 A 
ATOM     83  F   UNL A   1      50.633  26.153  28.850  1.00  0.00    -0.206 F 
ATOM     84  C   UNL A   1      52.339  25.971  27.244  1.00  0.00     0.059 A 
ATOM     85  C   UNL A   1      51.892  26.598  24.940  1.00  0.00     0.059 A 
ATOM     86  F   UNL A   1      49.765  27.392  24.345  1.00  0.00    -0.206 F 
ATOM     87  C   UNL A   1      52.762  26.126  25.922  1.00  0.00     0.060 A 
BRANCH  87  88
ATOM     88  S   UNL A   1      54.450  25.654  25.485  1.00  0.00     0.124 S 
ATOM     89  O   UNL A   1      54.391  25.670  24.028  1.00  0.00    -0.237 OA
ATOM     90  O   UNL A   1      55.241  26.714  26.104  1.00  0.00    -0.237 OA
ATOM     91  O   UNL A   1      54.595  24.338  26.100  1.00  0.00    -0.744 OA
ENDBRANCH  87  88
ENDBRANCH  55  80
BRANCH  67  92
ATOM     92  C   UNL A   1      47.086  32.778  28.454  1.00  0.00     0.058 A 
ATOM     93  C   UNL A   1      47.553  33.219  29.701  1.00  0.00     0.135 A 
ATOM     94  C   UNL A   1      47.188  33.654  27.363  1.00  0.00     0.135 A 
ATOM     95  F   UNL A   1      47.471  32.417  30.774  1.00  0.00    -0.206 F 
ATOM     96  C   UNL A   1      48.095  34.489  29.864  1.00  0.00     0.059 A 
ATOM     97  C   UNL A   1      47.741  34.924  27.500  1.00  0.00     0.059 A 
ATOM     98  F   UNL A   1      46.763  33.274  26.148  1.00  0.00    -0.206 F 
ATOM     99  C   UNL A   1      48.185  35.335  28.756  1.00  0.00     0.060 A 
BRANCH  99 100
ATOM    100  S   UNL A   1      48.933  36.966  28.960  1.00  0.00     0.124 S 
ATOM    101  O   UNL A   1      49.915  36.974  27.882  1.00  0.00    -0.237 OA
ATOM    102  O   UNL A   1      47.794  37.863  28.786  1.00  0.00    -0.237 OA
ATOM    103  O   UNL A   1      49.481  36.918  30.312  1.00  0.00    -0.744 OA
ENDBRANCH  99 100
ENDBRANCH  67  92
ENDBRANCH  41  42
ENDBRANCH  34  36
ENDBRANCH  33  34
ENDBRANCH  32  33
ENDBRANCH  31  32
ENDBRANCH  30  31
ENDBRANCH  29  30
ENDBRANCH   1  29
TORSDOF 27
ENDMDL
MODEL 3
REMARK VINA RESULT:      -8.8      6.166      8.243
REMARK SMILES CCC[C@H](NC(=O)c1cc2ccccc2[nH]1)C(=O)OCCOCCOCCOCCOC(=O)c1ccc(-c2c3nc(c(-c4c(F)cc(S(=O)(=O)[O-])cc4F)c4ccc([nH]4)c(-c4c(F)cc(S(=O)(=O)[O-])cc4F)c4nc(c(-c5c(F)cc(S(=O)(=O)[O-])cc5F)c5ccc2[nH]5)C=C4)C=C3)cc1
REMARK SMILES IDX 26 1 25 2 24 3 23 4 22 5 21 6 20 7 19 8 17 9 18 10 4 11 3 12
REMARK SMILES IDX 2 13 1 14 5 15 6 16 7 18 8 19 9 20 16 21 10 22 15 23 11 25
REMARK SMILES IDX 14 26 12 27 13 28 27 29 28 30 29 31 30 32 31 33 32 34 33 35
REMARK SMILES IDX 34 36 35 37 99 38 36 39 98 40 37 41 38 42 39 43 92 44 40 45
REMARK SMILES IDX 97 46 91 47 93 48 41 49 96 50 90 51 89 52 42 54 76 55 55 56
REMARK SMILES IDX 75 57 56 58 59 59 74 60 94 61 57 62 58 63 73 65 95 66 60 67
REMARK SMILES IDX 43 68 44 69 53 70 45 71 46 72 52 73 54 74 47 75 48 76 49 77
REMARK SMILES IDX 50 78 51 79 77 80 78 81 87 82 79 83 80 84 86 85 88 86 81 87
REMARK SMILES IDX 82 88 83 89 84 90 85 91 61 92 62 93 71 94 63 95 64 96 70 97
REMARK SMILES IDX 72 98 65 99 66 100 67 101 68 102 69 103
REMARK H PARENT 5 17 16 24 93 53 59 64
REMARK Flexibility Score: inf
ROOT
ATOM      1  C   UNL A   1      36.414  21.539  24.543  1.00  0.00     0.188 C 
ENDROOT
BRANCH   1   2
ATOM      2  O   UNL A   1      35.664  20.494  25.163  1.00  0.00    -0.377 OA
BRANCH   2   3
ATOM      3  C   UNL A   1      34.259  20.630  25.092  1.00  0.00     0.188 C 
BRANCH   3   4
ATOM      4  C   UNL A   1      33.722  21.438  23.892  1.00  0.00     0.188 C 
BRANCH   4   5
ATOM      5  O   UNL A   1      32.391  21.364  23.392  1.00  0.00    -0.376 OA
BRANCH   5   6
ATOM      6  C   UNL A   1      31.552  22.498  23.256  1.00  0.00     0.202 C 
BRANCH   6   7
ATOM      7  C   UNL A   1      31.765  23.610  24.279  1.00  0.00     0.261 C 
BRANCH   7   8
ATOM      8  O   UNL A   1      30.543  24.168  24.774  1.00  0.00    -0.462 OA
BRANCH   8   9
ATOM      9  C   UNL A   1      30.680  25.193  25.655  1.00  0.00     0.328 C 
ATOM     10  O   UNL A   1      30.687  25.078  26.875  1.00  0.00    -0.250 OA
BRANCH   9  11
ATOM     11  C   UNL A   1      30.688  26.554  24.940  1.00  0.00     0.192 C 
BRANCH  11  12
ATOM     12  C   UNL A   1      29.862  26.342  23.662  1.00  0.00     0.037 C 
BRANCH  12  13
ATOM     13  C   UNL A   1      28.552  27.152  23.596  1.00  0.00    -0.001 C 
ATOM     14  C   UNL A   1      27.333  26.498  24.236  1.00  0.00     0.004 C 
ENDBRANCH  12  13
ENDBRANCH  11  12
BRANCH  11  15
ATOM     15  N   UNL A   1      32.054  27.076  24.745  1.00  0.00    -0.337 N 
ATOM     16  C   UNL A   1      32.471  28.385  24.677  1.00  0.00     0.268 C 
ATOM     17  H   UNL A   1      32.761  26.397  24.651  1.00  0.00     0.164 HD
ATOM     18  O   UNL A   1      33.583  28.693  25.096  1.00  0.00    -0.268 OA
BRANCH  16  19
ATOM     19  C   UNL A   1      31.611  29.301  23.983  1.00  0.00     0.105 A 
ATOM     20  C   UNL A   1      31.376  29.325  22.620  1.00  0.00     0.042 A 
ATOM     21  N   UNL A   1      30.789  30.253  24.539  1.00  0.00    -0.351 N 
ATOM     22  C   UNL A   1      30.145  30.000  22.420  1.00  0.00     0.000 A 
ATOM     23  C   UNL A   1      29.780  30.560  23.645  1.00  0.00     0.046 A 
ATOM     24  H   UNL A   1      30.901  30.654  25.431  1.00  0.00     0.167 HD
ATOM     25  C   UNL A   1      29.260  30.094  21.332  1.00  0.00     0.010 A 
ATOM     26  C   UNL A   1      28.554  31.209  23.839  1.00  0.00     0.026 A 
ATOM     27  C   UNL A   1      28.009  30.689  21.523  1.00  0.00     0.001 A 
ATOM     28  C   UNL A   1      27.663  31.235  22.759  1.00  0.00     0.002 A 
ENDBRANCH  16  19
ENDBRANCH  11  15
ENDBRANCH   9  11
ENDBRANCH   8   9
ENDBRANCH   7   8
ENDBRANCH   6   7
ENDBRANCH   5   6
ENDBRANCH   4   5
ENDBRANCH   3   4
ENDBRANCH   2   3
ENDBRANCH   1   2
BRANCH   1  29
ATOM     29  C   UNL A   1      37.040  22.552  25.511  1.00  0.00     0.188 C 
BRANCH  29  30
ATOM     30  O   UNL A   1      38.469  22.454  25.499  1.00  0.00    -0.376 OA
BRANCH  30  31
ATOM     31  C   UNL A   1      38.976  21.142  25.760  1.00  0.00     0.202 C 
BRANCH  31  32
ATOM     32  C   UNL A   1      40.026  21.096  26.881  1.00  0.00     0.261 C 
BRANCH  32  33
ATOM     33  O   UNL A   1      40.776  19.870  26.942  1.00  0.00    -0.460 OA
BRANCH  33  34
ATOM     34  C   UNL A   1      41.893  19.806  26.184  1.00  0.00     0.338 C 
ATOM     35  O   UNL A   1      42.174  18.940  25.374  1.00  0.00    -0.246 OA
BRANCH  34  36
ATOM     36  C   UNL A   1      42.648  21.064  26.351  1.00  0.00     0.060 A 
ATOM     37  C   UNL A   1      42.941  21.494  27.651  1.00  0.00     0.016 A 
ATOM     38  C   UNL A   1      43.029  21.833  25.247  1.00  0.00     0.016 A 
ATOM     39  C   UNL A   1      43.565  22.725  27.853  1.00  0.00     0.010 A 
ATOM     40  C   UNL A   1      43.637  23.075  25.451  1.00  0.00     0.010 A 
ATOM     41  C   UNL A   1      43.868  23.543  26.756  1.00  0.00    -0.014 A 
BRANCH  41  42
ATOM     42  C   UNL A   1      44.212  24.966  26.977  1.00  0.00     0.031 A 
ATOM     43  C   UNL A   1      45.640  25.392  26.763  1.00  0.00     0.074 A 
ATOM     44  C   UNL A   1      43.286  25.863  27.359  1.00  0.00     0.049 A 
ATOM     45  N   UNL A   1      46.184  26.572  26.901  1.00  0.00    -0.248 NA
ATOM     46  C   UNL A   1      46.580  24.341  26.335  1.00  0.00     0.031 C 
ATOM     47  C   UNL A   1      41.871  25.578  27.585  1.00  0.00     0.029 A 
ATOM     48  N   UNL A   1      43.410  27.202  27.634  1.00  0.00    -0.354 N 
ATOM     49  C   UNL A   1      47.523  26.409  26.570  1.00  0.00     0.074 A 
ATOM     50  C   UNL A   1      47.716  25.014  26.246  1.00  0.00     0.031 C 
ATOM     51  C   UNL A   1      41.258  26.708  27.985  1.00  0.00     0.029 A 
ATOM     52  C   UNL A   1      42.241  27.789  28.053  1.00  0.00     0.049 A 
ATOM     53  H   UNL A   1      44.258  27.695  27.540  1.00  0.00     0.167 HD
ATOM     54  C   UNL A   1      48.506  27.338  26.534  1.00  0.00     0.037 A 
ATOM     55  C   UNL A   1      42.002  29.051  28.458  1.00  0.00     0.037 A 
ATOM     56  C   UNL A   1      48.326  28.721  26.877  1.00  0.00     0.049 A 
ATOM     57  C   UNL A   1      43.123  30.058  28.464  1.00  0.00     0.074 A 
ATOM     58  C   UNL A   1      49.258  29.743  26.865  1.00  0.00     0.029 A 
ATOM     59  N   UNL A   1      47.130  29.273  27.310  1.00  0.00    -0.354 N 
ATOM     60  N   UNL A   1      44.375  29.899  28.110  1.00  0.00    -0.248 NA
ATOM     61  C   UNL A   1      42.796  31.415  28.926  1.00  0.00     0.031 C 
ATOM     62  C   UNL A   1      48.631  30.910  27.318  1.00  0.00     0.029 A 
ATOM     63  C   UNL A   1      47.303  30.618  27.586  1.00  0.00     0.049 A 
ATOM     64  H   UNL A   1      46.283  28.782  27.407  1.00  0.00     0.167 HD
ATOM     65  C   UNL A   1      44.982  31.138  28.288  1.00  0.00     0.074 A 
ATOM     66  C   UNL A   1      43.958  32.038  28.776  1.00  0.00     0.031 C 
ATOM     67  C   UNL A   1      46.269  31.499  28.065  1.00  0.00     0.037 A 
BRANCH  54  68
ATOM     68  C   UNL A   1      49.868  26.870  26.120  1.00  0.00     0.058 A 
ATOM     69  C   UNL A   1      50.717  26.213  27.024  1.00  0.00     0.135 A 
ATOM     70  C   UNL A   1      50.334  27.089  24.815  1.00  0.00     0.135 A 
ATOM     71  F   UNL A   1      50.324  26.003  28.290  1.00  0.00    -0.206 F 
ATOM     72  C   UNL A   1      51.995  25.808  26.653  1.00  0.00     0.059 A 
ATOM     73  C   UNL A   1      51.603  26.680  24.418  1.00  0.00     0.059 A 
ATOM     74  F   UNL A   1      49.562  27.724  23.919  1.00  0.00    -0.206 F 
ATOM     75  C   UNL A   1      52.432  26.054  25.350  1.00  0.00     0.060 A 
BRANCH  75  76
ATOM     76  S   UNL A   1      54.098  25.542  24.883  1.00  0.00     0.124 S 
ATOM     77  O   UNL A   1      54.190  26.063  23.522  1.00  0.00    -0.237 OA
ATOM     78  O   UNL A   1      54.929  26.216  25.876  1.00  0.00    -0.237 OA
ATOM     79  O   UNL A   1      54.049  24.088  24.997  1.00  0.00    -0.744 OA
ENDBRANCH  75  76
ENDBRANCH  54  68
BRANCH  55  80
ATOM     80  C   UNL A   1      40.639  29.441  28.903  1.00  0.00     0.058 A 
ATOM     81  C   UNL A   1      39.591  29.585  27.984  1.00  0.00     0.135 A 
ATOM     82  C   UNL A   1      40.363  29.682  30.258  1.00  0.00     0.135 A 
ATOM     83  F   UNL A   1      39.813  29.377  26.677  1.00  0.00    -0.206 F 
ATOM     84  C   UNL A   1      38.316  29.965  28.388  1.00  0.00     0.059 A 
ATOM     85  C   UNL A   1      39.092  30.047  30.689  1.00  0.00     0.059 A 
ATOM     86  F   UNL A   1      41.333  29.550  31.176  1.00  0.00    -0.206 F 
ATOM     87  C   UNL A   1      38.076  30.194  29.745  1.00  0.00     0.060 A 
BRANCH  87  88
ATOM     88  S   UNL A   1      36.406  30.637  30.275  1.00  0.00     0.124 S 
ATOM     89  O   UNL A   1      35.962  29.402  30.908  1.00  0.00    -0.237 OA
ATOM     90  O   UNL A   1      36.652  31.762  31.172  1.00  0.00    -0.237 OA
ATOM     91  O   UNL A   1      35.743  30.982  29.021  1.00  0.00    -0.744 OA
ENDBRANCH  87  88
ENDBRANCH  55  80
BRANCH  67  92
ATOM     92  C   UNL A   1      46.642  32.928  28.326  1.00  0.00     0.058 A 
ATOM     93  C   UNL A   1      47.257  33.316  29.526  1.00  0.00     0.135 A 
ATOM     94  C   UNL A   1      46.444  33.906  27.339  1.00  0.00     0.135 A 
ATOM     95  F   UNL A   1      47.464  32.417  30.500  1.00  0.00    -0.206 F 
ATOM     96  C   UNL A   1      47.654  34.631  29.744  1.00  0.00     0.059 A 
ATOM     97  C   UNL A   1      46.846  35.224  27.531  1.00  0.00     0.059 A 
ATOM     98  F   UNL A   1      45.867  33.581  26.172  1.00  0.00    -0.206 F 
ATOM     99  C   UNL A   1      47.444  35.579  28.740  1.00  0.00     0.060 A 
BRANCH  99 100
ATOM    100  S   UNL A   1      48.003  37.275  29.007  1.00  0.00     0.124 S 
ATOM    101  O   UNL A   1      49.229  37.307  28.217  1.00  0.00    -0.237 OA
ATOM    102  O   UNL A   1      46.891  38.064  28.483  1.00  0.00    -0.237 OA
ATOM    103  O   UNL A   1      48.183  37.346  30.454  1.00  0.00    -0.744 OA
ENDBRANCH  99 100
ENDBRANCH  67  92
ENDBRANCH  41  42
ENDBRANCH  34  36
ENDBRANCH  33  34
ENDBRANCH  32  33
ENDBRANCH  31  32
ENDBRANCH  30  31
ENDBRANCH  29  30
ENDBRANCH   1  29
TORSDOF 27
ENDMDL
