MODEL 1
REMARK VINA RESULT:      -8.7      0.000      0.000
REMARK SMILES CC(C)(C)OC(=O)N1CCN(N[C@@H](C(=O)OCCOCCOCCOCCOC(=O)c2ccc(-c3c4nc(c(-c5c(F)cc(S(=O)(=O)[O-])cc5F)c5ccc([nH]5)c(-c5c(F)cc(S(=O)(=O)[O-])cc5F)c5nc(c(-c6c(F)cc(S(=O)(=O)[O-])cc6F)c6ccc3[nH]6)C=C5)C=C4)cc2)c2ccccc2Cl)CC1
REMARK SMILES IDX 21 1 20 2 19 3 18 4 17 5 16 6 14 7 15 8 13 9 12 10 11 12
REMARK SMILES IDX 6 13 7 14 8 15 9 16 105 17 10 18 104 19 5 20 2 21 1 22 3 23
REMARK SMILES IDX 4 24 97 25 98 26 102 27 99 28 101 29 103 30 100 31 22 32
REMARK SMILES IDX 23 33 24 34 25 35 26 36 27 37 28 38 29 39 30 40 31 41 32 42
REMARK SMILES IDX 96 43 33 44 95 45 34 46 35 47 36 48 89 49 37 50 94 51 88 52
REMARK SMILES IDX 90 53 38 54 93 55 87 56 86 57 39 59 73 60 52 61 72 62 53 63
REMARK SMILES IDX 56 64 71 65 91 66 54 67 55 68 70 70 92 71 57 72 40 73 41 74
REMARK SMILES IDX 50 75 42 76 43 77 49 78 51 79 44 80 45 81 46 82 47 83 48 84
REMARK SMILES IDX 74 85 75 86 84 87 76 88 77 89 83 90 85 91 78 92 79 93 80 94
REMARK SMILES IDX 81 95 82 96 58 97 59 98 68 99 60 100 61 101 67 102 69 103
REMARK SMILES IDX 62 104 63 105 64 106 65 107 66 108
REMARK H PARENT 12 11 90 58 56 69
REMARK Flexibility Score: inf
ROOT
ATOM      1  C   UNL A   1      37.306  22.561  25.364  1.00  0.00     0.188 C 
ENDROOT
BRANCH   1   2
ATOM      2  C   UNL A   1      36.655  23.334  24.203  1.00  0.00     0.188 C 
BRANCH   2   3
ATOM      3  O   UNL A   1      35.237  23.394  24.266  1.00  0.00    -0.376 OA
BRANCH   3   4
ATOM      4  C   UNL A   1      34.674  24.028  25.409  1.00  0.00     0.202 C 
BRANCH   4   5
ATOM      5  C   UNL A   1      33.817  25.284  25.187  1.00  0.00     0.261 C 
BRANCH   5   6
ATOM      6  O   UNL A   1      32.604  25.266  25.947  1.00  0.00    -0.462 OA
BRANCH   6   7
ATOM      7  C   UNL A   1      31.805  26.359  25.990  1.00  0.00     0.329 C 
ATOM      8  O   UNL A   1      30.940  26.540  26.843  1.00  0.00    -0.250 OA
BRANCH   7   9
ATOM      9  C   UNL A   1      32.177  27.420  24.911  1.00  0.00     0.211 C 
BRANCH   9  10
ATOM     10  N   UNL A   1      33.078  28.475  25.462  1.00  0.00    -0.237 NA
ATOM     11  H   UNL A   1      34.030  28.265  25.159  1.00  0.00     0.143 HD
BRANCH  10  12
ATOM     12  N   UNL A   1      33.087  28.595  26.921  1.00  0.00    -0.240 NA
ATOM     13  C   UNL A   1      34.959  32.202  28.144  1.00  0.00     0.410 C 
ATOM     14  O   UNL A   1      36.173  32.373  28.107  1.00  0.00    -0.224 OA
ATOM     15  N   UNL A   1      34.334  31.175  27.477  1.00  0.00    -0.306 N 
ATOM     16  C   UNL A   1      35.135  30.029  27.084  1.00  0.00     0.140 C 
ATOM     17  C   UNL A   1      32.916  31.145  27.108  1.00  0.00     0.140 C 
ATOM     18  C   UNL A   1      34.435  28.736  27.504  1.00  0.00     0.124 C 
ATOM     19  C   UNL A   1      32.255  29.763  27.326  1.00  0.00     0.124 C 
BRANCH  13  20
ATOM     20  O   UNL A   1      34.101  32.920  28.907  1.00  0.00    -0.444 OA
BRANCH  20  21
ATOM     21  C   UNL A   1      34.469  34.265  29.307  1.00  0.00     0.106 C 
ATOM     22  C   UNL A   1      33.258  34.792  30.091  1.00  0.00     0.056 C 
ATOM     23  C   UNL A   1      34.687  35.138  28.069  1.00  0.00     0.056 C 
ATOM     24  C   UNL A   1      35.684  34.292  30.251  1.00  0.00     0.056 C 
ENDBRANCH  20  21
ENDBRANCH  13  20
ENDBRANCH  10  12
ENDBRANCH   9  10
BRANCH   9  25
ATOM     25  C   UNL A   1      30.951  28.039  24.197  1.00  0.00     0.000 A 
ATOM     26  C   UNL A   1      30.771  29.439  24.163  1.00  0.00     0.007 A 
ATOM     27  C   UNL A   1      29.916  27.262  23.628  1.00  0.00     0.046 A 
ATOM     28  C   UNL A   1      29.657  30.031  23.555  1.00  0.00     0.000 A 
ATOM     29  C   UNL A   1      28.810  27.859  23.006  1.00  0.00     0.021 A 
ATOM     30  Cl  UNL A   1      29.880  25.530  23.681  1.00  0.00    -0.084 Cl
ATOM     31  C   UNL A   1      28.680  29.241  22.966  1.00  0.00     0.002 A 
ENDBRANCH   9  25
ENDBRANCH   7   9
ENDBRANCH   6   7
ENDBRANCH   5   6
ENDBRANCH   4   5
ENDBRANCH   3   4
ENDBRANCH   2   3
ENDBRANCH   1   2
BRANCH   1  32
ATOM     32  O   UNL A   1      38.126  23.258  26.289  1.00  0.00    -0.377 OA
BRANCH  32  33
ATOM     33  C   UNL A   1      39.467  22.835  26.504  1.00  0.00     0.188 C 
BRANCH  33  34
ATOM     34  C   UNL A   1      39.825  21.335  26.450  1.00  0.00     0.188 C 
BRANCH  34  35
ATOM     35  O   UNL A   1      40.392  20.800  27.640  1.00  0.00    -0.376 OA
BRANCH  35  36
ATOM     36  C   UNL A   1      41.478  19.897  27.472  1.00  0.00     0.202 C 
BRANCH  36  37
ATOM     37  C   UNL A   1      42.199  19.979  26.120  1.00  0.00     0.261 C 
BRANCH  37  38
ATOM     38  O   UNL A   1      43.422  20.735  26.123  1.00  0.00    -0.460 OA
BRANCH  38  39
ATOM     39  C   UNL A   1      43.365  22.024  25.722  1.00  0.00     0.338 C 
ATOM     40  O   UNL A   1      42.967  22.453  24.655  1.00  0.00    -0.246 OA
BRANCH  39  41
ATOM     41  C   UNL A   1      43.716  22.858  26.884  1.00  0.00     0.060 A 
ATOM     42  C   UNL A   1      42.691  23.453  27.629  1.00  0.00     0.016 A 
ATOM     43  C   UNL A   1      45.054  23.033  27.242  1.00  0.00     0.016 A 
ATOM     44  C   UNL A   1      43.007  24.240  28.737  1.00  0.00     0.010 A 
ATOM     45  C   UNL A   1      45.369  23.840  28.337  1.00  0.00     0.010 A 
ATOM     46  C   UNL A   1      44.349  24.461  29.076  1.00  0.00    -0.014 A 
BRANCH  46  47
ATOM     47  C   UNL A   1      44.700  25.459  30.112  1.00  0.00     0.031 A 
ATOM     48  C   UNL A   1      44.823  26.901  29.708  1.00  0.00     0.074 A 
ATOM     49  C   UNL A   1      44.921  25.086  31.385  1.00  0.00     0.049 A 
ATOM     50  N   UNL A   1      45.189  27.932  30.422  1.00  0.00    -0.248 NA
ATOM     51  C   UNL A   1      44.493  27.219  28.310  1.00  0.00     0.031 C 
ATOM     52  C   UNL A   1      44.802  23.723  31.900  1.00  0.00     0.029 A 
ATOM     53  N   UNL A   1      45.310  25.826  32.473  1.00  0.00    -0.354 N 
ATOM     54  C   UNL A   1      45.135  29.023  29.562  1.00  0.00     0.074 A 
ATOM     55  C   UNL A   1      44.724  28.524  28.268  1.00  0.00     0.031 C 
ATOM     56  C   UNL A   1      45.136  23.721  33.204  1.00  0.00     0.029 A 
ATOM     57  C   UNL A   1      45.520  25.073  33.604  1.00  0.00     0.049 A 
ATOM     58  H   UNL A   1      45.428  26.803  32.447  1.00  0.00     0.167 HD
ATOM     59  C   UNL A   1      45.402  30.322  29.831  1.00  0.00     0.037 A 
ATOM     60  C   UNL A   1      45.998  25.433  34.813  1.00  0.00     0.037 A 
ATOM     61  C   UNL A   1      45.822  30.811  31.117  1.00  0.00     0.049 A 
ATOM     62  C   UNL A   1      46.363  26.874  35.065  1.00  0.00     0.074 A 
ATOM     63  C   UNL A   1      46.088  32.115  31.497  1.00  0.00     0.029 A 
ATOM     64  N   UNL A   1      46.051  30.016  32.230  1.00  0.00    -0.354 N 
ATOM     65  N   UNL A   1      46.270  27.903  34.256  1.00  0.00    -0.248 NA
ATOM     66  C   UNL A   1      46.900  27.202  36.394  1.00  0.00     0.031 C 
ATOM     67  C   UNL A   1      46.530  32.101  32.824  1.00  0.00     0.029 A 
ATOM     68  C   UNL A   1      46.490  30.796  33.287  1.00  0.00     0.049 A 
ATOM     69  H   UNL A   1      45.922  29.040  32.264  1.00  0.00     0.167 HD
ATOM     70  C   UNL A   1      46.722  29.002  34.983  1.00  0.00     0.074 A 
ATOM     71  C   UNL A   1      47.070  28.514  36.302  1.00  0.00     0.031 C 
ATOM     72  C   UNL A   1      46.837  30.295  34.594  1.00  0.00     0.037 A 
BRANCH  59  73
ATOM     73  C   UNL A   1      45.276  31.304  28.701  1.00  0.00     0.058 A 
ATOM     74  C   UNL A   1      46.322  31.520  27.791  1.00  0.00     0.135 A 
ATOM     75  C   UNL A   1      44.080  32.012  28.507  1.00  0.00     0.135 A 
ATOM     76  F   UNL A   1      47.495  30.884  27.945  1.00  0.00    -0.206 F 
ATOM     77  C   UNL A   1      46.193  32.417  26.736  1.00  0.00     0.059 A 
ATOM     78  C   UNL A   1      43.919  32.896  27.446  1.00  0.00     0.059 A 
ATOM     79  F   UNL A   1      43.051  31.846  29.353  1.00  0.00    -0.206 F 
ATOM     80  C   UNL A   1      44.986  33.101  26.571  1.00  0.00     0.060 A 
BRANCH  80  81
ATOM     81  S   UNL A   1      44.828  34.252  25.190  1.00  0.00     0.124 S 
ATOM     82  O   UNL A   1      44.378  33.365  24.122  1.00  0.00    -0.237 OA
ATOM     83  O   UNL A   1      43.835  35.200  25.686  1.00  0.00    -0.237 OA
ATOM     84  O   UNL A   1      46.177  34.787  25.036  1.00  0.00    -0.744 OA
ENDBRANCH  80  81
ENDBRANCH  59  73
BRANCH  60  85
ATOM     85  C   UNL A   1      46.191  24.406  35.872  1.00  0.00     0.058 A 
ATOM     86  C   UNL A   1      45.153  24.066  36.751  1.00  0.00     0.135 A 
ATOM     87  C   UNL A   1      47.423  23.754  36.032  1.00  0.00     0.135 A 
ATOM     88  F   UNL A   1      43.962  24.674  36.649  1.00  0.00    -0.206 F 
ATOM     89  C   UNL A   1      45.332  23.124  37.760  1.00  0.00     0.059 A 
ATOM     90  C   UNL A   1      47.620  22.791  37.016  1.00  0.00     0.059 A 
ATOM     91  F   UNL A   1      48.448  24.038  35.211  1.00  0.00    -0.206 F 
ATOM     92  C   UNL A   1      46.570  22.490  37.882  1.00  0.00     0.060 A 
BRANCH  92  93
ATOM     93  S   UNL A   1      46.778  21.235  39.164  1.00  0.00     0.124 S 
ATOM     94  O   UNL A   1      46.256  21.923  40.339  1.00  0.00    -0.237 OA
ATOM     95  O   UNL A   1      45.965  20.136  38.653  1.00  0.00    -0.237 OA
ATOM     96  O   UNL A   1      48.218  20.991  39.162  1.00  0.00    -0.744 OA
ENDBRANCH  92  93
ENDBRANCH  60  85
BRANCH  72  97
ATOM     97  C   UNL A   1      47.348  31.284  35.606  1.00  0.00     0.058 A 
ATOM     98  C   UNL A   1      48.714  31.597  35.702  1.00  0.00     0.135 A 
ATOM     99  C   UNL A   1      46.457  31.969  36.449  1.00  0.00     0.135 A 
ATOM    100  F   UNL A   1      49.608  30.967  34.925  1.00  0.00    -0.206 F 
ATOM    101  C   UNL A   1      49.179  32.542  36.612  1.00  0.00     0.059 A 
ATOM    102  C   UNL A   1      46.898  32.936  37.347  1.00  0.00     0.059 A 
ATOM    103  F   UNL A   1      45.140  31.715  36.389  1.00  0.00    -0.206 F 
ATOM    104  C   UNL A   1      48.264  33.208  37.429  1.00  0.00     0.060 A 
BRANCH 104 105
ATOM    105  S   UNL A   1      48.876  34.459  38.578  1.00  0.00     0.124 S 
ATOM    106  O   UNL A   1      49.652  35.319  37.689  1.00  0.00    -0.237 OA
ATOM    107  O   UNL A   1      47.642  35.036  39.101  1.00  0.00    -0.237 OA
ATOM    108  O   UNL A   1      49.656  33.685  39.539  1.00  0.00    -0.744 OA
ENDBRANCH 104 105
ENDBRANCH  72  97
ENDBRANCH  46  47
ENDBRANCH  39  41
ENDBRANCH  38  39
ENDBRANCH  37  38
ENDBRANCH  36  37
ENDBRANCH  35  36
ENDBRANCH  34  35
ENDBRANCH  33  34
ENDBRANCH  32  33
ENDBRANCH   1  32
TORSDOF 28
ENDMDL
MODEL 2
REMARK VINA RESULT:      -8.6      5.133      6.817
REMARK SMILES CC(C)(C)OC(=O)N1CCN(N[C@@H](C(=O)OCCOCCOCCOCCOC(=O)c2ccc(-c3c4nc(c(-c5c(F)cc(S(=O)(=O)[O-])cc5F)c5ccc([nH]5)c(-c5c(F)cc(S(=O)(=O)[O-])cc5F)c5nc(c(-c6c(F)cc(S(=O)(=O)[O-])cc6F)c6ccc3[nH]6)C=C5)C=C4)cc2)c2ccccc2Cl)CC1
REMARK SMILES IDX 21 1 20 2 19 3 18 4 17 5 16 6 14 7 15 8 13 9 12 10 11 12
REMARK SMILES IDX 6 13 7 14 8 15 9 16 105 17 10 18 104 19 5 20 2 21 1 22 3 23
REMARK SMILES IDX 4 24 97 25 98 26 102 27 99 28 101 29 103 30 100 31 22 32
REMARK SMILES IDX 23 33 24 34 25 35 26 36 27 37 28 38 29 39 30 40 31 41 32 42
REMARK SMILES IDX 96 43 33 44 95 45 34 46 35 47 36 48 89 49 37 50 94 51 88 52
REMARK SMILES IDX 90 53 38 54 93 55 87 56 86 57 39 59 73 60 52 61 72 62 53 63
REMARK SMILES IDX 56 64 71 65 91 66 54 67 55 68 70 70 92 71 57 72 40 73 41 74
REMARK SMILES IDX 50 75 42 76 43 77 49 78 51 79 44 80 45 81 46 82 47 83 48 84
REMARK SMILES IDX 74 85 75 86 84 87 76 88 77 89 83 90 85 91 78 92 79 93 80 94
REMARK SMILES IDX 81 95 82 96 58 97 59 98 68 99 60 100 61 101 67 102 69 103
REMARK SMILES IDX 62 104 63 105 64 106 65 107 66 108
REMARK H PARENT 12 11 90 58 56 69
REMARK Flexibility Score: inf
ROOT
ATOM      1  C   UNL A   1      35.970  20.467  24.993  1.00  0.00     0.188 C 
ENDROOT
BRANCH   1   2
ATOM      2  C   UNL A   1      34.769  19.569  24.645  1.00  0.00     0.188 C 
BRANCH   2   3
ATOM      3  O   UNL A   1      33.504  20.179  24.859  1.00  0.00    -0.376 OA
BRANCH   3   4
ATOM      4  C   UNL A   1      32.562  20.089  23.796  1.00  0.00     0.202 C 
BRANCH   4   5
ATOM      5  C   UNL A   1      32.162  21.386  23.077  1.00  0.00     0.261 C 
BRANCH   5   6
ATOM      6  O   UNL A   1      33.292  22.137  22.621  1.00  0.00    -0.462 OA
BRANCH   6   7
ATOM      7  C   UNL A   1      33.382  23.465  22.872  1.00  0.00     0.329 C 
ATOM      8  O   UNL A   1      34.029  24.248  22.183  1.00  0.00    -0.250 OA
BRANCH   7   9
ATOM      9  C   UNL A   1      32.480  23.914  24.061  1.00  0.00     0.211 C 
BRANCH   9  10
ATOM     10  N   UNL A   1      32.203  25.381  24.020  1.00  0.00    -0.237 NA
ATOM     11  H   UNL A   1      32.524  25.786  24.900  1.00  0.00     0.143 HD
BRANCH  10  12
ATOM     12  N   UNL A   1      30.797  25.751  23.841  1.00  0.00    -0.240 NA
ATOM     13  C   UNL A   1      30.324  29.967  23.777  1.00  0.00     0.410 C 
ATOM     14  O   UNL A   1      30.396  30.665  24.783  1.00  0.00    -0.224 OA
ATOM     15  N   UNL A   1      30.771  28.667  23.742  1.00  0.00    -0.306 N 
ATOM     16  C   UNL A   1      30.927  27.966  25.005  1.00  0.00     0.140 C 
ATOM     17  C   UNL A   1      31.126  27.926  22.529  1.00  0.00     0.140 C 
ATOM     18  C   UNL A   1      30.256  26.594  24.924  1.00  0.00     0.124 C 
ATOM     19  C   UNL A   1      30.634  26.459  22.541  1.00  0.00     0.124 C 
BRANCH  13  20
ATOM     20  O   UNL A   1      29.720  30.336  22.623  1.00  0.00    -0.444 OA
BRANCH  20  21
ATOM     21  C   UNL A   1      28.270  30.384  22.569  1.00  0.00     0.106 C 
ATOM     22  C   UNL A   1      27.938  30.732  21.111  1.00  0.00     0.056 C 
ATOM     23  C   UNL A   1      27.749  31.493  23.485  1.00  0.00     0.056 C 
ATOM     24  C   UNL A   1      27.621  29.024  22.884  1.00  0.00     0.056 C 
ENDBRANCH  20  21
ENDBRANCH  13  20
ENDBRANCH  10  12
ENDBRANCH   9  10
BRANCH   9  25
ATOM     25  C   UNL A   1      33.012  23.476  25.447  1.00  0.00     0.000 A 
ATOM     26  C   UNL A   1      34.392  23.541  25.740  1.00  0.00     0.007 A 
ATOM     27  C   UNL A   1      32.186  22.914  26.447  1.00  0.00     0.046 A 
ATOM     28  C   UNL A   1      34.911  23.121  26.970  1.00  0.00     0.000 A 
ATOM     29  C   UNL A   1      32.708  22.509  27.685  1.00  0.00     0.021 A 
ATOM     30  Cl  UNL A   1      30.491  22.625  26.238  1.00  0.00    -0.084 Cl
ATOM     31  C   UNL A   1      34.068  22.614  27.949  1.00  0.00     0.002 A 
ENDBRANCH   9  25
ENDBRANCH   7   9
ENDBRANCH   6   7
ENDBRANCH   5   6
ENDBRANCH   4   5
ENDBRANCH   3   4
ENDBRANCH   2   3
ENDBRANCH   1   2
BRANCH   1  32
ATOM     32  O   UNL A   1      37.266  20.096  24.551  1.00  0.00    -0.377 OA
BRANCH  32  33
ATOM     33  C   UNL A   1      38.348  20.074  25.473  1.00  0.00     0.188 C 
BRANCH  33  34
ATOM     34  C   UNL A   1      39.188  21.345  25.715  1.00  0.00     0.188 C 
BRANCH  34  35
ATOM     35  O   UNL A   1      39.629  21.541  27.053  1.00  0.00    -0.376 OA
BRANCH  35  36
ATOM     36  C   UNL A   1      40.997  21.255  27.315  1.00  0.00     0.202 C 
BRANCH  36  37
ATOM     37  C   UNL A   1      41.780  20.650  26.143  1.00  0.00     0.261 C 
BRANCH  37  38
ATOM     38  O   UNL A   1      42.387  21.603  25.253  1.00  0.00    -0.460 OA
BRANCH  38  39
ATOM     39  C   UNL A   1      43.728  21.558  25.104  1.00  0.00     0.338 C 
ATOM     40  O   UNL A   1      44.377  20.772  24.439  1.00  0.00    -0.246 OA
BRANCH  39  41
ATOM     41  C   UNL A   1      44.280  22.754  25.764  1.00  0.00     0.060 A 
ATOM     42  C   UNL A   1      44.845  22.629  27.039  1.00  0.00     0.016 A 
ATOM     43  C   UNL A   1      44.254  23.988  25.111  1.00  0.00     0.016 A 
ATOM     44  C   UNL A   1      45.379  23.752  27.672  1.00  0.00     0.010 A 
ATOM     45  C   UNL A   1      44.768  25.114  25.757  1.00  0.00     0.010 A 
ATOM     46  C   UNL A   1      45.314  25.004  27.046  1.00  0.00    -0.014 A 
BRANCH  46  47
ATOM     47  C   UNL A   1      45.681  26.229  27.793  1.00  0.00     0.031 A 
ATOM     48  C   UNL A   1      47.103  26.709  27.728  1.00  0.00     0.074 A 
ATOM     49  C   UNL A   1      44.770  26.892  28.527  1.00  0.00     0.049 A 
ATOM     50  N   UNL A   1      47.670  27.708  28.353  1.00  0.00    -0.248 NA
ATOM     51  C   UNL A   1      48.008  25.959  26.842  1.00  0.00     0.031 C 
ATOM     52  C   UNL A   1      43.356  26.538  28.642  1.00  0.00     0.029 A 
ATOM     53  N   UNL A   1      44.909  27.996  29.330  1.00  0.00    -0.354 N 
ATOM     54  C   UNL A   1      48.996  27.707  27.939  1.00  0.00     0.074 A 
ATOM     55  C   UNL A   1      49.157  26.595  27.027  1.00  0.00     0.031 C 
ATOM     56  C   UNL A   1      42.761  27.397  29.489  1.00  0.00     0.029 A 
ATOM     57  C   UNL A   1      43.757  28.339  29.998  1.00  0.00     0.049 A 
ATOM     58  H   UNL A   1      45.753  28.494  29.421  1.00  0.00     0.167 HD
ATOM     59  C   UNL A   1      49.988  28.559  28.286  1.00  0.00     0.037 A 
ATOM     60  C   UNL A   1      43.543  29.285  30.934  1.00  0.00     0.037 A 
ATOM     61  C   UNL A   1      49.826  29.657  29.202  1.00  0.00     0.049 A 
ATOM     62  C   UNL A   1      44.684  30.173  31.363  1.00  0.00     0.074 A 
ATOM     63  C   UNL A   1      50.764  30.595  29.595  1.00  0.00     0.029 A 
ATOM     64  N   UNL A   1      48.653  29.956  29.879  1.00  0.00    -0.354 N 
ATOM     65  N   UNL A   1      45.924  30.188  30.935  1.00  0.00    -0.248 NA
ATOM     66  C   UNL A   1      44.396  31.171  32.404  1.00  0.00     0.031 C 
ATOM     67  C   UNL A   1      50.173  31.429  30.550  1.00  0.00     0.029 A 
ATOM     68  C   UNL A   1      48.853  31.042  30.715  1.00  0.00     0.049 A 
ATOM     69  H   UNL A   1      47.804  29.468  29.781  1.00  0.00     0.167 HD
ATOM     70  C   UNL A   1      46.559  31.205  31.643  1.00  0.00     0.074 A 
ATOM     71  C   UNL A   1      45.561  31.793  32.513  1.00  0.00     0.031 C 
ATOM     72  C   UNL A   1      47.850  31.615  31.579  1.00  0.00     0.037 A 
BRANCH  59  73
ATOM     73  C   UNL A   1      51.348  28.320  27.694  1.00  0.00     0.058 A 
ATOM     74  C   UNL A   1      51.771  28.980  26.530  1.00  0.00     0.135 A 
ATOM     75  C   UNL A   1      52.251  27.447  28.319  1.00  0.00     0.135 A 
ATOM     76  F   UNL A   1      50.938  29.809  25.880  1.00  0.00    -0.206 F 
ATOM     77  C   UNL A   1      53.038  28.768  25.995  1.00  0.00     0.059 A 
ATOM     78  C   UNL A   1      53.530  27.238  27.817  1.00  0.00     0.059 A 
ATOM     79  F   UNL A   1      51.892  26.787  29.432  1.00  0.00    -0.206 F 
ATOM     80  C   UNL A   1      53.912  27.895  26.648  1.00  0.00     0.060 A 
BRANCH  80  81
ATOM     81  S   UNL A   1      55.557  27.640  25.951  1.00  0.00     0.124 S 
ATOM     82  O   UNL A   1      55.903  28.991  25.521  1.00  0.00    -0.237 OA
ATOM     83  O   UNL A   1      56.305  27.128  27.095  1.00  0.00    -0.237 OA
ATOM     84  O   UNL A   1      55.327  26.680  24.877  1.00  0.00    -0.744 OA
ENDBRANCH  80  81
ENDBRANCH  59  73
BRANCH  60  85
ATOM     85  C   UNL A   1      42.199  29.424  31.558  1.00  0.00     0.058 A 
ATOM     86  C   UNL A   1      41.187  30.172  30.941  1.00  0.00     0.135 A 
ATOM     87  C   UNL A   1      41.907  28.819  32.790  1.00  0.00     0.135 A 
ATOM     88  F   UNL A   1      41.422  30.782  29.770  1.00  0.00    -0.206 F 
ATOM     89  C   UNL A   1      39.935  30.326  31.528  1.00  0.00     0.059 A 
ATOM     90  C   UNL A   1      40.656  28.939  33.387  1.00  0.00     0.059 A 
ATOM     91  F   UNL A   1      42.840  28.087  33.420  1.00  0.00    -0.206 F 
ATOM     92  C   UNL A   1      39.679  29.704  32.751  1.00  0.00     0.060 A 
BRANCH  92  93
ATOM     93  S   UNL A   1      38.036  29.871  33.483  1.00  0.00     0.124 S 
ATOM     94  O   UNL A   1      37.425  28.595  33.130  1.00  0.00    -0.237 OA
ATOM     95  O   UNL A   1      38.347  30.061  34.896  1.00  0.00    -0.237 OA
ATOM     96  O   UNL A   1      37.486  31.044  32.807  1.00  0.00    -0.744 OA
ENDBRANCH  92  93
ENDBRANCH  60  85
BRANCH  72  97
ATOM     97  C   UNL A   1      48.262  32.762  32.460  1.00  0.00     0.058 A 
ATOM     98  C   UNL A   1      48.794  32.550  33.742  1.00  0.00     0.135 A 
ATOM     99  C   UNL A   1      48.178  34.085  31.996  1.00  0.00     0.135 A 
ATOM    100  F   UNL A   1      48.890  31.306  34.236  1.00  0.00    -0.206 F 
ATOM    101  C   UNL A   1      49.212  33.611  34.539  1.00  0.00     0.059 A 
ATOM    102  C   UNL A   1      48.615  35.159  32.766  1.00  0.00     0.059 A 
ATOM    103  F   UNL A   1      47.688  34.343  30.773  1.00  0.00    -0.206 F 
ATOM    104  C   UNL A   1      49.121  34.912  34.042  1.00  0.00     0.060 A 
BRANCH 104 105
ATOM    105  S   UNL A   1      49.701  36.277  35.072  1.00  0.00     0.124 S 
ATOM    106  O   UNL A   1      49.157  37.431  34.363  1.00  0.00    -0.237 OA
ATOM    107  O   UNL A   1      49.089  35.978  36.363  1.00  0.00    -0.237 OA
ATOM    108  O   UNL A   1      51.154  36.142  35.029  1.00  0.00    -0.744 OA
ENDBRANCH 104 105
ENDBRANCH  72  97
ENDBRANCH  46  47
ENDBRANCH  39  41
ENDBRANCH  38  39
ENDBRANCH  37  38
ENDBRANCH  36  37
ENDBRANCH  35  36
ENDBRANCH  34  35
ENDBRANCH  33  34
ENDBRANCH  32  33
ENDBRANCH   1  32
TORSDOF 28
ENDMDL
MODEL 3
REMARK VINA RESULT:      -7.8      5.695      9.078
REMARK SMILES CC(C)(C)OC(=O)N1CCN(N[C@@H](C(=O)OCCOCCOCCOCCOC(=O)c2ccc(-c3c4nc(c(-c5c(F)cc(S(=O)(=O)[O-])cc5F)c5ccc([nH]5)c(-c5c(F)cc(S(=O)(=O)[O-])cc5F)c5nc(c(-c6c(F)cc(S(=O)(=O)[O-])cc6F)c6ccc3[nH]6)C=C5)C=C4)cc2)c2ccccc2Cl)CC1
REMARK SMILES IDX 21 1 20 2 19 3 18 4 17 5 16 6 14 7 15 8 13 9 12 10 11 12
REMARK SMILES IDX 6 13 7 14 8 15 9 16 105 17 10 18 104 19 5 20 2 21 1 22 3 23
REMARK SMILES IDX 4 24 97 25 98 26 102 27 99 28 101 29 103 30 100 31 22 32
REMARK SMILES IDX 23 33 24 34 25 35 26 36 27 37 28 38 29 39 30 40 31 41 32 42
REMARK SMILES IDX 96 43 33 44 95 45 34 46 35 47 36 48 89 49 37 50 94 51 88 52
REMARK SMILES IDX 90 53 38 54 93 55 87 56 86 57 39 59 73 60 52 61 72 62 53 63
REMARK SMILES IDX 56 64 71 65 91 66 54 67 55 68 70 70 92 71 57 72 40 73 41 74
REMARK SMILES IDX 50 75 42 76 43 77 49 78 51 79 44 80 45 81 46 82 47 83 48 84
REMARK SMILES IDX 74 85 75 86 84 87 76 88 77 89 83 90 85 91 78 92 79 93 80 94
REMARK SMILES IDX 81 95 82 96 58 97 59 98 68 99 60 100 61 101 67 102 69 103
REMARK SMILES IDX 62 104 63 105 64 106 65 107 66 108
REMARK H PARENT 12 11 90 58 56 69
REMARK Flexibility Score: inf
ROOT
ATOM      1  C   UNL A   1      37.467  22.875  25.757  1.00  0.00     0.188 C 
ENDROOT
BRANCH   1   2
ATOM      2  C   UNL A   1      36.857  23.107  24.363  1.00  0.00     0.188 C 
BRANCH   2   3
ATOM      3  O   UNL A   1      35.443  23.253  24.363  1.00  0.00    -0.376 OA
BRANCH   3   4
ATOM      4  C   UNL A   1      34.931  24.514  24.782  1.00  0.00     0.202 C 
BRANCH   4   5
ATOM      5  C   UNL A   1      33.491  24.873  24.387  1.00  0.00     0.261 C 
BRANCH   5   6
ATOM      6  O   UNL A   1      32.609  24.937  25.512  1.00  0.00    -0.462 OA
BRANCH   6   7
ATOM      7  C   UNL A   1      31.559  25.793  25.515  1.00  0.00     0.329 C 
ATOM      8  O   UNL A   1      30.614  25.713  26.295  1.00  0.00    -0.250 OA
BRANCH   7   9
ATOM      9  C   UNL A   1      31.735  26.963  24.501  1.00  0.00     0.211 C 
BRANCH   9  10
ATOM     10  N   UNL A   1      32.552  28.073  25.074  1.00  0.00    -0.237 NA
ATOM     11  H   UNL A   1      33.536  27.848  24.924  1.00  0.00     0.143 HD
BRANCH  10  12
ATOM     12  N   UNL A   1      32.359  28.323  26.504  1.00  0.00    -0.240 NA
ATOM     13  C   UNL A   1      34.759  31.563  27.824  1.00  0.00     0.410 C 
ATOM     14  O   UNL A   1      35.972  31.476  27.987  1.00  0.00    -0.224 OA
ATOM     15  N   UNL A   1      34.037  30.631  27.119  1.00  0.00    -0.306 N 
ATOM     16  C   UNL A   1      34.620  29.313  26.935  1.00  0.00     0.140 C 
ATOM     17  C   UNL A   1      32.722  30.859  26.513  1.00  0.00     0.140 C 
ATOM     18  C   UNL A   1      33.598  28.235  27.301  1.00  0.00     0.124 C 
ATOM     19  C   UNL A   1      31.750  29.669  26.693  1.00  0.00     0.124 C 
BRANCH  13  20
ATOM     20  O   UNL A   1      33.971  32.509  28.386  1.00  0.00    -0.444 OA
BRANCH  20  21
ATOM     21  C   UNL A   1      34.552  33.439  29.338  1.00  0.00     0.106 C 
ATOM     22  C   UNL A   1      34.703  32.636  30.638  1.00  0.00     0.056 C 
ATOM     23  C   UNL A   1      33.597  34.610  29.575  1.00  0.00     0.056 C 
ATOM     24  C   UNL A   1      35.954  33.916  28.919  1.00  0.00     0.056 C 
ENDBRANCH  20  21
ENDBRANCH  13  20
ENDBRANCH  10  12
ENDBRANCH   9  10
BRANCH   9  25
ATOM     25  C   UNL A   1      30.400  27.486  23.916  1.00  0.00     0.000 A 
ATOM     26  C   UNL A   1      29.191  26.795  24.156  1.00  0.00     0.007 A 
ATOM     27  C   UNL A   1      30.320  28.603  23.054  1.00  0.00     0.046 A 
ATOM     28  C   UNL A   1      27.973  27.220  23.614  1.00  0.00     0.000 A 
ATOM     29  C   UNL A   1      29.094  29.036  22.527  1.00  0.00     0.021 A 
ATOM     30  Cl  UNL A   1      31.702  29.507  22.530  1.00  0.00    -0.084 Cl
ATOM     31  C   UNL A   1      27.920  28.347  22.808  1.00  0.00     0.002 A 
ENDBRANCH   9  25
ENDBRANCH   7   9
ENDBRANCH   6   7
ENDBRANCH   5   6
ENDBRANCH   4   5
ENDBRANCH   3   4
ENDBRANCH   2   3
ENDBRANCH   1   2
BRANCH   1  32
ATOM     32  O   UNL A   1      37.826  23.994  26.553  1.00  0.00    -0.377 OA
BRANCH  32  33
ATOM     33  C   UNL A   1      39.162  24.480  26.526  1.00  0.00     0.188 C 
BRANCH  33  34
ATOM     34  C   UNL A   1      40.269  23.752  27.317  1.00  0.00     0.188 C 
BRANCH  34  35
ATOM     35  O   UNL A   1      41.145  24.593  28.056  1.00  0.00    -0.376 OA
BRANCH  35  36
ATOM     36  C   UNL A   1      42.413  24.044  28.394  1.00  0.00     0.202 C 
BRANCH  36  37
ATOM     37  C   UNL A   1      42.777  22.737  27.677  1.00  0.00     0.261 C 
BRANCH  37  38
ATOM     38  O   UNL A   1      44.144  22.633  27.246  1.00  0.00    -0.460 OA
BRANCH  38  39
ATOM     39  C   UNL A   1      44.407  22.836  25.936  1.00  0.00     0.338 C 
ATOM     40  O   UNL A   1      43.904  22.274  24.982  1.00  0.00    -0.246 OA
BRANCH  39  41
ATOM     41  C   UNL A   1      45.304  24.001  25.847  1.00  0.00     0.060 A 
ATOM     42  C   UNL A   1      46.552  23.949  26.480  1.00  0.00     0.016 A 
ATOM     43  C   UNL A   1      44.915  25.130  25.123  1.00  0.00     0.016 A 
ATOM     44  C   UNL A   1      47.416  25.042  26.397  1.00  0.00     0.010 A 
ATOM     45  C   UNL A   1      45.771  26.231  25.062  1.00  0.00     0.010 A 
ATOM     46  C   UNL A   1      47.015  26.199  25.714  1.00  0.00    -0.014 A 
BRANCH  46  47
ATOM     47  C   UNL A   1      47.829  27.433  25.800  1.00  0.00     0.031 A 
ATOM     48  C   UNL A   1      47.248  28.629  26.499  1.00  0.00     0.074 A 
ATOM     49  C   UNL A   1      49.055  27.493  25.252  1.00  0.00     0.049 A 
ATOM     50  N   UNL A   1      47.742  29.832  26.632  1.00  0.00    -0.248 NA
ATOM     51  C   UNL A   1      45.930  28.443  27.129  1.00  0.00     0.031 C 
ATOM     52  C   UNL A   1      49.734  26.389  24.575  1.00  0.00     0.029 A 
ATOM     53  N   UNL A   1      49.940  28.539  25.164  1.00  0.00    -0.354 N 
ATOM     54  C   UNL A   1      46.798  30.548  27.359  1.00  0.00     0.074 A 
ATOM     55  C   UNL A   1      45.691  29.652  27.617  1.00  0.00     0.031 C 
ATOM     56  C   UNL A   1      50.923  26.825  24.120  1.00  0.00     0.029 A 
ATOM     57  C   UNL A   1      51.074  28.242  24.446  1.00  0.00     0.049 A 
ATOM     58  H   UNL A   1      49.778  29.418  25.576  1.00  0.00     0.167 HD
ATOM     59  C   UNL A   1      46.852  31.835  27.773  1.00  0.00     0.037 A 
ATOM     60  C   UNL A   1      52.098  29.034  24.071  1.00  0.00     0.037 A 
ATOM     61  C   UNL A   1      47.950  32.725  27.504  1.00  0.00     0.049 A 
ATOM     62  C   UNL A   1      52.099  30.485  24.478  1.00  0.00     0.074 A 
ATOM     63  C   UNL A   1      48.112  34.038  27.907  1.00  0.00     0.029 A 
ATOM     64  N   UNL A   1      49.067  32.397  26.749  1.00  0.00    -0.354 N 
ATOM     65  N   UNL A   1      51.220  31.141  25.199  1.00  0.00    -0.248 NA
ATOM     66  C   UNL A   1      53.231  31.305  24.020  1.00  0.00     0.031 C 
ATOM     67  C   UNL A   1      49.301  34.522  27.352  1.00  0.00     0.029 A 
ATOM     68  C   UNL A   1      49.906  33.495  26.645  1.00  0.00     0.049 A 
ATOM     69  H   UNL A   1      49.239  31.515  26.347  1.00  0.00     0.167 HD
ATOM     70  C   UNL A   1      51.700  32.445  25.293  1.00  0.00     0.074 A 
ATOM     71  C   UNL A   1      52.956  32.480  24.571  1.00  0.00     0.031 C 
ATOM     72  C   UNL A   1      51.152  33.515  25.919  1.00  0.00     0.037 A 
BRANCH  59  73
ATOM     73  C   UNL A   1      45.675  32.367  28.540  1.00  0.00     0.058 A 
ATOM     74  C   UNL A   1      45.611  32.288  29.940  1.00  0.00     0.135 A 
ATOM     75  C   UNL A   1      44.616  32.996  27.869  1.00  0.00     0.135 A 
ATOM     76  F   UNL A   1      46.588  31.676  30.629  1.00  0.00    -0.206 F 
ATOM     77  C   UNL A   1      44.527  32.798  30.647  1.00  0.00     0.059 A 
ATOM     78  C   UNL A   1      43.534  33.535  28.556  1.00  0.00     0.059 A 
ATOM     79  F   UNL A   1      44.627  33.092  26.530  1.00  0.00    -0.206 F 
ATOM     80  C   UNL A   1      43.492  33.421  29.945  1.00  0.00     0.060 A 
BRANCH  80  81
ATOM     81  S   UNL A   1      42.099  34.091  30.876  1.00  0.00     0.124 S 
ATOM     82  O   UNL A   1      41.353  34.779  29.827  1.00  0.00    -0.237 OA
ATOM     83  O   UNL A   1      41.474  32.886  31.412  1.00  0.00    -0.237 OA
ATOM     84  O   UNL A   1      42.734  34.956  31.865  1.00  0.00    -0.744 OA
ENDBRANCH  80  81
ENDBRANCH  59  73
BRANCH  60  85
ATOM     85  C   UNL A   1      53.198  28.482  23.234  1.00  0.00     0.058 A 
ATOM     86  C   UNL A   1      54.375  27.990  23.814  1.00  0.00     0.135 A 
ATOM     87  C   UNL A   1      53.095  28.447  21.834  1.00  0.00     0.135 A 
ATOM     88  F   UNL A   1      54.527  28.016  25.147  1.00  0.00    -0.206 F 
ATOM     89  C   UNL A   1      55.418  27.493  23.038  1.00  0.00     0.059 A 
ATOM     90  C   UNL A   1      54.113  27.933  21.037  1.00  0.00     0.059 A 
ATOM     91  F   UNL A   1      51.985  28.900  21.229  1.00  0.00    -0.206 F 
ATOM     92  C   UNL A   1      55.276  27.468  21.650  1.00  0.00     0.060 A 
BRANCH  92  93
ATOM     93  S   UNL A   1      56.615  26.778  20.653  1.00  0.00     0.124 S 
ATOM     94  O   UNL A   1      57.139  27.971  19.998  1.00  0.00    -0.237 OA
ATOM     95  O   UNL A   1      57.474  26.176  21.668  1.00  0.00    -0.237 OA
ATOM     96  O   UNL A   1      55.928  25.828  19.781  1.00  0.00    -0.744 OA
ENDBRANCH  92  93
ENDBRANCH  60  85
BRANCH  72  97
ATOM     97  C   UNL A   1      51.908  34.815  25.869  1.00  0.00     0.058 A 
ATOM     98  C   UNL A   1      52.982  35.074  26.735  1.00  0.00     0.135 A 
ATOM     99  C   UNL A   1      51.592  35.787  24.905  1.00  0.00     0.135 A 
ATOM    100  F   UNL A   1      53.321  34.181  27.677  1.00  0.00    -0.206 F 
ATOM    101  C   UNL A   1      53.705  36.260  26.659  1.00  0.00     0.059 A 
ATOM    102  C   UNL A   1      52.319  36.969  24.795  1.00  0.00     0.059 A 
ATOM    103  F   UNL A   1      50.582  35.585  24.045  1.00  0.00    -0.206 F 
ATOM    104  C   UNL A   1      53.368  37.201  25.684  1.00  0.00     0.060 A 
BRANCH 104 105
ATOM    105  S   UNL A   1      54.338  38.720  25.572  1.00  0.00     0.124 S 
ATOM    106  O   UNL A   1      53.579  39.618  26.437  1.00  0.00    -0.237 OA
ATOM    107  O   UNL A   1      55.640  38.299  26.081  1.00  0.00    -0.237 OA
ATOM    108  O   UNL A   1      54.304  39.041  24.148  1.00  0.00    -0.744 OA
ENDBRANCH 104 105
ENDBRANCH  72  97
ENDBRANCH  46  47
ENDBRANCH  39  41
ENDBRANCH  38  39
ENDBRANCH  37  38
ENDBRANCH  36  37
ENDBRANCH  35  36
ENDBRANCH  34  35
ENDBRANCH  33  34
ENDBRANCH  32  33
ENDBRANCH   1  32
TORSDOF 28
ENDMDL
