MODEL 1
REMARK VINA RESULT:      -9.6      0.000      0.000
REMARK SMILES O=C(CSc1nnnn1-c1ccc(C(=O)OCCOCCOCCOCCOC(=O)c2ccc(-c3c4nc(c(-c5c(F)cc(S(=O)(=O)[O-])cc5F)c5ccc([nH]5)c(-c5c(F)cc(S(=O)(=O)[O-])cc5F)c5nc(c(-c6c(F)cc(S(=O)(=O)[O-])cc6F)c6ccc3[nH]6)C=C5)C=C4)cc2)cc1)Nc1nc(-c2ccccc2)cs1
REMARK SMILES IDX 20 1 19 2 18 3 17 4 16 5 14 6 15 7 13 8 10 9 11 10 98 11
REMARK SMILES IDX 12 12 97 13 9 14 5 15 6 16 7 17 8 18 4 19 3 20 2 21 1 22
REMARK SMILES IDX 99 23 100 25 101 26 110 27 102 28 109 29 103 30 104 31
REMARK SMILES IDX 108 32 105 33 107 34 106 35 21 36 22 37 23 38 24 39 25 40
REMARK SMILES IDX 26 41 27 42 28 43 29 44 30 45 31 46 32 47 96 48 33 49 95 50
REMARK SMILES IDX 34 51 35 52 36 53 89 54 37 55 94 56 88 57 90 58 38 59 93 60
REMARK SMILES IDX 87 61 86 62 39 64 73 65 52 66 72 67 53 68 56 69 71 70 91 71
REMARK SMILES IDX 54 72 55 73 70 75 92 76 57 77 40 78 41 79 50 80 42 81 43 82
REMARK SMILES IDX 49 83 51 84 44 85 45 86 46 87 47 88 48 89 74 90 75 91 84 92
REMARK SMILES IDX 76 93 77 94 83 95 85 96 78 97 79 98 80 99 81 100 82 101
REMARK SMILES IDX 58 102 59 103 68 104 60 105 61 106 67 107 69 108 62 109
REMARK SMILES IDX 63 110 64 111 65 112 66 113
REMARK H PARENT 99 24 90 63 56 74
REMARK Flexibility Score: inf
ROOT
ATOM      1  C   UNL A   1      31.850  26.470  21.866  1.00  0.00     0.188 C 
ENDROOT
BRANCH   1   2
ATOM      2  O   UNL A   1      32.053  25.724  23.062  1.00  0.00    -0.376 OA
BRANCH   2   3
ATOM      3  C   UNL A   1      31.025  24.728  23.304  1.00  0.00     0.202 C 
BRANCH   3   4
ATOM      4  C   UNL A   1      30.236  24.766  24.645  1.00  0.00     0.261 C 
BRANCH   4   5
ATOM      5  O   UNL A   1      30.941  24.195  25.755  1.00  0.00    -0.460 OA
BRANCH   5   6
ATOM      6  C   UNL A   1      31.905  24.942  26.328  1.00  0.00     0.338 C 
ATOM      7  O   UNL A   1      31.759  26.019  26.876  1.00  0.00    -0.246 OA
BRANCH   6   8
ATOM      8  C   UNL A   1      33.180  24.168  26.326  1.00  0.00     0.060 A 
ATOM      9  C   UNL A   1      35.395  22.548  26.008  1.00  0.00     0.069 A 
ATOM     10  C   UNL A   1      35.354  23.788  25.354  1.00  0.00     0.029 A 
ATOM     11  C   UNL A   1      34.511  22.269  27.041  1.00  0.00     0.029 A 
ATOM     12  C   UNL A   1      34.229  24.597  25.515  1.00  0.00     0.018 A 
ATOM     13  C   UNL A   1      33.376  23.050  27.152  1.00  0.00     0.018 A 
BRANCH   9  14
ATOM     14  N   UNL A   1      36.110  21.493  25.406  1.00  0.00    -0.187 N 
ATOM     15  C   UNL A   1      37.485  21.253  25.398  1.00  0.00     0.214 A 
ATOM     16  N   UNL A   1      37.690  20.054  24.901  1.00  0.00    -0.101 NA
ATOM     17  N   UNL A   1      36.452  19.524  24.644  1.00  0.00    -0.022 NA
ATOM     18  N   UNL A   1      35.490  20.364  24.990  1.00  0.00    -0.039 NA
BRANCH  15  19
ATOM     19  S   UNL A   1      38.772  22.289  25.976  1.00  0.00    -0.074 SA
BRANCH  19  20
ATOM     20  C   UNL A   1      40.088  21.146  26.544  1.00  0.00     0.178 C 
BRANCH  20  21
ATOM     21  C   UNL A   1      41.516  21.507  26.060  1.00  0.00     0.236 C 
ATOM     22  O   UNL A   1      42.265  20.603  25.695  1.00  0.00    -0.274 OA
ATOM     23  N   UNL A   1      41.845  22.841  26.117  1.00  0.00    -0.301 N 
ATOM     24  H   UNL A   1      41.105  23.484  26.204  1.00  0.00     0.172 HD
BRANCH  23  25
ATOM     25  C   UNL A   1      43.122  23.354  26.062  1.00  0.00     0.189 A 
ATOM     26  N   UNL A   1      43.828  24.073  26.904  1.00  0.00    -0.220 NA
ATOM     27  S   UNL A   1      43.818  23.113  24.513  1.00  0.00    -0.105 S 
ATOM     28  C   UNL A   1      45.004  24.511  26.275  1.00  0.00     0.084 A 
ATOM     29  C   UNL A   1      45.121  24.133  24.950  1.00  0.00     0.097 A 
BRANCH  28  30
ATOM     30  C   UNL A   1      45.951  25.455  26.870  1.00  0.00     0.001 A 
ATOM     31  C   UNL A   1      46.075  26.787  26.489  1.00  0.00     0.010 A 
ATOM     32  C   UNL A   1      46.754  25.017  27.919  1.00  0.00     0.010 A 
ATOM     33  C   UNL A   1      46.985  27.634  27.157  1.00  0.00     0.001 A 
ATOM     34  C   UNL A   1      47.676  25.836  28.571  1.00  0.00     0.001 A 
ATOM     35  C   UNL A   1      47.786  27.159  28.196  1.00  0.00     0.000 A 
ENDBRANCH  28  30
ENDBRANCH  23  25
ENDBRANCH  20  21
ENDBRANCH  19  20
ENDBRANCH  15  19
ENDBRANCH   9  14
ENDBRANCH   6   8
ENDBRANCH   5   6
ENDBRANCH   4   5
ENDBRANCH   3   4
ENDBRANCH   2   3
ENDBRANCH   1   2
BRANCH   1  36
ATOM     36  C   UNL A   1      31.396  27.919  21.987  1.00  0.00     0.188 C 
BRANCH  36  37
ATOM     37  O   UNL A   1      30.375  28.008  22.960  1.00  0.00    -0.377 OA
BRANCH  37  38
ATOM     38  C   UNL A   1      30.528  29.024  23.939  1.00  0.00     0.188 C 
BRANCH  38  39
ATOM     39  C   UNL A   1      31.944  29.306  24.487  1.00  0.00     0.188 C 
BRANCH  39  40
ATOM     40  O   UNL A   1      32.258  30.065  25.648  1.00  0.00    -0.376 OA
BRANCH  40  41
ATOM     41  C   UNL A   1      33.164  29.690  26.663  1.00  0.00     0.202 C 
BRANCH  41  42
ATOM     42  C   UNL A   1      33.545  30.781  27.672  1.00  0.00     0.261 C 
BRANCH  42  43
ATOM     43  O   UNL A   1      34.766  31.424  27.363  1.00  0.00    -0.460 OA
BRANCH  43  44
ATOM     44  C   UNL A   1      35.860  30.842  27.910  1.00  0.00     0.338 C 
ATOM     45  O   UNL A   1      36.642  30.086  27.366  1.00  0.00    -0.246 OA
BRANCH  44  46
ATOM     46  C   UNL A   1      35.913  31.221  29.331  1.00  0.00     0.060 A 
ATOM     47  C   UNL A   1      35.875  32.590  29.585  1.00  0.00     0.016 A 
ATOM     48  C   UNL A   1      36.346  30.286  30.289  1.00  0.00     0.016 A 
ATOM     49  C   UNL A   1      36.630  33.045  30.633  1.00  0.00     0.010 A 
ATOM     50  C   UNL A   1      37.078  30.738  31.348  1.00  0.00     0.010 A 
ATOM     51  C   UNL A   1      37.333  32.099  31.385  1.00  0.00    -0.014 A 
BRANCH  51  52
ATOM     52  C   UNL A   1      38.488  32.564  32.103  1.00  0.00     0.031 A 
ATOM     53  C   UNL A   1      39.521  33.112  31.224  1.00  0.00     0.074 A 
ATOM     54  C   UNL A   1      38.537  32.512  33.446  1.00  0.00     0.049 A 
ATOM     55  N   UNL A   1      40.592  32.525  30.818  1.00  0.00    -0.248 NA
ATOM     56  C   UNL A   1      39.205  34.368  30.531  1.00  0.00     0.031 C 
ATOM     57  C   UNL A   1      37.446  32.267  34.396  1.00  0.00     0.029 A 
ATOM     58  N   UNL A   1      39.594  32.762  34.252  1.00  0.00    -0.354 N 
ATOM     59  C   UNL A   1      41.221  33.464  30.018  1.00  0.00     0.074 A 
ATOM     60  C   UNL A   1      40.218  34.434  29.667  1.00  0.00     0.031 C 
ATOM     61  C   UNL A   1      37.861  32.603  35.639  1.00  0.00     0.029 A 
ATOM     62  C   UNL A   1      39.270  32.953  35.586  1.00  0.00     0.049 A 
ATOM     63  H   UNL A   1      40.520  32.806  33.918  1.00  0.00     0.167 HD
ATOM     64  C   UNL A   1      42.576  33.545  29.975  1.00  0.00     0.037 A 
ATOM     65  C   UNL A   1      40.105  33.463  36.526  1.00  0.00     0.037 A 
ATOM     66  C   UNL A   1      43.192  32.348  30.498  1.00  0.00     0.049 A 
ATOM     67  C   UNL A   1      41.495  33.300  36.005  1.00  0.00     0.074 A 
ATOM     68  C   UNL A   1      43.119  31.006  30.171  1.00  0.00     0.029 A 
ATOM     69  N   UNL A   1      43.712  32.397  31.771  1.00  0.00    -0.354 N 
ATOM     70  N   UNL A   1      42.077  32.142  35.830  1.00  0.00    -0.248 NA
ATOM     71  C   UNL A   1      42.066  34.395  35.231  1.00  0.00     0.031 C 
ATOM     72  C   UNL A   1      43.169  30.311  31.415  1.00  0.00     0.029 A 
ATOM     73  C   UNL A   1      43.323  31.256  32.431  1.00  0.00     0.049 A 
ATOM     74  H   UNL A   1      44.265  33.121  32.143  1.00  0.00     0.167 HD
ATOM     75  C   UNL A   1      42.799  32.268  34.650  1.00  0.00     0.074 A 
ATOM     76  C   UNL A   1      42.826  33.702  34.377  1.00  0.00     0.031 C 
ATOM     77  C   UNL A   1      43.056  31.186  33.855  1.00  0.00     0.037 A 
BRANCH  64  78
ATOM     78  C   UNL A   1      43.311  34.850  29.822  1.00  0.00     0.058 A 
ATOM     79  C   UNL A   1      43.252  35.796  30.860  1.00  0.00     0.135 A 
ATOM     80  C   UNL A   1      43.860  35.312  28.602  1.00  0.00     0.135 A 
ATOM     81  F   UNL A   1      42.730  35.468  32.052  1.00  0.00    -0.206 F 
ATOM     82  C   UNL A   1      43.655  37.118  30.680  1.00  0.00     0.059 A 
ATOM     83  C   UNL A   1      44.330  36.603  28.423  1.00  0.00     0.059 A 
ATOM     84  F   UNL A   1      43.877  34.572  27.487  1.00  0.00    -0.206 F 
ATOM     85  C   UNL A   1      44.181  37.513  29.453  1.00  0.00     0.060 A 
BRANCH  85  86
ATOM     86  S   UNL A   1      44.593  39.240  29.172  1.00  0.00     0.124 S 
ATOM     87  O   UNL A   1      45.979  39.279  29.619  1.00  0.00    -0.237 OA
ATOM     88  O   UNL A   1      44.375  39.373  27.736  1.00  0.00    -0.237 OA
ATOM     89  O   UNL A   1      43.636  39.953  30.014  1.00  0.00    -0.744 OA
ENDBRANCH  85  86
ENDBRANCH  64  78
BRANCH  65  90
ATOM     90  C   UNL A   1      39.752  34.412  37.615  1.00  0.00     0.058 A 
ATOM     91  C   UNL A   1      39.780  34.010  38.962  1.00  0.00     0.135 A 
ATOM     92  C   UNL A   1      39.642  35.799  37.385  1.00  0.00     0.135 A 
ATOM     93  F   UNL A   1      39.907  32.712  39.276  1.00  0.00    -0.206 F 
ATOM     94  C   UNL A   1      39.749  34.931  40.016  1.00  0.00     0.059 A 
ATOM     95  C   UNL A   1      39.594  36.734  38.417  1.00  0.00     0.059 A 
ATOM     96  F   UNL A   1      39.670  36.304  36.143  1.00  0.00    -0.206 F 
ATOM     97  C   UNL A   1      39.676  36.295  39.731  1.00  0.00     0.060 A 
BRANCH  97  98
ATOM     98  S   UNL A   1      39.812  37.496  41.076  1.00  0.00     0.124 S 
ATOM     99  O   UNL A   1      41.241  37.787  41.076  1.00  0.00    -0.237 OA
ATOM    100  O   UNL A   1      38.940  38.572  40.616  1.00  0.00    -0.237 OA
ATOM    101  O   UNL A   1      39.325  36.759  42.239  1.00  0.00    -0.744 OA
ENDBRANCH  97  98
ENDBRANCH  65  90
BRANCH  77 102
ATOM    102  C   UNL A   1      42.818  29.812  34.430  1.00  0.00     0.058 A 
ATOM    103  C   UNL A   1      43.737  29.120  35.241  1.00  0.00     0.135 A 
ATOM    104  C   UNL A   1      41.546  29.239  34.278  1.00  0.00     0.135 A 
ATOM    105  F   UNL A   1      44.936  29.648  35.524  1.00  0.00    -0.206 F 
ATOM    106  C   UNL A   1      43.419  27.898  35.838  1.00  0.00     0.059 A 
ATOM    107  C   UNL A   1      41.196  28.037  34.890  1.00  0.00     0.059 A 
ATOM    108  F   UNL A   1      40.601  29.879  33.569  1.00  0.00    -0.206 F 
ATOM    109  C   UNL A   1      42.144  27.364  35.659  1.00  0.00     0.060 A 
BRANCH 109 110
ATOM    110  S   UNL A   1      41.705  25.825  36.498  1.00  0.00     0.124 S 
ATOM    111  O   UNL A   1      43.002  25.175  36.646  1.00  0.00    -0.237 OA
ATOM    112  O   UNL A   1      41.089  26.303  37.734  1.00  0.00    -0.237 OA
ATOM    113  O   UNL A   1      40.784  25.179  35.566  1.00  0.00    -0.744 OA
ENDBRANCH 109 110
ENDBRANCH  77 102
ENDBRANCH  51  52
ENDBRANCH  44  46
ENDBRANCH  43  44
ENDBRANCH  42  43
ENDBRANCH  41  42
ENDBRANCH  40  41
ENDBRANCH  39  40
ENDBRANCH  38  39
ENDBRANCH  37  38
ENDBRANCH  36  37
ENDBRANCH   1  36
TORSDOF 29
ENDMDL
MODEL 2
REMARK VINA RESULT:      -9.4      5.013     12.390
REMARK SMILES O=C(CSc1nnnn1-c1ccc(C(=O)OCCOCCOCCOCCOC(=O)c2ccc(-c3c4nc(c(-c5c(F)cc(S(=O)(=O)[O-])cc5F)c5ccc([nH]5)c(-c5c(F)cc(S(=O)(=O)[O-])cc5F)c5nc(c(-c6c(F)cc(S(=O)(=O)[O-])cc6F)c6ccc3[nH]6)C=C5)C=C4)cc2)cc1)Nc1nc(-c2ccccc2)cs1
REMARK SMILES IDX 20 1 19 2 18 3 17 4 16 5 14 6 15 7 13 8 10 9 11 10 98 11
REMARK SMILES IDX 12 12 97 13 9 14 5 15 6 16 7 17 8 18 4 19 3 20 2 21 1 22
REMARK SMILES IDX 99 23 100 25 101 26 110 27 102 28 109 29 103 30 104 31
REMARK SMILES IDX 108 32 105 33 107 34 106 35 21 36 22 37 23 38 24 39 25 40
REMARK SMILES IDX 26 41 27 42 28 43 29 44 30 45 31 46 32 47 96 48 33 49 95 50
REMARK SMILES IDX 34 51 35 52 36 53 89 54 37 55 94 56 88 57 90 58 38 59 93 60
REMARK SMILES IDX 87 61 86 62 39 64 73 65 52 66 72 67 53 68 56 69 71 70 91 71
REMARK SMILES IDX 54 72 55 73 70 75 92 76 57 77 40 78 41 79 50 80 42 81 43 82
REMARK SMILES IDX 49 83 51 84 44 85 45 86 46 87 47 88 48 89 74 90 75 91 84 92
REMARK SMILES IDX 76 93 77 94 83 95 85 96 78 97 79 98 80 99 81 100 82 101
REMARK SMILES IDX 58 102 59 103 68 104 60 105 61 106 67 107 69 108 62 109
REMARK SMILES IDX 63 110 64 111 65 112 66 113
REMARK H PARENT 99 24 90 63 56 74
REMARK Flexibility Score: inf
ROOT
ATOM      1  C   UNL A   1      40.287  27.183  28.821  1.00  0.00     0.188 C 
ENDROOT
BRANCH   1   2
ATOM      2  O   UNL A   1      39.550  28.321  29.258  1.00  0.00    -0.376 OA
BRANCH   2   3
ATOM      3  C   UNL A   1      38.504  28.001  30.213  1.00  0.00     0.202 C 
BRANCH   3   4
ATOM      4  C   UNL A   1      37.272  28.945  30.329  1.00  0.00     0.261 C 
BRANCH   4   5
ATOM      5  O   UNL A   1      37.426  29.992  31.296  1.00  0.00    -0.460 OA
BRANCH   5   6
ATOM      6  C   UNL A   1      37.785  31.209  30.842  1.00  0.00     0.338 C 
ATOM      7  O   UNL A   1      38.859  31.757  31.006  1.00  0.00    -0.246 OA
BRANCH   6   8
ATOM      8  C   UNL A   1      36.701  31.733  29.961  1.00  0.00     0.060 A 
ATOM      9  C   UNL A   1      34.553  32.335  28.333  1.00  0.00     0.069 A 
ATOM     10  C   UNL A   1      34.413  32.455  29.723  1.00  0.00     0.029 A 
ATOM     11  C   UNL A   1      35.812  32.234  27.759  1.00  0.00     0.029 A 
ATOM     12  C   UNL A   1      35.501  32.142  30.539  1.00  0.00     0.018 A 
ATOM     13  C   UNL A   1      36.869  31.873  28.574  1.00  0.00     0.018 A 
BRANCH   9  14
ATOM     14  N   UNL A   1      33.416  32.001  27.568  1.00  0.00    -0.187 N 
ATOM     15  C   UNL A   1      33.033  30.762  27.055  1.00  0.00     0.214 A 
ATOM     16  N   UNL A   1      31.809  30.870  26.589  1.00  0.00    -0.101 NA
ATOM     17  N   UNL A   1      31.406  32.154  26.852  1.00  0.00    -0.022 NA
ATOM     18  N   UNL A   1      32.350  32.832  27.486  1.00  0.00    -0.039 NA
BRANCH  15  19
ATOM     19  S   UNL A   1      33.940  29.264  27.040  1.00  0.00    -0.074 SA
BRANCH  19  20
ATOM     20  C   UNL A   1      32.866  28.062  26.167  1.00  0.00     0.178 C 
BRANCH  20  21
ATOM     21  C   UNL A   1      33.625  26.933  25.425  1.00  0.00     0.236 C 
ATOM     22  O   UNL A   1      34.012  27.133  24.275  1.00  0.00    -0.274 OA
ATOM     23  N   UNL A   1      33.771  25.756  26.121  1.00  0.00    -0.301 N 
ATOM     24  H   UNL A   1      33.628  25.788  27.095  1.00  0.00     0.172 HD
BRANCH  23  25
ATOM     25  C   UNL A   1      34.100  24.536  25.573  1.00  0.00     0.189 A 
ATOM     26  N   UNL A   1      33.373  23.545  25.108  1.00  0.00    -0.220 NA
ATOM     27  S   UNL A   1      35.785  24.241  25.690  1.00  0.00    -0.105 S 
ATOM     28  C   UNL A   1      34.198  22.438  24.855  1.00  0.00     0.084 A 
ATOM     29  C   UNL A   1      35.529  22.627  25.181  1.00  0.00     0.097 A 
BRANCH  28  30
ATOM     30  C   UNL A   1      33.703  21.116  24.470  1.00  0.00     0.001 A 
ATOM     31  C   UNL A   1      32.528  20.894  23.760  1.00  0.00     0.010 A 
ATOM     32  C   UNL A   1      34.474  20.002  24.787  1.00  0.00     0.010 A 
ATOM     33  C   UNL A   1      32.158  19.583  23.392  1.00  0.00     0.001 A 
ATOM     34  C   UNL A   1      34.108  18.697  24.452  1.00  0.00     0.001 A 
ATOM     35  C   UNL A   1      32.947  18.485  23.738  1.00  0.00     0.000 A 
ENDBRANCH  28  30
ENDBRANCH  23  25
ENDBRANCH  20  21
ENDBRANCH  19  20
ENDBRANCH  15  19
ENDBRANCH   9  14
ENDBRANCH   6   8
ENDBRANCH   5   6
ENDBRANCH   4   5
ENDBRANCH   3   4
ENDBRANCH   2   3
ENDBRANCH   1   2
BRANCH   1  36
ATOM     36  C   UNL A   1      39.809  26.448  27.575  1.00  0.00     0.188 C 
BRANCH  36  37
ATOM     37  O   UNL A   1      39.044  25.325  27.961  1.00  0.00    -0.377 OA
BRANCH  37  38
ATOM     38  C   UNL A   1      39.505  24.064  27.498  1.00  0.00     0.188 C 
BRANCH  38  39
ATOM     39  C   UNL A   1      40.735  24.031  26.566  1.00  0.00     0.188 C 
BRANCH  39  40
ATOM     40  O   UNL A   1      42.075  23.754  26.956  1.00  0.00    -0.376 OA
BRANCH  40  41
ATOM     41  C   UNL A   1      42.581  22.495  27.343  1.00  0.00     0.202 C 
BRANCH  41  42
ATOM     42  C   UNL A   1      43.043  21.570  26.209  1.00  0.00     0.261 C 
BRANCH  42  43
ATOM     43  O   UNL A   1      44.367  21.827  25.784  1.00  0.00    -0.460 OA
BRANCH  43  44
ATOM     44  C   UNL A   1      44.458  22.529  24.628  1.00  0.00     0.338 C 
ATOM     45  O   UNL A   1      43.979  22.239  23.550  1.00  0.00    -0.246 OA
BRANCH  44  46
ATOM     46  C   UNL A   1      45.319  23.697  24.875  1.00  0.00     0.060 A 
ATOM     47  C   UNL A   1      46.624  23.406  25.264  1.00  0.00     0.016 A 
ATOM     48  C   UNL A   1      44.738  24.965  25.062  1.00  0.00     0.016 A 
ATOM     49  C   UNL A   1      47.197  24.247  26.180  1.00  0.00     0.010 A 
ATOM     50  C   UNL A   1      45.321  25.816  25.957  1.00  0.00     0.010 A 
ATOM     51  C   UNL A   1      46.449  25.347  26.609  1.00  0.00    -0.014 A 
BRANCH  51  52
ATOM     52  C   UNL A   1      46.785  25.905  27.891  1.00  0.00     0.031 A 
ATOM     53  C   UNL A   1      45.608  26.225  28.698  1.00  0.00     0.074 A 
ATOM     54  C   UNL A   1      48.068  26.054  28.266  1.00  0.00     0.049 A 
ATOM     55  N   UNL A   1      45.066  27.381  28.863  1.00  0.00    -0.248 NA
ATOM     56  C   UNL A   1      44.808  25.093  29.183  1.00  0.00     0.031 C 
ATOM     57  C   UNL A   1      49.276  25.487  27.657  1.00  0.00     0.029 A 
ATOM     58  N   UNL A   1      48.548  26.694  29.358  1.00  0.00    -0.354 N 
ATOM     59  C   UNL A   1      43.994  27.144  29.706  1.00  0.00     0.074 A 
ATOM     60  C   UNL A   1      43.731  25.731  29.642  1.00  0.00     0.031 C 
ATOM     61  C   UNL A   1      50.311  25.628  28.516  1.00  0.00     0.029 A 
ATOM     62  C   UNL A   1      49.869  26.404  29.661  1.00  0.00     0.049 A 
ATOM     63  H   UNL A   1      48.002  27.314  29.894  1.00  0.00     0.167 HD
ATOM     64  C   UNL A   1      43.619  28.068  30.630  1.00  0.00     0.037 A 
ATOM     65  C   UNL A   1      50.486  26.713  30.830  1.00  0.00     0.037 A 
ATOM     66  C   UNL A   1      44.176  29.367  30.332  1.00  0.00     0.049 A 
ATOM     67  C   UNL A   1      49.686  27.801  31.468  1.00  0.00     0.074 A 
ATOM     68  C   UNL A   1      44.106  30.218  29.243  1.00  0.00     0.029 A 
ATOM     69  N   UNL A   1      45.263  29.782  31.065  1.00  0.00    -0.354 N 
ATOM     70  N   UNL A   1      49.577  29.008  30.977  1.00  0.00    -0.248 NA
ATOM     71  C   UNL A   1      48.627  27.417  32.392  1.00  0.00     0.031 C 
ATOM     72  C   UNL A   1      45.402  30.803  29.139  1.00  0.00     0.029 A 
ATOM     73  C   UNL A   1      46.179  30.323  30.194  1.00  0.00     0.049 A 
ATOM     74  H   UNL A   1      45.367  29.707  32.041  1.00  0.00     0.167 HD
ATOM     75  C   UNL A   1      48.255  29.376  31.200  1.00  0.00     0.074 A 
ATOM     76  C   UNL A   1      47.747  28.394  32.153  1.00  0.00     0.031 C 
ATOM     77  C   UNL A   1      47.616  30.260  30.376  1.00  0.00     0.037 A 
BRANCH  64  78
ATOM     78  C   UNL A   1      43.080  27.694  31.984  1.00  0.00     0.058 A 
ATOM     79  C   UNL A   1      41.926  28.338  32.464  1.00  0.00     0.135 A 
ATOM     80  C   UNL A   1      43.787  26.917  32.933  1.00  0.00     0.135 A 
ATOM     81  F   UNL A   1      41.193  29.117  31.653  1.00  0.00    -0.206 F 
ATOM     82  C   UNL A   1      41.537  28.262  33.801  1.00  0.00     0.059 A 
ATOM     83  C   UNL A   1      43.379  26.772  34.249  1.00  0.00     0.059 A 
ATOM     84  F   UNL A   1      44.964  26.341  32.665  1.00  0.00    -0.206 F 
ATOM     85  C   UNL A   1      42.279  27.485  34.687  1.00  0.00     0.060 A 
BRANCH  85  86
ATOM     86  S   UNL A   1      41.856  27.474  36.434  1.00  0.00     0.124 S 
ATOM     87  O   UNL A   1      41.423  28.851  36.632  1.00  0.00    -0.237 OA
ATOM     88  O   UNL A   1      40.811  26.457  36.485  1.00  0.00    -0.237 OA
ATOM     89  O   UNL A   1      43.114  27.106  37.080  1.00  0.00    -0.744 OA
ENDBRANCH  85  86
ENDBRANCH  64  78
BRANCH  65  90
ATOM     90  C   UNL A   1      51.452  25.867  31.581  1.00  0.00     0.058 A 
ATOM     91  C   UNL A   1      51.032  24.698  32.239  1.00  0.00     0.135 A 
ATOM     92  C   UNL A   1      52.846  26.035  31.446  1.00  0.00     0.135 A 
ATOM     93  F   UNL A   1      49.723  24.444  32.392  1.00  0.00    -0.206 F 
ATOM     94  C   UNL A   1      51.937  23.732  32.694  1.00  0.00     0.059 A 
ATOM     95  C   UNL A   1      53.767  25.094  31.903  1.00  0.00     0.059 A 
ATOM     96  F   UNL A   1      53.362  27.078  30.779  1.00  0.00    -0.206 F 
ATOM     97  C   UNL A   1      53.304  23.931  32.503  1.00  0.00     0.060 A 
BRANCH  97  98
ATOM     98  S   UNL A   1      54.466  22.613  32.927  1.00  0.00     0.124 S 
ATOM     99  O   UNL A   1      54.413  22.621  34.384  1.00  0.00    -0.237 OA
ATOM    100  O   UNL A   1      53.868  21.454  32.273  1.00  0.00    -0.237 OA
ATOM    101  O   UNL A   1      55.725  23.071  32.346  1.00  0.00    -0.744 OA
ENDBRANCH  97  98
ENDBRANCH  65  90
BRANCH  77 102
ATOM    102  C   UNL A   1      48.453  31.066  29.414  1.00  0.00     0.058 A 
ATOM    103  C   UNL A   1      49.102  32.271  29.742  1.00  0.00     0.135 A 
ATOM    104  C   UNL A   1      48.735  30.514  28.154  1.00  0.00     0.135 A 
ATOM    105  F   UNL A   1      48.972  32.811  30.963  1.00  0.00    -0.206 F 
ATOM    106  C   UNL A   1      49.956  32.917  28.845  1.00  0.00     0.059 A 
ATOM    107  C   UNL A   1      49.608  31.125  27.256  1.00  0.00     0.059 A 
ATOM    108  F   UNL A   1      48.199  29.334  27.803  1.00  0.00    -0.206 F 
ATOM    109  C   UNL A   1      50.205  32.334  27.603  1.00  0.00     0.060 A 
BRANCH 109 110
ATOM    110  S   UNL A   1      51.374  33.126  26.476  1.00  0.00     0.124 S 
ATOM    111  O   UNL A   1      50.847  32.747  25.170  1.00  0.00    -0.237 OA
ATOM    112  O   UNL A   1      51.246  34.538  26.826  1.00  0.00    -0.237 OA
ATOM    113  O   UNL A   1      52.655  32.521  26.832  1.00  0.00    -0.744 OA
ENDBRANCH 109 110
ENDBRANCH  77 102
ENDBRANCH  51  52
ENDBRANCH  44  46
ENDBRANCH  43  44
ENDBRANCH  42  43
ENDBRANCH  41  42
ENDBRANCH  40  41
ENDBRANCH  39  40
ENDBRANCH  38  39
ENDBRANCH  37  38
ENDBRANCH  36  37
ENDBRANCH   1  36
TORSDOF 29
ENDMDL
MODEL 3
REMARK VINA RESULT:      -8.9      2.755      7.490
REMARK SMILES O=C(CSc1nnnn1-c1ccc(C(=O)OCCOCCOCCOCCOC(=O)c2ccc(-c3c4nc(c(-c5c(F)cc(S(=O)(=O)[O-])cc5F)c5ccc([nH]5)c(-c5c(F)cc(S(=O)(=O)[O-])cc5F)c5nc(c(-c6c(F)cc(S(=O)(=O)[O-])cc6F)c6ccc3[nH]6)C=C5)C=C4)cc2)cc1)Nc1nc(-c2ccccc2)cs1
REMARK SMILES IDX 20 1 19 2 18 3 17 4 16 5 14 6 15 7 13 8 10 9 11 10 98 11
REMARK SMILES IDX 12 12 97 13 9 14 5 15 6 16 7 17 8 18 4 19 3 20 2 21 1 22
REMARK SMILES IDX 99 23 100 25 101 26 110 27 102 28 109 29 103 30 104 31
REMARK SMILES IDX 108 32 105 33 107 34 106 35 21 36 22 37 23 38 24 39 25 40
REMARK SMILES IDX 26 41 27 42 28 43 29 44 30 45 31 46 32 47 96 48 33 49 95 50
REMARK SMILES IDX 34 51 35 52 36 53 89 54 37 55 94 56 88 57 90 58 38 59 93 60
REMARK SMILES IDX 87 61 86 62 39 64 73 65 52 66 72 67 53 68 56 69 71 70 91 71
REMARK SMILES IDX 54 72 55 73 70 75 92 76 57 77 40 78 41 79 50 80 42 81 43 82
REMARK SMILES IDX 49 83 51 84 44 85 45 86 46 87 47 88 48 89 74 90 75 91 84 92
REMARK SMILES IDX 76 93 77 94 83 95 85 96 78 97 79 98 80 99 81 100 82 101
REMARK SMILES IDX 58 102 59 103 68 104 60 105 61 106 67 107 69 108 62 109
REMARK SMILES IDX 63 110 64 111 65 112 66 113
REMARK H PARENT 99 24 90 63 56 74
REMARK Flexibility Score: inf
ROOT
ATOM      1  C   UNL A   1      30.960  27.736  22.506  1.00  0.00     0.188 C 
ENDROOT
BRANCH   1   2
ATOM      2  O   UNL A   1      30.779  27.016  23.721  1.00  0.00    -0.376 OA
BRANCH   2   3
ATOM      3  C   UNL A   1      29.445  26.465  23.874  1.00  0.00     0.202 C 
BRANCH   3   4
ATOM      4  C   UNL A   1      28.981  25.987  25.281  1.00  0.00     0.261 C 
BRANCH   4   5
ATOM      5  O   UNL A   1      29.784  24.937  25.836  1.00  0.00    -0.460 OA
BRANCH   5   6
ATOM      6  C   UNL A   1      31.006  25.270  26.297  1.00  0.00     0.338 C 
ATOM      7  O   UNL A   1      31.297  26.268  26.929  1.00  0.00    -0.246 OA
BRANCH   6   8
ATOM      8  C   UNL A   1      31.941  24.135  26.044  1.00  0.00     0.060 A 
ATOM      9  C   UNL A   1      33.358  21.843  25.436  1.00  0.00     0.069 A 
ATOM     10  C   UNL A   1      33.238  22.851  24.468  1.00  0.00     0.029 A 
ATOM     11  C   UNL A   1      33.062  22.107  26.766  1.00  0.00     0.029 A 
ATOM     12  C   UNL A   1      32.516  24.002  24.781  1.00  0.00     0.018 A 
ATOM     13  C   UNL A   1      32.300  23.225  27.052  1.00  0.00     0.018 A 
BRANCH   9  14
ATOM     14  N   UNL A   1      33.469  20.505  25.005  1.00  0.00    -0.187 N 
ATOM     15  C   UNL A   1      34.615  19.732  24.821  1.00  0.00     0.214 A 
ATOM     16  N   UNL A   1      34.243  18.488  24.613  1.00  0.00    -0.101 NA
ATOM     17  N   UNL A   1      32.875  18.471  24.715  1.00  0.00    -0.022 NA
ATOM     18  N   UNL A   1      32.401  19.673  24.998  1.00  0.00    -0.039 NA
BRANCH  15  19
ATOM     19  S   UNL A   1      36.290  20.237  24.891  1.00  0.00    -0.074 SA
BRANCH  19  20
ATOM     20  C   UNL A   1      36.271  21.836  25.787  1.00  0.00     0.178 C 
BRANCH  20  21
ATOM     21  C   UNL A   1      37.583  22.656  25.681  1.00  0.00     0.236 C 
ATOM     22  O   UNL A   1      37.751  23.384  24.705  1.00  0.00    -0.274 OA
ATOM     23  N   UNL A   1      38.488  22.465  26.699  1.00  0.00    -0.301 N 
ATOM     24  H   UNL A   1      38.155  22.046  27.525  1.00  0.00     0.172 HD
BRANCH  23  25
ATOM     25  C   UNL A   1      39.821  22.809  26.660  1.00  0.00     0.189 A 
ATOM     26  N   UNL A   1      40.449  23.951  26.826  1.00  0.00    -0.220 NA
ATOM     27  S   UNL A   1      40.784  21.491  26.136  1.00  0.00    -0.105 S 
ATOM     28  C   UNL A   1      41.799  23.798  26.476  1.00  0.00     0.084 A 
ATOM     29  C   UNL A   1      42.133  22.537  26.014  1.00  0.00     0.097 A 
BRANCH  28  30
ATOM     30  C   UNL A   1      42.758  24.900  26.398  1.00  0.00     0.001 A 
ATOM     31  C   UNL A   1      43.124  25.541  25.219  1.00  0.00     0.010 A 
ATOM     32  C   UNL A   1      43.313  25.381  27.580  1.00  0.00     0.010 A 
ATOM     33  C   UNL A   1      44.022  26.629  25.251  1.00  0.00     0.001 A 
ATOM     34  C   UNL A   1      44.222  26.439  27.625  1.00  0.00     0.001 A 
ATOM     35  C   UNL A   1      44.571  27.078  26.453  1.00  0.00     0.000 A 
ENDBRANCH  28  30
ENDBRANCH  23  25
ENDBRANCH  20  21
ENDBRANCH  19  20
ENDBRANCH  15  19
ENDBRANCH   9  14
ENDBRANCH   6   8
ENDBRANCH   5   6
ENDBRANCH   4   5
ENDBRANCH   3   4
ENDBRANCH   2   3
ENDBRANCH   1   2
BRANCH   1  36
ATOM     36  C   UNL A   1      30.754  29.245  22.524  1.00  0.00     0.188 C 
BRANCH  36  37
ATOM     37  O   UNL A   1      29.744  29.567  23.459  1.00  0.00    -0.377 OA
BRANCH  37  38
ATOM     38  C   UNL A   1      30.122  30.436  24.516  1.00  0.00     0.188 C 
BRANCH  38  39
ATOM     39  C   UNL A   1      31.566  30.347  25.056  1.00  0.00     0.188 C 
BRANCH  39  40
ATOM     40  O   UNL A   1      32.186  29.191  25.606  1.00  0.00    -0.376 OA
BRANCH  40  41
ATOM     41  C   UNL A   1      33.470  28.705  25.281  1.00  0.00     0.202 C 
BRANCH  41  42
ATOM     42  C   UNL A   1      34.365  28.305  26.461  1.00  0.00     0.261 C 
BRANCH  42  43
ATOM     43  O   UNL A   1      34.077  29.019  27.647  1.00  0.00    -0.460 OA
BRANCH  43  44
ATOM     44  C   UNL A   1      34.668  30.236  27.725  1.00  0.00     0.338 C 
ATOM     45  O   UNL A   1      34.127  31.323  27.674  1.00  0.00    -0.246 OA
BRANCH  44  46
ATOM     46  C   UNL A   1      36.123  30.028  27.810  1.00  0.00     0.060 A 
ATOM     47  C   UNL A   1      36.522  28.763  28.231  1.00  0.00     0.016 A 
ATOM     48  C   UNL A   1      36.988  31.138  27.825  1.00  0.00     0.016 A 
ATOM     49  C   UNL A   1      37.636  28.698  29.025  1.00  0.00     0.010 A 
ATOM     50  C   UNL A   1      38.113  31.069  28.596  1.00  0.00     0.010 A 
ATOM     51  C   UNL A   1      38.304  29.894  29.303  1.00  0.00    -0.014 A 
BRANCH  51  52
ATOM     52  C   UNL A   1      39.104  29.932  30.497  1.00  0.00     0.031 A 
ATOM     53  C   UNL A   1      38.452  30.641  31.597  1.00  0.00     0.074 A 
ATOM     54  C   UNL A   1      40.303  29.322  30.547  1.00  0.00     0.049 A 
ATOM     55  N   UNL A   1      38.666  31.852  31.980  1.00  0.00    -0.248 NA
ATOM     56  C   UNL A   1      37.262  30.010  32.181  1.00  0.00     0.031 C 
ATOM     57  C   UNL A   1      40.880  28.351  29.611  1.00  0.00     0.029 A 
ATOM     58  N   UNL A   1      41.233  29.392  31.528  1.00  0.00    -0.354 N 
ATOM     59  C   UNL A   1      37.802  32.036  33.046  1.00  0.00     0.074 A 
ATOM     60  C   UNL A   1      36.805  31.004  32.943  1.00  0.00     0.031 C 
ATOM     61  C   UNL A   1      41.954  27.766  30.190  1.00  0.00     0.029 A 
ATOM     62  C   UNL A   1      42.211  28.413  31.465  1.00  0.00     0.049 A 
ATOM     63  H   UNL A   1      41.216  30.083  32.229  1.00  0.00     0.167 HD
ATOM     64  C   UNL A   1      38.157  32.815  34.101  1.00  0.00     0.037 A 
ATOM     65  C   UNL A   1      43.086  28.120  32.460  1.00  0.00     0.037 A 
ATOM     66  C   UNL A   1      39.271  33.673  33.772  1.00  0.00     0.049 A 
ATOM     67  C   UNL A   1      43.133  29.311  33.360  1.00  0.00     0.074 A 
ATOM     68  C   UNL A   1      39.491  34.636  32.804  1.00  0.00     0.029 A 
ATOM     69  N   UNL A   1      40.516  33.315  34.236  1.00  0.00    -0.354 N 
ATOM     70  N   UNL A   1      43.617  30.473  33.006  1.00  0.00    -0.248 NA
ATOM     71  C   UNL A   1      42.213  29.350  34.490  1.00  0.00     0.031 C 
ATOM     72  C   UNL A   1      40.855  34.481  32.420  1.00  0.00     0.029 A 
ATOM     73  C   UNL A   1      41.412  33.471  33.206  1.00  0.00     0.049 A 
ATOM     74  H   UNL A   1      40.727  33.004  35.146  1.00  0.00     0.167 HD
ATOM     75  C   UNL A   1      42.772  31.414  33.581  1.00  0.00     0.074 A 
ATOM     76  C   UNL A   1      41.983  30.665  34.554  1.00  0.00     0.031 C 
ATOM     77  C   UNL A   1      42.588  32.645  33.015  1.00  0.00     0.037 A 
BRANCH  64  78
ATOM     78  C   UNL A   1      37.743  32.509  35.516  1.00  0.00     0.058 A 
ATOM     79  C   UNL A   1      37.053  33.486  36.254  1.00  0.00     0.135 A 
ATOM     80  C   UNL A   1      38.214  31.399  36.258  1.00  0.00     0.135 A 
ATOM     81  F   UNL A   1      36.582  34.590  35.652  1.00  0.00    -0.206 F 
ATOM     82  C   UNL A   1      36.893  33.394  37.636  1.00  0.00     0.059 A 
ATOM     83  C   UNL A   1      38.006  31.255  37.620  1.00  0.00     0.059 A 
ATOM     84  F   UNL A   1      38.989  30.447  35.726  1.00  0.00    -0.206 F 
ATOM     85  C   UNL A   1      37.385  32.279  38.310  1.00  0.00     0.060 A 
BRANCH  85  86
ATOM     86  S   UNL A   1      37.290  32.206  40.103  1.00  0.00     0.124 S 
ATOM     87  O   UNL A   1      35.950  32.729  40.339  1.00  0.00    -0.237 OA
ATOM     88  O   UNL A   1      37.479  30.782  40.358  1.00  0.00    -0.237 OA
ATOM     89  O   UNL A   1      38.389  33.066  40.532  1.00  0.00    -0.744 OA
ENDBRANCH  85  86
ENDBRANCH  64  78
BRANCH  65  90
ATOM     90  C   UNL A   1      43.546  26.768  32.877  1.00  0.00     0.058 A 
ATOM     91  C   UNL A   1      44.779  26.257  32.436  1.00  0.00     0.135 A 
ATOM     92  C   UNL A   1      42.922  26.062  33.926  1.00  0.00     0.135 A 
ATOM     93  F   UNL A   1      45.456  26.878  31.458  1.00  0.00    -0.206 F 
ATOM     94  C   UNL A   1      45.378  25.140  33.030  1.00  0.00     0.059 A 
ATOM     95  C   UNL A   1      43.492  24.939  34.523  1.00  0.00     0.059 A 
ATOM     96  F   UNL A   1      41.776  26.493  34.472  1.00  0.00    -0.206 F 
ATOM     97  C   UNL A   1      44.734  24.499  34.088  1.00  0.00     0.060 A 
BRANCH  97  98
ATOM     98  S   UNL A   1      45.579  23.169  34.974  1.00  0.00     0.124 S 
ATOM     99  O   UNL A   1      46.954  23.327  34.515  1.00  0.00    -0.237 OA
ATOM    100  O   UNL A   1      45.326  23.518  36.368  1.00  0.00    -0.237 OA
ATOM    101  O   UNL A   1      44.899  21.964  34.505  1.00  0.00    -0.744 OA
ENDBRANCH  97  98
ENDBRANCH  65  90
BRANCH  77 102
ATOM    102  C   UNL A   1      43.549  33.080  31.936  1.00  0.00     0.058 A 
ATOM    103  C   UNL A   1      43.394  32.787  30.569  1.00  0.00     0.135 A 
ATOM    104  C   UNL A   1      44.587  33.959  32.285  1.00  0.00     0.135 A 
ATOM    105  F   UNL A   1      42.365  32.042  30.139  1.00  0.00    -0.206 F 
ATOM    106  C   UNL A   1      44.253  33.311  29.600  1.00  0.00     0.059 A 
ATOM    107  C   UNL A   1      45.436  34.517  31.332  1.00  0.00     0.059 A 
ATOM    108  F   UNL A   1      44.751  34.329  33.566  1.00  0.00    -0.206 F 
ATOM    109  C   UNL A   1      45.272  34.178  29.991  1.00  0.00     0.060 A 
BRANCH 109 110
ATOM    110  S   UNL A   1      46.332  34.921  28.730  1.00  0.00     0.124 S 
ATOM    111  O   UNL A   1      45.362  35.574  27.860  1.00  0.00    -0.237 OA
ATOM    112  O   UNL A   1      47.182  35.812  29.515  1.00  0.00    -0.237 OA
ATOM    113  O   UNL A   1      47.022  33.773  28.146  1.00  0.00    -0.744 OA
ENDBRANCH 109 110
ENDBRANCH  77 102
ENDBRANCH  51  52
ENDBRANCH  44  46
ENDBRANCH  43  44
ENDBRANCH  42  43
ENDBRANCH  41  42
ENDBRANCH  40  41
ENDBRANCH  39  40
ENDBRANCH  38  39
ENDBRANCH  37  38
ENDBRANCH  36  37
ENDBRANCH   1  36
TORSDOF 29
ENDMDL
