MODEL 1
REMARK VINA RESULT:      -6.5      0.000      0.000
REMARK SMILES CC(C)n1c2c(c3ccccc31)[C@@H](c1ccccc1)N(CC(=O)OCCOCCOCCOCCOC(=O)c1ccc(-c3c4nc(c(-c5c(F)cc(S(=O)(=O)[O-])cc5F)c5ccc([nH]5)c(-c5c(F)cc(S(=O)(=O)[O-])cc5F)c5nc(c(-c6c(F)cc(S(=O)(=O)[O-])cc6F)c6ccc3[nH]6)C=C5)C=C4)cc1)C2=O
REMARK SMILES IDX 31 1 30 2 29 3 28 4 27 5 26 6 25 7 24 8 22 9 23 10 21 11
REMARK SMILES IDX 20 12 4 13 5 14 12 15 6 16 105 17 7 18 11 19 13 20 106 21
REMARK SMILES IDX 8 22 10 23 9 24 2 25 1 26 3 27 14 28 15 29 19 30 16 31 18 32
REMARK SMILES IDX 17 33 32 34 33 35 34 36 35 37 36 38 37 39 38 40 39 41 40 42
REMARK SMILES IDX 104 43 41 44 103 45 42 46 43 47 44 48 97 49 45 50 102 51
REMARK SMILES IDX 96 52 98 53 46 54 101 55 95 56 94 57 47 59 81 60 60 61 80 62
REMARK SMILES IDX 61 63 64 64 79 65 99 66 62 67 63 68 78 70 100 71 65 72 48 73
REMARK SMILES IDX 49 74 58 75 50 76 51 77 57 78 59 79 52 80 53 81 54 82 55 83
REMARK SMILES IDX 56 84 82 85 83 86 92 87 84 88 85 89 91 90 93 91 86 92 87 93
REMARK SMILES IDX 88 94 89 95 90 96 66 97 67 98 76 99 68 100 69 101 75 102
REMARK SMILES IDX 77 103 70 104 71 105 72 106 73 107 74 108
REMARK H PARENT 98 58 64 69
REMARK Flexibility Score: inf
ROOT
ATOM      1  C   UNL A   1      37.308  33.464  35.907  1.00  0.00     0.188 C 
ENDROOT
BRANCH   1   2
ATOM      2  O   UNL A   1      37.150  32.330  36.738  1.00  0.00    -0.377 OA
BRANCH   2   3
ATOM      3  C   UNL A   1      38.132  31.329  36.788  1.00  0.00     0.188 C 
BRANCH   3   4
ATOM      4  C   UNL A   1      38.857  31.074  35.475  1.00  0.00     0.188 C 
BRANCH   4   5
ATOM      5  O   UNL A   1      40.219  31.431  35.386  1.00  0.00    -0.376 OA
BRANCH   5   6
ATOM      6  C   UNL A   1      40.783  31.793  34.123  1.00  0.00     0.202 C 
BRANCH   6   7
ATOM      7  C   UNL A   1      42.257  32.228  33.942  1.00  0.00     0.261 C 
BRANCH   7   8
ATOM      8  O   UNL A   1      42.546  33.638  34.163  1.00  0.00    -0.462 OA
BRANCH   8   9
ATOM      9  C   UNL A   1      43.731  34.096  33.696  1.00  0.00     0.325 C 
ATOM     10  O   UNL A   1      44.341  35.042  34.198  1.00  0.00    -0.250 OA
BRANCH   9  11
ATOM     11  C   UNL A   1      44.345  33.368  32.477  1.00  0.00     0.243 C 
BRANCH  11  12
ATOM     12  N   UNL A   1      44.325  33.762  31.066  1.00  0.00    -0.315 N 
ATOM     13  N   UNL A   1      42.959  35.160  28.057  1.00  0.00    -0.334 N 
ATOM     14  C   UNL A   1      43.542  34.638  29.165  1.00  0.00     0.114 A 
ATOM     15  C   UNL A   1      43.612  34.622  26.948  1.00  0.00     0.049 A 
ATOM     16  C   UNL A   1      44.709  34.016  28.822  1.00  0.00     0.018 A 
ATOM     17  C   UNL A   1      43.261  34.518  30.560  1.00  0.00     0.272 C 
ATOM     18  C   UNL A   1      44.785  33.998  27.411  1.00  0.00     0.006 A 
ATOM     19  C   UNL A   1      43.263  34.617  25.586  1.00  0.00     0.027 A 
ATOM     20  C   UNL A   1      45.363  33.424  30.033  1.00  0.00     0.150 C 
ATOM     21  O   UNL A   1      42.310  34.961  31.170  1.00  0.00    -0.267 OA
ATOM     22  C   UNL A   1      45.684  33.475  26.464  1.00  0.00     0.011 A 
ATOM     23  C   UNL A   1      44.122  33.982  24.685  1.00  0.00     0.002 A 
ATOM     24  C   UNL A   1      45.330  33.442  25.111  1.00  0.00     0.001 A 
BRANCH  13  25
ATOM     25  C   UNL A   1      41.853  36.110  28.002  1.00  0.00     0.082 C 
ATOM     26  C   UNL A   1      40.565  35.515  28.554  1.00  0.00     0.031 C 
ATOM     27  C   UNL A   1      42.197  37.460  28.638  1.00  0.00     0.031 C 
ENDBRANCH  13  25
BRANCH  20  28
ATOM     28  C   UNL A   1      46.771  33.992  30.230  1.00  0.00    -0.021 A 
ATOM     29  C   UNL A   1      47.812  33.115  30.605  1.00  0.00     0.006 A 
ATOM     30  C   UNL A   1      47.158  35.314  29.937  1.00  0.00     0.006 A 
ATOM     31  C   UNL A   1      49.151  33.517  30.669  1.00  0.00     0.000 A 
ATOM     32  C   UNL A   1      48.503  35.717  29.980  1.00  0.00     0.000 A 
ATOM     33  C   UNL A   1      49.499  34.818  30.343  1.00  0.00     0.000 A 
ENDBRANCH  20  28
ENDBRANCH  11  12
ENDBRANCH   9  11
ENDBRANCH   8   9
ENDBRANCH   7   8
ENDBRANCH   6   7
ENDBRANCH   5   6
ENDBRANCH   4   5
ENDBRANCH   3   4
ENDBRANCH   2   3
ENDBRANCH   1   2
BRANCH   1  34
ATOM     34  C   UNL A   1      36.964  33.342  34.421  1.00  0.00     0.188 C 
BRANCH  34  35
ATOM     35  O   UNL A   1      36.602  34.597  33.857  1.00  0.00    -0.376 OA
BRANCH  35  36
ATOM     36  C   UNL A   1      36.306  34.663  32.469  1.00  0.00     0.202 C 
BRANCH  36  37
ATOM     37  C   UNL A   1      37.395  34.292  31.454  1.00  0.00     0.261 C 
BRANCH  37  38
ATOM     38  O   UNL A   1      37.246  32.992  30.876  1.00  0.00    -0.460 OA
BRANCH  38  39
ATOM     39  C   UNL A   1      37.795  32.671  29.690  1.00  0.00     0.338 C 
ATOM     40  O   UNL A   1      37.602  33.201  28.614  1.00  0.00    -0.246 OA
BRANCH  39  41
ATOM     41  C   UNL A   1      38.939  31.805  30.070  1.00  0.00     0.060 A 
ATOM     42  C   UNL A   1      40.183  32.345  30.425  1.00  0.00     0.016 A 
ATOM     43  C   UNL A   1      38.823  30.453  29.722  1.00  0.00     0.016 A 
ATOM     44  C   UNL A   1      41.322  31.542  30.340  1.00  0.00     0.010 A 
ATOM     45  C   UNL A   1      39.967  29.670  29.596  1.00  0.00     0.010 A 
ATOM     46  C   UNL A   1      41.223  30.221  29.868  1.00  0.00    -0.014 A 
BRANCH  46  47
ATOM     47  C   UNL A   1      42.426  29.372  29.886  1.00  0.00     0.031 A 
ATOM     48  C   UNL A   1      42.845  29.005  31.269  1.00  0.00     0.074 A 
ATOM     49  C   UNL A   1      43.013  28.787  28.817  1.00  0.00     0.049 A 
ATOM     50  N   UNL A   1      43.978  29.213  31.855  1.00  0.00    -0.248 NA
ATOM     51  C   UNL A   1      41.810  28.428  32.145  1.00  0.00     0.031 C 
ATOM     52  C   UNL A   1      42.537  28.787  27.433  1.00  0.00     0.029 A 
ATOM     53  N   UNL A   1      44.115  27.969  28.756  1.00  0.00    -0.354 N 
ATOM     54  C   UNL A   1      43.863  28.613  33.107  1.00  0.00     0.074 A 
ATOM     55  C   UNL A   1      42.471  28.301  33.293  1.00  0.00     0.031 C 
ATOM     56  C   UNL A   1      43.224  27.868  26.719  1.00  0.00     0.029 A 
ATOM     57  C   UNL A   1      44.238  27.257  27.561  1.00  0.00     0.049 A 
ATOM     58  H   UNL A   1      44.763  27.890  29.494  1.00  0.00     0.167 HD
ATOM     59  C   UNL A   1      44.945  28.196  33.816  1.00  0.00     0.037 A 
ATOM     60  C   UNL A   1      45.044  26.191  27.299  1.00  0.00     0.037 A 
ATOM     61  C   UNL A   1      46.156  28.832  33.380  1.00  0.00     0.049 A 
ATOM     62  C   UNL A   1      46.123  26.179  28.320  1.00  0.00     0.074 A 
ATOM     63  C   UNL A   1      46.585  30.142  33.292  1.00  0.00     0.029 A 
ATOM     64  N   UNL A   1      47.035  28.100  32.621  1.00  0.00    -0.354 N 
ATOM     65  N   UNL A   1      47.074  27.066  28.399  1.00  0.00    -0.248 NA
ATOM     66  C   UNL A   1      45.906  25.386  29.519  1.00  0.00     0.031 C 
ATOM     67  C   UNL A   1      47.395  30.192  32.122  1.00  0.00     0.029 A 
ATOM     68  C   UNL A   1      47.449  28.903  31.591  1.00  0.00     0.049 A 
ATOM     69  H   UNL A   1      47.316  27.171  32.787  1.00  0.00     0.167 HD
ATOM     70  C   UNL A   1      47.274  27.244  29.760  1.00  0.00     0.074 A 
ATOM     71  C   UNL A   1      46.593  26.120  30.395  1.00  0.00     0.031 C 
ATOM     72  C   UNL A   1      47.738  28.425  30.257  1.00  0.00     0.037 A 
BRANCH  59  73
ATOM     73  C   UNL A   1      44.928  26.958  34.674  1.00  0.00     0.058 A 
ATOM     74  C   UNL A   1      45.312  27.030  36.025  1.00  0.00     0.135 A 
ATOM     75  C   UNL A   1      44.794  25.654  34.142  1.00  0.00     0.135 A 
ATOM     76  F   UNL A   1      45.502  28.219  36.617  1.00  0.00    -0.206 F 
ATOM     77  C   UNL A   1      45.579  25.888  36.782  1.00  0.00     0.059 A 
ATOM     78  C   UNL A   1      44.996  24.504  34.893  1.00  0.00     0.059 A 
ATOM     79  F   UNL A   1      44.556  25.437  32.840  1.00  0.00    -0.206 F 
ATOM     80  C   UNL A   1      45.425  24.630  36.203  1.00  0.00     0.060 A 
BRANCH  80  81
ATOM     81  S   UNL A   1      45.858  23.160  37.148  1.00  0.00     0.124 S 
ATOM     82  O   UNL A   1      47.315  23.212  37.112  1.00  0.00    -0.237 OA
ATOM     83  O   UNL A   1      45.238  23.438  38.439  1.00  0.00    -0.237 OA
ATOM     84  O   UNL A   1      45.243  22.078  36.385  1.00  0.00    -0.744 OA
ENDBRANCH  80  81
ENDBRANCH  59  73
BRANCH  60  85
ATOM     85  C   UNL A   1      44.773  24.998  26.437  1.00  0.00     0.058 A 
ATOM     86  C   UNL A   1      45.688  24.575  25.450  1.00  0.00     0.135 A 
ATOM     87  C   UNL A   1      43.755  24.076  26.756  1.00  0.00     0.135 A 
ATOM     88  F   UNL A   1      46.703  25.372  25.083  1.00  0.00    -0.206 F 
ATOM     89  C   UNL A   1      45.634  23.298  24.870  1.00  0.00     0.059 A 
ATOM     90  C   UNL A   1      43.672  22.809  26.181  1.00  0.00     0.059 A 
ATOM     91  F   UNL A   1      42.858  24.336  27.719  1.00  0.00    -0.206 F 
ATOM     92  C   UNL A   1      44.635  22.410  25.266  1.00  0.00     0.060 A 
BRANCH  92  93
ATOM     93  S   UNL A   1      44.680  20.693  24.697  1.00  0.00     0.124 S 
ATOM     94  O   UNL A   1      43.462  20.144  25.282  1.00  0.00    -0.237 OA
ATOM     95  O   UNL A   1      44.679  20.848  23.247  1.00  0.00    -0.237 OA
ATOM     96  O   UNL A   1      45.928  20.182  25.263  1.00  0.00    -0.744 OA
ENDBRANCH  92  93
ENDBRANCH  60  85
BRANCH  72  97
ATOM     97  C   UNL A   1      48.398  29.395  29.313  1.00  0.00     0.058 A 
ATOM     98  C   UNL A   1      47.724  30.221  28.397  1.00  0.00     0.135 A 
ATOM     99  C   UNL A   1      49.785  29.582  29.446  1.00  0.00     0.135 A 
ATOM    100  F   UNL A   1      46.387  30.180  28.279  1.00  0.00    -0.206 F 
ATOM    101  C   UNL A   1      48.407  31.160  27.618  1.00  0.00     0.059 A 
ATOM    102  C   UNL A   1      50.479  30.532  28.707  1.00  0.00     0.059 A 
ATOM    103  F   UNL A   1      50.477  28.860  30.343  1.00  0.00    -0.206 F 
ATOM    104  C   UNL A   1      49.784  31.309  27.783  1.00  0.00     0.060 A 
BRANCH 104 105
ATOM    105  S   UNL A   1      50.659  32.562  26.820  1.00  0.00     0.124 S 
ATOM    106  O   UNL A   1      51.903  32.709  27.567  1.00  0.00    -0.237 OA
ATOM    107  O   UNL A   1      50.774  31.927  25.511  1.00  0.00    -0.237 OA
ATOM    108  O   UNL A   1      49.764  33.717  26.867  1.00  0.00    -0.744 OA
ENDBRANCH 104 105
ENDBRANCH  72  97
ENDBRANCH  46  47
ENDBRANCH  39  41
ENDBRANCH  38  39
ENDBRANCH  37  38
ENDBRANCH  36  37
ENDBRANCH  35  36
ENDBRANCH  34  35
ENDBRANCH   1  34
TORSDOF 26
ENDMDL
MODEL 2
REMARK VINA RESULT:      -6.4      5.297     12.926
REMARK SMILES CC(C)n1c2c(c3ccccc31)[C@@H](c1ccccc1)N(CC(=O)OCCOCCOCCOCCOC(=O)c1ccc(-c3c4nc(c(-c5c(F)cc(S(=O)(=O)[O-])cc5F)c5ccc([nH]5)c(-c5c(F)cc(S(=O)(=O)[O-])cc5F)c5nc(c(-c6c(F)cc(S(=O)(=O)[O-])cc6F)c6ccc3[nH]6)C=C5)C=C4)cc1)C2=O
REMARK SMILES IDX 31 1 30 2 29 3 28 4 27 5 26 6 25 7 24 8 22 9 23 10 21 11
REMARK SMILES IDX 20 12 4 13 5 14 12 15 6 16 105 17 7 18 11 19 13 20 106 21
REMARK SMILES IDX 8 22 10 23 9 24 2 25 1 26 3 27 14 28 15 29 19 30 16 31 18 32
REMARK SMILES IDX 17 33 32 34 33 35 34 36 35 37 36 38 37 39 38 40 39 41 40 42
REMARK SMILES IDX 104 43 41 44 103 45 42 46 43 47 44 48 97 49 45 50 102 51
REMARK SMILES IDX 96 52 98 53 46 54 101 55 95 56 94 57 47 59 81 60 60 61 80 62
REMARK SMILES IDX 61 63 64 64 79 65 99 66 62 67 63 68 78 70 100 71 65 72 48 73
REMARK SMILES IDX 49 74 58 75 50 76 51 77 57 78 59 79 52 80 53 81 54 82 55 83
REMARK SMILES IDX 56 84 82 85 83 86 92 87 84 88 85 89 91 90 93 91 86 92 87 93
REMARK SMILES IDX 88 94 89 95 90 96 66 97 67 98 76 99 68 100 69 101 75 102
REMARK SMILES IDX 77 103 70 104 71 105 72 106 73 107 74 108
REMARK H PARENT 98 58 64 69
REMARK Flexibility Score: inf
ROOT
ATOM      1  C   UNL A   1      50.026  26.209  32.333  1.00  0.00     0.188 C 
ENDROOT
BRANCH   1   2
ATOM      2  O   UNL A   1      49.086  26.112  31.282  1.00  0.00    -0.377 OA
BRANCH   2   3
ATOM      3  C   UNL A   1      49.230  26.872  30.111  1.00  0.00     0.188 C 
BRANCH   3   4
ATOM      4  C   UNL A   1      48.181  26.610  29.042  1.00  0.00     0.188 C 
BRANCH   4   5
ATOM      5  O   UNL A   1      47.459  27.711  28.533  1.00  0.00    -0.376 OA
BRANCH   5   6
ATOM      6  C   UNL A   1      46.029  27.720  28.598  1.00  0.00     0.202 C 
BRANCH   6   7
ATOM      7  C   UNL A   1      45.175  26.436  28.722  1.00  0.00     0.261 C 
BRANCH   7   8
ATOM      8  O   UNL A   1      43.773  26.625  29.069  1.00  0.00    -0.462 OA
BRANCH   8   9
ATOM      9  C   UNL A   1      43.025  25.504  29.204  1.00  0.00     0.325 C 
ATOM     10  O   UNL A   1      43.416  24.491  29.787  1.00  0.00    -0.250 OA
BRANCH   9  11
ATOM     11  C   UNL A   1      41.601  25.524  28.604  1.00  0.00     0.243 C 
BRANCH  11  12
ATOM     12  N   UNL A   1      40.947  24.523  27.754  1.00  0.00    -0.315 N 
ATOM     13  N   UNL A   1      38.274  23.039  25.879  1.00  0.00    -0.334 N 
ATOM     14  C   UNL A   1      39.331  23.559  26.550  1.00  0.00     0.114 A 
ATOM     15  C   UNL A   1      38.498  21.669  25.740  1.00  0.00     0.049 A 
ATOM     16  C   UNL A   1      40.343  22.641  26.598  1.00  0.00     0.018 A 
ATOM     17  C   UNL A   1      39.663  24.759  27.249  1.00  0.00     0.272 C 
ATOM     18  C   UNL A   1      39.842  21.425  26.080  1.00  0.00     0.006 A 
ATOM     19  C   UNL A   1      37.633  20.627  25.364  1.00  0.00     0.027 A 
ATOM     20  C   UNL A   1      41.516  23.194  27.346  1.00  0.00     0.150 C 
ATOM     21  O   UNL A   1      38.984  25.755  27.385  1.00  0.00    -0.267 OA
ATOM     22  C   UNL A   1      40.351  20.125  25.909  1.00  0.00     0.011 A 
ATOM     23  C   UNL A   1      38.142  19.327  25.320  1.00  0.00     0.002 A 
ATOM     24  C   UNL A   1      39.489  19.080  25.561  1.00  0.00     0.001 A 
BRANCH  13  25
ATOM     25  C   UNL A   1      37.104  23.753  25.379  1.00  0.00     0.082 C 
ATOM     26  C   UNL A   1      36.780  23.377  23.940  1.00  0.00     0.031 C 
ATOM     27  C   UNL A   1      35.891  23.630  26.307  1.00  0.00     0.031 C 
ENDBRANCH  13  25
BRANCH  20  28
ATOM     28  C   UNL A   1      42.772  23.200  26.470  1.00  0.00    -0.021 A 
ATOM     29  C   UNL A   1      43.660  22.105  26.546  1.00  0.00     0.006 A 
ATOM     30  C   UNL A   1      43.062  24.156  25.478  1.00  0.00     0.006 A 
ATOM     31  C   UNL A   1      44.753  21.958  25.684  1.00  0.00     0.000 A 
ATOM     32  C   UNL A   1      44.145  24.003  24.598  1.00  0.00     0.000 A 
ATOM     33  C   UNL A   1      44.988  22.903  24.699  1.00  0.00     0.000 A 
ENDBRANCH  20  28
ENDBRANCH  11  12
ENDBRANCH   9  11
ENDBRANCH   8   9
ENDBRANCH   7   8
ENDBRANCH   6   7
ENDBRANCH   5   6
ENDBRANCH   4   5
ENDBRANCH   3   4
ENDBRANCH   2   3
ENDBRANCH   1   2
BRANCH   1  34
ATOM     34  C   UNL A   1      49.561  25.942  33.766  1.00  0.00     0.188 C 
BRANCH  34  35
ATOM     35  O   UNL A   1      48.178  25.612  33.821  1.00  0.00    -0.376 OA
BRANCH  35  36
ATOM     36  C   UNL A   1      47.628  25.176  35.057  1.00  0.00     0.202 C 
BRANCH  36  37
ATOM     37  C   UNL A   1      46.113  24.971  35.170  1.00  0.00     0.261 C 
BRANCH  37  38
ATOM     38  O   UNL A   1      45.335  25.846  34.347  1.00  0.00    -0.460 OA
BRANCH  38  39
ATOM     39  C   UNL A   1      44.324  25.395  33.581  1.00  0.00     0.338 C 
ATOM     40  O   UNL A   1      44.148  24.265  33.174  1.00  0.00    -0.246 OA
BRANCH  39  41
ATOM     41  C   UNL A   1      43.315  26.480  33.679  1.00  0.00     0.060 A 
ATOM     42  C   UNL A   1      42.963  27.258  32.567  1.00  0.00     0.016 A 
ATOM     43  C   UNL A   1      43.004  26.908  34.975  1.00  0.00     0.016 A 
ATOM     44  C   UNL A   1      42.381  28.511  32.771  1.00  0.00     0.010 A 
ATOM     45  C   UNL A   1      42.464  28.175  35.174  1.00  0.00     0.010 A 
ATOM     46  C   UNL A   1      42.185  28.996  34.077  1.00  0.00    -0.014 A 
BRANCH  46  47
ATOM     47  C   UNL A   1      41.477  30.274  34.258  1.00  0.00     0.031 A 
ATOM     48  C   UNL A   1      42.411  31.431  34.383  1.00  0.00     0.074 A 
ATOM     49  C   UNL A   1      40.148  30.482  34.131  1.00  0.00     0.049 A 
ATOM     50  N   UNL A   1      42.515  32.288  35.345  1.00  0.00    -0.248 NA
ATOM     51  C   UNL A   1      43.439  31.569  33.337  1.00  0.00     0.031 C 
ATOM     52  C   UNL A   1      39.137  29.516  33.697  1.00  0.00     0.029 A 
ATOM     53  N   UNL A   1      39.421  31.641  34.261  1.00  0.00    -0.354 N 
ATOM     54  C   UNL A   1      43.490  33.193  34.929  1.00  0.00     0.074 A 
ATOM     55  C   UNL A   1      44.134  32.613  33.781  1.00  0.00     0.031 C 
ATOM     56  C   UNL A   1      37.983  30.164  33.420  1.00  0.00     0.029 A 
ATOM     57  C   UNL A   1      38.135  31.578  33.719  1.00  0.00     0.049 A 
ATOM     58  H   UNL A   1      39.777  32.448  34.699  1.00  0.00     0.167 HD
ATOM     59  C   UNL A   1      43.551  34.465  35.406  1.00  0.00     0.037 A 
ATOM     60  C   UNL A   1      37.287  32.609  33.452  1.00  0.00     0.037 A 
ATOM     61  C   UNL A   1      42.850  34.611  36.651  1.00  0.00     0.049 A 
ATOM     62  C   UNL A   1      37.732  33.779  34.251  1.00  0.00     0.074 A 
ATOM     63  C   UNL A   1      42.956  34.025  37.896  1.00  0.00     0.029 A 
ATOM     64  N   UNL A   1      41.630  35.240  36.636  1.00  0.00    -0.354 N 
ATOM     65  N   UNL A   1      37.655  33.859  35.549  1.00  0.00    -0.248 NA
ATOM     66  C   UNL A   1      38.648  34.715  33.621  1.00  0.00     0.031 C 
ATOM     67  C   UNL A   1      41.620  33.929  38.379  1.00  0.00     0.029 A 
ATOM     68  C   UNL A   1      40.783  34.502  37.421  1.00  0.00     0.049 A 
ATOM     69  H   UNL A   1      41.406  36.068  36.154  1.00  0.00     0.167 HD
ATOM     70  C   UNL A   1      38.807  34.532  35.928  1.00  0.00     0.074 A 
ATOM     71  C   UNL A   1      39.331  35.112  34.695  1.00  0.00     0.031 C 
ATOM     72  C   UNL A   1      39.373  34.330  37.151  1.00  0.00     0.037 A 
BRANCH  59  73
ATOM     73  C   UNL A   1      43.967  35.634  34.553  1.00  0.00     0.058 A 
ATOM     74  C   UNL A   1      44.992  36.495  34.986  1.00  0.00     0.135 A 
ATOM     75  C   UNL A   1      43.213  36.086  33.444  1.00  0.00     0.135 A 
ATOM     76  F   UNL A   1      45.743  36.178  36.051  1.00  0.00    -0.206 F 
ATOM     77  C   UNL A   1      45.226  37.732  34.383  1.00  0.00     0.059 A 
ATOM     78  C   UNL A   1      43.468  37.284  32.792  1.00  0.00     0.059 A 
ATOM     79  F   UNL A   1      42.130  35.428  33.004  1.00  0.00    -0.206 F 
ATOM     80  C   UNL A   1      44.452  38.120  33.291  1.00  0.00     0.060 A 
BRANCH  80  81
ATOM     81  S   UNL A   1      44.690  39.752  32.570  1.00  0.00     0.124 S 
ATOM     82  O   UNL A   1      44.467  40.614  33.726  1.00  0.00    -0.237 OA
ATOM     83  O   UNL A   1      46.065  39.671  32.088  1.00  0.00    -0.237 OA
ATOM     84  O   UNL A   1      43.670  39.811  31.529  1.00  0.00    -0.744 OA
ENDBRANCH  80  81
ENDBRANCH  59  73
BRANCH  60  85
ATOM     85  C   UNL A   1      36.321  32.761  32.318  1.00  0.00     0.058 A 
ATOM     86  C   UNL A   1      35.011  33.242  32.522  1.00  0.00     0.135 A 
ATOM     87  C   UNL A   1      36.749  32.716  30.976  1.00  0.00     0.135 A 
ATOM     88  F   UNL A   1      34.511  33.338  33.764  1.00  0.00    -0.206 F 
ATOM     89  C   UNL A   1      34.208  33.712  31.471  1.00  0.00     0.059 A 
ATOM     90  C   UNL A   1      35.964  33.161  29.914  1.00  0.00     0.059 A 
ATOM     91  F   UNL A   1      37.993  32.333  30.655  1.00  0.00    -0.206 F 
ATOM     92  C   UNL A   1      34.708  33.692  30.170  1.00  0.00     0.060 A 
BRANCH  92  93
ATOM     93  S   UNL A   1      33.779  34.492  28.838  1.00  0.00     0.124 S 
ATOM     94  O   UNL A   1      33.593  33.395  27.894  1.00  0.00    -0.237 OA
ATOM     95  O   UNL A   1      32.581  34.951  29.530  1.00  0.00    -0.237 OA
ATOM     96  O   UNL A   1      34.679  35.553  28.389  1.00  0.00    -0.744 OA
ENDBRANCH  92  93
ENDBRANCH  60  85
BRANCH  72  97
ATOM     97  C   UNL A   1      38.545  33.683  38.230  1.00  0.00     0.058 A 
ATOM     98  C   UNL A   1      38.088  32.353  38.214  1.00  0.00     0.135 A 
ATOM     99  C   UNL A   1      38.321  34.425  39.402  1.00  0.00     0.135 A 
ATOM    100  F   UNL A   1      38.348  31.544  37.175  1.00  0.00    -0.206 F 
ATOM    101  C   UNL A   1      37.400  31.804  39.299  1.00  0.00     0.059 A 
ATOM    102  C   UNL A   1      37.670  33.887  40.506  1.00  0.00     0.059 A 
ATOM    103  F   UNL A   1      38.782  35.683  39.501  1.00  0.00    -0.206 F 
ATOM    104  C   UNL A   1      37.198  32.578  40.441  1.00  0.00     0.060 A 
BRANCH 104 105
ATOM    105  S   UNL A   1      36.362  31.850  41.867  1.00  0.00     0.124 S 
ATOM    106  O   UNL A   1      37.329  30.854  42.313  1.00  0.00    -0.237 OA
ATOM    107  O   UNL A   1      36.181  33.000  42.746  1.00  0.00    -0.237 OA
ATOM    108  O   UNL A   1      35.128  31.308  41.301  1.00  0.00    -0.744 OA
ENDBRANCH 104 105
ENDBRANCH  72  97
ENDBRANCH  46  47
ENDBRANCH  39  41
ENDBRANCH  38  39
ENDBRANCH  37  38
ENDBRANCH  36  37
ENDBRANCH  35  36
ENDBRANCH  34  35
ENDBRANCH   1  34
TORSDOF 26
ENDMDL
MODEL 3
REMARK VINA RESULT:      -6.4      3.170      6.633
REMARK SMILES CC(C)n1c2c(c3ccccc31)[C@@H](c1ccccc1)N(CC(=O)OCCOCCOCCOCCOC(=O)c1ccc(-c3c4nc(c(-c5c(F)cc(S(=O)(=O)[O-])cc5F)c5ccc([nH]5)c(-c5c(F)cc(S(=O)(=O)[O-])cc5F)c5nc(c(-c6c(F)cc(S(=O)(=O)[O-])cc6F)c6ccc3[nH]6)C=C5)C=C4)cc1)C2=O
REMARK SMILES IDX 31 1 30 2 29 3 28 4 27 5 26 6 25 7 24 8 22 9 23 10 21 11
REMARK SMILES IDX 20 12 4 13 5 14 12 15 6 16 105 17 7 18 11 19 13 20 106 21
REMARK SMILES IDX 8 22 10 23 9 24 2 25 1 26 3 27 14 28 15 29 19 30 16 31 18 32
REMARK SMILES IDX 17 33 32 34 33 35 34 36 35 37 36 38 37 39 38 40 39 41 40 42
REMARK SMILES IDX 104 43 41 44 103 45 42 46 43 47 44 48 97 49 45 50 102 51
REMARK SMILES IDX 96 52 98 53 46 54 101 55 95 56 94 57 47 59 81 60 60 61 80 62
REMARK SMILES IDX 61 63 64 64 79 65 99 66 62 67 63 68 78 70 100 71 65 72 48 73
REMARK SMILES IDX 49 74 58 75 50 76 51 77 57 78 59 79 52 80 53 81 54 82 55 83
REMARK SMILES IDX 56 84 82 85 83 86 92 87 84 88 85 89 91 90 93 91 86 92 87 93
REMARK SMILES IDX 88 94 89 95 90 96 66 97 67 98 76 99 68 100 69 101 75 102
REMARK SMILES IDX 77 103 70 104 71 105 72 106 73 107 74 108
REMARK H PARENT 98 58 64 69
REMARK Flexibility Score: inf
ROOT
ATOM      1  C   UNL A   1      44.727  33.465  34.801  1.00  0.00     0.188 C 
ENDROOT
BRANCH   1   2
ATOM      2  O   UNL A   1      43.582  33.032  35.510  1.00  0.00    -0.377 OA
BRANCH   2   3
ATOM      3  C   UNL A   1      43.636  31.913  36.355  1.00  0.00     0.188 C 
BRANCH   3   4
ATOM      4  C   UNL A   1      42.893  32.068  37.673  1.00  0.00     0.188 C 
BRANCH   4   5
ATOM      5  O   UNL A   1      42.307  33.318  37.965  1.00  0.00    -0.376 OA
BRANCH   5   6
ATOM      6  C   UNL A   1      41.447  33.945  37.008  1.00  0.00     0.202 C 
BRANCH   6   7
ATOM      7  C   UNL A   1      40.302  33.203  36.279  1.00  0.00     0.261 C 
BRANCH   7   8
ATOM      8  O   UNL A   1      40.547  32.845  34.889  1.00  0.00    -0.462 OA
BRANCH   8   9
ATOM      9  C   UNL A   1      39.818  31.820  34.388  1.00  0.00     0.325 C 
ATOM     10  O   UNL A   1      38.967  31.956  33.506  1.00  0.00    -0.250 OA
BRANCH   9  11
ATOM     11  C   UNL A   1      40.094  30.407  34.953  1.00  0.00     0.243 C 
BRANCH  11  12
ATOM     12  N   UNL A   1      40.877  29.318  34.363  1.00  0.00    -0.315 N 
ATOM     13  N   UNL A   1      42.879  26.342  34.340  1.00  0.00    -0.334 N 
ATOM     14  C   UNL A   1      42.108  27.455  34.278  1.00  0.00     0.114 A 
ATOM     15  C   UNL A   1      43.631  26.287  33.166  1.00  0.00     0.049 A 
ATOM     16  C   UNL A   1      42.124  27.958  33.008  1.00  0.00     0.018 A 
ATOM     17  C   UNL A   1      41.332  28.264  35.164  1.00  0.00     0.272 C 
ATOM     18  C   UNL A   1      43.083  27.225  32.271  1.00  0.00     0.006 A 
ATOM     19  C   UNL A   1      44.750  25.509  32.824  1.00  0.00     0.027 A 
ATOM     20  C   UNL A   1      41.285  29.195  32.922  1.00  0.00     0.150 C 
ATOM     21  O   UNL A   1      41.122  28.085  36.345  1.00  0.00    -0.267 OA
ATOM     22  C   UNL A   1      43.596  27.281  30.963  1.00  0.00     0.011 A 
ATOM     23  C   UNL A   1      45.310  25.676  31.554  1.00  0.00     0.002 A 
ATOM     24  C   UNL A   1      44.726  26.529  30.625  1.00  0.00     0.001 A 
BRANCH  13  25
ATOM     25  C   UNL A   1      42.936  25.362  35.420  1.00  0.00     0.082 C 
ATOM     26  C   UNL A   1      43.620  25.922  36.660  1.00  0.00     0.031 C 
ATOM     27  C   UNL A   1      41.571  24.741  35.731  1.00  0.00     0.031 C 
ENDBRANCH  13  25
BRANCH  20  28
ATOM     28  C   UNL A   1      40.174  29.034  31.882  1.00  0.00    -0.021 A 
ATOM     29  C   UNL A   1      40.456  29.334  30.532  1.00  0.00     0.006 A 
ATOM     30  C   UNL A   1      38.905  28.476  32.133  1.00  0.00     0.006 A 
ATOM     31  C   UNL A   1      39.549  29.082  29.497  1.00  0.00     0.000 A 
ATOM     32  C   UNL A   1      37.999  28.203  31.096  1.00  0.00     0.000 A 
ATOM     33  C   UNL A   1      38.322  28.502  29.778  1.00  0.00     0.000 A 
ENDBRANCH  20  28
ENDBRANCH  11  12
ENDBRANCH   9  11
ENDBRANCH   8   9
ENDBRANCH   7   8
ENDBRANCH   6   7
ENDBRANCH   5   6
ENDBRANCH   4   5
ENDBRANCH   3   4
ENDBRANCH   2   3
ENDBRANCH   1   2
BRANCH   1  34
ATOM     34  C   UNL A   1      44.604  34.670  33.866  1.00  0.00     0.188 C 
BRANCH  34  35
ATOM     35  O   UNL A   1      45.297  34.462  32.641  1.00  0.00    -0.376 OA
BRANCH  35  36
ATOM     36  C   UNL A   1      45.526  35.575  31.788  1.00  0.00     0.202 C 
BRANCH  36  37
ATOM     37  C   UNL A   1      44.750  35.677  30.469  1.00  0.00     0.261 C 
BRANCH  37  38
ATOM     38  O   UNL A   1      43.722  34.695  30.309  1.00  0.00    -0.460 OA
BRANCH  38  39
ATOM     39  C   UNL A   1      43.050  34.545  29.152  1.00  0.00     0.338 C 
ATOM     40  O   UNL A   1      42.512  35.408  28.489  1.00  0.00    -0.246 OA
BRANCH  39  41
ATOM     41  C   UNL A   1      43.448  33.187  28.704  1.00  0.00     0.060 A 
ATOM     42  C   UNL A   1      43.010  32.035  29.372  1.00  0.00     0.016 A 
ATOM     43  C   UNL A   1      44.536  33.130  27.825  1.00  0.00     0.016 A 
ATOM     44  C   UNL A   1      43.729  30.847  29.222  1.00  0.00     0.010 A 
ATOM     45  C   UNL A   1      45.275  31.956  27.713  1.00  0.00     0.010 A 
ATOM     46  C   UNL A   1      44.897  30.822  28.439  1.00  0.00    -0.014 A 
BRANCH  46  47
ATOM     47  C   UNL A   1      45.573  29.532  28.220  1.00  0.00     0.031 A 
ATOM     48  C   UNL A   1      46.648  29.274  29.221  1.00  0.00     0.074 A 
ATOM     49  C   UNL A   1      45.189  28.557  27.366  1.00  0.00     0.049 A 
ATOM     50  N   UNL A   1      47.903  29.039  29.021  1.00  0.00    -0.248 NA
ATOM     51  C   UNL A   1      46.279  29.414  30.641  1.00  0.00     0.031 C 
ATOM     52  C   UNL A   1      43.976  28.523  26.548  1.00  0.00     0.029 A 
ATOM     53  N   UNL A   1      45.750  27.327  27.124  1.00  0.00    -0.354 N 
ATOM     54  C   UNL A   1      48.441  28.802  30.285  1.00  0.00     0.074 A 
ATOM     55  C   UNL A   1      47.448  29.208  31.243  1.00  0.00     0.031 C 
ATOM     56  C   UNL A   1      43.798  27.277  26.054  1.00  0.00     0.029 A 
ATOM     57  C   UNL A   1      44.911  26.432  26.455  1.00  0.00     0.049 A 
ATOM     58  H   UNL A   1      46.667  27.095  27.399  1.00  0.00     0.167 HD
ATOM     59  C   UNL A   1      49.572  28.070  30.467  1.00  0.00     0.037 A 
ATOM     60  C   UNL A   1      45.065  25.087  26.310  1.00  0.00     0.037 A 
ATOM     61  C   UNL A   1      50.360  27.983  29.270  1.00  0.00     0.049 A 
ATOM     62  C   UNL A   1      46.493  24.766  26.561  1.00  0.00     0.074 A 
ATOM     63  C   UNL A   1      50.964  28.905  28.438  1.00  0.00     0.029 A 
ATOM     64  N   UNL A   1      50.345  26.802  28.571  1.00  0.00    -0.354 N 
ATOM     65  N   UNL A   1      47.476  25.110  25.778  1.00  0.00    -0.248 NA
ATOM     66  C   UNL A   1      46.873  24.399  27.915  1.00  0.00     0.031 C 
ATOM     67  C   UNL A   1      50.845  28.359  27.128  1.00  0.00     0.029 A 
ATOM     68  C   UNL A   1      50.219  27.118  27.243  1.00  0.00     0.049 A 
ATOM     69  H   UNL A   1      50.413  25.897  28.951  1.00  0.00     0.167 HD
ATOM     70  C   UNL A   1      48.517  25.423  26.639  1.00  0.00     0.074 A 
ATOM     71  C   UNL A   1      48.116  24.879  27.933  1.00  0.00     0.031 C 
ATOM     72  C   UNL A   1      49.477  26.325  26.288  1.00  0.00     0.037 A 
BRANCH  59  73
ATOM     73  C   UNL A   1      49.770  27.162  31.652  1.00  0.00     0.058 A 
ATOM     74  C   UNL A   1      50.772  27.444  32.598  1.00  0.00     0.135 A 
ATOM     75  C   UNL A   1      49.178  25.881  31.749  1.00  0.00     0.135 A 
ATOM     76  F   UNL A   1      51.423  28.617  32.572  1.00  0.00    -0.206 F 
ATOM     77  C   UNL A   1      51.181  26.506  33.548  1.00  0.00     0.059 A 
ATOM     78  C   UNL A   1      49.526  24.956  32.723  1.00  0.00     0.059 A 
ATOM     79  F   UNL A   1      48.301  25.433  30.839  1.00  0.00    -0.206 F 
ATOM     80  C   UNL A   1      50.555  25.262  33.597  1.00  0.00     0.060 A 
BRANCH  80  81
ATOM     81  S   UNL A   1      51.143  24.019  34.759  1.00  0.00     0.124 S 
ATOM     82  O   UNL A   1      50.704  22.788  34.110  1.00  0.00    -0.237 OA
ATOM     83  O   UNL A   1      52.581  24.264  34.762  1.00  0.00    -0.237 OA
ATOM     84  O   UNL A   1      50.451  24.364  35.997  1.00  0.00    -0.744 OA
ENDBRANCH  80  81
ENDBRANCH  59  73
BRANCH  60  85
ATOM     85  C   UNL A   1      44.016  24.019  26.293  1.00  0.00     0.058 A 
ATOM     86  C   UNL A   1      43.725  23.287  25.123  1.00  0.00     0.135 A 
ATOM     87  C   UNL A   1      43.484  23.491  27.487  1.00  0.00     0.135 A 
ATOM     88  F   UNL A   1      44.196  23.696  23.934  1.00  0.00    -0.206 F 
ATOM     89  C   UNL A   1      43.013  22.078  25.147  1.00  0.00     0.059 A 
ATOM     90  C   UNL A   1      42.759  22.301  27.534  1.00  0.00     0.059 A 
ATOM     91  F   UNL A   1      43.738  24.062  28.673  1.00  0.00    -0.206 F 
ATOM     92  C   UNL A   1      42.557  21.579  26.367  1.00  0.00     0.060 A 
BRANCH  92  93
ATOM     93  S   UNL A   1      41.834  19.922  26.447  1.00  0.00     0.124 S 
ATOM     94  O   UNL A   1      42.511  19.239  25.351  1.00  0.00    -0.237 OA
ATOM     95  O   UNL A   1      42.199  19.491  27.792  1.00  0.00    -0.237 OA
ATOM     96  O   UNL A   1      40.407  20.166  26.242  1.00  0.00    -0.744 OA
ENDBRANCH  92  93
ENDBRANCH  60  85
BRANCH  72  97
ATOM     97  C   UNL A   1      49.629  26.687  24.835  1.00  0.00     0.058 A 
ATOM     98  C   UNL A   1      48.691  27.411  24.077  1.00  0.00     0.135 A 
ATOM     99  C   UNL A   1      50.859  26.392  24.222  1.00  0.00     0.135 A 
ATOM    100  F   UNL A   1      47.533  27.821  24.617  1.00  0.00    -0.206 F 
ATOM    101  C   UNL A   1      48.951  27.783  22.755  1.00  0.00     0.059 A 
ATOM    102  C   UNL A   1      51.151  26.783  22.921  1.00  0.00     0.059 A 
ATOM    103  F   UNL A   1      51.817  25.751  24.912  1.00  0.00    -0.206 F 
ATOM    104  C   UNL A   1      50.185  27.466  22.187  1.00  0.00     0.060 A 
BRANCH 104 105
ATOM    105  S   UNL A   1      50.543  27.999  20.499  1.00  0.00     0.124 S 
ATOM    106  O   UNL A   1      49.528  27.287  19.731  1.00  0.00    -0.237 OA
ATOM    107  O   UNL A   1      50.378  29.446  20.586  1.00  0.00    -0.237 OA
ATOM    108  O   UNL A   1      51.917  27.549  20.282  1.00  0.00    -0.744 OA
ENDBRANCH 104 105
ENDBRANCH  72  97
ENDBRANCH  46  47
ENDBRANCH  39  41
ENDBRANCH  38  39
ENDBRANCH  37  38
ENDBRANCH  36  37
ENDBRANCH  35  36
ENDBRANCH  34  35
ENDBRANCH   1  34
TORSDOF 26
ENDMDL
