MODEL 1
REMARK VINA RESULT:      -8.1      0.000      0.000
REMARK SMILES O=C(OCCOCCOCCOCCOC(=O)c1ccc(S(=O)(=O)Cc2cccs2)c(F)c1)c1ccc(-c2c3nc(c(-c4c(F)cc(S(=O)(=O)[O-])cc4F)c4ccc([nH]4)c(-c4c(F)cc(S(=O)(=O)[O-])cc4F)c4nc(c(-c5c(F)cc(S(=O)(=O)[O-])cc5F)c5ccc2[nH]5)C=C4)C=C3)cc1
REMARK SMILES IDX 9 1 8 2 7 3 6 4 5 5 4 6 3 7 2 8 1 9 34 10 35 11 99 12 36 13
REMARK SMILES IDX 98 14 37 15 38 16 39 17 92 18 40 19 97 20 91 21 93 22 41 23
REMARK SMILES IDX 96 24 90 25 89 26 42 28 76 29 55 30 75 31 56 32 59 33 74 34
REMARK SMILES IDX 94 35 57 36 58 37 73 39 95 40 60 41 43 42 44 43 53 44 45 45
REMARK SMILES IDX 46 46 52 47 54 48 47 49 48 50 49 51 50 52 51 53 77 54 78 55
REMARK SMILES IDX 87 56 79 57 80 58 86 59 88 60 81 61 82 62 83 63 84 64 85 65
REMARK SMILES IDX 61 66 62 67 71 68 63 69 64 70 70 71 72 72 65 73 66 74 67 75
REMARK SMILES IDX 68 76 69 77 10 78 11 79 12 80 13 81 14 82 15 83 16 84 17 85
REMARK SMILES IDX 18 86 19 87 33 88 20 89 31 90 21 91 32 92 22 93 23 94 24 95
REMARK SMILES IDX 25 96 26 97 27 98 30 99 28 100 29 101
REMARK H PARENT 93 27 59 38
REMARK Flexibility Score: inf
ROOT
ATOM      1  O   UNL A   1      40.945  20.814  26.423  1.00  0.00    -0.377 OA
ENDROOT
BRANCH   1   2
ATOM      2  C   UNL A   1      41.592  19.631  26.890  1.00  0.00     0.188 C 
BRANCH   2   3
ATOM      3  C   UNL A   1      42.719  19.119  25.995  1.00  0.00     0.188 C 
BRANCH   3   4
ATOM      4  O   UNL A   1      43.163  20.133  25.092  1.00  0.00    -0.376 OA
BRANCH   4   5
ATOM      5  C   UNL A   1      44.497  20.599  25.284  1.00  0.00     0.202 C 
BRANCH   5   6
ATOM      6  C   UNL A   1      44.622  22.099  25.555  1.00  0.00     0.261 C 
BRANCH   6   7
ATOM      7  O   UNL A   1      43.417  22.665  26.083  1.00  0.00    -0.460 OA
BRANCH   7   8
ATOM      8  C   UNL A   1      43.212  23.155  27.332  1.00  0.00     0.338 C 
ATOM      9  O   UNL A   1      43.098  22.349  28.255  1.00  0.00    -0.246 OA
BRANCH   8  10
ATOM     10  C   UNL A   1      43.116  24.613  27.663  1.00  0.00     0.060 A 
ATOM     11  C   UNL A   1      42.823  25.643  26.765  1.00  0.00     0.016 A 
ATOM     12  C   UNL A   1      43.268  24.955  29.018  1.00  0.00     0.016 A 
ATOM     13  C   UNL A   1      42.742  26.969  27.166  1.00  0.00     0.010 A 
ATOM     14  C   UNL A   1      43.177  26.284  29.439  1.00  0.00     0.010 A 
ATOM     15  C   UNL A   1      42.945  27.294  28.501  1.00  0.00    -0.014 A 
BRANCH  15  16
ATOM     16  C   UNL A   1      43.122  28.712  28.845  1.00  0.00     0.031 A 
ATOM     17  C   UNL A   1      44.502  29.276  28.719  1.00  0.00     0.074 A 
ATOM     18  C   UNL A   1      42.059  29.478  29.144  1.00  0.00     0.049 A 
ATOM     19  N   UNL A   1      44.955  30.444  29.074  1.00  0.00    -0.248 NA
ATOM     20  C   UNL A   1      45.512  28.400  28.096  1.00  0.00     0.031 C 
ATOM     21  C   UNL A   1      40.666  29.028  29.126  1.00  0.00     0.029 A 
ATOM     22  N   UNL A   1      41.984  30.795  29.505  1.00  0.00    -0.354 N 
ATOM     23  C   UNL A   1      46.310  30.423  28.770  1.00  0.00     0.074 A 
ATOM     24  C   UNL A   1      46.607  29.137  28.187  1.00  0.00     0.031 C 
ATOM     25  C   UNL A   1      39.872  30.058  29.464  1.00  0.00     0.029 A 
ATOM     26  C   UNL A   1      40.706  31.207  29.797  1.00  0.00     0.049 A 
ATOM     27  H   UNL A   1      42.767  31.389  29.552  1.00  0.00     0.167 HD
ATOM     28  C   UNL A   1      47.220  31.397  28.988  1.00  0.00     0.037 A 
ATOM     29  C   UNL A   1      40.279  32.370  30.326  1.00  0.00     0.037 A 
ATOM     30  C   UNL A   1      46.868  32.665  29.566  1.00  0.00     0.049 A 
ATOM     31  C   UNL A   1      41.314  33.412  30.651  1.00  0.00     0.074 A 
ATOM     32  C   UNL A   1      47.688  33.727  29.887  1.00  0.00     0.029 A 
ATOM     33  N   UNL A   1      45.571  33.031  29.914  1.00  0.00    -0.354 N 
ATOM     34  N   UNL A   1      42.612  33.368  30.440  1.00  0.00    -0.248 NA
ATOM     35  C   UNL A   1      40.852  34.641  31.302  1.00  0.00     0.031 C 
ATOM     36  C   UNL A   1      46.894  34.714  30.479  1.00  0.00     0.029 A 
ATOM     37  C   UNL A   1      45.569  34.292  30.473  1.00  0.00     0.049 A 
ATOM     38  H   UNL A   1      44.772  32.471  29.781  1.00  0.00     0.167 HD
ATOM     39  C   UNL A   1      43.122  34.564  30.925  1.00  0.00     0.074 A 
ATOM     40  C   UNL A   1      41.988  35.317  31.432  1.00  0.00     0.031 C 
ATOM     41  C   UNL A   1      44.405  35.001  30.954  1.00  0.00     0.037 A 
BRANCH  28  42
ATOM     42  C   UNL A   1      48.657  31.079  28.690  1.00  0.00     0.058 A 
ATOM     43  C   UNL A   1      49.431  30.393  29.640  1.00  0.00     0.135 A 
ATOM     44  C   UNL A   1      49.262  31.398  27.463  1.00  0.00     0.135 A 
ATOM     45  F   UNL A   1      48.898  30.043  30.821  1.00  0.00    -0.206 F 
ATOM     46  C   UNL A   1      50.749  30.031  29.386  1.00  0.00     0.059 A 
ATOM     47  C   UNL A   1      50.573  31.022  27.176  1.00  0.00     0.059 A 
ATOM     48  F   UNL A   1      48.557  32.017  26.502  1.00  0.00    -0.206 F 
ATOM     49  C   UNL A   1      51.310  30.344  28.147  1.00  0.00     0.060 A 
BRANCH  49  50
ATOM     50  S   UNL A   1      52.994  29.789  27.801  1.00  0.00     0.124 S 
ATOM     51  O   UNL A   1      53.613  31.009  27.295  1.00  0.00    -0.237 OA
ATOM     52  O   UNL A   1      53.446  29.341  29.115  1.00  0.00    -0.237 OA
ATOM     53  O   UNL A   1      52.803  28.724  26.820  1.00  0.00    -0.744 OA
ENDBRANCH  49  50
ENDBRANCH  28  42
BRANCH  29  54
ATOM     54  C   UNL A   1      38.830  32.552  30.616  1.00  0.00     0.058 A 
ATOM     55  C   UNL A   1      38.009  33.293  29.748  1.00  0.00     0.135 A 
ATOM     56  C   UNL A   1      38.259  32.086  31.808  1.00  0.00     0.135 A 
ATOM     57  F   UNL A   1      38.503  33.765  28.593  1.00  0.00    -0.206 F 
ATOM     58  C   UNL A   1      36.694  33.612  30.076  1.00  0.00     0.059 A 
ATOM     59  C   UNL A   1      36.937  32.371  32.148  1.00  0.00     0.059 A 
ATOM     60  F   UNL A   1      38.994  31.361  32.665  1.00  0.00    -0.206 F 
ATOM     61  C   UNL A   1      36.172  33.159  31.287  1.00  0.00     0.060 A 
BRANCH  61  62
ATOM     62  S   UNL A   1      34.488  33.646  31.724  1.00  0.00     0.124 S 
ATOM     63  O   UNL A   1      34.029  32.476  32.465  1.00  0.00    -0.237 OA
ATOM     64  O   UNL A   1      34.715  34.851  32.515  1.00  0.00    -0.237 OA
ATOM     65  O   UNL A   1      33.850  33.859  30.429  1.00  0.00    -0.744 OA
ENDBRANCH  61  62
ENDBRANCH  29  54
BRANCH  41  66
ATOM     66  C   UNL A   1      44.662  36.361  31.533  1.00  0.00     0.058 A 
ATOM     67  C   UNL A   1      44.863  36.508  32.914  1.00  0.00     0.135 A 
ATOM     68  C   UNL A   1      44.539  37.518  30.750  1.00  0.00     0.135 A 
ATOM     69  F   UNL A   1      44.977  35.426  33.701  1.00  0.00    -0.206 F 
ATOM     70  C   UNL A   1      44.884  37.761  33.509  1.00  0.00     0.059 A 
ATOM     71  C   UNL A   1      44.583  38.784  31.323  1.00  0.00     0.059 A 
ATOM     72  F   UNL A   1      44.357  37.421  29.425  1.00  0.00    -0.206 F 
ATOM     73  C   UNL A   1      44.727  38.892  32.707  1.00  0.00     0.060 A 
BRANCH  73  74
ATOM     74  S   UNL A   1      44.693  40.508  33.508  1.00  0.00     0.124 S 
ATOM     75  O   UNL A   1      46.105  40.875  33.499  1.00  0.00    -0.237 OA
ATOM     76  O   UNL A   1      43.832  41.275  32.613  1.00  0.00    -0.237 OA
ATOM     77  O   UNL A   1      44.125  40.223  34.823  1.00  0.00    -0.744 OA
ENDBRANCH  73  74
ENDBRANCH  41  66
ENDBRANCH  15  16
ENDBRANCH   8  10
ENDBRANCH   7   8
ENDBRANCH   6   7
ENDBRANCH   5   6
ENDBRANCH   4   5
ENDBRANCH   3   4
ENDBRANCH   2   3
ENDBRANCH   1   2
BRANCH   1  78
ATOM     78  C   UNL A   1      39.567  20.693  26.091  1.00  0.00     0.188 C 
BRANCH  78  79
ATOM     79  C   UNL A   1      39.029  19.320  25.627  1.00  0.00     0.188 C 
BRANCH  79  80
ATOM     80  O   UNL A   1      37.761  19.372  24.998  1.00  0.00    -0.376 OA
BRANCH  80  81
ATOM     81  C   UNL A   1      37.295  20.678  24.672  1.00  0.00     0.202 C 
BRANCH  81  82
ATOM     82  C   UNL A   1      35.935  21.075  25.274  1.00  0.00     0.261 C 
BRANCH  82  83
ATOM     83  O   UNL A   1      35.984  21.989  26.391  1.00  0.00    -0.460 OA
BRANCH  83  84
ATOM     84  C   UNL A   1      36.135  23.306  26.138  1.00  0.00     0.338 C 
ATOM     85  O   UNL A   1      37.172  23.945  26.118  1.00  0.00    -0.246 OA
BRANCH  84  86
ATOM     86  C   UNL A   1      34.838  23.812  25.632  1.00  0.00     0.063 A 
ATOM     87  C   UNL A   1      33.673  23.772  26.403  1.00  0.00     0.017 A 
ATOM     88  C   UNL A   1      34.768  24.186  24.286  1.00  0.00     0.056 A 
ATOM     89  C   UNL A   1      32.459  24.191  25.839  1.00  0.00     0.024 A 
ATOM     90  C   UNL A   1      33.533  24.455  23.706  1.00  0.00     0.142 A 
ATOM     91  C   UNL A   1      32.396  24.555  24.483  1.00  0.00     0.103 A 
ATOM     92  F   UNL A   1      33.473  24.479  22.374  1.00  0.00    -0.206 F 
BRANCH  91  93
ATOM     93  S   UNL A   1      30.867  25.183  23.861  1.00  0.00     0.186 S 
ATOM     94  O   UNL A   1      30.275  24.070  23.132  1.00  0.00    -0.223 OA
ATOM     95  O   UNL A   1      30.164  25.709  25.021  1.00  0.00    -0.223 OA
BRANCH  93  96
ATOM     96  C   UNL A   1      31.059  26.505  22.688  1.00  0.00     0.188 C 
BRANCH  96  97
ATOM     97  C   UNL A   1      30.523  27.855  23.067  1.00  0.00     0.020 A 
ATOM     98  C   UNL A   1      29.285  28.366  22.707  1.00  0.00     0.016 A 
ATOM     99  S   UNL A   1      31.366  28.955  24.070  1.00  0.00    -0.148 S 
ATOM    100  C   UNL A   1      29.095  29.705  23.140  1.00  0.00     0.012 A 
ATOM    101  C   UNL A   1      30.160  30.154  23.886  1.00  0.00     0.065 A 
ENDBRANCH  96  97
ENDBRANCH  93  96
ENDBRANCH  91  93
ENDBRANCH  84  86
ENDBRANCH  83  84
ENDBRANCH  82  83
ENDBRANCH  81  82
ENDBRANCH  80  81
ENDBRANCH  79  80
ENDBRANCH  78  79
ENDBRANCH   1  78
TORSDOF 26
ENDMDL
MODEL 2
REMARK VINA RESULT:      -7.7      3.613      9.140
REMARK SMILES O=C(OCCOCCOCCOCCOC(=O)c1ccc(S(=O)(=O)Cc2cccs2)c(F)c1)c1ccc(-c2c3nc(c(-c4c(F)cc(S(=O)(=O)[O-])cc4F)c4ccc([nH]4)c(-c4c(F)cc(S(=O)(=O)[O-])cc4F)c4nc(c(-c5c(F)cc(S(=O)(=O)[O-])cc5F)c5ccc2[nH]5)C=C4)C=C3)cc1
REMARK SMILES IDX 9 1 8 2 7 3 6 4 5 5 4 6 3 7 2 8 1 9 34 10 35 11 99 12 36 13
REMARK SMILES IDX 98 14 37 15 38 16 39 17 92 18 40 19 97 20 91 21 93 22 41 23
REMARK SMILES IDX 96 24 90 25 89 26 42 28 76 29 55 30 75 31 56 32 59 33 74 34
REMARK SMILES IDX 94 35 57 36 58 37 73 39 95 40 60 41 43 42 44 43 53 44 45 45
REMARK SMILES IDX 46 46 52 47 54 48 47 49 48 50 49 51 50 52 51 53 77 54 78 55
REMARK SMILES IDX 87 56 79 57 80 58 86 59 88 60 81 61 82 62 83 63 84 64 85 65
REMARK SMILES IDX 61 66 62 67 71 68 63 69 64 70 70 71 72 72 65 73 66 74 67 75
REMARK SMILES IDX 68 76 69 77 10 78 11 79 12 80 13 81 14 82 15 83 16 84 17 85
REMARK SMILES IDX 18 86 19 87 33 88 20 89 31 90 21 91 32 92 22 93 23 94 24 95
REMARK SMILES IDX 25 96 26 97 27 98 30 99 28 100 29 101
REMARK H PARENT 93 27 59 38
REMARK Flexibility Score: inf
ROOT
ATOM      1  O   UNL A   1      36.787  22.797  24.721  1.00  0.00    -0.377 OA
ENDROOT
BRANCH   1   2
ATOM      2  C   UNL A   1      37.364  22.604  26.011  1.00  0.00     0.188 C 
BRANCH   2   3
ATOM      3  C   UNL A   1      38.888  22.711  26.057  1.00  0.00     0.188 C 
BRANCH   3   4
ATOM      4  O   UNL A   1      39.304  24.057  26.294  1.00  0.00    -0.376 OA
BRANCH   4   5
ATOM      5  C   UNL A   1      38.668  24.723  27.384  1.00  0.00     0.202 C 
BRANCH   5   6
ATOM      6  C   UNL A   1      39.622  25.425  28.352  1.00  0.00     0.261 C 
BRANCH   6   7
ATOM      7  O   UNL A   1      40.897  25.704  27.763  1.00  0.00    -0.460 OA
BRANCH   7   8
ATOM      8  C   UNL A   1      42.028  26.108  28.394  1.00  0.00     0.338 C 
ATOM      9  O   UNL A   1      42.981  25.329  28.421  1.00  0.00    -0.246 OA
BRANCH   8  10
ATOM     10  C   UNL A   1      42.196  27.440  29.060  1.00  0.00     0.060 A 
ATOM     11  C   UNL A   1      41.336  28.534  28.940  1.00  0.00     0.016 A 
ATOM     12  C   UNL A   1      43.288  27.563  29.937  1.00  0.00     0.016 A 
ATOM     13  C   UNL A   1      41.566  29.728  29.607  1.00  0.00     0.010 A 
ATOM     14  C   UNL A   1      43.526  28.756  30.625  1.00  0.00     0.010 A 
ATOM     15  C   UNL A   1      42.677  29.850  30.431  1.00  0.00    -0.014 A 
BRANCH  15  16
ATOM     16  C   UNL A   1      43.042  31.193  30.902  1.00  0.00     0.031 A 
ATOM     17  C   UNL A   1      42.395  31.672  32.163  1.00  0.00     0.074 A 
ATOM     18  C   UNL A   1      44.003  31.896  30.279  1.00  0.00     0.049 A 
ATOM     19  N   UNL A   1      42.440  32.846  32.724  1.00  0.00    -0.248 NA
ATOM     20  C   UNL A   1      41.589  30.680  32.900  1.00  0.00     0.031 C 
ATOM     21  C   UNL A   1      44.789  31.419  29.139  1.00  0.00     0.029 A 
ATOM     22  N   UNL A   1      44.492  33.150  30.524  1.00  0.00    -0.354 N 
ATOM     23  C   UNL A   1      41.627  32.752  33.845  1.00  0.00     0.074 A 
ATOM     24  C   UNL A   1      41.112  31.405  33.900  1.00  0.00     0.031 C 
ATOM     25  C   UNL A   1      45.664  32.374  28.783  1.00  0.00     0.029 A 
ATOM     26  C   UNL A   1      45.441  33.551  29.617  1.00  0.00     0.049 A 
ATOM     27  H   UNL A   1      44.191  33.709  31.276  1.00  0.00     0.167 HD
ATOM     28  C   UNL A   1      41.328  33.726  34.732  1.00  0.00     0.037 A 
ATOM     29  C   UNL A   1      46.019  34.758  29.455  1.00  0.00     0.037 A 
ATOM     30  C   UNL A   1      41.876  35.051  34.635  1.00  0.00     0.049 A 
ATOM     31  C   UNL A   1      45.607  35.860  30.392  1.00  0.00     0.074 A 
ATOM     32  C   UNL A   1      41.628  36.150  35.431  1.00  0.00     0.029 A 
ATOM     33  N   UNL A   1      42.788  35.449  33.662  1.00  0.00    -0.354 N 
ATOM     34  N   UNL A   1      44.774  35.800  31.409  1.00  0.00    -0.248 NA
ATOM     35  C   UNL A   1      46.177  37.190  30.159  1.00  0.00     0.031 C 
ATOM     36  C   UNL A   1      42.350  37.227  34.907  1.00  0.00     0.029 A 
ATOM     37  C   UNL A   1      43.094  36.785  33.819  1.00  0.00     0.049 A 
ATOM     38  H   UNL A   1      43.160  34.863  32.964  1.00  0.00     0.167 HD
ATOM     39  C   UNL A   1      44.724  37.080  31.942  1.00  0.00     0.074 A 
ATOM     40  C   UNL A   1      45.621  37.894  31.139  1.00  0.00     0.031 C 
ATOM     41  C   UNL A   1      44.005  37.545  32.993  1.00  0.00     0.037 A 
BRANCH  28  42
ATOM     42  C   UNL A   1      40.312  33.408  35.791  1.00  0.00     0.058 A 
ATOM     43  C   UNL A   1      38.949  33.359  35.459  1.00  0.00     0.135 A 
ATOM     44  C   UNL A   1      40.671  33.102  37.114  1.00  0.00     0.135 A 
ATOM     45  F   UNL A   1      38.549  33.620  34.204  1.00  0.00    -0.206 F 
ATOM     46  C   UNL A   1      37.979  33.017  36.395  1.00  0.00     0.059 A 
ATOM     47  C   UNL A   1      39.720  32.731  38.062  1.00  0.00     0.059 A 
ATOM     48  F   UNL A   1      41.964  33.092  37.478  1.00  0.00    -0.206 F 
ATOM     49  C   UNL A   1      38.375  32.697  37.693  1.00  0.00     0.060 A 
BRANCH  49  50
ATOM     50  S   UNL A   1      37.113  32.168  38.872  1.00  0.00     0.124 S 
ATOM     51  O   UNL A   1      37.752  32.466  40.149  1.00  0.00    -0.237 OA
ATOM     52  O   UNL A   1      35.981  33.018  38.512  1.00  0.00    -0.237 OA
ATOM     53  O   UNL A   1      36.940  30.751  38.569  1.00  0.00    -0.744 OA
ENDBRANCH  49  50
ENDBRANCH  28  42
BRANCH  29  54
ATOM     54  C   UNL A   1      46.982  34.963  28.340  1.00  0.00     0.058 A 
ATOM     55  C   UNL A   1      48.361  34.763  28.531  1.00  0.00     0.135 A 
ATOM     56  C   UNL A   1      46.567  35.462  27.097  1.00  0.00     0.135 A 
ATOM     57  F   UNL A   1      48.816  34.289  29.701  1.00  0.00    -0.206 F 
ATOM     58  C   UNL A   1      49.294  35.101  27.556  1.00  0.00     0.059 A 
ATOM     59  C   UNL A   1      47.480  35.785  26.094  1.00  0.00     0.059 A 
ATOM     60  F   UNL A   1      45.261  35.656  26.855  1.00  0.00    -0.206 F 
ATOM     61  C   UNL A   1      48.844  35.627  26.344  1.00  0.00     0.060 A 
BRANCH  61  62
ATOM     62  S   UNL A   1      50.076  36.126  25.122  1.00  0.00     0.124 S 
ATOM     63  O   UNL A   1      49.304  37.037  24.284  1.00  0.00    -0.237 OA
ATOM     64  O   UNL A   1      51.101  36.744  25.956  1.00  0.00    -0.237 OA
ATOM     65  O   UNL A   1      50.458  34.866  24.492  1.00  0.00    -0.744 OA
ENDBRANCH  61  62
ENDBRANCH  29  54
BRANCH  41  66
ATOM     66  C   UNL A   1      44.164  38.992  33.357  1.00  0.00     0.058 A 
ATOM     67  C   UNL A   1      43.556  39.983  32.572  1.00  0.00     0.135 A 
ATOM     68  C   UNL A   1      45.046  39.393  34.371  1.00  0.00     0.135 A 
ATOM     69  F   UNL A   1      42.711  39.642  31.585  1.00  0.00    -0.206 F 
ATOM     70  C   UNL A   1      43.857  41.325  32.746  1.00  0.00     0.059 A 
ATOM     71  C   UNL A   1      45.343  40.735  34.579  1.00  0.00     0.059 A 
ATOM     72  F   UNL A   1      45.640  38.477  35.151  1.00  0.00    -0.206 F 
ATOM     73  C   UNL A   1      44.765  41.690  33.742  1.00  0.00     0.060 A 
BRANCH  73  74
ATOM     74  S   UNL A   1      45.192  43.434  33.910  1.00  0.00     0.124 S 
ATOM     75  O   UNL A   1      46.403  43.524  33.102  1.00  0.00    -0.237 OA
ATOM     76  O   UNL A   1      44.011  44.093  33.360  1.00  0.00    -0.237 OA
ATOM     77  O   UNL A   1      45.382  43.600  35.348  1.00  0.00    -0.744 OA
ENDBRANCH  73  74
ENDBRANCH  41  66
ENDBRANCH  15  16
ENDBRANCH   8  10
ENDBRANCH   7   8
ENDBRANCH   6   7
ENDBRANCH   5   6
ENDBRANCH   4   5
ENDBRANCH   3   4
ENDBRANCH   2   3
ENDBRANCH   1   2
BRANCH   1  78
ATOM     78  C   UNL A   1      35.366  22.818  24.660  1.00  0.00     0.188 C 
BRANCH  78  79
ATOM     79  C   UNL A   1      34.681  22.979  23.284  1.00  0.00     0.188 C 
BRANCH  79  80
ATOM     80  O   UNL A   1      33.919  24.166  23.145  1.00  0.00    -0.376 OA
BRANCH  80  81
ATOM     81  C   UNL A   1      33.570  24.812  24.366  1.00  0.00     0.202 C 
BRANCH  81  82
ATOM     82  C   UNL A   1      33.916  26.308  24.457  1.00  0.00     0.261 C 
BRANCH  82  83
ATOM     83  O   UNL A   1      33.586  26.955  25.705  1.00  0.00    -0.460 OA
BRANCH  83  84
ATOM     84  C   UNL A   1      32.566  27.838  25.721  1.00  0.00     0.338 C 
ATOM     85  O   UNL A   1      31.391  27.622  25.485  1.00  0.00    -0.246 OA
BRANCH  84  86
ATOM     86  C   UNL A   1      33.074  29.091  26.329  1.00  0.00     0.063 A 
ATOM     87  C   UNL A   1      34.229  29.121  27.115  1.00  0.00     0.017 A 
ATOM     88  C   UNL A   1      32.270  30.232  26.231  1.00  0.00     0.056 A 
ATOM     89  C   UNL A   1      34.613  30.322  27.730  1.00  0.00     0.024 A 
ATOM     90  C   UNL A   1      32.588  31.367  26.967  1.00  0.00     0.142 A 
ATOM     91  C   UNL A   1      33.794  31.460  27.635  1.00  0.00     0.103 A 
ATOM     92  F   UNL A   1      31.640  32.294  27.107  1.00  0.00    -0.206 F 
BRANCH  91  93
ATOM     93  S   UNL A   1      34.386  32.971  28.332  1.00  0.00     0.186 S 
ATOM     94  O   UNL A   1      35.499  33.365  27.481  1.00  0.00    -0.223 OA
ATOM     95  O   UNL A   1      33.224  33.843  28.407  1.00  0.00    -0.223 OA
BRANCH  93  96
ATOM     96  C   UNL A   1      35.046  32.793  29.973  1.00  0.00     0.188 C 
BRANCH  96  97
ATOM     97  C   UNL A   1      36.533  32.642  30.113  1.00  0.00     0.020 A 
ATOM     98  C   UNL A   1      37.345  31.849  29.316  1.00  0.00     0.016 A 
ATOM     99  S   UNL A   1      37.461  33.494  31.269  1.00  0.00    -0.148 S 
ATOM    100  C   UNL A   1      38.699  31.840  29.746  1.00  0.00     0.012 A 
ATOM    101  C   UNL A   1      38.899  32.688  30.811  1.00  0.00     0.065 A 
ENDBRANCH  96  97
ENDBRANCH  93  96
ENDBRANCH  91  93
ENDBRANCH  84  86
ENDBRANCH  83  84
ENDBRANCH  82  83
ENDBRANCH  81  82
ENDBRANCH  80  81
ENDBRANCH  79  80
ENDBRANCH  78  79
ENDBRANCH   1  78
TORSDOF 26
ENDMDL
MODEL 3
REMARK VINA RESULT:      -7.7      5.228     15.468
REMARK SMILES O=C(OCCOCCOCCOCCOC(=O)c1ccc(S(=O)(=O)Cc2cccs2)c(F)c1)c1ccc(-c2c3nc(c(-c4c(F)cc(S(=O)(=O)[O-])cc4F)c4ccc([nH]4)c(-c4c(F)cc(S(=O)(=O)[O-])cc4F)c4nc(c(-c5c(F)cc(S(=O)(=O)[O-])cc5F)c5ccc2[nH]5)C=C4)C=C3)cc1
REMARK SMILES IDX 9 1 8 2 7 3 6 4 5 5 4 6 3 7 2 8 1 9 34 10 35 11 99 12 36 13
REMARK SMILES IDX 98 14 37 15 38 16 39 17 92 18 40 19 97 20 91 21 93 22 41 23
REMARK SMILES IDX 96 24 90 25 89 26 42 28 76 29 55 30 75 31 56 32 59 33 74 34
REMARK SMILES IDX 94 35 57 36 58 37 73 39 95 40 60 41 43 42 44 43 53 44 45 45
REMARK SMILES IDX 46 46 52 47 54 48 47 49 48 50 49 51 50 52 51 53 77 54 78 55
REMARK SMILES IDX 87 56 79 57 80 58 86 59 88 60 81 61 82 62 83 63 84 64 85 65
REMARK SMILES IDX 61 66 62 67 71 68 63 69 64 70 70 71 72 72 65 73 66 74 67 75
REMARK SMILES IDX 68 76 69 77 10 78 11 79 12 80 13 81 14 82 15 83 16 84 17 85
REMARK SMILES IDX 18 86 19 87 33 88 20 89 31 90 21 91 32 92 22 93 23 94 24 95
REMARK SMILES IDX 25 96 26 97 27 98 30 99 28 100 29 101
REMARK H PARENT 93 27 59 38
REMARK Flexibility Score: inf
ROOT
ATOM      1  O   UNL A   1      51.314  34.832  33.870  1.00  0.00    -0.377 OA
ENDROOT
BRANCH   1   2
ATOM      2  C   UNL A   1      52.091  35.688  33.034  1.00  0.00     0.188 C 
BRANCH   2   3
ATOM      3  C   UNL A   1      53.299  35.022  32.378  1.00  0.00     0.188 C 
BRANCH   3   4
ATOM      4  O   UNL A   1      53.070  34.793  30.986  1.00  0.00    -0.376 OA
BRANCH   4   5
ATOM      5  C   UNL A   1      51.706  34.813  30.568  1.00  0.00     0.202 C 
BRANCH   5   6
ATOM      6  C   UNL A   1      51.420  35.692  29.350  1.00  0.00     0.261 C 
BRANCH   6   7
ATOM      7  O   UNL A   1      50.071  36.173  29.323  1.00  0.00    -0.460 OA
BRANCH   7   8
ATOM      8  C   UNL A   1      49.017  35.719  30.047  1.00  0.00     0.338 C 
ATOM      9  O   UNL A   1      48.658  36.384  31.019  1.00  0.00    -0.246 OA
BRANCH   8  10
ATOM     10  C   UNL A   1      48.259  34.464  29.742  1.00  0.00     0.060 A 
ATOM     11  C   UNL A   1      48.074  33.384  30.609  1.00  0.00     0.016 A 
ATOM     12  C   UNL A   1      47.623  34.409  28.489  1.00  0.00     0.016 A 
ATOM     13  C   UNL A   1      47.343  32.263  30.243  1.00  0.00     0.010 A 
ATOM     14  C   UNL A   1      46.873  33.292  28.111  1.00  0.00     0.010 A 
ATOM     15  C   UNL A   1      46.763  32.204  28.983  1.00  0.00    -0.014 A 
BRANCH  15  16
ATOM     16  C   UNL A   1      46.234  30.911  28.527  1.00  0.00     0.031 A 
ATOM     17  C   UNL A   1      44.767  30.676  28.701  1.00  0.00     0.074 A 
ATOM     18  C   UNL A   1      47.027  30.041  27.879  1.00  0.00     0.049 A 
ATOM     19  N   UNL A   1      44.072  29.592  28.505  1.00  0.00    -0.248 NA
ATOM     20  C   UNL A   1      43.969  31.832  29.152  1.00  0.00     0.031 C 
ATOM     21  C   UNL A   1      48.429  30.279  27.533  1.00  0.00     0.029 A 
ATOM     22  N   UNL A   1      46.764  28.793  27.385  1.00  0.00    -0.354 N 
ATOM     23  C   UNL A   1      42.770  29.918  28.861  1.00  0.00     0.074 A 
ATOM     24  C   UNL A   1      42.762  31.302  29.270  1.00  0.00     0.031 C 
ATOM     25  C   UNL A   1      48.904  29.204  26.880  1.00  0.00     0.029 A 
ATOM     26  C   UNL A   1      47.865  28.181  26.837  1.00  0.00     0.049 A 
ATOM     27  H   UNL A   1      45.873  28.375  27.420  1.00  0.00     0.167 HD
ATOM     28  C   UNL A   1      41.688  29.109  28.863  1.00  0.00     0.037 A 
ATOM     29  C   UNL A   1      48.017  26.915  26.404  1.00  0.00     0.037 A 
ATOM     30  C   UNL A   1      41.751  27.738  28.438  1.00  0.00     0.049 A 
ATOM     31  C   UNL A   1      46.828  25.997  26.498  1.00  0.00     0.074 A 
ATOM     32  C   UNL A   1      40.749  26.789  28.429  1.00  0.00     0.029 A 
ATOM     33  N   UNL A   1      42.899  27.124  27.949  1.00  0.00    -0.354 N 
ATOM     34  N   UNL A   1      45.610  26.276  26.910  1.00  0.00    -0.248 NA
ATOM     35  C   UNL A   1      47.023  24.600  26.100  1.00  0.00     0.031 C 
ATOM     36  C   UNL A   1      41.307  25.586  27.984  1.00  0.00     0.029 A 
ATOM     37  C   UNL A   1      42.642  25.800  27.659  1.00  0.00     0.049 A 
ATOM     38  H   UNL A   1      43.769  27.569  27.827  1.00  0.00     0.167 HD
ATOM     39  C   UNL A   1      44.891  25.094  26.817  1.00  0.00     0.074 A 
ATOM     40  C   UNL A   1      45.810  24.095  26.298  1.00  0.00     0.031 C 
ATOM     41  C   UNL A   1      43.595  24.849  27.133  1.00  0.00     0.037 A 
BRANCH  28  42
ATOM     42  C   UNL A   1      40.410  29.666  29.422  1.00  0.00     0.058 A 
ATOM     43  C   UNL A   1      39.328  29.925  28.565  1.00  0.00     0.135 A 
ATOM     44  C   UNL A   1      40.224  29.897  30.795  1.00  0.00     0.135 A 
ATOM     45  F   UNL A   1      39.441  29.701  27.247  1.00  0.00    -0.206 F 
ATOM     46  C   UNL A   1      38.109  30.391  29.047  1.00  0.00     0.059 A 
ATOM     47  C   UNL A   1      39.004  30.338  31.303  1.00  0.00     0.059 A 
ATOM     48  F   UNL A   1      41.211  29.627  31.665  1.00  0.00    -0.206 F 
ATOM     49  C   UNL A   1      37.954  30.587  30.418  1.00  0.00     0.060 A 
BRANCH  49  50
ATOM     50  S   UNL A   1      36.337  31.106  31.036  1.00  0.00     0.124 S 
ATOM     51  O   UNL A   1      36.014  30.032  31.968  1.00  0.00    -0.237 OA
ATOM     52  O   UNL A   1      36.640  32.402  31.636  1.00  0.00    -0.237 OA
ATOM     53  O   UNL A   1      35.518  31.163  29.829  1.00  0.00    -0.744 OA
ENDBRANCH  49  50
ENDBRANCH  28  42
BRANCH  29  54
ATOM     54  C   UNL A   1      49.346  26.466  25.909  1.00  0.00     0.058 A 
ATOM     55  C   UNL A   1      50.227  25.758  26.746  1.00  0.00     0.135 A 
ATOM     56  C   UNL A   1      49.810  26.821  24.634  1.00  0.00     0.135 A 
ATOM     57  F   UNL A   1      49.837  25.393  27.977  1.00  0.00    -0.206 F 
ATOM     58  C   UNL A   1      51.532  25.468  26.361  1.00  0.00     0.059 A 
ATOM     59  C   UNL A   1      51.106  26.520  24.215  1.00  0.00     0.059 A 
ATOM     60  F   UNL A   1      49.005  27.482  23.789  1.00  0.00    -0.206 F 
ATOM     61  C   UNL A   1      51.968  25.868  25.098  1.00  0.00     0.060 A 
BRANCH  61  62
ATOM     62  S   UNL A   1      53.687  25.546  24.648  1.00  0.00     0.124 S 
ATOM     63  O   UNL A   1      53.743  24.090  24.729  1.00  0.00    -0.237 OA
ATOM     64  O   UNL A   1      53.762  26.110  23.304  1.00  0.00    -0.237 OA
ATOM     65  O   UNL A   1      54.444  26.261  25.670  1.00  0.00    -0.744 OA
ENDBRANCH  61  62
ENDBRANCH  29  54
BRANCH  41  66
ATOM     66  C   UNL A   1      43.077  23.459  26.912  1.00  0.00     0.058 A 
ATOM     67  C   UNL A   1      42.962  22.574  27.994  1.00  0.00     0.135 A 
ATOM     68  C   UNL A   1      42.860  22.963  25.618  1.00  0.00     0.135 A 
ATOM     69  F   UNL A   1      43.170  23.007  29.248  1.00  0.00    -0.206 F 
ATOM     70  C   UNL A   1      42.698  21.227  27.797  1.00  0.00     0.059 A 
ATOM     71  C   UNL A   1      42.570  21.620  25.401  1.00  0.00     0.059 A 
ATOM     72  F   UNL A   1      42.950  23.779  24.557  1.00  0.00    -0.206 F 
ATOM     73  C   UNL A   1      42.520  20.756  26.495  1.00  0.00     0.060 A 
BRANCH  73  74
ATOM     74  S   UNL A   1      42.242  18.990  26.256  1.00  0.00     0.124 S 
ATOM     75  O   UNL A   1      43.252  18.662  25.256  1.00  0.00    -0.237 OA
ATOM     76  O   UNL A   1      42.479  18.459  27.595  1.00  0.00    -0.237 OA
ATOM     77  O   UNL A   1      40.857  18.924  25.799  1.00  0.00    -0.744 OA
ENDBRANCH  73  74
ENDBRANCH  41  66
ENDBRANCH  15  16
ENDBRANCH   8  10
ENDBRANCH   7   8
ENDBRANCH   6   7
ENDBRANCH   5   6
ENDBRANCH   4   5
ENDBRANCH   3   4
ENDBRANCH   2   3
ENDBRANCH   1   2
BRANCH   1  78
ATOM     78  C   UNL A   1      51.934  33.622  34.289  1.00  0.00     0.188 C 
BRANCH  78  79
ATOM     79  C   UNL A   1      51.373  32.278  33.771  1.00  0.00     0.188 C 
BRANCH  79  80
ATOM     80  O   UNL A   1      52.348  31.415  33.211  1.00  0.00    -0.376 OA
BRANCH  80  81
ATOM     81  C   UNL A   1      52.431  30.123  33.806  1.00  0.00     0.202 C 
BRANCH  81  82
ATOM     82  C   UNL A   1      53.461  29.163  33.186  1.00  0.00     0.261 C 
BRANCH  82  83
ATOM     83  O   UNL A   1      52.930  28.169  32.284  1.00  0.00    -0.460 OA
BRANCH  83  84
ATOM     84  C   UNL A   1      52.515  28.565  31.063  1.00  0.00     0.338 C 
ATOM     85  O   UNL A   1      53.181  29.077  30.180  1.00  0.00    -0.246 OA
BRANCH  84  86
ATOM     86  C   UNL A   1      51.143  28.040  30.869  1.00  0.00     0.063 A 
ATOM     87  C   UNL A   1      50.046  28.884  30.670  1.00  0.00     0.017 A 
ATOM     88  C   UNL A   1      50.941  26.669  31.053  1.00  0.00     0.056 A 
ATOM     89  C   UNL A   1      48.760  28.331  30.575  1.00  0.00     0.024 A 
ATOM     90  C   UNL A   1      49.647  26.161  31.103  1.00  0.00     0.142 A 
ATOM     91  C   UNL A   1      48.565  26.953  30.772  1.00  0.00     0.103 A 
ATOM     92  F   UNL A   1      49.488  24.936  31.604  1.00  0.00    -0.206 F 
BRANCH  91  93
ATOM     93  S   UNL A   1      46.943  26.299  30.526  1.00  0.00     0.186 S 
ATOM     94  O   UNL A   1      46.151  27.428  30.060  1.00  0.00    -0.223 OA
ATOM     95  O   UNL A   1      47.117  25.157  29.641  1.00  0.00    -0.223 OA
BRANCH  93  96
ATOM     96  C   UNL A   1      46.168  25.724  32.019  1.00  0.00     0.188 C 
BRANCH  96  97
ATOM     97  C   UNL A   1      46.382  26.527  33.268  1.00  0.00     0.020 A 
ATOM     98  C   UNL A   1      45.683  27.671  33.626  1.00  0.00     0.016 A 
ATOM     99  S   UNL A   1      47.507  26.097  34.483  1.00  0.00    -0.148 S 
ATOM    100  C   UNL A   1      46.170  28.261  34.823  1.00  0.00     0.012 A 
ATOM    101  C   UNL A   1      47.174  27.510  35.389  1.00  0.00     0.065 A 
ENDBRANCH  96  97
ENDBRANCH  93  96
ENDBRANCH  91  93
ENDBRANCH  84  86
ENDBRANCH  83  84
ENDBRANCH  82  83
ENDBRANCH  81  82
ENDBRANCH  80  81
ENDBRANCH  79  80
ENDBRANCH  78  79
ENDBRANCH   1  78
TORSDOF 26
ENDMDL
