MODEL 1
REMARK VINA RESULT:     -10.4      0.000      0.000
REMARK SMILES C[C@]1(c2ccccc2C(=O)OCCOCCOCCOCCOC(=O)c2ccc(-c3c4nc(c(-c5c(F)cc(S(=O)(=O)[O-])cc5F)c5ccc([nH]5)c(-c5c(F)cc(S(=O)(=O)[O-])cc5F)c5nc(c(-c6c(F)cc(S(=O)(=O)[O-])cc6F)c6ccc3[nH]6)C=C5)C=C4)cc2)NN=C(c2ccccc2)S1
REMARK SMILES IDX 18 1 17 2 16 3 15 4 14 5 13 6 12 7 11 8 9 9 10 10 8 11 3 12
REMARK SMILES IDX 4 13 5 14 7 15 6 16 2 17 1 18 92 19 101 20 93 21 94 23 95 24
REMARK SMILES IDX 96 25 100 26 97 27 99 28 98 29 19 30 20 31 21 32 22 33 23 34
REMARK SMILES IDX 24 35 25 36 26 37 27 38 91 39 28 40 90 41 29 42 30 43 31 44
REMARK SMILES IDX 84 45 32 46 89 47 83 48 85 49 33 50 88 51 82 52 81 53 34 55
REMARK SMILES IDX 68 56 47 57 67 58 48 59 51 60 66 61 86 62 49 63 50 64 65 66
REMARK SMILES IDX 87 67 52 68 35 69 36 70 45 71 37 72 38 73 44 74 46 75 39 76
REMARK SMILES IDX 40 77 41 78 42 79 43 80 69 81 70 82 79 83 71 84 72 85 78 86
REMARK SMILES IDX 80 87 73 88 74 89 75 90 76 91 77 92 53 93 54 94 63 95 55 96
REMARK SMILES IDX 56 97 62 98 64 99 57 100 58 101 59 102 60 103 61 104
REMARK H PARENT 92 22 85 54 51 65
REMARK Flexibility Score: inf
ROOT
ATOM      1  C   UNL A   1      35.681  33.938  28.535  1.00  0.00     0.188 C 
ENDROOT
BRANCH   1   2
ATOM      2  O   UNL A   1      36.201  32.611  28.523  1.00  0.00    -0.377 OA
BRANCH   2   3
ATOM      3  C   UNL A   1      35.544  31.654  27.703  1.00  0.00     0.188 C 
BRANCH   3   4
ATOM      4  C   UNL A   1      34.098  31.266  28.065  1.00  0.00     0.188 C 
BRANCH   4   5
ATOM      5  O   UNL A   1      33.519  30.426  27.077  1.00  0.00    -0.376 OA
BRANCH   5   6
ATOM      6  C   UNL A   1      33.557  29.005  27.253  1.00  0.00     0.202 C 
BRANCH   6   7
ATOM      7  C   UNL A   1      34.174  28.080  26.191  1.00  0.00     0.261 C 
BRANCH   7   8
ATOM      8  O   UNL A   1      33.758  26.717  26.345  1.00  0.00    -0.460 OA
BRANCH   8   9
ATOM      9  C   UNL A   1      33.891  25.947  25.233  1.00  0.00     0.338 C 
ATOM     10  O   UNL A   1      33.929  26.331  24.081  1.00  0.00    -0.246 OA
BRANCH   9  11
ATOM     11  C   UNL A   1      34.271  24.572  25.618  1.00  0.00     0.066 A 
ATOM     12  C   UNL A   1      33.383  23.517  25.909  1.00  0.00     0.004 A 
ATOM     13  C   UNL A   1      33.992  22.246  26.118  1.00  0.00     0.008 A 
ATOM     14  C   UNL A   1      35.377  22.039  26.064  1.00  0.00     0.000 A 
ATOM     15  C   UNL A   1      35.671  24.357  25.565  1.00  0.00     0.016 A 
ATOM     16  C   UNL A   1      36.221  23.101  25.795  1.00  0.00     0.001 A 
BRANCH  12  17
ATOM     17  C   UNL A   1      31.839  23.549  25.873  1.00  0.00     0.129 C 
ATOM     18  C   UNL A   1      31.321  22.107  25.970  1.00  0.00     0.054 C 
ATOM     19  N   UNL A   1      31.318  24.383  26.987  1.00  0.00    -0.288 NA
ATOM     20  S   UNL A   1      31.008  24.276  24.437  1.00  0.00    -0.070 SA
ATOM     21  N   UNL A   1      30.878  25.639  26.641  1.00  0.00    -0.171 NA
ATOM     22  H   UNL A   1      31.290  24.056  27.916  1.00  0.00     0.185 HD
ATOM     23  C   UNL A   1      30.711  25.729  25.354  1.00  0.00     0.126 C 
BRANCH  23  24
ATOM     24  C   UNL A   1      30.426  26.980  24.621  1.00  0.00     0.009 A 
ATOM     25  C   UNL A   1      30.885  28.167  25.173  1.00  0.00     0.011 A 
ATOM     26  C   UNL A   1      29.887  27.005  23.327  1.00  0.00     0.011 A 
ATOM     27  C   UNL A   1      30.972  29.311  24.377  1.00  0.00     0.001 A 
ATOM     28  C   UNL A   1      29.901  28.182  22.570  1.00  0.00     0.001 A 
ATOM     29  C   UNL A   1      30.490  29.326  23.079  1.00  0.00     0.000 A 
ENDBRANCH  23  24
ENDBRANCH  12  17
ENDBRANCH   9  11
ENDBRANCH   8   9
ENDBRANCH   7   8
ENDBRANCH   6   7
ENDBRANCH   5   6
ENDBRANCH   4   5
ENDBRANCH   3   4
ENDBRANCH   2   3
ENDBRANCH   1   2
BRANCH   1  30
ATOM     30  C   UNL A   1      34.843  34.334  29.765  1.00  0.00     0.188 C 
BRANCH  30  31
ATOM     31  O   UNL A   1      35.508  34.256  31.036  1.00  0.00    -0.376 OA
BRANCH  31  32
ATOM     32  C   UNL A   1      34.896  33.453  32.044  1.00  0.00     0.202 C 
BRANCH  32  33
ATOM     33  C   UNL A   1      35.313  31.975  31.849  1.00  0.00     0.261 C 
BRANCH  33  34
ATOM     34  O   UNL A   1      36.758  31.833  31.697  1.00  0.00    -0.460 OA
BRANCH  34  35
ATOM     35  C   UNL A   1      37.324  30.640  32.046  1.00  0.00     0.338 C 
ATOM     36  O   UNL A   1      36.830  29.802  32.784  1.00  0.00    -0.246 OA
BRANCH  35  37
ATOM     37  C   UNL A   1      38.558  30.378  31.233  1.00  0.00     0.060 A 
ATOM     38  C   UNL A   1      39.705  29.926  31.906  1.00  0.00     0.016 A 
ATOM     39  C   UNL A   1      38.590  30.464  29.839  1.00  0.00     0.016 A 
ATOM     40  C   UNL A   1      40.822  29.455  31.193  1.00  0.00     0.010 A 
ATOM     41  C   UNL A   1      39.750  30.078  29.131  1.00  0.00     0.010 A 
ATOM     42  C   UNL A   1      40.875  29.553  29.794  1.00  0.00    -0.014 A 
BRANCH  42  43
ATOM     43  C   UNL A   1      42.165  29.313  29.067  1.00  0.00     0.031 A 
ATOM     44  C   UNL A   1      42.432  27.920  28.549  1.00  0.00     0.074 A 
ATOM     45  C   UNL A   1      43.095  30.271  28.849  1.00  0.00     0.049 A 
ATOM     46  N   UNL A   1      43.523  27.419  28.030  1.00  0.00    -0.248 NA
ATOM     47  C   UNL A   1      41.312  26.966  28.622  1.00  0.00     0.031 C 
ATOM     48  C   UNL A   1      42.950  31.684  29.183  1.00  0.00     0.029 A 
ATOM     49  N   UNL A   1      44.359  30.199  28.294  1.00  0.00    -0.354 N 
ATOM     50  C   UNL A   1      43.222  26.098  27.720  1.00  0.00     0.074 A 
ATOM     51  C   UNL A   1      41.845  25.875  28.097  1.00  0.00     0.031 C 
ATOM     52  C   UNL A   1      44.076  32.342  28.845  1.00  0.00     0.029 A 
ATOM     53  C   UNL A   1      45.060  31.388  28.333  1.00  0.00     0.049 A 
ATOM     54  H   UNL A   1      44.726  29.373  27.905  1.00  0.00     0.167 HD
ATOM     55  C   UNL A   1      44.019  25.143  27.192  1.00  0.00     0.037 A 
ATOM     56  C   UNL A   1      46.355  31.665  28.048  1.00  0.00     0.037 A 
ATOM     57  C   UNL A   1      45.406  25.333  26.864  1.00  0.00     0.049 A 
ATOM     58  C   UNL A   1      47.273  30.539  27.609  1.00  0.00     0.074 A 
ATOM     59  C   UNL A   1      46.310  24.401  26.386  1.00  0.00     0.029 A 
ATOM     60  N   UNL A   1      46.092  26.529  26.996  1.00  0.00    -0.354 N 
ATOM     61  N   UNL A   1      46.980  29.286  27.352  1.00  0.00    -0.248 NA
ATOM     62  C   UNL A   1      48.702  30.857  27.452  1.00  0.00     0.031 C 
ATOM     63  C   UNL A   1      47.557  25.020  26.277  1.00  0.00     0.029 A 
ATOM     64  C   UNL A   1      47.417  26.352  26.634  1.00  0.00     0.049 A 
ATOM     65  H   UNL A   1      45.697  27.377  27.300  1.00  0.00     0.167 HD
ATOM     66  C   UNL A   1      48.181  28.678  26.989  1.00  0.00     0.074 A 
ATOM     67  C   UNL A   1      49.200  29.702  27.032  1.00  0.00     0.031 C 
ATOM     68  C   UNL A   1      48.421  27.384  26.663  1.00  0.00     0.037 A 
BRANCH  55  69
ATOM     69  C   UNL A   1      43.424  23.779  26.992  1.00  0.00     0.058 A 
ATOM     70  C   UNL A   1      43.255  22.887  28.061  1.00  0.00     0.135 A 
ATOM     71  C   UNL A   1      42.987  23.375  25.720  1.00  0.00     0.135 A 
ATOM     72  F   UNL A   1      43.687  23.215  29.289  1.00  0.00    -0.206 F 
ATOM     73  C   UNL A   1      42.676  21.638  27.876  1.00  0.00     0.059 A 
ATOM     74  C   UNL A   1      42.381  22.140  25.517  1.00  0.00     0.059 A 
ATOM     75  F   UNL A   1      43.142  24.187  24.662  1.00  0.00    -0.206 F 
ATOM     76  C   UNL A   1      42.234  21.275  26.601  1.00  0.00     0.060 A 
BRANCH  76  77
ATOM     77  S   UNL A   1      41.451  19.665  26.388  1.00  0.00     0.124 S 
ATOM     78  O   UNL A   1      41.651  19.064  27.704  1.00  0.00    -0.237 OA
ATOM     79  O   UNL A   1      40.076  20.032  26.062  1.00  0.00    -0.237 OA
ATOM     80  O   UNL A   1      42.209  19.057  25.300  1.00  0.00    -0.744 OA
ENDBRANCH  76  77
ENDBRANCH  55  69
BRANCH  56  81
ATOM     81  C   UNL A   1      46.928  33.034  28.256  1.00  0.00     0.058 A 
ATOM     82  C   UNL A   1      47.422  33.444  29.508  1.00  0.00     0.135 A 
ATOM     83  C   UNL A   1      46.898  34.000  27.236  1.00  0.00     0.135 A 
ATOM     84  F   UNL A   1      47.450  32.578  30.533  1.00  0.00    -0.206 F 
ATOM     85  C   UNL A   1      47.833  34.756  29.746  1.00  0.00     0.059 A 
ATOM     86  C   UNL A   1      47.334  35.307  27.439  1.00  0.00     0.059 A 
ATOM     87  F   UNL A   1      46.427  33.680  26.020  1.00  0.00    -0.206 F 
ATOM     88  C   UNL A   1      47.782  35.682  28.704  1.00  0.00     0.060 A 
BRANCH  88  89
ATOM     89  S   UNL A   1      48.324  37.379  29.013  1.00  0.00     0.124 S 
ATOM     90  O   UNL A   1      49.421  37.173  29.951  1.00  0.00    -0.237 OA
ATOM     91  O   UNL A   1      48.702  37.829  27.678  1.00  0.00    -0.237 OA
ATOM     92  O   UNL A   1      47.132  38.015  29.567  1.00  0.00    -0.744 OA
ENDBRANCH  88  89
ENDBRANCH  56  81
BRANCH  68  93
ATOM     93  C   UNL A   1      49.828  26.989  26.301  1.00  0.00     0.058 A 
ATOM     94  C   UNL A   1      50.716  26.473  27.257  1.00  0.00     0.135 A 
ATOM     95  C   UNL A   1      50.262  27.037  24.965  1.00  0.00     0.135 A 
ATOM     96  F   UNL A   1      50.356  26.409  28.549  1.00  0.00    -0.206 F 
ATOM     97  C   UNL A   1      51.986  26.026  26.904  1.00  0.00     0.059 A 
ATOM     98  C   UNL A   1      51.516  26.568  24.585  1.00  0.00     0.059 A 
ATOM     99  F   UNL A   1      49.449  27.511  24.008  1.00  0.00    -0.206 F 
ATOM    100  C   UNL A   1      52.374  26.069  25.564  1.00  0.00     0.060 A 
BRANCH 100 101
ATOM    101  S   UNL A   1      54.000  25.426  25.113  1.00  0.00     0.124 S 
ATOM    102  O   UNL A   1      54.743  25.601  26.356  1.00  0.00    -0.237 OA
ATOM    103  O   UNL A   1      53.697  24.046  24.745  1.00  0.00    -0.237 OA
ATOM    104  O   UNL A   1      54.414  26.286  24.008  1.00  0.00    -0.744 OA
ENDBRANCH 100 101
ENDBRANCH  68  93
ENDBRANCH  42  43
ENDBRANCH  35  37
ENDBRANCH  34  35
ENDBRANCH  33  34
ENDBRANCH  32  33
ENDBRANCH  31  32
ENDBRANCH  30  31
ENDBRANCH   1  30
TORSDOF 25
ENDMDL
MODEL 2
REMARK VINA RESULT:      -9.0      5.839     11.709
REMARK SMILES C[C@]1(c2ccccc2C(=O)OCCOCCOCCOCCOC(=O)c2ccc(-c3c4nc(c(-c5c(F)cc(S(=O)(=O)[O-])cc5F)c5ccc([nH]5)c(-c5c(F)cc(S(=O)(=O)[O-])cc5F)c5nc(c(-c6c(F)cc(S(=O)(=O)[O-])cc6F)c6ccc3[nH]6)C=C5)C=C4)cc2)NN=C(c2ccccc2)S1
REMARK SMILES IDX 18 1 17 2 16 3 15 4 14 5 13 6 12 7 11 8 9 9 10 10 8 11 3 12
REMARK SMILES IDX 4 13 5 14 7 15 6 16 2 17 1 18 92 19 101 20 93 21 94 23 95 24
REMARK SMILES IDX 96 25 100 26 97 27 99 28 98 29 19 30 20 31 21 32 22 33 23 34
REMARK SMILES IDX 24 35 25 36 26 37 27 38 91 39 28 40 90 41 29 42 30 43 31 44
REMARK SMILES IDX 84 45 32 46 89 47 83 48 85 49 33 50 88 51 82 52 81 53 34 55
REMARK SMILES IDX 68 56 47 57 67 58 48 59 51 60 66 61 86 62 49 63 50 64 65 66
REMARK SMILES IDX 87 67 52 68 35 69 36 70 45 71 37 72 38 73 44 74 46 75 39 76
REMARK SMILES IDX 40 77 41 78 42 79 43 80 69 81 70 82 79 83 71 84 72 85 78 86
REMARK SMILES IDX 80 87 73 88 74 89 75 90 76 91 77 92 53 93 54 94 63 95 55 96
REMARK SMILES IDX 56 97 62 98 64 99 57 100 58 101 59 102 60 103 61 104
REMARK H PARENT 92 22 85 54 51 65
REMARK Flexibility Score: inf
ROOT
ATOM      1  C   UNL A   1      33.816  26.182  25.622  1.00  0.00     0.188 C 
ENDROOT
BRANCH   1   2
ATOM      2  O   UNL A   1      34.590  25.102  25.105  1.00  0.00    -0.377 OA
BRANCH   2   3
ATOM      3  C   UNL A   1      34.675  23.919  25.888  1.00  0.00     0.188 C 
BRANCH   3   4
ATOM      4  C   UNL A   1      36.069  23.312  26.129  1.00  0.00     0.188 C 
BRANCH   4   5
ATOM      5  O   UNL A   1      37.102  24.182  25.692  1.00  0.00    -0.376 OA
BRANCH   5   6
ATOM      6  C   UNL A   1      38.112  24.596  26.619  1.00  0.00     0.202 C 
BRANCH   6   7
ATOM      7  C   UNL A   1      39.552  24.064  26.529  1.00  0.00     0.261 C 
BRANCH   7   8
ATOM      8  O   UNL A   1      40.493  25.089  26.186  1.00  0.00    -0.460 OA
BRANCH   8   9
ATOM      9  C   UNL A   1      41.657  25.056  26.885  1.00  0.00     0.338 C 
ATOM     10  O   UNL A   1      41.795  25.217  28.081  1.00  0.00    -0.246 OA
BRANCH   9  11
ATOM     11  C   UNL A   1      42.737  24.512  26.035  1.00  0.00     0.066 A 
ATOM     12  C   UNL A   1      43.737  25.261  25.383  1.00  0.00     0.004 A 
ATOM     13  C   UNL A   1      44.750  24.497  24.735  1.00  0.00     0.008 A 
ATOM     14  C   UNL A   1      44.760  23.095  24.715  1.00  0.00     0.000 A 
ATOM     15  C   UNL A   1      42.752  23.095  26.011  1.00  0.00     0.016 A 
ATOM     16  C   UNL A   1      43.751  22.391  25.348  1.00  0.00     0.001 A 
BRANCH  12  17
ATOM     17  C   UNL A   1      43.944  26.792  25.425  1.00  0.00     0.129 C 
ATOM     18  C   UNL A   1      45.400  27.095  25.043  1.00  0.00     0.054 C 
ATOM     19  N   UNL A   1      42.994  27.462  24.499  1.00  0.00    -0.288 NA
ATOM     20  S   UNL A   1      43.646  27.677  26.977  1.00  0.00    -0.070 SA
ATOM     21  N   UNL A   1      41.911  28.071  25.088  1.00  0.00    -0.171 NA
ATOM     22  H   UNL A   1      43.132  27.470  23.524  1.00  0.00     0.185 HD
ATOM     23  C   UNL A   1      42.102  28.211  26.367  1.00  0.00     0.126 C 
BRANCH  23  24
ATOM     24  C   UNL A   1      41.077  28.654  27.335  1.00  0.00     0.009 A 
ATOM     25  C   UNL A   1      41.510  29.055  28.590  1.00  0.00     0.011 A 
ATOM     26  C   UNL A   1      39.734  28.861  26.989  1.00  0.00     0.011 A 
ATOM     27  C   UNL A   1      40.662  29.811  29.404  1.00  0.00     0.001 A 
ATOM     28  C   UNL A   1      38.871  29.545  27.852  1.00  0.00     0.001 A 
ATOM     29  C   UNL A   1      39.350  30.064  29.043  1.00  0.00     0.000 A 
ENDBRANCH  23  24
ENDBRANCH  12  17
ENDBRANCH   9  11
ENDBRANCH   8   9
ENDBRANCH   7   8
ENDBRANCH   6   7
ENDBRANCH   5   6
ENDBRANCH   4   5
ENDBRANCH   3   4
ENDBRANCH   2   3
ENDBRANCH   1   2
BRANCH   1  30
ATOM     30  C   UNL A   1      33.606  27.384  24.684  1.00  0.00     0.188 C 
BRANCH  30  31
ATOM     31  O   UNL A   1      33.885  28.678  25.241  1.00  0.00    -0.376 OA
BRANCH  31  32
ATOM     32  C   UNL A   1      32.778  29.423  25.748  1.00  0.00     0.202 C 
BRANCH  32  33
ATOM     33  C   UNL A   1      33.104  29.920  27.178  1.00  0.00     0.261 C 
BRANCH  33  34
ATOM     34  O   UNL A   1      34.222  30.857  27.187  1.00  0.00    -0.460 OA
BRANCH  34  35
ATOM     35  C   UNL A   1      34.066  32.036  27.859  1.00  0.00     0.338 C 
ATOM     36  O   UNL A   1      33.090  32.767  27.802  1.00  0.00    -0.246 OA
BRANCH  35  37
ATOM     37  C   UNL A   1      35.165  32.226  28.862  1.00  0.00     0.060 A 
ATOM     38  C   UNL A   1      35.503  33.540  29.226  1.00  0.00     0.016 A 
ATOM     39  C   UNL A   1      35.793  31.167  29.523  1.00  0.00     0.016 A 
ATOM     40  C   UNL A   1      36.363  33.792  30.310  1.00  0.00     0.010 A 
ATOM     41  C   UNL A   1      36.729  31.426  30.549  1.00  0.00     0.010 A 
ATOM     42  C   UNL A   1      37.015  32.739  30.968  1.00  0.00    -0.014 A 
BRANCH  42  43
ATOM     43  C   UNL A   1      38.134  33.022  31.927  1.00  0.00     0.031 A 
ATOM     44  C   UNL A   1      39.510  33.258  31.353  1.00  0.00     0.074 A 
ATOM     45  C   UNL A   1      37.977  33.078  33.270  1.00  0.00     0.049 A 
ATOM     46  N   UNL A   1      40.660  33.369  31.965  1.00  0.00    -0.248 NA
ATOM     47  C   UNL A   1      39.597  33.396  29.889  1.00  0.00     0.031 C 
ATOM     48  C   UNL A   1      36.706  32.982  33.979  1.00  0.00     0.029 A 
ATOM     49  N   UNL A   1      38.902  33.226  34.286  1.00  0.00    -0.354 N 
ATOM     50  C   UNL A   1      41.602  33.584  30.966  1.00  0.00     0.074 A 
ATOM     51  C   UNL A   1      40.891  33.600  29.708  1.00  0.00     0.031 C 
ATOM     52  C   UNL A   1      36.925  33.057  35.305  1.00  0.00     0.029 A 
ATOM     53  C   UNL A   1      38.365  33.134  35.555  1.00  0.00     0.049 A 
ATOM     54  H   UNL A   1      39.859  33.383  34.120  1.00  0.00     0.167 HD
ATOM     55  C   UNL A   1      42.941  33.731  31.073  1.00  0.00     0.037 A 
ATOM     56  C   UNL A   1      38.961  33.062  36.769  1.00  0.00     0.037 A 
ATOM     57  C   UNL A   1      43.669  33.661  32.310  1.00  0.00     0.049 A 
ATOM     58  C   UNL A   1      40.477  33.068  36.849  1.00  0.00     0.074 A 
ATOM     59  C   UNL A   1      45.037  33.732  32.506  1.00  0.00     0.029 A 
ATOM     60  N   UNL A   1      43.092  33.487  33.558  1.00  0.00    -0.354 N 
ATOM     61  N   UNL A   1      41.356  33.239  35.890  1.00  0.00    -0.248 NA
ATOM     62  C   UNL A   1      41.082  32.840  38.173  1.00  0.00     0.031 C 
ATOM     63  C   UNL A   1      45.292  33.550  33.867  1.00  0.00     0.029 A 
ATOM     64  C   UNL A   1      44.080  33.420  34.526  1.00  0.00     0.049 A 
ATOM     65  H   UNL A   1      42.126  33.421  33.730  1.00  0.00     0.167 HD
ATOM     66  C   UNL A   1      42.608  33.155  36.497  1.00  0.00     0.074 A 
ATOM     67  C   UNL A   1      42.377  32.946  37.908  1.00  0.00     0.031 C 
ATOM     68  C   UNL A   1      43.839  33.231  35.933  1.00  0.00     0.037 A 
BRANCH  55  69
ATOM     69  C   UNL A   1      43.719  33.921  29.803  1.00  0.00     0.058 A 
ATOM     70  C   UNL A   1      44.175  32.830  29.050  1.00  0.00     0.135 A 
ATOM     71  C   UNL A   1      43.980  35.213  29.318  1.00  0.00     0.135 A 
ATOM     72  F   UNL A   1      43.979  31.576  29.489  1.00  0.00    -0.206 F 
ATOM     73  C   UNL A   1      44.869  33.012  27.859  1.00  0.00     0.059 A 
ATOM     74  C   UNL A   1      44.649  35.418  28.116  1.00  0.00     0.059 A 
ATOM     75  F   UNL A   1      43.578  36.290  30.011  1.00  0.00    -0.206 F 
ATOM     76  C   UNL A   1      45.094  34.310  27.396  1.00  0.00     0.060 A 
BRANCH  76  77
ATOM     77  S   UNL A   1      45.962  34.525  25.829  1.00  0.00     0.124 S 
ATOM     78  O   UNL A   1      44.931  34.147  24.867  1.00  0.00    -0.237 OA
ATOM     79  O   UNL A   1      46.309  35.942  25.862  1.00  0.00    -0.237 OA
ATOM     80  O   UNL A   1      47.089  33.604  25.933  1.00  0.00    -0.744 OA
ENDBRANCH  76  77
ENDBRANCH  55  69
BRANCH  56  81
ATOM     81  C   UNL A   1      38.165  32.870  38.024  1.00  0.00     0.058 A 
ATOM     82  C   UNL A   1      38.088  33.871  39.008  1.00  0.00     0.135 A 
ATOM     83  C   UNL A   1      37.550  31.641  38.315  1.00  0.00     0.135 A 
ATOM     84  F   UNL A   1      38.680  35.058  38.805  1.00  0.00    -0.206 F 
ATOM     85  C   UNL A   1      37.461  33.653  40.236  1.00  0.00     0.059 A 
ATOM     86  C   UNL A   1      36.889  31.410  39.520  1.00  0.00     0.059 A 
ATOM     87  F   UNL A   1      37.595  30.637  37.425  1.00  0.00    -0.206 F 
ATOM     88  C   UNL A   1      36.866  32.415  40.483  1.00  0.00     0.060 A 
BRANCH  88  89
ATOM     89  S   UNL A   1      36.048  32.139  42.071  1.00  0.00     0.124 S 
ATOM     90  O   UNL A   1      36.232  33.428  42.728  1.00  0.00    -0.237 OA
ATOM     91  O   UNL A   1      34.684  31.820  41.662  1.00  0.00    -0.237 OA
ATOM     92  O   UNL A   1      36.799  31.026  42.645  1.00  0.00    -0.744 OA
ENDBRANCH  88  89
ENDBRANCH  56  81
BRANCH  68  93
ATOM     93  C   UNL A   1      45.042  33.113  36.831  1.00  0.00     0.058 A 
ATOM     94  C   UNL A   1      45.588  34.231  37.480  1.00  0.00     0.135 A 
ATOM     95  C   UNL A   1      45.596  31.854  37.120  1.00  0.00     0.135 A 
ATOM     96  F   UNL A   1      45.101  35.458  37.236  1.00  0.00    -0.206 F 
ATOM     97  C   UNL A   1      46.643  34.107  38.378  1.00  0.00     0.059 A 
ATOM     98  C   UNL A   1      46.632  31.703  38.037  1.00  0.00     0.059 A 
ATOM     99  F   UNL A   1      45.105  30.750  36.536  1.00  0.00    -0.206 F 
ATOM    100  C   UNL A   1      47.154  32.838  38.657  1.00  0.00     0.060 A 
BRANCH 100 101
ATOM    101  S   UNL A   1      48.480  32.688  39.873  1.00  0.00     0.124 S 
ATOM    102  O   UNL A   1      48.670  31.243  39.926  1.00  0.00    -0.237 OA
ATOM    103  O   UNL A   1      49.561  33.446  39.250  1.00  0.00    -0.237 OA
ATOM    104  O   UNL A   1      47.913  33.291  41.075  1.00  0.00    -0.744 OA
ENDBRANCH 100 101
ENDBRANCH  68  93
ENDBRANCH  42  43
ENDBRANCH  35  37
ENDBRANCH  34  35
ENDBRANCH  33  34
ENDBRANCH  32  33
ENDBRANCH  31  32
ENDBRANCH  30  31
ENDBRANCH   1  30
TORSDOF 25
ENDMDL
MODEL 3
REMARK VINA RESULT:      -8.9      2.132      3.945
REMARK SMILES C[C@]1(c2ccccc2C(=O)OCCOCCOCCOCCOC(=O)c2ccc(-c3c4nc(c(-c5c(F)cc(S(=O)(=O)[O-])cc5F)c5ccc([nH]5)c(-c5c(F)cc(S(=O)(=O)[O-])cc5F)c5nc(c(-c6c(F)cc(S(=O)(=O)[O-])cc6F)c6ccc3[nH]6)C=C5)C=C4)cc2)NN=C(c2ccccc2)S1
REMARK SMILES IDX 18 1 17 2 16 3 15 4 14 5 13 6 12 7 11 8 9 9 10 10 8 11 3 12
REMARK SMILES IDX 4 13 5 14 7 15 6 16 2 17 1 18 92 19 101 20 93 21 94 23 95 24
REMARK SMILES IDX 96 25 100 26 97 27 99 28 98 29 19 30 20 31 21 32 22 33 23 34
REMARK SMILES IDX 24 35 25 36 26 37 27 38 91 39 28 40 90 41 29 42 30 43 31 44
REMARK SMILES IDX 84 45 32 46 89 47 83 48 85 49 33 50 88 51 82 52 81 53 34 55
REMARK SMILES IDX 68 56 47 57 67 58 48 59 51 60 66 61 86 62 49 63 50 64 65 66
REMARK SMILES IDX 87 67 52 68 35 69 36 70 45 71 37 72 38 73 44 74 46 75 39 76
REMARK SMILES IDX 40 77 41 78 42 79 43 80 69 81 70 82 79 83 71 84 72 85 78 86
REMARK SMILES IDX 80 87 73 88 74 89 75 90 76 91 77 92 53 93 54 94 63 95 55 96
REMARK SMILES IDX 56 97 62 98 64 99 57 100 58 101 59 102 60 103 61 104
REMARK H PARENT 92 22 85 54 51 65
REMARK Flexibility Score: inf
ROOT
ATOM      1  C   UNL A   1      39.039  30.948  29.959  1.00  0.00     0.188 C 
ENDROOT
BRANCH   1   2
ATOM      2  O   UNL A   1      39.081  29.758  29.174  1.00  0.00    -0.377 OA
BRANCH   2   3
ATOM      3  C   UNL A   1      37.913  29.407  28.445  1.00  0.00     0.188 C 
BRANCH   3   4
ATOM      4  C   UNL A   1      36.943  30.535  28.051  1.00  0.00     0.188 C 
BRANCH   4   5
ATOM      5  O   UNL A   1      35.598  30.200  28.357  1.00  0.00    -0.376 OA
BRANCH   5   6
ATOM      6  C   UNL A   1      34.982  29.090  27.695  1.00  0.00     0.202 C 
BRANCH   6   7
ATOM      7  C   UNL A   1      33.802  29.285  26.728  1.00  0.00     0.261 C 
BRANCH   7   8
ATOM      8  O   UNL A   1      33.314  28.043  26.204  1.00  0.00    -0.460 OA
BRANCH   8   9
ATOM      9  C   UNL A   1      32.002  27.793  26.451  1.00  0.00     0.338 C 
ATOM     10  O   UNL A   1      31.439  27.848  27.526  1.00  0.00    -0.246 OA
BRANCH   9  11
ATOM     11  C   UNL A   1      31.258  27.711  25.177  1.00  0.00     0.066 A 
ATOM     12  C   UNL A   1      30.665  26.553  24.635  1.00  0.00     0.004 A 
ATOM     13  C   UNL A   1      29.883  26.757  23.462  1.00  0.00     0.008 A 
ATOM     14  C   UNL A   1      29.718  28.011  22.857  1.00  0.00     0.000 A 
ATOM     15  C   UNL A   1      31.089  28.976  24.560  1.00  0.00     0.016 A 
ATOM     16  C   UNL A   1      30.331  29.124  23.403  1.00  0.00     0.001 A 
BRANCH  12  17
ATOM     17  C   UNL A   1      30.636  25.135  25.249  1.00  0.00     0.129 C 
ATOM     18  C   UNL A   1      29.616  25.123  26.396  1.00  0.00     0.054 C 
ATOM     19  N   UNL A   1      30.288  24.133  24.208  1.00  0.00    -0.288 NA
ATOM     20  S   UNL A   1      32.163  24.445  25.939  1.00  0.00    -0.070 SA
ATOM     21  N   UNL A   1      31.334  23.386  23.720  1.00  0.00    -0.171 NA
ATOM     22  H   UNL A   1      29.364  24.013  23.887  1.00  0.00     0.185 HD
ATOM     23  C   UNL A   1      32.371  23.485  24.499  1.00  0.00     0.126 C 
BRANCH  23  24
ATOM     24  C   UNL A   1      33.719  22.966  24.186  1.00  0.00     0.009 A 
ATOM     25  C   UNL A   1      34.614  23.831  23.573  1.00  0.00     0.011 A 
ATOM     26  C   UNL A   1      34.187  21.725  24.640  1.00  0.00     0.011 A 
ATOM     27  C   UNL A   1      35.978  23.533  23.583  1.00  0.00     0.001 A 
ATOM     28  C   UNL A   1      35.547  21.403  24.564  1.00  0.00     0.001 A 
ATOM     29  C   UNL A   1      36.453  22.331  24.079  1.00  0.00     0.000 A 
ENDBRANCH  23  24
ENDBRANCH  12  17
ENDBRANCH   9  11
ENDBRANCH   8   9
ENDBRANCH   7   8
ENDBRANCH   6   7
ENDBRANCH   5   6
ENDBRANCH   4   5
ENDBRANCH   3   4
ENDBRANCH   2   3
ENDBRANCH   1   2
BRANCH   1  30
ATOM     30  C   UNL A   1      38.680  30.776  31.445  1.00  0.00     0.188 C 
BRANCH  30  31
ATOM     31  O   UNL A   1      37.648  31.637  31.952  1.00  0.00    -0.376 OA
BRANCH  31  32
ATOM     32  C   UNL A   1      37.248  32.731  31.128  1.00  0.00     0.202 C 
BRANCH  32  33
ATOM     33  C   UNL A   1      37.413  34.055  31.912  1.00  0.00     0.261 C 
BRANCH  33  34
ATOM     34  O   UNL A   1      38.676  34.717  31.602  1.00  0.00    -0.460 OA
BRANCH  34  35
ATOM     35  C   UNL A   1      39.757  34.437  32.389  1.00  0.00     0.338 C 
ATOM     36  O   UNL A   1      39.785  34.486  33.609  1.00  0.00    -0.246 OA
BRANCH  35  37
ATOM     37  C   UNL A   1      40.869  33.844  31.575  1.00  0.00     0.060 A 
ATOM     38  C   UNL A   1      41.667  32.856  32.173  1.00  0.00     0.016 A 
ATOM     39  C   UNL A   1      41.082  34.152  30.228  1.00  0.00     0.016 A 
ATOM     40  C   UNL A   1      42.580  32.104  31.412  1.00  0.00     0.010 A 
ATOM     41  C   UNL A   1      42.067  33.459  29.490  1.00  0.00     0.010 A 
ATOM     42  C   UNL A   1      42.818  32.416  30.064  1.00  0.00    -0.014 A 
BRANCH  42  43
ATOM     43  C   UNL A   1      43.981  31.805  29.339  1.00  0.00     0.031 A 
ATOM     44  C   UNL A   1      43.836  30.384  28.849  1.00  0.00     0.074 A 
ATOM     45  C   UNL A   1      45.144  32.453  29.102  1.00  0.00     0.049 A 
ATOM     46  N   UNL A   1      44.735  29.583  28.338  1.00  0.00    -0.248 NA
ATOM     47  C   UNL A   1      42.491  29.790  28.941  1.00  0.00     0.031 C 
ATOM     48  C   UNL A   1      45.410  33.854  29.408  1.00  0.00     0.029 A 
ATOM     49  N   UNL A   1      46.330  32.014  28.547  1.00  0.00    -0.354 N 
ATOM     50  C   UNL A   1      44.068  28.398  28.054  1.00  0.00     0.074 A 
ATOM     51  C   UNL A   1      42.687  28.584  28.437  1.00  0.00     0.031 C 
ATOM     52  C   UNL A   1      46.674  34.158  29.056  1.00  0.00     0.029 A 
ATOM     53  C   UNL A   1      47.342  32.954  28.562  1.00  0.00     0.049 A 
ATOM     54  H   UNL A   1      46.445  31.111  28.173  1.00  0.00     0.167 HD
ATOM     55  C   UNL A   1      44.556  27.245  27.543  1.00  0.00     0.037 A 
ATOM     56  C   UNL A   1      48.660  32.846  28.269  1.00  0.00     0.037 A 
ATOM     57  C   UNL A   1      45.937  27.027  27.210  1.00  0.00     0.049 A 
ATOM     58  C   UNL A   1      49.216  31.497  27.851  1.00  0.00     0.074 A 
ATOM     59  C   UNL A   1      46.535  25.867  26.749  1.00  0.00     0.029 A 
ATOM     60  N   UNL A   1      46.937  27.979  27.317  1.00  0.00    -0.354 N 
ATOM     61  N   UNL A   1      48.577  30.375  27.619  1.00  0.00    -0.248 NA
ATOM     62  C   UNL A   1      50.676  31.391  27.685  1.00  0.00     0.031 C 
ATOM     63  C   UNL A   1      47.906  26.103  26.626  1.00  0.00     0.029 A 
ATOM     64  C   UNL A   1      48.154  27.425  26.957  1.00  0.00     0.049 A 
ATOM     65  H   UNL A   1      46.803  28.910  27.606  1.00  0.00     0.167 HD
ATOM     66  C   UNL A   1      49.552  29.443  27.266  1.00  0.00     0.074 A 
ATOM     67  C   UNL A   1      50.820  30.134  27.288  1.00  0.00     0.031 C 
ATOM     68  C   UNL A   1      49.411  28.128  26.964  1.00  0.00     0.037 A 
BRANCH  55  69
ATOM     69  C   UNL A   1      43.596  26.104  27.370  1.00  0.00     0.058 A 
ATOM     70  C   UNL A   1      42.972  25.849  26.140  1.00  0.00     0.135 A 
ATOM     71  C   UNL A   1      43.324  25.237  28.441  1.00  0.00     0.135 A 
ATOM     72  F   UNL A   1      43.174  26.669  25.097  1.00  0.00    -0.206 F 
ATOM     73  C   UNL A   1      42.107  24.774  25.978  1.00  0.00     0.059 A 
ATOM     74  C   UNL A   1      42.482  24.140  28.294  1.00  0.00     0.059 A 
ATOM     75  F   UNL A   1      43.884  25.450  29.643  1.00  0.00    -0.206 F 
ATOM     76  C   UNL A   1      41.874  23.919  27.059  1.00  0.00     0.060 A 
BRANCH  76  77
ATOM     77  S   UNL A   1      40.778  22.507  26.817  1.00  0.00     0.124 S 
ATOM     78  O   UNL A   1      39.503  23.167  26.553  1.00  0.00    -0.237 OA
ATOM     79  O   UNL A   1      41.391  21.833  25.677  1.00  0.00    -0.237 OA
ATOM     80  O   UNL A   1      40.861  21.790  28.085  1.00  0.00    -0.744 OA
ENDBRANCH  76  77
ENDBRANCH  55  69
BRANCH  56  81
ATOM     81  C   UNL A   1      49.601  33.998  28.450  1.00  0.00     0.058 A 
ATOM     82  C   UNL A   1      49.807  34.948  27.434  1.00  0.00     0.135 A 
ATOM     83  C   UNL A   1      50.395  34.116  29.604  1.00  0.00     0.135 A 
ATOM     84  F   UNL A   1      49.103  34.874  26.295  1.00  0.00    -0.206 F 
ATOM     85  C   UNL A   1      50.778  35.945  27.542  1.00  0.00     0.059 A 
ATOM     86  C   UNL A   1      51.347  35.123  29.749  1.00  0.00     0.059 A 
ATOM     87  F   UNL A   1      50.259  33.235  30.608  1.00  0.00    -0.206 F 
ATOM     88  C   UNL A   1      51.545  36.022  28.704  1.00  0.00     0.060 A 
BRANCH  88  89
ATOM     89  S   UNL A   1      52.795  37.321  28.844  1.00  0.00     0.124 S 
ATOM     90  O   UNL A   1      52.000  38.523  28.618  1.00  0.00    -0.237 OA
ATOM     91  O   UNL A   1      53.288  37.128  30.204  1.00  0.00    -0.237 OA
ATOM     92  O   UNL A   1      53.745  36.985  27.787  1.00  0.00    -0.744 OA
ENDBRANCH  88  89
ENDBRANCH  56  81
BRANCH  68  93
ATOM     93  C   UNL A   1      50.644  27.342  26.609  1.00  0.00     0.058 A 
ATOM     94  C   UNL A   1      51.436  26.730  27.592  1.00  0.00     0.135 A 
ATOM     95  C   UNL A   1      50.984  27.118  25.264  1.00  0.00     0.135 A 
ATOM     96  F   UNL A   1      51.161  26.916  28.893  1.00  0.00    -0.206 F 
ATOM     97  C   UNL A   1      52.525  25.931  27.257  1.00  0.00     0.059 A 
ATOM     98  C   UNL A   1      52.050  26.298  24.904  1.00  0.00     0.059 A 
ATOM     99  F   UNL A   1      50.254  27.669  24.281  1.00  0.00    -0.206 F 
ATOM    100  C   UNL A   1      52.819  25.713  25.910  1.00  0.00     0.060 A 
BRANCH 100 101
ATOM    101  S   UNL A   1      54.195  24.621  25.491  1.00  0.00     0.124 S 
ATOM    102  O   UNL A   1      53.495  23.426  25.033  1.00  0.00    -0.237 OA
ATOM    103  O   UNL A   1      54.892  25.382  24.458  1.00  0.00    -0.237 OA
ATOM    104  O   UNL A   1      54.918  24.482  26.751  1.00  0.00    -0.744 OA
ENDBRANCH 100 101
ENDBRANCH  68  93
ENDBRANCH  42  43
ENDBRANCH  35  37
ENDBRANCH  34  35
ENDBRANCH  33  34
ENDBRANCH  32  33
ENDBRANCH  31  32
ENDBRANCH  30  31
ENDBRANCH   1  30
TORSDOF 25
ENDMDL
