MODEL 1
REMARK VINA RESULT:     -10.5      0.000      0.000
REMARK SMILES Cc1cccc(NC(=O)[C@H]2C[C@H]2C(=O)OCCOCCOCCOCCOC(=O)c2ccc(-c3c4nc(c(-c5c(F)cc(S(=O)(=O)[O-])cc5F)c5ccc([nH]5)c(-c5c(F)cc(S(=O)(=O)[O-])cc5F)c5nc(c(-c6c(F)cc(S(=O)(=O)[O-])cc6F)c6ccc3[nH]6)C=C5)C=C4)cc2)c1
REMARK SMILES IDX 22 1 21 2 20 3 19 4 18 5 17 6 16 7 15 8 13 9 14 10 12 11
REMARK SMILES IDX 10 12 11 13 8 14 7 15 9 17 6 18 1 19 2 20 3 21 96 22 4 23
REMARK SMILES IDX 5 24 23 25 24 26 25 27 26 28 27 29 28 30 29 31 30 32 31 33
REMARK SMILES IDX 95 34 32 35 94 36 33 37 34 38 35 39 88 40 36 41 93 42 87 43
REMARK SMILES IDX 89 44 37 45 92 46 86 47 85 48 38 50 72 51 51 52 71 53 52 54
REMARK SMILES IDX 55 55 70 56 90 57 53 58 54 59 69 61 91 62 56 63 39 64 40 65
REMARK SMILES IDX 49 66 41 67 42 68 48 69 50 70 43 71 44 72 45 73 46 74 47 75
REMARK SMILES IDX 73 76 74 77 83 78 75 79 76 80 82 81 84 82 77 83 78 84 79 85
REMARK SMILES IDX 80 86 81 87 57 88 58 89 67 90 59 91 60 92 66 93 68 94 61 95
REMARK SMILES IDX 62 96 63 97 64 98 65 99
REMARK H PARENT 7 16 89 49 55 60
REMARK Flexibility Score: inf
ROOT
ATOM      1  C   UNL A   1      29.362  31.782  23.891  1.00  0.00     0.188 C 
ENDROOT
BRANCH   1   2
ATOM      2  O   UNL A   1      28.093  31.165  23.916  1.00  0.00    -0.377 OA
BRANCH   2   3
ATOM      3  C   UNL A   1      27.644  30.445  22.806  1.00  0.00     0.188 C 
BRANCH   3   4
ATOM      4  C   UNL A   1      28.612  29.663  21.892  1.00  0.00     0.188 C 
BRANCH   4   5
ATOM      5  O   UNL A   1      29.603  28.767  22.341  1.00  0.00    -0.376 OA
BRANCH   5   6
ATOM      6  C   UNL A   1      29.172  27.683  23.123  1.00  0.00     0.202 C 
BRANCH   6   7
ATOM      7  C   UNL A   1      30.149  27.089  24.131  1.00  0.00     0.261 C 
BRANCH   7   8
ATOM      8  O   UNL A   1      30.810  25.880  23.714  1.00  0.00    -0.463 OA
BRANCH   8   9
ATOM      9  C   UNL A   1      31.176  25.073  24.726  1.00  0.00     0.309 C 
ATOM     10  O   UNL A   1      31.773  25.433  25.742  1.00  0.00    -0.252 OA
BRANCH   9  11
ATOM     11  C   UNL A   1      30.913  23.631  24.547  1.00  0.00     0.112 C 
ATOM     12  C   UNL A   1      31.859  22.512  24.170  1.00  0.00     0.094 C 
ATOM     13  C   UNL A   1      31.171  22.565  25.546  1.00  0.00     0.030 C 
BRANCH  12  14
ATOM     14  C   UNL A   1      33.327  22.275  24.249  1.00  0.00     0.228 C 
ATOM     15  N   UNL A   1      33.868  21.026  24.472  1.00  0.00    -0.326 N 
ATOM     16  H   UNL A   1      34.748  21.059  24.913  1.00  0.00     0.169 HD
ATOM     17  O   UNL A   1      34.083  23.244  24.323  1.00  0.00    -0.274 OA
BRANCH  15  18
ATOM     18  C   UNL A   1      33.432  19.713  24.203  1.00  0.00     0.041 A 
ATOM     19  C   UNL A   1      34.917  16.239  24.879  1.00  0.00     0.044 C 
ATOM     20  C   UNL A   1      34.076  17.346  24.311  1.00  0.00    -0.049 A 
ATOM     21  C   UNL A   1      33.246  17.087  23.219  1.00  0.00     0.003 A 
ATOM     22  C   UNL A   1      34.171  18.665  24.791  1.00  0.00     0.029 A 
ATOM     23  C   UNL A   1      32.444  18.098  22.697  1.00  0.00     0.002 A 
ATOM     24  C   UNL A   1      32.509  19.398  23.212  1.00  0.00     0.026 A 
ENDBRANCH  15  18
ENDBRANCH  12  14
ENDBRANCH   9  11
ENDBRANCH   8   9
ENDBRANCH   7   8
ENDBRANCH   6   7
ENDBRANCH   5   6
ENDBRANCH   4   5
ENDBRANCH   3   4
ENDBRANCH   2   3
ENDBRANCH   1   2
BRANCH   1  25
ATOM     25  C   UNL A   1      30.333  31.639  25.024  1.00  0.00     0.188 C 
BRANCH  25  26
ATOM     26  O   UNL A   1      30.671  30.264  25.107  1.00  0.00    -0.376 OA
BRANCH  26  27
ATOM     27  C   UNL A   1      32.054  30.018  25.255  1.00  0.00     0.202 C 
BRANCH  27  28
ATOM     28  C   UNL A   1      32.598  30.501  26.602  1.00  0.00     0.261 C 
BRANCH  28  29
ATOM     29  O   UNL A   1      34.027  30.304  26.624  1.00  0.00    -0.460 OA
BRANCH  29  30
ATOM     30  C   UNL A   1      34.708  31.011  27.573  1.00  0.00     0.338 C 
ATOM     31  O   UNL A   1      34.552  32.199  27.785  1.00  0.00    -0.246 OA
BRANCH  30  32
ATOM     32  C   UNL A   1      35.715  30.130  28.243  1.00  0.00     0.060 A 
ATOM     33  C   UNL A   1      35.587  29.760  29.599  1.00  0.00     0.016 A 
ATOM     34  C   UNL A   1      36.909  29.873  27.580  1.00  0.00     0.016 A 
ATOM     35  C   UNL A   1      36.697  29.264  30.321  1.00  0.00     0.010 A 
ATOM     36  C   UNL A   1      38.009  29.472  28.310  1.00  0.00     0.010 A 
ATOM     37  C   UNL A   1      37.940  29.187  29.693  1.00  0.00    -0.014 A 
BRANCH  37  38
ATOM     38  C   UNL A   1      39.277  29.041  30.329  1.00  0.00     0.031 A 
ATOM     39  C   UNL A   1      40.097  27.872  29.878  1.00  0.00     0.074 A 
ATOM     40  C   UNL A   1      39.861  30.155  30.849  1.00  0.00     0.049 A 
ATOM     41  N   UNL A   1      41.374  27.779  29.970  1.00  0.00    -0.248 NA
ATOM     42  C   UNL A   1      39.522  26.711  29.191  1.00  0.00     0.031 C 
ATOM     43  C   UNL A   1      41.265  30.576  30.796  1.00  0.00     0.029 A 
ATOM     44  N   UNL A   1      39.268  31.251  31.459  1.00  0.00    -0.354 N 
ATOM     45  C   UNL A   1      41.820  26.728  29.187  1.00  0.00     0.074 A 
ATOM     46  C   UNL A   1      40.614  26.082  28.737  1.00  0.00     0.031 C 
ATOM     47  C   UNL A   1      41.447  31.764  31.391  1.00  0.00     0.029 A 
ATOM     48  C   UNL A   1      40.248  32.007  32.131  1.00  0.00     0.049 A 
ATOM     49  H   UNL A   1      38.308  31.465  31.428  1.00  0.00     0.167 HD
ATOM     50  C   UNL A   1      43.166  26.612  28.960  1.00  0.00     0.037 A 
ATOM     51  C   UNL A   1      40.183  31.994  33.489  1.00  0.00     0.037 A 
ATOM     52  C   UNL A   1      43.925  27.444  29.944  1.00  0.00     0.049 A 
ATOM     53  C   UNL A   1      41.163  30.916  34.053  1.00  0.00     0.074 A 
ATOM     54  C   UNL A   1      45.009  28.307  29.934  1.00  0.00     0.029 A 
ATOM     55  N   UNL A   1      43.421  27.550  31.251  1.00  0.00    -0.354 N 
ATOM     56  N   UNL A   1      41.980  30.194  33.297  1.00  0.00    -0.248 NA
ATOM     57  C   UNL A   1      41.385  30.578  35.455  1.00  0.00     0.031 C 
ATOM     58  C   UNL A   1      45.041  29.013  31.190  1.00  0.00     0.029 A 
ATOM     59  C   UNL A   1      44.042  28.516  32.016  1.00  0.00     0.049 A 
ATOM     60  H   UNL A   1      42.691  26.985  31.592  1.00  0.00     0.167 HD
ATOM     61  C   UNL A   1      42.790  29.357  34.011  1.00  0.00     0.074 A 
ATOM     62  C   UNL A   1      42.333  29.615  35.376  1.00  0.00     0.031 C 
ATOM     63  C   UNL A   1      43.770  28.542  33.463  1.00  0.00     0.037 A 
BRANCH  50  64
ATOM     64  C   UNL A   1      43.805  25.831  27.784  1.00  0.00     0.058 A 
ATOM     65  C   UNL A   1      43.872  24.417  27.798  1.00  0.00     0.135 A 
ATOM     66  C   UNL A   1      44.470  26.403  26.665  1.00  0.00     0.135 A 
ATOM     67  F   UNL A   1      43.294  23.709  28.778  1.00  0.00    -0.206 F 
ATOM     68  C   UNL A   1      44.531  23.650  26.818  1.00  0.00     0.059 A 
ATOM     69  C   UNL A   1      45.091  25.654  25.644  1.00  0.00     0.059 A 
ATOM     70  F   UNL A   1      44.596  27.727  26.520  1.00  0.00    -0.206 F 
ATOM     71  C   UNL A   1      45.133  24.273  25.734  1.00  0.00     0.060 A 
BRANCH  71  72
ATOM     72  S   UNL A   1      45.931  23.265  24.457  1.00  0.00     0.124 S 
ATOM     73  O   UNL A   1      46.425  22.126  25.225  1.00  0.00    -0.237 OA
ATOM     74  O   UNL A   1      44.825  22.980  23.547  1.00  0.00    -0.237 OA
ATOM     75  O   UNL A   1      46.962  24.146  23.917  1.00  0.00    -0.744 OA
ENDBRANCH  71  72
ENDBRANCH  50  64
BRANCH  51  76
ATOM     76  C   UNL A   1      38.826  32.648  33.788  1.00  0.00     0.058 A 
ATOM     77  C   UNL A   1      38.687  33.934  33.167  1.00  0.00     0.135 A 
ATOM     78  C   UNL A   1      37.630  31.889  33.814  1.00  0.00     0.135 A 
ATOM     79  F   UNL A   1      39.758  34.741  33.088  1.00  0.00    -0.206 F 
ATOM     80  C   UNL A   1      37.563  34.312  32.408  1.00  0.00     0.059 A 
ATOM     81  C   UNL A   1      36.480  32.266  33.070  1.00  0.00     0.059 A 
ATOM     82  F   UNL A   1      37.630  30.666  34.365  1.00  0.00    -0.206 F 
ATOM     83  C   UNL A   1      36.481  33.444  32.316  1.00  0.00     0.060 A 
BRANCH  83  84
ATOM     84  S   UNL A   1      35.165  33.809  31.103  1.00  0.00     0.124 S 
ATOM     85  O   UNL A   1      34.329  32.617  31.181  1.00  0.00    -0.237 OA
ATOM     86  O   UNL A   1      34.561  35.027  31.638  1.00  0.00    -0.237 OA
ATOM     87  O   UNL A   1      35.903  33.985  29.857  1.00  0.00    -0.744 OA
ENDBRANCH  83  84
ENDBRANCH  51  76
BRANCH  63  88
ATOM     88  C   UNL A   1      44.585  27.540  34.267  1.00  0.00     0.058 A 
ATOM     89  C   UNL A   1      45.915  27.744  34.634  1.00  0.00     0.135 A 
ATOM     90  C   UNL A   1      44.036  26.291  34.680  1.00  0.00     0.135 A 
ATOM     91  F   UNL A   1      46.636  28.737  34.090  1.00  0.00    -0.206 F 
ATOM     92  C   UNL A   1      46.564  26.915  35.548  1.00  0.00     0.059 A 
ATOM     93  C   UNL A   1      44.681  25.420  35.540  1.00  0.00     0.059 A 
ATOM     94  F   UNL A   1      42.838  25.851  34.278  1.00  0.00    -0.206 F 
ATOM     95  C   UNL A   1      45.917  25.780  36.033  1.00  0.00     0.060 A 
BRANCH  95  96
ATOM     96  S   UNL A   1      46.700  24.774  37.296  1.00  0.00     0.124 S 
ATOM     97  O   UNL A   1      47.684  25.694  37.857  1.00  0.00    -0.237 OA
ATOM     98  O   UNL A   1      45.563  24.457  38.156  1.00  0.00    -0.237 OA
ATOM     99  O   UNL A   1      47.255  23.649  36.548  1.00  0.00    -0.744 OA
ENDBRANCH  95  96
ENDBRANCH  63  88
ENDBRANCH  37  38
ENDBRANCH  30  32
ENDBRANCH  29  30
ENDBRANCH  28  29
ENDBRANCH  27  28
ENDBRANCH  26  27
ENDBRANCH  25  26
ENDBRANCH   1  25
TORSDOF 25
ENDMDL
MODEL 2
REMARK VINA RESULT:     -10.3      2.161      3.088
REMARK SMILES Cc1cccc(NC(=O)[C@H]2C[C@H]2C(=O)OCCOCCOCCOCCOC(=O)c2ccc(-c3c4nc(c(-c5c(F)cc(S(=O)(=O)[O-])cc5F)c5ccc([nH]5)c(-c5c(F)cc(S(=O)(=O)[O-])cc5F)c5nc(c(-c6c(F)cc(S(=O)(=O)[O-])cc6F)c6ccc3[nH]6)C=C5)C=C4)cc2)c1
REMARK SMILES IDX 22 1 21 2 20 3 19 4 18 5 17 6 16 7 15 8 13 9 14 10 12 11
REMARK SMILES IDX 10 12 11 13 8 14 7 15 9 17 6 18 1 19 2 20 3 21 96 22 4 23
REMARK SMILES IDX 5 24 23 25 24 26 25 27 26 28 27 29 28 30 29 31 30 32 31 33
REMARK SMILES IDX 95 34 32 35 94 36 33 37 34 38 35 39 88 40 36 41 93 42 87 43
REMARK SMILES IDX 89 44 37 45 92 46 86 47 85 48 38 50 72 51 51 52 71 53 52 54
REMARK SMILES IDX 55 55 70 56 90 57 53 58 54 59 69 61 91 62 56 63 39 64 40 65
REMARK SMILES IDX 49 66 41 67 42 68 48 69 50 70 43 71 44 72 45 73 46 74 47 75
REMARK SMILES IDX 73 76 74 77 83 78 75 79 76 80 82 81 84 82 77 83 78 84 79 85
REMARK SMILES IDX 80 86 81 87 57 88 58 89 67 90 59 91 60 92 66 93 68 94 61 95
REMARK SMILES IDX 62 96 63 97 64 98 65 99
REMARK H PARENT 7 16 89 49 55 60
REMARK Flexibility Score: inf
ROOT
ATOM      1  C   UNL A   1      29.254  29.542  22.647  1.00  0.00     0.188 C 
ENDROOT
BRANCH   1   2
ATOM      2  O   UNL A   1      28.029  29.083  23.176  1.00  0.00    -0.377 OA
BRANCH   2   3
ATOM      3  C   UNL A   1      27.731  27.718  23.168  1.00  0.00     0.188 C 
BRANCH   3   4
ATOM      4  C   UNL A   1      28.540  26.699  24.000  1.00  0.00     0.188 C 
BRANCH   4   5
ATOM      5  O   UNL A   1      29.942  26.707  24.149  1.00  0.00    -0.376 OA
BRANCH   5   6
ATOM      6  C   UNL A   1      30.659  25.722  23.451  1.00  0.00     0.202 C 
BRANCH   6   7
ATOM      7  C   UNL A   1      32.145  25.566  23.751  1.00  0.00     0.261 C 
BRANCH   7   8
ATOM      8  O   UNL A   1      32.467  24.695  24.851  1.00  0.00    -0.463 OA
BRANCH   8   9
ATOM      9  C   UNL A   1      33.728  24.226  24.834  1.00  0.00     0.309 C 
ATOM     10  O   UNL A   1      34.717  24.830  25.249  1.00  0.00    -0.252 OA
BRANCH   9  11
ATOM     11  C   UNL A   1      33.934  22.918  24.179  1.00  0.00     0.112 C 
ATOM     12  C   UNL A   1      33.937  21.526  24.772  1.00  0.00     0.094 C 
ATOM     13  C   UNL A   1      32.869  21.975  23.758  1.00  0.00     0.030 C 
BRANCH  12  14
ATOM     14  C   UNL A   1      33.368  20.875  25.984  1.00  0.00     0.228 C 
ATOM     15  N   UNL A   1      32.786  19.624  25.954  1.00  0.00    -0.326 N 
ATOM     16  H   UNL A   1      32.105  19.497  26.653  1.00  0.00     0.169 HD
ATOM     17  O   UNL A   1      33.221  21.545  27.007  1.00  0.00    -0.274 OA
BRANCH  15  18
ATOM     18  C   UNL A   1      32.960  18.489  25.135  1.00  0.00     0.041 A 
ATOM     19  C   UNL A   1      35.454  15.571  25.153  1.00  0.00     0.044 C 
ATOM     20  C   UNL A   1      34.414  16.557  24.705  1.00  0.00    -0.049 A 
ATOM     21  C   UNL A   1      34.028  16.586  23.364  1.00  0.00     0.003 A 
ATOM     22  C   UNL A   1      33.882  17.519  25.583  1.00  0.00     0.029 A 
ATOM     23  C   UNL A   1      33.047  17.479  22.939  1.00  0.00     0.002 A 
ATOM     24  C   UNL A   1      32.489  18.402  23.831  1.00  0.00     0.026 A 
ENDBRANCH  15  18
ENDBRANCH  12  14
ENDBRANCH   9  11
ENDBRANCH   8   9
ENDBRANCH   7   8
ENDBRANCH   6   7
ENDBRANCH   5   6
ENDBRANCH   4   5
ENDBRANCH   3   4
ENDBRANCH   2   3
ENDBRANCH   1   2
BRANCH   1  25
ATOM     25  C   UNL A   1      30.291  30.196  23.509  1.00  0.00     0.188 C 
BRANCH  25  26
ATOM     26  O   UNL A   1      31.399  29.311  23.564  1.00  0.00    -0.376 OA
BRANCH  26  27
ATOM     27  C   UNL A   1      32.101  29.340  24.789  1.00  0.00     0.202 C 
BRANCH  27  28
ATOM     28  C   UNL A   1      31.506  30.340  25.785  1.00  0.00     0.261 C 
BRANCH  28  29
ATOM     29  O   UNL A   1      32.289  30.312  26.996  1.00  0.00    -0.460 OA
BRANCH  29  30
ATOM     30  C   UNL A   1      32.973  31.457  27.287  1.00  0.00     0.338 C 
ATOM     31  O   UNL A   1      32.487  32.573  27.246  1.00  0.00    -0.246 OA
BRANCH  30  32
ATOM     32  C   UNL A   1      34.405  31.139  27.580  1.00  0.00     0.060 A 
ATOM     33  C   UNL A   1      34.850  29.810  27.737  1.00  0.00     0.016 A 
ATOM     34  C   UNL A   1      35.251  32.184  27.931  1.00  0.00     0.016 A 
ATOM     35  C   UNL A   1      36.080  29.530  28.375  1.00  0.00     0.010 A 
ATOM     36  C   UNL A   1      36.408  31.904  28.629  1.00  0.00     0.010 A 
ATOM     37  C   UNL A   1      36.836  30.583  28.892  1.00  0.00    -0.014 A 
BRANCH  37  38
ATOM     38  C   UNL A   1      37.944  30.511  29.881  1.00  0.00     0.031 A 
ATOM     39  C   UNL A   1      39.103  29.637  29.509  1.00  0.00     0.074 A 
ATOM     40  C   UNL A   1      38.093  31.547  30.751  1.00  0.00     0.049 A 
ATOM     41  N   UNL A   1      40.292  29.737  29.983  1.00  0.00    -0.248 NA
ATOM     42  C   UNL A   1      39.021  28.598  28.478  1.00  0.00     0.031 C 
ATOM     43  C   UNL A   1      39.321  32.194  31.223  1.00  0.00     0.029 A 
ATOM     44  N   UNL A   1      37.119  32.349  31.330  1.00  0.00    -0.354 N 
ATOM     45  C   UNL A   1      41.164  28.996  29.204  1.00  0.00     0.074 A 
ATOM     46  C   UNL A   1      40.309  28.287  28.287  1.00  0.00     0.031 C 
ATOM     47  C   UNL A   1      39.056  33.216  32.049  1.00  0.00     0.029 A 
ATOM     48  C   UNL A   1      37.678  33.072  32.403  1.00  0.00     0.049 A 
ATOM     49  H   UNL A   1      36.181  32.403  31.036  1.00  0.00     0.167 HD
ATOM     50  C   UNL A   1      42.511  29.162  29.397  1.00  0.00     0.037 A 
ATOM     51  C   UNL A   1      37.250  32.721  33.644  1.00  0.00     0.037 A 
ATOM     52  C   UNL A   1      42.760  29.845  30.704  1.00  0.00     0.049 A 
ATOM     53  C   UNL A   1      38.260  31.715  34.284  1.00  0.00     0.074 A 
ATOM     54  C   UNL A   1      43.576  30.852  31.194  1.00  0.00     0.029 A 
ATOM     55  N   UNL A   1      41.909  29.547  31.781  1.00  0.00    -0.354 N 
ATOM     56  N   UNL A   1      39.396  31.343  33.708  1.00  0.00    -0.248 NA
ATOM     57  C   UNL A   1      38.163  31.090  35.600  1.00  0.00     0.031 C 
ATOM     58  C   UNL A   1      43.101  31.228  32.501  1.00  0.00     0.029 A 
ATOM     59  C   UNL A   1      42.057  30.389  32.865  1.00  0.00     0.049 A 
ATOM     60  H   UNL A   1      41.264  28.804  31.766  1.00  0.00     0.167 HD
ATOM     61  C   UNL A   1      40.150  30.504  34.479  1.00  0.00     0.074 A 
ATOM     62  C   UNL A   1      39.292  30.345  35.652  1.00  0.00     0.031 C 
ATOM     63  C   UNL A   1      41.402  30.019  34.131  1.00  0.00     0.037 A 
BRANCH  50  64
ATOM     64  C   UNL A   1      43.608  28.805  28.364  1.00  0.00     0.058 A 
ATOM     65  C   UNL A   1      44.308  29.816  27.662  1.00  0.00     0.135 A 
ATOM     66  C   UNL A   1      43.952  27.496  27.930  1.00  0.00     0.135 A 
ATOM     67  F   UNL A   1      44.113  31.112  27.944  1.00  0.00    -0.206 F 
ATOM     68  C   UNL A   1      45.238  29.563  26.636  1.00  0.00     0.059 A 
ATOM     69  C   UNL A   1      44.919  27.216  26.941  1.00  0.00     0.059 A 
ATOM     70  F   UNL A   1      43.334  26.409  28.407  1.00  0.00    -0.206 F 
ATOM     71  C   UNL A   1      45.550  28.258  26.283  1.00  0.00     0.060 A 
BRANCH  71  72
ATOM     72  S   UNL A   1      46.788  27.955  24.996  1.00  0.00     0.124 S 
ATOM     73  O   UNL A   1      46.329  26.697  24.415  1.00  0.00    -0.237 OA
ATOM     74  O   UNL A   1      46.649  29.132  24.144  1.00  0.00    -0.237 OA
ATOM     75  O   UNL A   1      48.044  27.877  25.738  1.00  0.00    -0.744 OA
ENDBRANCH  71  72
ENDBRANCH  50  64
BRANCH  51  76
ATOM     76  C   UNL A   1      35.749  33.049  33.612  1.00  0.00     0.058 A 
ATOM     77  C   UNL A   1      35.449  34.306  34.235  1.00  0.00     0.135 A 
ATOM     78  C   UNL A   1      34.957  32.768  32.473  1.00  0.00     0.135 A 
ATOM     79  F   UNL A   1      36.140  34.677  35.326  1.00  0.00    -0.206 F 
ATOM     80  C   UNL A   1      34.649  35.298  33.636  1.00  0.00     0.059 A 
ATOM     81  C   UNL A   1      34.128  33.750  31.867  1.00  0.00     0.059 A 
ATOM     82  F   UNL A   1      35.143  31.623  31.799  1.00  0.00    -0.206 F 
ATOM     83  C   UNL A   1      34.035  35.032  32.417  1.00  0.00     0.060 A 
BRANCH  83  84
ATOM     84  S   UNL A   1      33.249  36.411  31.513  1.00  0.00     0.124 S 
ATOM     85  O   UNL A   1      33.466  36.035  30.121  1.00  0.00    -0.237 OA
ATOM     86  O   UNL A   1      31.861  36.344  31.964  1.00  0.00    -0.237 OA
ATOM     87  O   UNL A   1      33.991  37.577  31.976  1.00  0.00    -0.744 OA
ENDBRANCH  83  84
ENDBRANCH  51  76
BRANCH  63  88
ATOM     88  C   UNL A   1      42.175  29.001  34.957  1.00  0.00     0.058 A 
ATOM     89  C   UNL A   1      42.030  27.621  34.812  1.00  0.00     0.135 A 
ATOM     90  C   UNL A   1      43.092  29.403  35.970  1.00  0.00     0.135 A 
ATOM     91  F   UNL A   1      41.018  27.105  34.099  1.00  0.00    -0.206 F 
ATOM     92  C   UNL A   1      42.902  26.719  35.423  1.00  0.00     0.059 A 
ATOM     93  C   UNL A   1      43.930  28.524  36.635  1.00  0.00     0.059 A 
ATOM     94  F   UNL A   1      43.235  30.673  36.365  1.00  0.00    -0.206 F 
ATOM     95  C   UNL A   1      43.881  27.188  36.296  1.00  0.00     0.060 A 
BRANCH  95  96
ATOM     96  S   UNL A   1      45.078  26.048  36.994  1.00  0.00     0.124 S 
ATOM     97  O   UNL A   1      46.339  26.744  36.760  1.00  0.00    -0.237 OA
ATOM     98  O   UNL A   1      44.636  25.983  38.384  1.00  0.00    -0.237 OA
ATOM     99  O   UNL A   1      44.888  24.827  36.217  1.00  0.00    -0.744 OA
ENDBRANCH  95  96
ENDBRANCH  63  88
ENDBRANCH  37  38
ENDBRANCH  30  32
ENDBRANCH  29  30
ENDBRANCH  28  29
ENDBRANCH  27  28
ENDBRANCH  26  27
ENDBRANCH  25  26
ENDBRANCH   1  25
TORSDOF 25
ENDMDL
MODEL 3
REMARK VINA RESULT:     -10.3      2.406      3.994
REMARK SMILES Cc1cccc(NC(=O)[C@H]2C[C@H]2C(=O)OCCOCCOCCOCCOC(=O)c2ccc(-c3c4nc(c(-c5c(F)cc(S(=O)(=O)[O-])cc5F)c5ccc([nH]5)c(-c5c(F)cc(S(=O)(=O)[O-])cc5F)c5nc(c(-c6c(F)cc(S(=O)(=O)[O-])cc6F)c6ccc3[nH]6)C=C5)C=C4)cc2)c1
REMARK SMILES IDX 22 1 21 2 20 3 19 4 18 5 17 6 16 7 15 8 13 9 14 10 12 11
REMARK SMILES IDX 10 12 11 13 8 14 7 15 9 17 6 18 1 19 2 20 3 21 96 22 4 23
REMARK SMILES IDX 5 24 23 25 24 26 25 27 26 28 27 29 28 30 29 31 30 32 31 33
REMARK SMILES IDX 95 34 32 35 94 36 33 37 34 38 35 39 88 40 36 41 93 42 87 43
REMARK SMILES IDX 89 44 37 45 92 46 86 47 85 48 38 50 72 51 51 52 71 53 52 54
REMARK SMILES IDX 55 55 70 56 90 57 53 58 54 59 69 61 91 62 56 63 39 64 40 65
REMARK SMILES IDX 49 66 41 67 42 68 48 69 50 70 43 71 44 72 45 73 46 74 47 75
REMARK SMILES IDX 73 76 74 77 83 78 75 79 76 80 82 81 84 82 77 83 78 84 79 85
REMARK SMILES IDX 80 86 81 87 57 88 58 89 67 90 59 91 60 92 66 93 68 94 61 95
REMARK SMILES IDX 62 96 63 97 64 98 65 99
REMARK H PARENT 7 16 89 49 55 60
REMARK Flexibility Score: inf
ROOT
ATOM      1  C   UNL A   1      29.418  28.556  22.809  1.00  0.00     0.188 C 
ENDROOT
BRANCH   1   2
ATOM      2  O   UNL A   1      28.368  27.844  23.425  1.00  0.00    -0.377 OA
BRANCH   2   3
ATOM      3  C   UNL A   1      28.565  26.524  23.837  1.00  0.00     0.188 C 
BRANCH   3   4
ATOM      4  C   UNL A   1      29.806  26.097  24.649  1.00  0.00     0.188 C 
BRANCH   4   5
ATOM      5  O   UNL A   1      30.720  25.094  24.264  1.00  0.00    -0.376 OA
BRANCH   5   6
ATOM      6  C   UNL A   1      31.010  24.103  25.215  1.00  0.00     0.202 C 
BRANCH   6   7
ATOM      7  C   UNL A   1      31.121  22.659  24.739  1.00  0.00     0.261 C 
BRANCH   7   8
ATOM      8  O   UNL A   1      31.987  21.813  25.518  1.00  0.00    -0.463 OA
BRANCH   8   9
ATOM      9  C   UNL A   1      33.065  21.362  24.852  1.00  0.00     0.309 C 
ATOM     10  O   UNL A   1      33.099  21.103  23.649  1.00  0.00    -0.252 OA
BRANCH   9  11
ATOM     11  C   UNL A   1      34.266  21.075  25.662  1.00  0.00     0.112 C 
ATOM     12  C   UNL A   1      35.712  21.447  25.418  1.00  0.00     0.094 C 
ATOM     13  C   UNL A   1      34.920  22.005  26.614  1.00  0.00     0.030 C 
BRANCH  12  14
ATOM     14  C   UNL A   1      36.435  22.494  24.644  1.00  0.00     0.228 C 
ATOM     15  N   UNL A   1      37.548  23.146  25.133  1.00  0.00    -0.326 N 
ATOM     16  H   UNL A   1      37.663  24.049  24.758  1.00  0.00     0.169 HD
ATOM     17  O   UNL A   1      35.915  22.945  23.623  1.00  0.00    -0.274 OA
BRANCH  15  18
ATOM     18  C   UNL A   1      38.557  22.794  26.053  1.00  0.00     0.041 A 
ATOM     19  C   UNL A   1      40.951  24.825  28.261  1.00  0.00     0.044 C 
ATOM     20  C   UNL A   1      40.331  23.694  27.493  1.00  0.00    -0.049 A 
ATOM     21  C   UNL A   1      41.033  22.496  27.348  1.00  0.00     0.003 A 
ATOM     22  C   UNL A   1      39.097  23.838  26.833  1.00  0.00     0.029 A 
ATOM     23  C   UNL A   1      40.461  21.430  26.659  1.00  0.00     0.002 A 
ATOM     24  C   UNL A   1      39.210  21.567  26.045  1.00  0.00     0.026 A 
ENDBRANCH  15  18
ENDBRANCH  12  14
ENDBRANCH   9  11
ENDBRANCH   8   9
ENDBRANCH   7   8
ENDBRANCH   6   7
ENDBRANCH   5   6
ENDBRANCH   4   5
ENDBRANCH   3   4
ENDBRANCH   2   3
ENDBRANCH   1   2
BRANCH   1  25
ATOM     25  C   UNL A   1      30.280  29.514  23.574  1.00  0.00     0.188 C 
BRANCH  25  26
ATOM     26  O   UNL A   1      31.570  28.930  23.663  1.00  0.00    -0.376 OA
BRANCH  26  27
ATOM     27  C   UNL A   1      32.309  29.332  24.797  1.00  0.00     0.202 C 
BRANCH  27  28
ATOM     28  C   UNL A   1      31.574  30.380  25.637  1.00  0.00     0.261 C 
BRANCH  28  29
ATOM     29  O   UNL A   1      32.151  30.402  26.959  1.00  0.00    -0.460 OA
BRANCH  29  30
ATOM     30  C   UNL A   1      32.862  31.523  27.277  1.00  0.00     0.338 C 
ATOM     31  O   UNL A   1      32.395  32.648  27.293  1.00  0.00    -0.246 OA
BRANCH  30  32
ATOM     32  C   UNL A   1      34.295  31.171  27.520  1.00  0.00     0.060 A 
ATOM     33  C   UNL A   1      34.709  29.832  27.687  1.00  0.00     0.016 A 
ATOM     34  C   UNL A   1      35.184  32.197  27.816  1.00  0.00     0.016 A 
ATOM     35  C   UNL A   1      35.956  29.530  28.281  1.00  0.00     0.010 A 
ATOM     36  C   UNL A   1      36.359  31.898  28.473  1.00  0.00     0.010 A 
ATOM     37  C   UNL A   1      36.760  30.571  28.747  1.00  0.00    -0.014 A 
BRANCH  37  38
ATOM     38  C   UNL A   1      37.905  30.487  29.692  1.00  0.00     0.031 A 
ATOM     39  C   UNL A   1      39.055  29.630  29.259  1.00  0.00     0.074 A 
ATOM     40  C   UNL A   1      38.078  31.504  30.579  1.00  0.00     0.049 A 
ATOM     41  N   UNL A   1      40.261  29.730  29.691  1.00  0.00    -0.248 NA
ATOM     42  C   UNL A   1      38.943  28.613  28.209  1.00  0.00     0.031 C 
ATOM     43  C   UNL A   1      39.318  32.151  31.019  1.00  0.00     0.029 A 
ATOM     44  N   UNL A   1      37.120  32.286  31.211  1.00  0.00    -0.354 N 
ATOM     45  C   UNL A   1      41.109  29.012  28.864  1.00  0.00     0.074 A 
ATOM     46  C   UNL A   1      40.226  28.317  27.964  1.00  0.00     0.031 C 
ATOM     47  C   UNL A   1      39.076  33.153  31.877  1.00  0.00     0.029 A 
ATOM     48  C   UNL A   1      37.713  32.990  32.278  1.00  0.00     0.049 A 
ATOM     49  H   UNL A   1      36.172  32.338  30.953  1.00  0.00     0.167 HD
ATOM     50  C   UNL A   1      42.460  29.186  29.012  1.00  0.00     0.037 A 
ATOM     51  C   UNL A   1      37.334  32.608  33.526  1.00  0.00     0.037 A 
ATOM     52  C   UNL A   1      42.752  29.842  30.323  1.00  0.00     0.049 A 
ATOM     53  C   UNL A   1      38.374  31.597  34.107  1.00  0.00     0.074 A 
ATOM     54  C   UNL A   1      43.579  30.845  30.804  1.00  0.00     0.029 A 
ATOM     55  N   UNL A   1      41.944  29.514  31.424  1.00  0.00    -0.354 N 
ATOM     56  N   UNL A   1      39.491  31.247  33.481  1.00  0.00    -0.248 NA
ATOM     57  C   UNL A   1      38.330  30.943  35.411  1.00  0.00     0.031 C 
ATOM     58  C   UNL A   1      43.150  31.189  32.137  1.00  0.00     0.029 A 
ATOM     59  C   UNL A   1      42.126  30.333  32.519  1.00  0.00     0.049 A 
ATOM     60  H   UNL A   1      41.304  28.766  31.416  1.00  0.00     0.167 HD
ATOM     61  C   UNL A   1      40.279  30.398  34.205  1.00  0.00     0.074 A 
ATOM     62  C   UNL A   1      39.466  30.206  35.405  1.00  0.00     0.031 C 
ATOM     63  C   UNL A   1      41.521  29.931  33.800  1.00  0.00     0.037 A 
BRANCH  50  64
ATOM     64  C   UNL A   1      43.521  28.860  27.931  1.00  0.00     0.058 A 
ATOM     65  C   UNL A   1      44.128  27.582  27.864  1.00  0.00     0.135 A 
ATOM     66  C   UNL A   1      44.072  29.780  26.998  1.00  0.00     0.135 A 
ATOM     67  F   UNL A   1      43.730  26.588  28.669  1.00  0.00    -0.206 F 
ATOM     68  C   UNL A   1      45.173  27.252  26.980  1.00  0.00     0.059 A 
ATOM     69  C   UNL A   1      45.082  29.457  26.066  1.00  0.00     0.059 A 
ATOM     70  F   UNL A   1      43.696  31.064  26.966  1.00  0.00    -0.206 F 
ATOM     71  C   UNL A   1      45.642  28.190  26.073  1.00  0.00     0.060 A 
BRANCH  71  72
ATOM     72  S   UNL A   1      46.950  27.728  24.908  1.00  0.00     0.124 S 
ATOM     73  O   UNL A   1      48.151  27.844  25.729  1.00  0.00    -0.237 OA
ATOM     74  O   UNL A   1      46.570  26.369  24.534  1.00  0.00    -0.237 OA
ATOM     75  O   UNL A   1      46.827  28.718  23.841  1.00  0.00    -0.744 OA
ENDBRANCH  71  72
ENDBRANCH  50  64
BRANCH  51  76
ATOM     76  C   UNL A   1      35.831  32.925  33.556  1.00  0.00     0.058 A 
ATOM     77  C   UNL A   1      35.538  34.131  34.276  1.00  0.00     0.135 A 
ATOM     78  C   UNL A   1      35.011  32.720  32.420  1.00  0.00     0.135 A 
ATOM     79  F   UNL A   1      36.255  34.427  35.374  1.00  0.00    -0.206 F 
ATOM     80  C   UNL A   1      34.716  35.157  33.772  1.00  0.00     0.059 A 
ATOM     81  C   UNL A   1      34.160  33.737  31.909  1.00  0.00     0.059 A 
ATOM     82  F   UNL A   1      35.187  31.629  31.660  1.00  0.00    -0.206 F 
ATOM     83  C   UNL A   1      34.072  34.975  32.553  1.00  0.00     0.060 A 
BRANCH  83  84
ATOM     84  S   UNL A   1      33.254  36.408  31.772  1.00  0.00     0.124 S 
ATOM     85  O   UNL A   1      33.304  36.063  30.357  1.00  0.00    -0.237 OA
ATOM     86  O   UNL A   1      31.920  36.384  32.369  1.00  0.00    -0.237 OA
ATOM     87  O   UNL A   1      34.090  37.531  32.180  1.00  0.00    -0.744 OA
ENDBRANCH  83  84
ENDBRANCH  51  76
BRANCH  63  88
ATOM     88  C   UNL A   1      42.332  28.901  34.575  1.00  0.00     0.058 A 
ATOM     89  C   UNL A   1      42.006  27.545  34.629  1.00  0.00     0.135 A 
ATOM     90  C   UNL A   1      43.480  29.271  35.332  1.00  0.00     0.135 A 
ATOM     91  F   UNL A   1      40.815  27.104  34.195  1.00  0.00    -0.206 F 
ATOM     92  C   UNL A   1      42.880  26.597  35.160  1.00  0.00     0.059 A 
ATOM     93  C   UNL A   1      44.335  28.355  35.921  1.00  0.00     0.059 A 
ATOM     94  F   UNL A   1      43.844  30.542  35.536  1.00  0.00    -0.206 F 
ATOM     95  C   UNL A   1      44.067  27.012  35.761  1.00  0.00     0.060 A 
BRANCH  95  96
ATOM     96  S   UNL A   1      45.249  25.793  36.342  1.00  0.00     0.124 S 
ATOM     97  O   UNL A   1      46.496  26.267  35.751  1.00  0.00    -0.237 OA
ATOM     98  O   UNL A   1      45.133  25.948  37.790  1.00  0.00    -0.237 OA
ATOM     99  O   UNL A   1      44.743  24.535  35.803  1.00  0.00    -0.744 OA
ENDBRANCH  95  96
ENDBRANCH  63  88
ENDBRANCH  37  38
ENDBRANCH  30  32
ENDBRANCH  29  30
ENDBRANCH  28  29
ENDBRANCH  27  28
ENDBRANCH  26  27
ENDBRANCH  25  26
ENDBRANCH   1  25
TORSDOF 25
ENDMDL
