MODEL 1
REMARK VINA RESULT:      -9.5      0.000      0.000
REMARK SMILES CCC(CC)(CC(=O)Nc1cccc(OC)c1)C(=O)OCCOCCOCCOCCOC(=O)c1ccc(-c2c3nc(c(-c4c(F)cc(S(=O)(=O)[O-])cc4F)c4ccc([nH]4)c(-c4c(F)cc(S(=O)(=O)[O-])cc4F)c4nc(c(-c5c(F)cc(S(=O)(=O)[O-])cc5F)c5ccc2[nH]5)C=C4)C=C3)cc1
REMARK SMILES IDX 25 1 24 2 23 3 22 4 21 5 20 6 18 7 19 8 3 9 2 10 1 11 4 12
REMARK SMILES IDX 5 13 6 14 7 15 8 16 9 17 10 19 11 20 17 21 12 22 14 23 13 24
REMARK SMILES IDX 15 25 16 26 26 27 27 28 28 29 29 30 30 31 31 32 32 33 33 34
REMARK SMILES IDX 34 35 35 36 36 37 100 38 37 39 99 40 38 41 39 42 40 43 93 44
REMARK SMILES IDX 41 45 98 46 92 47 94 48 42 49 97 50 91 51 90 52 43 54 77 55
REMARK SMILES IDX 56 56 76 57 57 58 60 59 75 60 95 61 58 62 59 63 74 65 96 66
REMARK SMILES IDX 61 67 44 68 45 69 54 70 46 71 47 72 53 73 55 74 48 75 49 76
REMARK SMILES IDX 50 77 51 78 52 79 78 80 79 81 88 82 80 83 81 84 87 85 89 86
REMARK SMILES IDX 82 87 83 88 84 89 85 90 86 91 62 92 63 93 72 94 64 95 65 96
REMARK SMILES IDX 71 97 73 98 66 99 67 100 68 101 69 102 70 103
REMARK H PARENT 9 18 94 53 60 64
REMARK Flexibility Score: inf
ROOT
ATOM      1  C   UNL A   1      34.051  22.109  27.583  1.00  0.00     0.188 C 
ENDROOT
BRANCH   1   2
ATOM      2  C   UNL A   1      32.593  22.555  27.386  1.00  0.00     0.188 C 
BRANCH   2   3
ATOM      3  O   UNL A   1      31.983  22.174  26.175  1.00  0.00    -0.376 OA
BRANCH   3   4
ATOM      4  C   UNL A   1      31.916  23.039  25.059  1.00  0.00     0.202 C 
BRANCH   4   5
ATOM      5  C   UNL A   1      31.824  22.545  23.603  1.00  0.00     0.261 C 
BRANCH   5   6
ATOM      6  O   UNL A   1      31.762  23.570  22.606  1.00  0.00    -0.463 OA
BRANCH   6   7
ATOM      7  C   UNL A   1      32.919  24.254  22.408  1.00  0.00     0.312 C 
ATOM      8  O   UNL A   1      33.982  23.686  22.176  1.00  0.00    -0.252 OA
BRANCH   7   9
ATOM      9  C   UNL A   1      32.702  25.788  22.193  1.00  0.00     0.076 C 
BRANCH   9  10
ATOM     10  C   UNL A   1      33.029  26.056  20.734  1.00  0.00     0.016 C 
ATOM     11  C   UNL A   1      32.290  25.374  19.596  1.00  0.00     0.005 C 
ENDBRANCH   9  10
BRANCH   9  12
ATOM     12  C   UNL A   1      33.779  26.441  23.137  1.00  0.00     0.016 C 
ATOM     13  C   UNL A   1      33.868  25.968  24.584  1.00  0.00     0.005 C 
ENDBRANCH   9  12
BRANCH   9  14
ATOM     14  C   UNL A   1      31.293  26.378  22.557  1.00  0.00     0.119 C 
BRANCH  14  15
ATOM     15  C   UNL A   1      30.841  27.863  22.758  1.00  0.00     0.225 C 
ATOM     16  O   UNL A   1      30.135  28.335  21.843  1.00  0.00    -0.275 OA
ATOM     17  N   UNL A   1      30.862  28.710  23.819  1.00  0.00    -0.326 N 
ATOM     18  H   UNL A   1      30.348  29.519  23.595  1.00  0.00     0.169 HD
BRANCH  17  19
ATOM     19  C   UNL A   1      31.363  28.829  25.127  1.00  0.00     0.044 A 
ATOM     20  C   UNL A   1      31.188  27.728  25.973  1.00  0.00     0.026 A 
ATOM     21  C   UNL A   1      31.851  29.986  25.717  1.00  0.00     0.072 A 
ATOM     22  C   UNL A   1      31.693  27.729  27.281  1.00  0.00     0.006 A 
ATOM     23  C   UNL A   1      32.473  29.968  26.970  1.00  0.00     0.120 A 
ATOM     24  C   UNL A   1      32.389  28.835  27.759  1.00  0.00     0.046 A 
BRANCH  23  25
ATOM     25  O   UNL A   1      33.081  31.070  27.507  1.00  0.00    -0.497 OA
ATOM     26  C   UNL A   1      34.509  31.016  27.450  1.00  0.00     0.278 C 
ENDBRANCH  23  25
ENDBRANCH  17  19
ENDBRANCH  14  15
ENDBRANCH   9  14
ENDBRANCH   7   9
ENDBRANCH   6   7
ENDBRANCH   5   6
ENDBRANCH   4   5
ENDBRANCH   3   4
ENDBRANCH   2   3
ENDBRANCH   1   2
BRANCH   1  27
ATOM     27  O   UNL A   1      35.175  22.689  26.955  1.00  0.00    -0.377 OA
BRANCH  27  28
ATOM     28  C   UNL A   1      35.569  22.219  25.690  1.00  0.00     0.188 C 
BRANCH  28  29
ATOM     29  C   UNL A   1      36.915  22.788  25.224  1.00  0.00     0.188 C 
BRANCH  29  30
ATOM     30  O   UNL A   1      38.009  21.892  25.154  1.00  0.00    -0.376 OA
BRANCH  30  31
ATOM     31  C   UNL A   1      39.055  21.900  26.112  1.00  0.00     0.202 C 
BRANCH  31  32
ATOM     32  C   UNL A   1      40.119  22.997  26.350  1.00  0.00     0.261 C 
BRANCH  32  33
ATOM     33  O   UNL A   1      39.724  24.360  26.467  1.00  0.00    -0.460 OA
BRANCH  33  34
ATOM     34  C   UNL A   1      40.665  25.296  26.249  1.00  0.00     0.338 C 
ATOM     35  O   UNL A   1      41.227  25.550  25.195  1.00  0.00    -0.246 OA
BRANCH  34  36
ATOM     36  C   UNL A   1      40.762  26.103  27.481  1.00  0.00     0.060 A 
ATOM     37  C   UNL A   1      39.749  25.996  28.446  1.00  0.00     0.016 A 
ATOM     38  C   UNL A   1      41.865  26.933  27.699  1.00  0.00     0.016 A 
ATOM     39  C   UNL A   1      39.820  26.740  29.619  1.00  0.00     0.010 A 
ATOM     40  C   UNL A   1      41.913  27.714  28.855  1.00  0.00     0.010 A 
ATOM     41  C   UNL A   1      40.869  27.648  29.795  1.00  0.00    -0.014 A 
BRANCH  41  42
ATOM     42  C   UNL A   1      40.721  28.721  30.801  1.00  0.00     0.031 A 
ATOM     43  C   UNL A   1      41.647  28.684  31.986  1.00  0.00     0.074 A 
ATOM     44  C   UNL A   1      39.821  29.709  30.658  1.00  0.00     0.049 A 
ATOM     45  N   UNL A   1      41.677  29.451  33.043  1.00  0.00    -0.248 NA
ATOM     46  C   UNL A   1      42.679  27.632  31.974  1.00  0.00     0.031 C 
ATOM     47  C   UNL A   1      38.921  29.876  29.518  1.00  0.00     0.029 A 
ATOM     48  N   UNL A   1      39.511  30.752  31.491  1.00  0.00    -0.354 N 
ATOM     49  C   UNL A   1      42.716  28.964  33.826  1.00  0.00     0.074 A 
ATOM     50  C   UNL A   1      43.276  27.823  33.139  1.00  0.00     0.031 C 
ATOM     51  C   UNL A   1      38.141  30.950  29.737  1.00  0.00     0.029 A 
ATOM     52  C   UNL A   1      38.461  31.519  31.045  1.00  0.00     0.049 A 
ATOM     53  H   UNL A   1      39.994  30.936  32.328  1.00  0.00     0.167 HD
ATOM     54  C   UNL A   1      43.165  29.431  35.015  1.00  0.00     0.037 A 
ATOM     55  C   UNL A   1      37.818  32.539  31.646  1.00  0.00     0.037 A 
ATOM     56  C   UNL A   1      42.591  30.563  35.690  1.00  0.00     0.049 A 
ATOM     57  C   UNL A   1      38.281  32.994  33.008  1.00  0.00     0.074 A 
ATOM     58  C   UNL A   1      42.966  31.127  36.895  1.00  0.00     0.029 A 
ATOM     59  N   UNL A   1      41.511  31.298  35.220  1.00  0.00    -0.354 N 
ATOM     60  N   UNL A   1      39.268  32.534  33.742  1.00  0.00    -0.248 NA
ATOM     61  C   UNL A   1      37.546  34.109  33.623  1.00  0.00     0.031 C 
ATOM     62  C   UNL A   1      42.074  32.164  37.184  1.00  0.00     0.029 A 
ATOM     63  C   UNL A   1      41.188  32.294  36.125  1.00  0.00     0.049 A 
ATOM     64  H   UNL A   1      41.043  31.135  34.369  1.00  0.00     0.167 HD
ATOM     65  C   UNL A   1      39.294  33.324  34.889  1.00  0.00     0.074 A 
ATOM     66  C   UNL A   1      38.227  34.294  34.746  1.00  0.00     0.031 C 
ATOM     67  C   UNL A   1      40.127  33.258  35.958  1.00  0.00     0.037 A 
BRANCH  54  68
ATOM     68  C   UNL A   1      44.295  28.687  35.671  1.00  0.00     0.058 A 
ATOM     69  C   UNL A   1      45.640  29.006  35.426  1.00  0.00     0.135 A 
ATOM     70  C   UNL A   1      44.025  27.637  36.565  1.00  0.00     0.135 A 
ATOM     71  F   UNL A   1      45.958  29.983  34.561  1.00  0.00    -0.206 F 
ATOM     72  C   UNL A   1      46.677  28.293  36.020  1.00  0.00     0.059 A 
ATOM     73  C   UNL A   1      45.046  26.933  37.196  1.00  0.00     0.059 A 
ATOM     74  F   UNL A   1      42.758  27.284  36.829  1.00  0.00    -0.206 F 
ATOM     75  C   UNL A   1      46.369  27.259  36.905  1.00  0.00     0.060 A 
BRANCH  75  76
ATOM     76  S   UNL A   1      47.725  26.347  37.670  1.00  0.00     0.124 S 
ATOM     77  O   UNL A   1      48.888  27.017  37.099  1.00  0.00    -0.237 OA
ATOM     78  O   UNL A   1      47.494  26.581  39.093  1.00  0.00    -0.237 OA
ATOM     79  O   UNL A   1      47.510  24.974  37.222  1.00  0.00    -0.744 OA
ENDBRANCH  75  76
ENDBRANCH  54  68
BRANCH  55  80
ATOM     80  C   UNL A   1      36.660  33.188  30.973  1.00  0.00     0.058 A 
ATOM     81  C   UNL A   1      35.346  32.956  31.403  1.00  0.00     0.135 A 
ATOM     82  C   UNL A   1      36.846  34.061  29.889  1.00  0.00     0.135 A 
ATOM     83  F   UNL A   1      35.113  32.120  32.426  1.00  0.00    -0.206 F 
ATOM     84  C   UNL A   1      34.256  33.560  30.780  1.00  0.00     0.059 A 
ATOM     85  C   UNL A   1      35.776  34.698  29.267  1.00  0.00     0.059 A 
ATOM     86  F   UNL A   1      38.083  34.322  29.439  1.00  0.00    -0.206 F 
ATOM     87  C   UNL A   1      34.482  34.435  29.717  1.00  0.00     0.060 A 
BRANCH  87  88
ATOM     88  S   UNL A   1      33.065  35.257  28.957  1.00  0.00     0.124 S 
ATOM     89  O   UNL A   1      33.676  36.470  28.429  1.00  0.00    -0.237 OA
ATOM     90  O   UNL A   1      32.639  34.273  27.967  1.00  0.00    -0.237 OA
ATOM     91  O   UNL A   1      32.147  35.448  30.076  1.00  0.00    -0.744 OA
ENDBRANCH  87  88
ENDBRANCH  55  80
BRANCH  67  92
ATOM     92  C   UNL A   1      39.961  34.293  37.038  1.00  0.00     0.058 A 
ATOM     93  C   UNL A   1      40.487  35.587  36.918  1.00  0.00     0.135 A 
ATOM     94  C   UNL A   1      39.197  34.000  38.181  1.00  0.00     0.135 A 
ATOM     95  F   UNL A   1      41.228  35.920  35.848  1.00  0.00    -0.206 F 
ATOM     96  C   UNL A   1      40.283  36.549  37.903  1.00  0.00     0.059 A 
ATOM     97  C   UNL A   1      38.952  34.955  39.163  1.00  0.00     0.059 A 
ATOM     98  F   UNL A   1      38.658  32.781  38.342  1.00  0.00    -0.206 F 
ATOM     99  C   UNL A   1      39.509  36.225  39.019  1.00  0.00     0.060 A 
BRANCH  99 100
ATOM    100  S   UNL A   1      39.218  37.494  40.269  1.00  0.00     0.124 S 
ATOM    101  O   UNL A   1      38.696  36.702  41.378  1.00  0.00    -0.237 OA
ATOM    102  O   UNL A   1      40.553  38.052  40.462  1.00  0.00    -0.237 OA
ATOM    103  O   UNL A   1      38.257  38.388  39.631  1.00  0.00    -0.744 OA
ENDBRANCH  99 100
ENDBRANCH  67  92
ENDBRANCH  41  42
ENDBRANCH  34  36
ENDBRANCH  33  34
ENDBRANCH  32  33
ENDBRANCH  31  32
ENDBRANCH  30  31
ENDBRANCH  29  30
ENDBRANCH  28  29
ENDBRANCH  27  28
ENDBRANCH   1  27
TORSDOF 29
ENDMDL
MODEL 2
REMARK VINA RESULT:      -6.8      6.653     14.751
REMARK SMILES CCC(CC)(CC(=O)Nc1cccc(OC)c1)C(=O)OCCOCCOCCOCCOC(=O)c1ccc(-c2c3nc(c(-c4c(F)cc(S(=O)(=O)[O-])cc4F)c4ccc([nH]4)c(-c4c(F)cc(S(=O)(=O)[O-])cc4F)c4nc(c(-c5c(F)cc(S(=O)(=O)[O-])cc5F)c5ccc2[nH]5)C=C4)C=C3)cc1
REMARK SMILES IDX 25 1 24 2 23 3 22 4 21 5 20 6 18 7 19 8 3 9 2 10 1 11 4 12
REMARK SMILES IDX 5 13 6 14 7 15 8 16 9 17 10 19 11 20 17 21 12 22 14 23 13 24
REMARK SMILES IDX 15 25 16 26 26 27 27 28 28 29 29 30 30 31 31 32 32 33 33 34
REMARK SMILES IDX 34 35 35 36 36 37 100 38 37 39 99 40 38 41 39 42 40 43 93 44
REMARK SMILES IDX 41 45 98 46 92 47 94 48 42 49 97 50 91 51 90 52 43 54 77 55
REMARK SMILES IDX 56 56 76 57 57 58 60 59 75 60 95 61 58 62 59 63 74 65 96 66
REMARK SMILES IDX 61 67 44 68 45 69 54 70 46 71 47 72 53 73 55 74 48 75 49 76
REMARK SMILES IDX 50 77 51 78 52 79 78 80 79 81 88 82 80 83 81 84 87 85 89 86
REMARK SMILES IDX 82 87 83 88 84 89 85 90 86 91 62 92 63 93 72 94 64 95 65 96
REMARK SMILES IDX 71 97 73 98 66 99 67 100 68 101 69 102 70 103
REMARK H PARENT 9 18 94 53 60 64
REMARK Flexibility Score: inf
ROOT
ATOM      1  C   UNL A   1      49.293  21.062  37.080  1.00  0.00     0.188 C 
ENDROOT
BRANCH   1   2
ATOM      2  C   UNL A   1      48.008  20.489  36.461  1.00  0.00     0.188 C 
BRANCH   2   3
ATOM      3  O   UNL A   1      47.297  19.562  37.249  1.00  0.00    -0.376 OA
BRANCH   3   4
ATOM      4  C   UNL A   1      46.247  19.954  38.112  1.00  0.00     0.202 C 
BRANCH   4   5
ATOM      5  C   UNL A   1      46.455  20.825  39.364  1.00  0.00     0.261 C 
BRANCH   5   6
ATOM      6  O   UNL A   1      46.709  20.109  40.577  1.00  0.00    -0.463 OA
BRANCH   6   7
ATOM      7  C   UNL A   1      45.617  19.880  41.353  1.00  0.00     0.312 C 
ATOM      8  O   UNL A   1      44.670  20.659  41.394  1.00  0.00    -0.252 OA
BRANCH   7   9
ATOM      9  C   UNL A   1      45.553  18.422  41.916  1.00  0.00     0.076 C 
BRANCH   9  10
ATOM     10  C   UNL A   1      45.913  18.526  43.389  1.00  0.00     0.016 C 
ATOM     11  C   UNL A   1      45.045  19.273  44.387  1.00  0.00     0.005 C 
ENDBRANCH   9  10
BRANCH   9  12
ATOM     12  C   UNL A   1      46.685  17.676  41.116  1.00  0.00     0.016 C 
ATOM     13  C   UNL A   1      47.076  16.266  41.547  1.00  0.00     0.005 C 
ENDBRANCH   9  12
BRANCH   9  14
ATOM     14  C   UNL A   1      44.207  17.635  41.734  1.00  0.00     0.119 C 
BRANCH  14  15
ATOM     15  C   UNL A   1      43.632  16.892  40.482  1.00  0.00     0.225 C 
ATOM     16  O   UNL A   1      43.975  17.364  39.377  1.00  0.00    -0.275 OA
ATOM     17  N   UNL A   1      43.004  15.701  40.308  1.00  0.00    -0.326 N 
ATOM     18  H   UNL A   1      42.929  15.513  39.345  1.00  0.00     0.169 HD
BRANCH  17  19
ATOM     19  C   UNL A   1      42.425  14.643  41.030  1.00  0.00     0.044 A 
ATOM     20  C   UNL A   1      41.554  13.802  40.328  1.00  0.00     0.026 A 
ATOM     21  C   UNL A   1      42.488  14.455  42.403  1.00  0.00     0.072 A 
ATOM     22  C   UNL A   1      40.961  12.691  40.946  1.00  0.00     0.006 A 
ATOM     23  C   UNL A   1      42.012  13.287  43.009  1.00  0.00     0.120 A 
ATOM     24  C   UNL A   1      41.239  12.403  42.278  1.00  0.00     0.046 A 
BRANCH  23  25
ATOM     25  O   UNL A   1      42.187  13.024  44.340  1.00  0.00    -0.497 OA
ATOM     26  C   UNL A   1      42.777  14.109  45.062  1.00  0.00     0.278 C 
ENDBRANCH  23  25
ENDBRANCH  17  19
ENDBRANCH  14  15
ENDBRANCH   9  14
ENDBRANCH   7   9
ENDBRANCH   6   7
ENDBRANCH   5   6
ENDBRANCH   4   5
ENDBRANCH   3   4
ENDBRANCH   2   3
ENDBRANCH   1   2
BRANCH   1  27
ATOM     27  O   UNL A   1      49.802  22.359  36.852  1.00  0.00    -0.377 OA
BRANCH  27  28
ATOM     28  C   UNL A   1      50.988  22.508  36.111  1.00  0.00     0.188 C 
BRANCH  28  29
ATOM     29  C   UNL A   1      50.976  23.730  35.187  1.00  0.00     0.188 C 
BRANCH  29  30
ATOM     30  O   UNL A   1      50.753  24.994  35.785  1.00  0.00    -0.376 OA
BRANCH  30  31
ATOM     31  C   UNL A   1      51.055  26.210  35.119  1.00  0.00     0.202 C 
BRANCH  31  32
ATOM     32  C   UNL A   1      51.189  26.453  33.598  1.00  0.00     0.261 C 
BRANCH  32  33
ATOM     33  O   UNL A   1      50.196  27.203  32.905  1.00  0.00    -0.460 OA
BRANCH  33  34
ATOM     34  C   UNL A   1      49.855  26.784  31.673  1.00  0.00     0.338 C 
ATOM     35  O   UNL A   1      50.501  26.060  30.932  1.00  0.00    -0.246 OA
BRANCH  34  36
ATOM     36  C   UNL A   1      48.457  27.202  31.449  1.00  0.00     0.060 A 
ATOM     37  C   UNL A   1      48.157  28.008  30.341  1.00  0.00     0.016 A 
ATOM     38  C   UNL A   1      47.443  26.768  32.307  1.00  0.00     0.016 A 
ATOM     39  C   UNL A   1      46.847  28.410  30.104  1.00  0.00     0.010 A 
ATOM     40  C   UNL A   1      46.136  27.209  32.095  1.00  0.00     0.010 A 
ATOM     41  C   UNL A   1      45.845  28.063  31.016  1.00  0.00    -0.014 A 
BRANCH  41  42
ATOM     42  C   UNL A   1      44.578  28.825  31.006  1.00  0.00     0.031 A 
ATOM     43  C   UNL A   1      43.404  28.196  30.308  1.00  0.00     0.074 A 
ATOM     44  C   UNL A   1      44.461  30.016  31.619  1.00  0.00     0.049 A 
ATOM     45  N   UNL A   1      42.212  28.679  30.085  1.00  0.00    -0.248 NA
ATOM     46  C   UNL A   1      43.610  26.834  29.786  1.00  0.00     0.031 C 
ATOM     47  C   UNL A   1      45.516  30.684  32.379  1.00  0.00     0.029 A 
ATOM     48  N   UNL A   1      43.398  30.878  31.683  1.00  0.00    -0.354 N 
ATOM     49  C   UNL A   1      41.533  27.689  29.385  1.00  0.00     0.074 A 
ATOM     50  C   UNL A   1      42.451  26.589  29.196  1.00  0.00     0.031 C 
ATOM     51  C   UNL A   1      45.050  31.868  32.815  1.00  0.00     0.029 A 
ATOM     52  C   UNL A   1      43.682  32.055  32.332  1.00  0.00     0.049 A 
ATOM     53  H   UNL A   1      42.514  30.674  31.300  1.00  0.00     0.167 HD
ATOM     54  C   UNL A   1      40.255  27.697  28.940  1.00  0.00     0.037 A 
ATOM     55  C   UNL A   1      42.931  33.163  32.485  1.00  0.00     0.037 A 
ATOM     56  C   UNL A   1      39.357  28.804  29.129  1.00  0.00     0.049 A 
ATOM     57  C   UNL A   1      41.536  33.185  31.912  1.00  0.00     0.074 A 
ATOM     58  C   UNL A   1      38.040  28.922  28.725  1.00  0.00     0.029 A 
ATOM     59  N   UNL A   1      39.690  29.991  29.768  1.00  0.00    -0.354 N 
ATOM     60  N   UNL A   1      40.897  32.243  31.255  1.00  0.00    -0.248 NA
ATOM     61  C   UNL A   1      40.756  34.417  32.102  1.00  0.00     0.031 C 
ATOM     62  C   UNL A   1      37.596  30.202  29.066  1.00  0.00     0.029 A 
ATOM     63  C   UNL A   1      38.611  30.858  29.746  1.00  0.00     0.049 A 
ATOM     64  H   UNL A   1      40.564  30.187  30.176  1.00  0.00     0.167 HD
ATOM     65  C   UNL A   1      39.631  32.756  30.983  1.00  0.00     0.074 A 
ATOM     66  C   UNL A   1      39.594  34.088  31.554  1.00  0.00     0.031 C 
ATOM     67  C   UNL A   1      38.592  32.177  30.330  1.00  0.00     0.037 A 
BRANCH  54  68
ATOM     68  C   UNL A   1      39.779  26.495  28.171  1.00  0.00     0.058 A 
ATOM     69  C   UNL A   1      38.935  25.530  28.743  1.00  0.00     0.135 A 
ATOM     70  C   UNL A   1      40.174  26.310  26.836  1.00  0.00     0.135 A 
ATOM     71  F   UNL A   1      38.547  25.644  30.023  1.00  0.00    -0.206 F 
ATOM     72  C   UNL A   1      38.522  24.410  28.029  1.00  0.00     0.059 A 
ATOM     73  C   UNL A   1      39.747  25.214  26.092  1.00  0.00     0.059 A 
ATOM     74  F   UNL A   1      40.988  27.196  26.242  1.00  0.00    -0.206 F 
ATOM     75  C   UNL A   1      38.933  24.262  26.703  1.00  0.00     0.060 A 
BRANCH  75  76
ATOM     76  S   UNL A   1      38.387  22.805  25.789  1.00  0.00     0.124 S 
ATOM     77  O   UNL A   1      37.355  22.274  26.674  1.00  0.00    -0.237 OA
ATOM     78  O   UNL A   1      37.911  23.384  24.536  1.00  0.00    -0.237 OA
ATOM     79  O   UNL A   1      39.596  21.995  25.682  1.00  0.00    -0.744 OA
ENDBRANCH  75  76
ENDBRANCH  54  68
BRANCH  55  80
ATOM     80  C   UNL A   1      43.487  34.347  33.195  1.00  0.00     0.058 A 
ATOM     81  C   UNL A   1      43.431  34.449  34.593  1.00  0.00     0.135 A 
ATOM     82  C   UNL A   1      44.096  35.398  32.489  1.00  0.00     0.135 A 
ATOM     83  F   UNL A   1      42.849  33.479  35.313  1.00  0.00    -0.206 F 
ATOM     84  C   UNL A   1      43.950  35.552  35.265  1.00  0.00     0.059 A 
ATOM     85  C   UNL A   1      44.646  36.497  33.140  1.00  0.00     0.059 A 
ATOM     86  F   UNL A   1      44.181  35.349  31.151  1.00  0.00    -0.206 F 
ATOM     87  C   UNL A   1      44.562  36.568  34.530  1.00  0.00     0.060 A 
BRANCH  87  88
ATOM     88  S   UNL A   1      45.285  37.965  35.420  1.00  0.00     0.124 S 
ATOM     89  O   UNL A   1      44.135  38.470  36.159  1.00  0.00    -0.237 OA
ATOM     90  O   UNL A   1      46.321  37.313  36.216  1.00  0.00    -0.237 OA
ATOM     91  O   UNL A   1      45.777  38.827  34.350  1.00  0.00    -0.744 OA
ENDBRANCH  87  88
ENDBRANCH  55  80
BRANCH  67  92
ATOM     92  C   UNL A   1      37.305  32.952  30.238  1.00  0.00     0.058 A 
ATOM     93  C   UNL A   1      36.980  33.725  29.114  1.00  0.00     0.135 A 
ATOM     94  C   UNL A   1      36.352  32.858  31.266  1.00  0.00     0.135 A 
ATOM     95  F   UNL A   1      37.856  33.853  28.103  1.00  0.00    -0.206 F 
ATOM     96  C   UNL A   1      35.764  34.397  29.020  1.00  0.00     0.059 A 
ATOM     97  C   UNL A   1      35.117  33.494  31.180  1.00  0.00     0.059 A 
ATOM     98  F   UNL A   1      36.605  32.122  32.359  1.00  0.00    -0.206 F 
ATOM     99  C   UNL A   1      34.837  34.270  30.057  1.00  0.00     0.060 A 
BRANCH  99 100
ATOM    100  S   UNL A   1      33.249  35.114  29.905  1.00  0.00     0.124 S 
ATOM    101  O   UNL A   1      32.740  35.033  31.270  1.00  0.00    -0.237 OA
ATOM    102  O   UNL A   1      33.645  36.444  29.453  1.00  0.00    -0.237 OA
ATOM    103  O   UNL A   1      32.529  34.312  28.920  1.00  0.00    -0.744 OA
ENDBRANCH  99 100
ENDBRANCH  67  92
ENDBRANCH  41  42
ENDBRANCH  34  36
ENDBRANCH  33  34
ENDBRANCH  32  33
ENDBRANCH  31  32
ENDBRANCH  30  31
ENDBRANCH  29  30
ENDBRANCH  28  29
ENDBRANCH  27  28
ENDBRANCH   1  27
TORSDOF 29
ENDMDL
MODEL 3
REMARK VINA RESULT:      -6.6      6.873     12.340
REMARK SMILES CCC(CC)(CC(=O)Nc1cccc(OC)c1)C(=O)OCCOCCOCCOCCOC(=O)c1ccc(-c2c3nc(c(-c4c(F)cc(S(=O)(=O)[O-])cc4F)c4ccc([nH]4)c(-c4c(F)cc(S(=O)(=O)[O-])cc4F)c4nc(c(-c5c(F)cc(S(=O)(=O)[O-])cc5F)c5ccc2[nH]5)C=C4)C=C3)cc1
REMARK SMILES IDX 25 1 24 2 23 3 22 4 21 5 20 6 18 7 19 8 3 9 2 10 1 11 4 12
REMARK SMILES IDX 5 13 6 14 7 15 8 16 9 17 10 19 11 20 17 21 12 22 14 23 13 24
REMARK SMILES IDX 15 25 16 26 26 27 27 28 28 29 29 30 30 31 31 32 32 33 33 34
REMARK SMILES IDX 34 35 35 36 36 37 100 38 37 39 99 40 38 41 39 42 40 43 93 44
REMARK SMILES IDX 41 45 98 46 92 47 94 48 42 49 97 50 91 51 90 52 43 54 77 55
REMARK SMILES IDX 56 56 76 57 57 58 60 59 75 60 95 61 58 62 59 63 74 65 96 66
REMARK SMILES IDX 61 67 44 68 45 69 54 70 46 71 47 72 53 73 55 74 48 75 49 76
REMARK SMILES IDX 50 77 51 78 52 79 78 80 79 81 88 82 80 83 81 84 87 85 89 86
REMARK SMILES IDX 82 87 83 88 84 89 85 90 86 91 62 92 63 93 72 94 64 95 65 96
REMARK SMILES IDX 71 97 73 98 66 99 67 100 68 101 69 102 70 103
REMARK H PARENT 9 18 94 53 60 64
REMARK Flexibility Score: inf
ROOT
ATOM      1  C   UNL A   1      45.624  25.032  25.371  1.00  0.00     0.188 C 
ENDROOT
BRANCH   1   2
ATOM      2  C   UNL A   1      44.815  26.337  25.311  1.00  0.00     0.188 C 
BRANCH   2   3
ATOM      3  O   UNL A   1      45.560  27.528  25.197  1.00  0.00    -0.376 OA
BRANCH   3   4
ATOM      4  C   UNL A   1      45.849  28.347  26.312  1.00  0.00     0.202 C 
BRANCH   4   5
ATOM      5  C   UNL A   1      44.767  28.961  27.220  1.00  0.00     0.261 C 
BRANCH   5   6
ATOM      6  O   UNL A   1      44.980  30.326  27.595  1.00  0.00    -0.463 OA
BRANCH   6   7
ATOM      7  C   UNL A   1      43.871  30.988  28.019  1.00  0.00     0.312 C 
ATOM      8  O   UNL A   1      42.835  30.402  28.318  1.00  0.00    -0.252 OA
BRANCH   7   9
ATOM      9  C   UNL A   1      44.144  32.484  28.381  1.00  0.00     0.076 C 
BRANCH   9  10
ATOM     10  C   UNL A   1      44.749  33.112  27.136  1.00  0.00     0.016 C 
ATOM     11  C   UNL A   1      43.975  33.250  25.837  1.00  0.00     0.005 C 
ENDBRANCH   9  10
BRANCH   9  12
ATOM     12  C   UNL A   1      45.212  32.389  29.533  1.00  0.00     0.016 C 
ATOM     13  C   UNL A   1      46.538  33.124  29.365  1.00  0.00     0.005 C 
ENDBRANCH   9  12
BRANCH   9  14
ATOM     14  C   UNL A   1      42.931  33.339  28.892  1.00  0.00     0.119 C 
BRANCH  14  15
ATOM     15  C   UNL A   1      42.789  34.888  29.069  1.00  0.00     0.225 C 
ATOM     16  O   UNL A   1      42.040  35.454  28.246  1.00  0.00    -0.275 OA
ATOM     17  N   UNL A   1      43.132  35.751  30.061  1.00  0.00    -0.326 N 
ATOM     18  H   UNL A   1      42.742  36.633  29.869  1.00  0.00     0.169 HD
BRANCH  17  19
ATOM     19  C   UNL A   1      43.852  35.816  31.266  1.00  0.00     0.044 A 
ATOM     20  C   UNL A   1      43.102  35.880  32.447  1.00  0.00     0.026 A 
ATOM     21  C   UNL A   1      45.220  36.004  31.397  1.00  0.00     0.072 A 
ATOM     22  C   UNL A   1      43.724  35.901  33.703  1.00  0.00     0.006 A 
ATOM     23  C   UNL A   1      45.863  35.898  32.634  1.00  0.00     0.120 A 
ATOM     24  C   UNL A   1      45.112  35.852  33.795  1.00  0.00     0.046 A 
BRANCH  23  25
ATOM     25  O   UNL A   1      47.225  35.945  32.764  1.00  0.00    -0.497 OA
ATOM     26  C   UNL A   1      47.660  36.641  33.936  1.00  0.00     0.278 C 
ENDBRANCH  23  25
ENDBRANCH  17  19
ENDBRANCH  14  15
ENDBRANCH   9  14
ENDBRANCH   7   9
ENDBRANCH   6   7
ENDBRANCH   5   6
ENDBRANCH   4   5
ENDBRANCH   3   4
ENDBRANCH   2   3
ENDBRANCH   1   2
BRANCH   1  27
ATOM     27  O   UNL A   1      46.028  24.268  24.254  1.00  0.00    -0.377 OA
BRANCH  27  28
ATOM     28  C   UNL A   1      46.082  22.868  24.366  1.00  0.00     0.188 C 
BRANCH  28  29
ATOM     29  C   UNL A   1      44.890  22.161  23.709  1.00  0.00     0.188 C 
BRANCH  29  30
ATOM     30  O   UNL A   1      43.724  21.991  24.494  1.00  0.00    -0.376 OA
BRANCH  30  31
ATOM     31  C   UNL A   1      43.644  21.024  25.529  1.00  0.00     0.202 C 
BRANCH  31  32
ATOM     32  C   UNL A   1      42.398  20.604  26.343  1.00  0.00     0.261 C 
BRANCH  32  33
ATOM     33  O   UNL A   1      41.974  21.387  27.455  1.00  0.00    -0.460 OA
BRANCH  33  34
ATOM     34  C   UNL A   1      41.371  22.560  27.188  1.00  0.00     0.338 C 
ATOM     35  O   UNL A   1      40.347  22.737  26.547  1.00  0.00    -0.246 OA
BRANCH  34  36
ATOM     36  C   UNL A   1      42.068  23.591  27.982  1.00  0.00     0.060 A 
ATOM     37  C   UNL A   1      41.978  24.933  27.584  1.00  0.00     0.016 A 
ATOM     38  C   UNL A   1      42.775  23.238  29.135  1.00  0.00     0.016 A 
ATOM     39  C   UNL A   1      42.620  25.924  28.318  1.00  0.00     0.010 A 
ATOM     40  C   UNL A   1      43.456  24.228  29.846  1.00  0.00     0.010 A 
ATOM     41  C   UNL A   1      43.412  25.565  29.413  1.00  0.00    -0.014 A 
BRANCH  41  42
ATOM     42  C   UNL A   1      44.413  26.531  29.916  1.00  0.00     0.031 A 
ATOM     43  C   UNL A   1      43.930  27.583  30.876  1.00  0.00     0.074 A 
ATOM     44  C   UNL A   1      45.707  26.461  29.560  1.00  0.00     0.049 A 
ATOM     45  N   UNL A   1      44.575  28.589  31.400  1.00  0.00    -0.248 NA
ATOM     46  C   UNL A   1      42.521  27.484  31.296  1.00  0.00     0.031 C 
ATOM     47  C   UNL A   1      46.292  25.443  28.689  1.00  0.00     0.029 A 
ATOM     48  N   UNL A   1      46.759  27.278  29.883  1.00  0.00    -0.354 N 
ATOM     49  C   UNL A   1      43.649  29.251  32.198  1.00  0.00     0.074 A 
ATOM     50  C   UNL A   1      42.392  28.550  32.069  1.00  0.00     0.031 C 
ATOM     51  C   UNL A   1      47.600  25.713  28.528  1.00  0.00     0.029 A 
ATOM     52  C   UNL A   1      47.932  26.939  29.252  1.00  0.00     0.049 A 
ATOM     53  H   UNL A   1      46.682  28.034  30.507  1.00  0.00     0.167 HD
ATOM     54  C   UNL A   1      43.832  30.347  32.971  1.00  0.00     0.037 A 
ATOM     55  C   UNL A   1      49.122  27.571  29.239  1.00  0.00     0.037 A 
ATOM     56  C   UNL A   1      45.088  31.038  33.080  1.00  0.00     0.049 A 
ATOM     57  C   UNL A   1      49.285  28.837  30.044  1.00  0.00     0.074 A 
ATOM     58  C   UNL A   1      45.392  32.155  33.835  1.00  0.00     0.029 A 
ATOM     59  N   UNL A   1      46.248  30.681  32.405  1.00  0.00    -0.354 N 
ATOM     60  N   UNL A   1      48.408  29.455  30.800  1.00  0.00    -0.248 NA
ATOM     61  C   UNL A   1      50.601  29.491  29.996  1.00  0.00     0.031 C 
ATOM     62  C   UNL A   1      46.718  32.510  33.569  1.00  0.00     0.029 A 
ATOM     63  C   UNL A   1      47.262  31.573  32.705  1.00  0.00     0.049 A 
ATOM     64  H   UNL A   1      46.335  29.908  31.801  1.00  0.00     0.167 HD
ATOM     65  C   UNL A   1      49.074  30.550  31.344  1.00  0.00     0.074 A 
ATOM     66  C   UNL A   1      50.429  30.505  30.834  1.00  0.00     0.031 C 
ATOM     67  C   UNL A   1      48.610  31.502  32.193  1.00  0.00     0.037 A 
BRANCH  54  68
ATOM     68  C   UNL A   1      42.638  30.882  33.712  1.00  0.00     0.058 A 
ATOM     69  C   UNL A   1      42.299  30.438  34.999  1.00  0.00     0.135 A 
ATOM     70  C   UNL A   1      41.822  31.862  33.122  1.00  0.00     0.135 A 
ATOM     71  F   UNL A   1      43.029  29.485  35.601  1.00  0.00    -0.206 F 
ATOM     72  C   UNL A   1      41.177  30.923  35.664  1.00  0.00     0.059 A 
ATOM     73  C   UNL A   1      40.714  32.385  33.781  1.00  0.00     0.059 A 
ATOM     74  F   UNL A   1      42.094  32.316  31.889  1.00  0.00    -0.206 F 
ATOM     75  C   UNL A   1      40.392  31.898  35.047  1.00  0.00     0.060 A 
BRANCH  75  76
ATOM     76  S   UNL A   1      38.942  32.519  35.923  1.00  0.00     0.124 S 
ATOM     77  O   UNL A   1      38.888  31.622  37.073  1.00  0.00    -0.237 OA
ATOM     78  O   UNL A   1      39.321  33.899  36.212  1.00  0.00    -0.237 OA
ATOM     79  O   UNL A   1      37.862  32.360  34.954  1.00  0.00    -0.744 OA
ENDBRANCH  75  76
ENDBRANCH  54  68
BRANCH  55  80
ATOM     80  C   UNL A   1      50.245  27.027  28.427  1.00  0.00     0.058 A 
ATOM     81  C   UNL A   1      50.368  27.328  27.064  1.00  0.00     0.135 A 
ATOM     82  C   UNL A   1      51.223  26.200  29.003  1.00  0.00     0.135 A 
ATOM     83  F   UNL A   1      49.453  28.103  26.463  1.00  0.00    -0.206 F 
ATOM     84  C   UNL A   1      51.416  26.825  26.297  1.00  0.00     0.059 A 
ATOM     85  C   UNL A   1      52.294  25.708  28.265  1.00  0.00     0.059 A 
ATOM     86  F   UNL A   1      51.155  25.884  30.306  1.00  0.00    -0.206 F 
ATOM     87  C   UNL A   1      52.378  26.021  26.909  1.00  0.00     0.060 A 
BRANCH  87  88
ATOM     88  S   UNL A   1      53.765  25.424  25.916  1.00  0.00     0.124 S 
ATOM     89  O   UNL A   1      53.219  24.194  25.356  1.00  0.00    -0.237 OA
ATOM     90  O   UNL A   1      53.960  26.524  24.976  1.00  0.00    -0.237 OA
ATOM     91  O   UNL A   1      54.832  25.253  26.898  1.00  0.00    -0.744 OA
ENDBRANCH  87  88
ENDBRANCH  55  80
BRANCH  67  92
ATOM     92  C   UNL A   1      49.584  32.546  32.672  1.00  0.00     0.058 A 
ATOM     93  C   UNL A   1      50.325  32.387  33.852  1.00  0.00     0.135 A 
ATOM     94  C   UNL A   1      49.829  33.690  31.893  1.00  0.00     0.135 A 
ATOM     95  F   UNL A   1      50.128  31.315  34.637  1.00  0.00    -0.206 F 
ATOM     96  C   UNL A   1      51.258  33.338  34.257  1.00  0.00     0.059 A 
ATOM     97  C   UNL A   1      50.780  34.636  32.262  1.00  0.00     0.059 A 
ATOM     98  F   UNL A   1      49.157  33.886  30.748  1.00  0.00    -0.206 F 
ATOM     99  C   UNL A   1      51.483  34.456  33.452  1.00  0.00     0.060 A 
BRANCH  99 100
ATOM    100  S   UNL A   1      52.724  35.660  33.968  1.00  0.00     0.124 S 
ATOM    101  O   UNL A   1      52.674  36.623  32.873  1.00  0.00    -0.237 OA
ATOM    102  O   UNL A   1      52.194  36.124  35.246  1.00  0.00    -0.237 OA
ATOM    103  O   UNL A   1      53.950  34.871  34.053  1.00  0.00    -0.744 OA
ENDBRANCH  99 100
ENDBRANCH  67  92
ENDBRANCH  41  42
ENDBRANCH  34  36
ENDBRANCH  33  34
ENDBRANCH  32  33
ENDBRANCH  31  32
ENDBRANCH  30  31
ENDBRANCH  29  30
ENDBRANCH  28  29
ENDBRANCH  27  28
ENDBRANCH   1  27
TORSDOF 29
ENDMDL
