MODEL 1
REMARK VINA RESULT:      -6.4      0.000      0.000
REMARK SMILES CCCCCCNC(=O)Oc1cccc(-c2ccc([C@@H](C)C(=O)OCCOCCOCCOCCOC(=O)c3ccc(-c4c5nc(c(-c6c(F)cc(S(=O)(=O)[O-])cc6F)c6ccc([nH]6)c(-c6c(F)cc(S(=O)(=O)[O-])cc6F)c6nc(c(-c7c(F)cc(S(=O)(=O)[O-])cc7F)c7ccc4[nH]7)C=C6)C=C5)cc3)cc2)c1
REMARK SMILES IDX 27 1 26 2 25 3 24 4 22 5 23 6 20 7 21 8 19 9 16 10 17 11
REMARK SMILES IDX 106 12 18 13 105 14 15 15 11 16 12 17 107 18 13 19 14 20
REMARK SMILES IDX 10 21 8 22 7 23 9 25 6 26 5 27 4 28 3 29 2 30 1 31 28 32
REMARK SMILES IDX 29 33 30 34 31 35 32 36 33 37 34 38 35 39 36 40 37 41 38 42
REMARK SMILES IDX 39 43 40 44 104 45 41 46 103 47 42 48 43 49 44 50 97 51
REMARK SMILES IDX 45 52 102 53 96 54 98 55 46 56 101 57 95 58 94 59 47 61
REMARK SMILES IDX 81 62 60 63 80 64 61 65 64 66 79 67 99 68 62 69 63 70 78 72
REMARK SMILES IDX 100 73 65 74 48 75 49 76 58 77 50 78 51 79 57 80 59 81 52 82
REMARK SMILES IDX 53 83 54 84 55 85 56 86 82 87 83 88 92 89 84 90 85 91 91 92
REMARK SMILES IDX 93 93 86 94 87 95 88 96 89 97 90 98 66 99 67 100 76 101
REMARK SMILES IDX 68 102 69 103 75 104 77 105 70 106 71 107 72 108 73 109
REMARK SMILES IDX 74 110
REMARK H PARENT 7 24 98 60 64 71
REMARK Flexibility Score: inf
ROOT
ATOM      1  O   UNL A   1      52.606  23.589  32.493  1.00  0.00    -0.376 OA
ENDROOT
BRANCH   1   2
ATOM      2  C   UNL A   1      51.196  23.643  32.666  1.00  0.00     0.202 C 
BRANCH   2   3
ATOM      3  C   UNL A   1      50.461  24.996  32.710  1.00  0.00     0.261 C 
BRANCH   3   4
ATOM      4  O   UNL A   1      49.195  25.075  32.022  1.00  0.00    -0.463 OA
BRANCH   4   5
ATOM      5  C   UNL A   1      48.112  25.347  32.783  1.00  0.00     0.313 C 
ATOM      6  O   UNL A   1      47.982  24.955  33.943  1.00  0.00    -0.252 OA
BRANCH   5   7
ATOM      7  C   UNL A   1      47.008  26.164  32.114  1.00  0.00     0.126 C 
ATOM      8  C   UNL A   1      46.181  26.842  33.202  1.00  0.00     0.025 C 
BRANCH   7   9
ATOM      9  C   UNL A   1      46.106  25.562  31.035  1.00  0.00    -0.034 A 
ATOM     10  C   UNL A   1      44.345  24.369  29.109  1.00  0.00    -0.018 A 
ATOM     11  C   UNL A   1      45.569  24.951  28.733  1.00  0.00     0.009 A 
ATOM     12  C   UNL A   1      44.008  24.414  30.467  1.00  0.00     0.009 A 
ATOM     13  C   UNL A   1      46.438  25.533  29.676  1.00  0.00     0.005 A 
ATOM     14  C   UNL A   1      44.874  24.988  31.412  1.00  0.00     0.005 A 
BRANCH  10  15
ATOM     15  C   UNL A   1      43.490  23.657  28.132  1.00  0.00    -0.015 A 
ATOM     16  C   UNL A   1      42.384  21.662  27.281  1.00  0.00     0.133 A 
ATOM     17  C   UNL A   1      41.965  22.344  26.140  1.00  0.00     0.047 A 
ATOM     18  C   UNL A   1      43.147  22.298  28.269  1.00  0.00     0.056 A 
ATOM     19  C   UNL A   1      42.290  23.687  25.994  1.00  0.00     0.004 A 
ATOM     20  C   UNL A   1      43.045  24.333  26.978  1.00  0.00     0.009 A 
BRANCH  16  21
ATOM     21  O   UNL A   1      42.113  20.279  27.307  1.00  0.00    -0.410 OA
BRANCH  21  22
ATOM     22  C   UNL A   1      41.712  19.652  26.138  1.00  0.00     0.412 C 
ATOM     23  N   UNL A   1      42.760  19.208  25.374  1.00  0.00    -0.321 N 
ATOM     24  H   UNL A   1      42.524  18.739  24.540  1.00  0.00     0.167 HD
ATOM     25  O   UNL A   1      40.554  19.487  25.771  1.00  0.00    -0.224 OA
BRANCH  23  26
ATOM     26  C   UNL A   1      44.176  19.350  25.653  1.00  0.00     0.119 C 
BRANCH  26  27
ATOM     27  C   UNL A   1      44.857  20.329  24.694  1.00  0.00     0.021 C 
BRANCH  27  28
ATOM     28  C   UNL A   1      45.619  21.475  25.373  1.00  0.00     0.002 C 
BRANCH  28  29
ATOM     29  C   UNL A   1      45.866  22.715  24.504  1.00  0.00    -0.000 C 
BRANCH  29  30
ATOM     30  C   UNL A   1      46.299  23.974  25.260  1.00  0.00    -0.003 C 
ATOM     31  C   UNL A   1      47.485  24.684  24.624  1.00  0.00     0.004 C 
ENDBRANCH  29  30
ENDBRANCH  28  29
ENDBRANCH  27  28
ENDBRANCH  26  27
ENDBRANCH  23  26
ENDBRANCH  21  22
ENDBRANCH  16  21
ENDBRANCH  10  15
ENDBRANCH   7   9
ENDBRANCH   5   7
ENDBRANCH   4   5
ENDBRANCH   3   4
ENDBRANCH   2   3
ENDBRANCH   1   2
BRANCH   1  32
ATOM     32  C   UNL A   1      53.469  24.346  33.333  1.00  0.00     0.188 C 
BRANCH  32  33
ATOM     33  C   UNL A   1      54.991  24.355  33.122  1.00  0.00     0.188 C 
BRANCH  33  34
ATOM     34  O   UNL A   1      55.417  24.034  31.816  1.00  0.00    -0.377 OA
BRANCH  34  35
ATOM     35  C   UNL A   1      55.435  25.096  30.877  1.00  0.00     0.188 C 
BRANCH  35  36
ATOM     36  C   UNL A   1      56.036  24.784  29.494  1.00  0.00     0.188 C 
BRANCH  36  37
ATOM     37  O   UNL A   1      55.399  25.470  28.420  1.00  0.00    -0.376 OA
BRANCH  37  38
ATOM     38  C   UNL A   1      55.697  25.068  27.089  1.00  0.00     0.202 C 
BRANCH  38  39
ATOM     39  C   UNL A   1      55.373  26.041  25.940  1.00  0.00     0.261 C 
BRANCH  39  40
ATOM     40  O   UNL A   1      54.539  25.540  24.886  1.00  0.00    -0.460 OA
BRANCH  40  41
ATOM     41  C   UNL A   1      53.472  24.783  25.220  1.00  0.00     0.338 C 
ATOM     42  O   UNL A   1      53.453  23.587  25.407  1.00  0.00    -0.246 OA
BRANCH  41  43
ATOM     43  C   UNL A   1      52.361  25.708  25.553  1.00  0.00     0.060 A 
ATOM     44  C   UNL A   1      51.624  26.276  24.505  1.00  0.00     0.016 A 
ATOM     45  C   UNL A   1      52.051  26.013  26.880  1.00  0.00     0.016 A 
ATOM     46  C   UNL A   1      50.609  27.193  24.780  1.00  0.00     0.010 A 
ATOM     47  C   UNL A   1      51.051  26.953  27.153  1.00  0.00     0.010 A 
ATOM     48  C   UNL A   1      50.355  27.579  26.102  1.00  0.00    -0.014 A 
BRANCH  48  49
ATOM     49  C   UNL A   1      49.546  28.798  26.361  1.00  0.00     0.031 A 
ATOM     50  C   UNL A   1      50.237  30.135  26.274  1.00  0.00     0.074 A 
ATOM     51  C   UNL A   1      48.228  28.733  26.623  1.00  0.00     0.049 A 
ATOM     52  N   UNL A   1      49.762  31.332  26.494  1.00  0.00    -0.248 NA
ATOM     53  C   UNL A   1      51.658  30.112  25.886  1.00  0.00     0.031 C 
ATOM     54  C   UNL A   1      47.434  27.507  26.681  1.00  0.00     0.029 A 
ATOM     55  N   UNL A   1      47.325  29.732  26.897  1.00  0.00    -0.354 N 
ATOM     56  C   UNL A   1      50.826  32.204  26.279  1.00  0.00     0.074 A 
ATOM     57  C   UNL A   1      51.977  31.396  25.944  1.00  0.00     0.031 C 
ATOM     58  C   UNL A   1      46.163  27.826  26.986  1.00  0.00     0.029 A 
ATOM     59  C   UNL A   1      46.061  29.271  27.179  1.00  0.00     0.049 A 
ATOM     60  H   UNL A   1      47.562  30.687  26.892  1.00  0.00     0.167 HD
ATOM     61  C   UNL A   1      50.840  33.555  26.346  1.00  0.00     0.037 A 
ATOM     62  C   UNL A   1      44.956  29.940  27.571  1.00  0.00     0.037 A 
ATOM     63  C   UNL A   1      49.691  34.356  26.683  1.00  0.00     0.049 A 
ATOM     64  C   UNL A   1      45.017  31.443  27.718  1.00  0.00     0.074 A 
ATOM     65  C   UNL A   1      49.600  35.733  26.770  1.00  0.00     0.029 A 
ATOM     66  N   UNL A   1      48.437  33.850  26.994  1.00  0.00    -0.354 N 
ATOM     67  N   UNL A   1      46.022  32.257  27.497  1.00  0.00    -0.248 NA
ATOM     68  C   UNL A   1      43.789  32.119  28.163  1.00  0.00     0.031 C 
ATOM     69  C   UNL A   1      48.306  36.059  27.191  1.00  0.00     0.029 A 
ATOM     70  C   UNL A   1      47.572  34.888  27.301  1.00  0.00     0.049 A 
ATOM     71  H   UNL A   1      48.198  32.896  26.998  1.00  0.00     0.167 HD
ATOM     72  C   UNL A   1      45.539  33.540  27.742  1.00  0.00     0.074 A 
ATOM     73  C   UNL A   1      44.148  33.394  28.118  1.00  0.00     0.031 C 
ATOM     74  C   UNL A   1      46.185  34.729  27.662  1.00  0.00     0.037 A 
BRANCH  61  75
ATOM     75  C   UNL A   1      52.144  34.254  26.080  1.00  0.00     0.058 A 
ATOM     76  C   UNL A   1      52.499  34.701  24.797  1.00  0.00     0.135 A 
ATOM     77  C   UNL A   1      53.039  34.511  27.132  1.00  0.00     0.135 A 
ATOM     78  F   UNL A   1      51.693  34.463  23.750  1.00  0.00    -0.206 F 
ATOM     79  C   UNL A   1      53.704  35.357  24.562  1.00  0.00     0.059 A 
ATOM     80  C   UNL A   1      54.234  35.194  26.926  1.00  0.00     0.059 A 
ATOM     81  F   UNL A   1      52.753  34.102  28.378  1.00  0.00    -0.206 F 
ATOM     82  C   UNL A   1      54.563  35.603  25.635  1.00  0.00     0.060 A 
BRANCH  82  83
ATOM     83  S   UNL A   1      56.113  36.471  25.316  1.00  0.00     0.124 S 
ATOM     84  O   UNL A   1      55.632  37.783  24.895  1.00  0.00    -0.237 OA
ATOM     85  O   UNL A   1      56.769  36.424  26.618  1.00  0.00    -0.237 OA
ATOM     86  O   UNL A   1      56.743  35.670  24.269  1.00  0.00    -0.744 OA
ENDBRANCH  82  83
ENDBRANCH  61  75
BRANCH  62  87
ATOM     87  C   UNL A   1      43.699  29.202  27.874  1.00  0.00     0.058 A 
ATOM     88  C   UNL A   1      43.554  28.465  29.059  1.00  0.00     0.135 A 
ATOM     89  C   UNL A   1      42.623  29.200  26.972  1.00  0.00     0.135 A 
ATOM     90  F   UNL A   1      44.557  28.421  29.949  1.00  0.00    -0.206 F 
ATOM     91  C   UNL A   1      42.399  27.736  29.329  1.00  0.00     0.059 A 
ATOM     92  C   UNL A   1      41.447  28.504  27.233  1.00  0.00     0.059 A 
ATOM     93  F   UNL A   1      42.705  29.892  25.825  1.00  0.00    -0.206 F 
ATOM     94  C   UNL A   1      41.349  27.765  28.411  1.00  0.00     0.060 A 
BRANCH  94  95
ATOM     95  S   UNL A   1      39.841  26.846  28.789  1.00  0.00     0.124 S 
ATOM     96  O   UNL A   1      40.223  25.487  28.425  1.00  0.00    -0.237 OA
ATOM     97  O   UNL A   1      39.677  27.103  30.217  1.00  0.00    -0.237 OA
ATOM     98  O   UNL A   1      38.840  27.472  27.929  1.00  0.00    -0.744 OA
ENDBRANCH  94  95
ENDBRANCH  62  87
BRANCH  74  99
ATOM     99  C   UNL A   1      45.389  35.979  27.934  1.00  0.00     0.058 A 
ATOM    100  C   UNL A   1      44.481  36.502  27.001  1.00  0.00     0.135 A 
ATOM    101  C   UNL A   1      45.496  36.629  29.176  1.00  0.00     0.135 A 
ATOM    102  F   UNL A   1      44.340  35.924  25.798  1.00  0.00    -0.206 F 
ATOM    103  C   UNL A   1      43.729  37.641  27.276  1.00  0.00     0.059 A 
ATOM    104  C   UNL A   1      44.730  37.749  29.486  1.00  0.00     0.059 A 
ATOM    105  F   UNL A   1      46.338  36.164  30.113  1.00  0.00    -0.206 F 
ATOM    106  C   UNL A   1      43.859  38.256  28.523  1.00  0.00     0.060 A 
BRANCH 106 107
ATOM    107  S   UNL A   1      42.855  39.714  28.878  1.00  0.00     0.124 S 
ATOM    108  O   UNL A   1      42.989  39.819  30.327  1.00  0.00    -0.237 OA
ATOM    109  O   UNL A   1      43.526  40.752  28.102  1.00  0.00    -0.237 OA
ATOM    110  O   UNL A   1      41.528  39.340  28.397  1.00  0.00    -0.744 OA
ENDBRANCH 106 107
ENDBRANCH  74  99
ENDBRANCH  48  49
ENDBRANCH  41  43
ENDBRANCH  40  41
ENDBRANCH  39  40
ENDBRANCH  38  39
ENDBRANCH  37  38
ENDBRANCH  36  37
ENDBRANCH  35  36
ENDBRANCH  34  35
ENDBRANCH  33  34
ENDBRANCH  32  33
ENDBRANCH   1  32
TORSDOF 32
ENDMDL
MODEL 2
REMARK VINA RESULT:      -5.9      6.731     13.592
REMARK SMILES CCCCCCNC(=O)Oc1cccc(-c2ccc([C@@H](C)C(=O)OCCOCCOCCOCCOC(=O)c3ccc(-c4c5nc(c(-c6c(F)cc(S(=O)(=O)[O-])cc6F)c6ccc([nH]6)c(-c6c(F)cc(S(=O)(=O)[O-])cc6F)c6nc(c(-c7c(F)cc(S(=O)(=O)[O-])cc7F)c7ccc4[nH]7)C=C6)C=C5)cc3)cc2)c1
REMARK SMILES IDX 27 1 26 2 25 3 24 4 22 5 23 6 20 7 21 8 19 9 16 10 17 11
REMARK SMILES IDX 106 12 18 13 105 14 15 15 11 16 12 17 107 18 13 19 14 20
REMARK SMILES IDX 10 21 8 22 7 23 9 25 6 26 5 27 4 28 3 29 2 30 1 31 28 32
REMARK SMILES IDX 29 33 30 34 31 35 32 36 33 37 34 38 35 39 36 40 37 41 38 42
REMARK SMILES IDX 39 43 40 44 104 45 41 46 103 47 42 48 43 49 44 50 97 51
REMARK SMILES IDX 45 52 102 53 96 54 98 55 46 56 101 57 95 58 94 59 47 61
REMARK SMILES IDX 81 62 60 63 80 64 61 65 64 66 79 67 99 68 62 69 63 70 78 72
REMARK SMILES IDX 100 73 65 74 48 75 49 76 58 77 50 78 51 79 57 80 59 81 52 82
REMARK SMILES IDX 53 83 54 84 55 85 56 86 82 87 83 88 92 89 84 90 85 91 91 92
REMARK SMILES IDX 93 93 86 94 87 95 88 96 89 97 90 98 66 99 67 100 76 101
REMARK SMILES IDX 68 102 69 103 75 104 77 105 70 106 71 107 72 108 73 109
REMARK SMILES IDX 74 110
REMARK H PARENT 7 24 98 60 64 71
REMARK Flexibility Score: inf
ROOT
ATOM      1  O   UNL A   1      46.093  29.353  31.190  1.00  0.00    -0.376 OA
ENDROOT
BRANCH   1   2
ATOM      2  C   UNL A   1      45.648  30.701  31.112  1.00  0.00     0.202 C 
BRANCH   2   3
ATOM      3  C   UNL A   1      44.378  31.154  31.858  1.00  0.00     0.261 C 
BRANCH   3   4
ATOM      4  O   UNL A   1      43.172  31.281  31.077  1.00  0.00    -0.463 OA
BRANCH   4   5
ATOM      5  C   UNL A   1      42.725  32.538  30.859  1.00  0.00     0.313 C 
ATOM      6  O   UNL A   1      42.180  33.223  31.724  1.00  0.00    -0.252 OA
BRANCH   5   7
ATOM      7  C   UNL A   1      42.905  33.079  29.441  1.00  0.00     0.126 C 
ATOM      8  C   UNL A   1      43.725  32.074  28.640  1.00  0.00     0.025 C 
BRANCH   7   9
ATOM      9  C   UNL A   1      43.386  34.508  29.183  1.00  0.00    -0.034 A 
ATOM     10  C   UNL A   1      44.370  37.178  28.807  1.00  0.00    -0.018 A 
ATOM     11  C   UNL A   1      43.191  36.729  28.186  1.00  0.00     0.009 A 
ATOM     12  C   UNL A   1      45.061  36.258  29.604  1.00  0.00     0.009 A 
ATOM     13  C   UNL A   1      42.701  35.421  28.373  1.00  0.00     0.005 A 
ATOM     14  C   UNL A   1      44.574  34.955  29.798  1.00  0.00     0.005 A 
BRANCH  10  15
ATOM     15  C   UNL A   1      44.817  38.585  28.701  1.00  0.00    -0.015 A 
ATOM     16  C   UNL A   1      45.877  40.430  27.518  1.00  0.00     0.133 A 
ATOM     17  C   UNL A   1      45.765  41.253  28.638  1.00  0.00     0.047 A 
ATOM     18  C   UNL A   1      45.420  39.107  27.539  1.00  0.00     0.056 A 
ATOM     19  C   UNL A   1      45.165  40.755  29.789  1.00  0.00     0.004 A 
ATOM     20  C   UNL A   1      44.700  39.436  29.818  1.00  0.00     0.009 A 
BRANCH  16  21
ATOM     21  O   UNL A   1      46.594  40.967  26.429  1.00  0.00    -0.410 OA
BRANCH  21  22
ATOM     22  C   UNL A   1      46.163  40.690  25.141  1.00  0.00     0.412 C 
ATOM     23  N   UNL A   1      45.196  41.554  24.696  1.00  0.00    -0.321 N 
ATOM     24  H   UNL A   1      44.870  41.408  23.778  1.00  0.00     0.167 HD
ATOM     25  O   UNL A   1      46.565  39.778  24.429  1.00  0.00    -0.224 OA
BRANCH  23  26
ATOM     26  C   UNL A   1      44.599  42.658  25.423  1.00  0.00     0.119 C 
BRANCH  26  27
ATOM     27  C   UNL A   1      43.764  43.561  24.512  1.00  0.00     0.021 C 
BRANCH  27  28
ATOM     28  C   UNL A   1      43.694  43.114  23.045  1.00  0.00     0.002 C 
BRANCH  28  29
ATOM     29  C   UNL A   1      42.294  42.774  22.520  1.00  0.00    -0.000 C 
BRANCH  29  30
ATOM     30  C   UNL A   1      41.869  43.512  21.248  1.00  0.00    -0.003 C 
ATOM     31  C   UNL A   1      42.868  43.378  20.109  1.00  0.00     0.004 C 
ENDBRANCH  29  30
ENDBRANCH  28  29
ENDBRANCH  27  28
ENDBRANCH  26  27
ENDBRANCH  23  26
ENDBRANCH  21  22
ENDBRANCH  16  21
ENDBRANCH  10  15
ENDBRANCH   7   9
ENDBRANCH   5   7
ENDBRANCH   4   5
ENDBRANCH   3   4
ENDBRANCH   2   3
ENDBRANCH   1   2
BRANCH   1  32
ATOM     32  C   UNL A   1      46.256  28.715  32.450  1.00  0.00     0.188 C 
BRANCH  32  33
ATOM     33  C   UNL A   1      46.763  27.269  32.560  1.00  0.00     0.188 C 
BRANCH  33  34
ATOM     34  O   UNL A   1      45.829  26.277  32.192  1.00  0.00    -0.377 OA
BRANCH  34  35
ATOM     35  C   UNL A   1      45.663  25.199  33.099  1.00  0.00     0.188 C 
BRANCH  35  36
ATOM     36  C   UNL A   1      46.916  24.358  33.408  1.00  0.00     0.188 C 
BRANCH  36  37
ATOM     37  O   UNL A   1      46.693  23.315  34.352  1.00  0.00    -0.376 OA
BRANCH  37  38
ATOM     38  C   UNL A   1      47.727  23.009  35.279  1.00  0.00     0.202 C 
BRANCH  38  39
ATOM     39  C   UNL A   1      47.860  23.878  36.543  1.00  0.00     0.261 C 
BRANCH  39  40
ATOM     40  O   UNL A   1      46.862  24.888  36.740  1.00  0.00    -0.460 OA
BRANCH  40  41
ATOM     41  C   UNL A   1      47.271  26.147  37.008  1.00  0.00     0.338 C 
ATOM     42  O   UNL A   1      48.396  26.511  37.271  1.00  0.00    -0.246 OA
BRANCH  41  43
ATOM     43  C   UNL A   1      46.142  27.056  36.693  1.00  0.00     0.060 A 
ATOM     44  C   UNL A   1      44.834  26.581  36.856  1.00  0.00     0.016 A 
ATOM     45  C   UNL A   1      46.369  28.357  36.242  1.00  0.00     0.016 A 
ATOM     46  C   UNL A   1      43.748  27.389  36.516  1.00  0.00     0.010 A 
ATOM     47  C   UNL A   1      45.280  29.157  35.875  1.00  0.00     0.010 A 
ATOM     48  C   UNL A   1      43.967  28.660  35.971  1.00  0.00    -0.014 A 
BRANCH  48  49
ATOM     49  C   UNL A   1      42.851  29.358  35.283  1.00  0.00     0.031 A 
ATOM     50  C   UNL A   1      42.431  28.852  33.926  1.00  0.00     0.074 A 
ATOM     51  C   UNL A   1      42.195  30.384  35.854  1.00  0.00     0.049 A 
ATOM     52  N   UNL A   1      41.517  29.311  33.113  1.00  0.00    -0.248 NA
ATOM     53  C   UNL A   1      43.142  27.663  33.423  1.00  0.00     0.031 C 
ATOM     54  C   UNL A   1      42.469  30.931  37.182  1.00  0.00     0.029 A 
ATOM     55  N   UNL A   1      41.160  31.153  35.380  1.00  0.00    -0.354 N 
ATOM     56  C   UNL A   1      41.548  28.475  32.001  1.00  0.00     0.074 A 
ATOM     57  C   UNL A   1      42.593  27.502  32.230  1.00  0.00     0.031 C 
ATOM     58  C   UNL A   1      41.631  31.959  37.410  1.00  0.00     0.029 A 
ATOM     59  C   UNL A   1      40.787  32.164  36.234  1.00  0.00     0.049 A 
ATOM     60  H   UNL A   1      40.727  30.996  34.511  1.00  0.00     0.167 HD
ATOM     61  C   UNL A   1      40.772  28.510  30.893  1.00  0.00     0.037 A 
ATOM     62  C   UNL A   1      39.884  33.154  36.073  1.00  0.00     0.037 A 
ATOM     63  C   UNL A   1      39.735  29.483  30.668  1.00  0.00     0.049 A 
ATOM     64  C   UNL A   1      39.084  33.221  34.792  1.00  0.00     0.074 A 
ATOM     65  C   UNL A   1      38.887  29.599  29.582  1.00  0.00     0.029 A 
ATOM     66  N   UNL A   1      39.410  30.511  31.542  1.00  0.00    -0.354 N 
ATOM     67  N   UNL A   1      39.111  32.417  33.756  1.00  0.00    -0.248 NA
ATOM     68  C   UNL A   1      38.127  34.330  34.663  1.00  0.00     0.031 C 
ATOM     69  C   UNL A   1      38.088  30.732  29.771  1.00  0.00     0.029 A 
ATOM     70  C   UNL A   1      38.391  31.282  31.007  1.00  0.00     0.049 A 
ATOM     71  H   UNL A   1      39.840  30.669  32.413  1.00  0.00     0.167 HD
ATOM     72  C   UNL A   1      38.153  32.902  32.869  1.00  0.00     0.074 A 
ATOM     73  C   UNL A   1      37.556  34.063  33.496  1.00  0.00     0.031 C 
ATOM     74  C   UNL A   1      37.797  32.429  31.648  1.00  0.00     0.037 A 
BRANCH  61  75
ATOM     75  C   UNL A   1      41.034  27.486  29.824  1.00  0.00     0.058 A 
ATOM     76  C   UNL A   1      40.126  26.450  29.550  1.00  0.00     0.135 A 
ATOM     77  C   UNL A   1      42.196  27.561  29.038  1.00  0.00     0.135 A 
ATOM     78  F   UNL A   1      39.010  26.315  30.284  1.00  0.00    -0.206 F 
ATOM     79  C   UNL A   1      40.372  25.512  28.551  1.00  0.00     0.059 A 
ATOM     80  C   UNL A   1      42.446  26.654  28.013  1.00  0.00     0.059 A 
ATOM     81  F   UNL A   1      43.100  28.527  29.260  1.00  0.00    -0.206 F 
ATOM     82  C   UNL A   1      41.533  25.626  27.785  1.00  0.00     0.060 A 
BRANCH  82  83
ATOM     83  S   UNL A   1      41.827  24.412  26.481  1.00  0.00     0.124 S 
ATOM     84  O   UNL A   1      40.553  23.700  26.452  1.00  0.00    -0.237 OA
ATOM     85  O   UNL A   1      42.107  25.258  25.326  1.00  0.00    -0.237 OA
ATOM     86  O   UNL A   1      42.962  23.642  26.982  1.00  0.00    -0.744 OA
ENDBRANCH  82  83
ENDBRANCH  61  75
BRANCH  62  87
ATOM     87  C   UNL A   1      39.693  34.178  37.137  1.00  0.00     0.058 A 
ATOM     88  C   UNL A   1      38.919  33.911  38.276  1.00  0.00     0.135 A 
ATOM     89  C   UNL A   1      40.263  35.457  37.024  1.00  0.00     0.135 A 
ATOM     90  F   UNL A   1      38.339  32.710  38.427  1.00  0.00    -0.206 F 
ATOM     91  C   UNL A   1      38.700  34.878  39.254  1.00  0.00     0.059 A 
ATOM     92  C   UNL A   1      40.083  36.430  38.002  1.00  0.00     0.059 A 
ATOM     93  F   UNL A   1      41.017  35.766  35.957  1.00  0.00    -0.206 F 
ATOM     94  C   UNL A   1      39.289  36.134  39.109  1.00  0.00     0.060 A 
BRANCH  94  95
ATOM     95  S   UNL A   1      39.029  37.368  40.401  1.00  0.00     0.124 S 
ATOM     96  O   UNL A   1      38.323  38.415  39.672  1.00  0.00    -0.237 OA
ATOM     97  O   UNL A   1      38.238  36.624  41.377  1.00  0.00    -0.237 OA
ATOM     98  O   UNL A   1      40.385  37.700  40.828  1.00  0.00    -0.744 OA
ENDBRANCH  94  95
ENDBRANCH  62  87
BRANCH  74  99
ATOM     99  C   UNL A   1      36.677  33.129  30.925  1.00  0.00     0.058 A 
ATOM    100  C   UNL A   1      35.345  33.048  31.358  1.00  0.00     0.135 A 
ATOM    101  C   UNL A   1      36.954  33.944  29.812  1.00  0.00     0.135 A 
ATOM    102  F   UNL A   1      35.023  32.283  32.413  1.00  0.00    -0.206 F 
ATOM    103  C   UNL A   1      34.323  33.724  30.698  1.00  0.00     0.059 A 
ATOM    104  C   UNL A   1      35.952  34.655  29.157  1.00  0.00     0.059 A 
ATOM    105  F   UNL A   1      38.212  34.070  29.362  1.00  0.00    -0.206 F 
ATOM    106  C   UNL A   1      34.637  34.528  29.600  1.00  0.00     0.060 A 
BRANCH 106 107
ATOM    107  S   UNL A   1      33.305  35.423  28.773  1.00  0.00     0.124 S 
ATOM    108  O   UNL A   1      32.579  35.983  29.907  1.00  0.00    -0.237 OA
ATOM    109  O   UNL A   1      34.037  36.384  27.952  1.00  0.00    -0.237 OA
ATOM    110  O   UNL A   1      32.602  34.382  28.031  1.00  0.00    -0.744 OA
ENDBRANCH 106 107
ENDBRANCH  74  99
ENDBRANCH  48  49
ENDBRANCH  41  43
ENDBRANCH  40  41
ENDBRANCH  39  40
ENDBRANCH  38  39
ENDBRANCH  37  38
ENDBRANCH  36  37
ENDBRANCH  35  36
ENDBRANCH  34  35
ENDBRANCH  33  34
ENDBRANCH  32  33
ENDBRANCH   1  32
TORSDOF 32
ENDMDL
MODEL 3
REMARK VINA RESULT:      -5.9      6.738     13.516
REMARK SMILES CCCCCCNC(=O)Oc1cccc(-c2ccc([C@@H](C)C(=O)OCCOCCOCCOCCOC(=O)c3ccc(-c4c5nc(c(-c6c(F)cc(S(=O)(=O)[O-])cc6F)c6ccc([nH]6)c(-c6c(F)cc(S(=O)(=O)[O-])cc6F)c6nc(c(-c7c(F)cc(S(=O)(=O)[O-])cc7F)c7ccc4[nH]7)C=C6)C=C5)cc3)cc2)c1
REMARK SMILES IDX 27 1 26 2 25 3 24 4 22 5 23 6 20 7 21 8 19 9 16 10 17 11
REMARK SMILES IDX 106 12 18 13 105 14 15 15 11 16 12 17 107 18 13 19 14 20
REMARK SMILES IDX 10 21 8 22 7 23 9 25 6 26 5 27 4 28 3 29 2 30 1 31 28 32
REMARK SMILES IDX 29 33 30 34 31 35 32 36 33 37 34 38 35 39 36 40 37 41 38 42
REMARK SMILES IDX 39 43 40 44 104 45 41 46 103 47 42 48 43 49 44 50 97 51
REMARK SMILES IDX 45 52 102 53 96 54 98 55 46 56 101 57 95 58 94 59 47 61
REMARK SMILES IDX 81 62 60 63 80 64 61 65 64 66 79 67 99 68 62 69 63 70 78 72
REMARK SMILES IDX 100 73 65 74 48 75 49 76 58 77 50 78 51 79 57 80 59 81 52 82
REMARK SMILES IDX 53 83 54 84 55 85 56 86 82 87 83 88 92 89 84 90 85 91 91 92
REMARK SMILES IDX 93 93 86 94 87 95 88 96 89 97 90 98 66 99 67 100 76 101
REMARK SMILES IDX 68 102 69 103 75 104 77 105 70 106 71 107 72 108 73 109
REMARK SMILES IDX 74 110
REMARK H PARENT 7 24 98 60 64 71
REMARK Flexibility Score: inf
ROOT
ATOM      1  O   UNL A   1      46.478  29.460  31.323  1.00  0.00    -0.376 OA
ENDROOT
BRANCH   1   2
ATOM      2  C   UNL A   1      46.118  30.834  31.387  1.00  0.00     0.202 C 
BRANCH   2   3
ATOM      3  C   UNL A   1      44.674  31.253  31.720  1.00  0.00     0.261 C 
BRANCH   3   4
ATOM      4  O   UNL A   1      43.645  30.848  30.794  1.00  0.00    -0.463 OA
BRANCH   4   5
ATOM      5  C   UNL A   1      42.794  31.813  30.380  1.00  0.00     0.313 C 
ATOM      6  O   UNL A   1      41.855  32.227  31.061  1.00  0.00    -0.252 OA
BRANCH   5   7
ATOM      7  C   UNL A   1      43.035  32.366  28.976  1.00  0.00     0.126 C 
ATOM      8  C   UNL A   1      44.295  31.719  28.412  1.00  0.00     0.025 C 
BRANCH   7   9
ATOM      9  C   UNL A   1      43.016  33.869  28.692  1.00  0.00    -0.034 A 
ATOM     10  C   UNL A   1      42.857  36.695  28.220  1.00  0.00    -0.018 A 
ATOM     11  C   UNL A   1      43.776  35.880  27.534  1.00  0.00     0.009 A 
ATOM     12  C   UNL A   1      42.032  36.073  29.164  1.00  0.00     0.009 A 
ATOM     13  C   UNL A   1      43.853  34.492  27.759  1.00  0.00     0.005 A 
ATOM     14  C   UNL A   1      42.101  34.688  29.388  1.00  0.00     0.005 A 
BRANCH  10  15
ATOM     15  C   UNL A   1      42.701  38.131  27.897  1.00  0.00    -0.015 A 
ATOM     16  C   UNL A   1      42.924  40.499  28.420  1.00  0.00     0.133 A 
ATOM     17  C   UNL A   1      42.235  40.851  27.260  1.00  0.00     0.047 A 
ATOM     18  C   UNL A   1      43.153  39.157  28.750  1.00  0.00     0.056 A 
ATOM     19  C   UNL A   1      41.790  39.851  26.404  1.00  0.00     0.004 A 
ATOM     20  C   UNL A   1      42.020  38.508  26.722  1.00  0.00     0.009 A 
BRANCH  16  21
ATOM     21  O   UNL A   1      43.245  41.559  29.291  1.00  0.00    -0.410 OA
BRANCH  21  22
ATOM     22  C   UNL A   1      44.477  41.554  29.928  1.00  0.00     0.412 C 
ATOM     23  N   UNL A   1      45.366  42.449  29.394  1.00  0.00    -0.321 N 
ATOM     24  H   UNL A   1      46.251  42.495  29.824  1.00  0.00     0.167 HD
ATOM     25  O   UNL A   1      44.795  40.841  30.872  1.00  0.00    -0.224 OA
BRANCH  23  26
ATOM     26  C   UNL A   1      45.154  43.337  28.266  1.00  0.00     0.119 C 
BRANCH  26  27
ATOM     27  C   UNL A   1      46.371  43.393  27.340  1.00  0.00     0.021 C 
BRANCH  27  28
ATOM     28  C   UNL A   1      47.686  43.792  28.023  1.00  0.00     0.002 C 
BRANCH  28  29
ATOM     29  C   UNL A   1      48.851  42.811  27.847  1.00  0.00    -0.000 C 
BRANCH  29  30
ATOM     30  C   UNL A   1      49.876  42.792  28.984  1.00  0.00    -0.003 C 
ATOM     31  C   UNL A   1      51.229  43.365  28.589  1.00  0.00     0.004 C 
ENDBRANCH  29  30
ENDBRANCH  28  29
ENDBRANCH  27  28
ENDBRANCH  26  27
ENDBRANCH  23  26
ENDBRANCH  21  22
ENDBRANCH  16  21
ENDBRANCH  10  15
ENDBRANCH   7   9
ENDBRANCH   5   7
ENDBRANCH   4   5
ENDBRANCH   3   4
ENDBRANCH   2   3
ENDBRANCH   1   2
BRANCH   1  32
ATOM     32  C   UNL A   1      46.796  28.738  32.507  1.00  0.00     0.188 C 
BRANCH  32  33
ATOM     33  C   UNL A   1      47.276  27.280  32.455  1.00  0.00     0.188 C 
BRANCH  33  34
ATOM     34  O   UNL A   1      46.308  26.344  32.033  1.00  0.00    -0.377 OA
BRANCH  34  35
ATOM     35  C   UNL A   1      46.005  25.297  32.940  1.00  0.00     0.188 C 
BRANCH  35  36
ATOM     36  C   UNL A   1      47.186  24.430  33.413  1.00  0.00     0.188 C 
BRANCH  36  37
ATOM     37  O   UNL A   1      46.811  23.377  34.297  1.00  0.00    -0.376 OA
BRANCH  37  38
ATOM     38  C   UNL A   1      47.731  22.982  35.307  1.00  0.00     0.202 C 
BRANCH  38  39
ATOM     39  C   UNL A   1      47.815  23.826  36.592  1.00  0.00     0.261 C 
BRANCH  39  40
ATOM     40  O   UNL A   1      46.878  24.904  36.720  1.00  0.00    -0.460 OA
BRANCH  40  41
ATOM     41  C   UNL A   1      47.361  26.159  36.846  1.00  0.00     0.338 C 
ATOM     42  O   UNL A   1      48.517  26.486  37.000  1.00  0.00    -0.246 OA
BRANCH  41  43
ATOM     43  C   UNL A   1      46.254  27.093  36.526  1.00  0.00     0.060 A 
ATOM     44  C   UNL A   1      44.942  26.710  36.837  1.00  0.00     0.016 A 
ATOM     45  C   UNL A   1      46.505  28.328  35.925  1.00  0.00     0.016 A 
ATOM     46  C   UNL A   1      43.872  27.539  36.499  1.00  0.00     0.010 A 
ATOM     47  C   UNL A   1      45.429  29.146  35.562  1.00  0.00     0.010 A 
ATOM     48  C   UNL A   1      44.106  28.735  35.809  1.00  0.00    -0.014 A 
BRANCH  48  49
ATOM     49  C   UNL A   1      42.971  29.423  35.140  1.00  0.00     0.031 A 
ATOM     50  C   UNL A   1      42.527  28.905  33.796  1.00  0.00     0.074 A 
ATOM     51  C   UNL A   1      42.321  30.448  35.719  1.00  0.00     0.049 A 
ATOM     52  N   UNL A   1      41.594  29.354  32.999  1.00  0.00    -0.248 NA
ATOM     53  C   UNL A   1      43.235  27.718  33.286  1.00  0.00     0.031 C 
ATOM     54  C   UNL A   1      42.619  31.004  37.038  1.00  0.00     0.029 A 
ATOM     55  N   UNL A   1      41.272  31.207  35.262  1.00  0.00    -0.354 N 
ATOM     56  C   UNL A   1      41.608  28.512  31.891  1.00  0.00     0.074 A 
ATOM     57  C   UNL A   1      42.663  27.546  32.104  1.00  0.00     0.031 C 
ATOM     58  C   UNL A   1      41.779  32.028  37.277  1.00  0.00     0.029 A 
ATOM     59  C   UNL A   1      40.910  32.222  36.118  1.00  0.00     0.049 A 
ATOM     60  H   UNL A   1      40.822  31.043  34.403  1.00  0.00     0.167 HD
ATOM     61  C   UNL A   1      40.809  28.536  30.799  1.00  0.00     0.037 A 
ATOM     62  C   UNL A   1      39.997  33.205  35.969  1.00  0.00     0.037 A 
ATOM     63  C   UNL A   1      39.761  29.501  30.590  1.00  0.00     0.049 A 
ATOM     64  C   UNL A   1      39.171  33.259  34.705  1.00  0.00     0.074 A 
ATOM     65  C   UNL A   1      38.890  29.605  29.521  1.00  0.00     0.029 A 
ATOM     66  N   UNL A   1      39.448  30.531  31.465  1.00  0.00    -0.354 N 
ATOM     67  N   UNL A   1      39.183  32.449  33.673  1.00  0.00    -0.248 NA
ATOM     68  C   UNL A   1      38.204  34.361  34.588  1.00  0.00     0.031 C 
ATOM     69  C   UNL A   1      38.088  30.734  29.720  1.00  0.00     0.029 A 
ATOM     70  C   UNL A   1      38.414  31.293  30.945  1.00  0.00     0.049 A 
ATOM     71  H   UNL A   1      39.894  30.697  32.326  1.00  0.00     0.167 HD
ATOM     72  C   UNL A   1      38.203  32.923  32.802  1.00  0.00     0.074 A 
ATOM     73  C   UNL A   1      37.612  34.084  33.435  1.00  0.00     0.031 C 
ATOM     74  C   UNL A   1      37.826  32.440  31.593  1.00  0.00     0.037 A 
BRANCH  61  75
ATOM     75  C   UNL A   1      41.055  27.506  29.731  1.00  0.00     0.058 A 
ATOM     76  C   UNL A   1      40.168  26.441  29.508  1.00  0.00     0.135 A 
ATOM     77  C   UNL A   1      42.180  27.606  28.895  1.00  0.00     0.135 A 
ATOM     78  F   UNL A   1      39.089  26.283  30.291  1.00  0.00    -0.206 F 
ATOM     79  C   UNL A   1      40.399  25.499  28.509  1.00  0.00     0.059 A 
ATOM     80  C   UNL A   1      42.414  26.694  27.870  1.00  0.00     0.059 A 
ATOM     81  F   UNL A   1      43.064  28.601  29.068  1.00  0.00    -0.206 F 
ATOM     82  C   UNL A   1      41.522  25.637  27.693  1.00  0.00     0.060 A 
BRANCH  82  83
ATOM     83  S   UNL A   1      41.797  24.417  26.391  1.00  0.00     0.124 S 
ATOM     84  O   UNL A   1      42.373  25.242  25.333  1.00  0.00    -0.237 OA
ATOM     85  O   UNL A   1      42.711  23.479  27.032  1.00  0.00    -0.237 OA
ATOM     86  O   UNL A   1      40.458  23.900  26.121  1.00  0.00    -0.744 OA
ENDBRANCH  82  83
ENDBRANCH  61  75
BRANCH  62  87
ATOM     87  C   UNL A   1      39.822  34.234  37.030  1.00  0.00     0.058 A 
ATOM     88  C   UNL A   1      39.027  33.989  38.160  1.00  0.00     0.135 A 
ATOM     89  C   UNL A   1      40.428  35.496  36.925  1.00  0.00     0.135 A 
ATOM     90  F   UNL A   1      38.413  32.804  38.304  1.00  0.00    -0.206 F 
ATOM     91  C   UNL A   1      38.822  34.961  39.135  1.00  0.00     0.059 A 
ATOM     92  C   UNL A   1      40.263  36.474  37.901  1.00  0.00     0.059 A 
ATOM     93  F   UNL A   1      41.203  35.785  35.867  1.00  0.00    -0.206 F 
ATOM     94  C   UNL A   1      39.448  36.201  38.998  1.00  0.00     0.060 A 
BRANCH  94  95
ATOM     95  S   UNL A   1      39.206  37.442  40.287  1.00  0.00     0.124 S 
ATOM     96  O   UNL A   1      40.580  37.758  40.655  1.00  0.00    -0.237 OA
ATOM     97  O   UNL A   1      38.479  38.486  39.571  1.00  0.00    -0.237 OA
ATOM     98  O   UNL A   1      38.429  36.730  41.298  1.00  0.00    -0.744 OA
ENDBRANCH  94  95
ENDBRANCH  62  87
BRANCH  74  99
ATOM     99  C   UNL A   1      36.686  33.129  30.888  1.00  0.00     0.058 A 
ATOM    100  C   UNL A   1      35.349  32.932  31.265  1.00  0.00     0.135 A 
ATOM    101  C   UNL A   1      36.945  34.048  29.855  1.00  0.00     0.135 A 
ATOM    102  F   UNL A   1      35.043  32.066  32.243  1.00  0.00    -0.206 F 
ATOM    103  C   UNL A   1      34.307  33.598  30.626  1.00  0.00     0.059 A 
ATOM    104  C   UNL A   1      35.922  34.749  29.224  1.00  0.00     0.059 A 
ATOM    105  F   UNL A   1      38.207  34.286  29.462  1.00  0.00    -0.206 F 
ATOM    106  C   UNL A   1      34.604  34.507  29.607  1.00  0.00     0.060 A 
BRANCH 106 107
ATOM    107  S   UNL A   1      33.245  35.386  28.808  1.00  0.00     0.124 S 
ATOM    108  O   UNL A   1      33.963  36.355  27.988  1.00  0.00    -0.237 OA
ATOM    109  O   UNL A   1      32.567  34.317  28.080  1.00  0.00    -0.237 OA
ATOM    110  O   UNL A   1      32.495  35.946  29.928  1.00  0.00    -0.744 OA
ENDBRANCH 106 107
ENDBRANCH  74  99
ENDBRANCH  48  49
ENDBRANCH  41  43
ENDBRANCH  40  41
ENDBRANCH  39  40
ENDBRANCH  38  39
ENDBRANCH  37  38
ENDBRANCH  36  37
ENDBRANCH  35  36
ENDBRANCH  34  35
ENDBRANCH  33  34
ENDBRANCH  32  33
ENDBRANCH   1  32
TORSDOF 32
ENDMDL
