MODEL 1
REMARK VINA RESULT:      -9.1      0.000      0.000
REMARK SMILES Cc1ccc(Sc2ccc(=O)n(-c3ccc(C(=O)OCCOCCOCCOCCOC(=O)c4ccc(-c5c6nc(c(-c7c(F)cc(S(=O)(=O)[O-])cc7F)c7ccc([nH]7)c(-c7c(F)cc(S(=O)(=O)[O-])cc7F)c7nc(c(-c8c(F)cc(S(=O)(=O)[O-])cc8F)c8ccc5[nH]8)C=C7)C=C6)cc4)cc3)n2)cc1
REMARK SMILES IDX 25 1 24 2 23 3 22 4 21 5 20 6 19 7 17 8 18 9 16 10 13 11
REMARK SMILES IDX 14 12 101 13 15 14 100 15 12 16 7 17 8 18 102 19 9 20 10 21
REMARK SMILES IDX 11 22 6 23 5 24 1 25 2 26 3 27 104 28 4 29 103 30 26 31
REMARK SMILES IDX 27 32 28 33 29 34 30 35 31 36 32 37 33 38 34 39 35 40 99 41
REMARK SMILES IDX 36 42 98 43 37 44 38 45 39 46 92 47 40 48 97 49 91 50 93 51
REMARK SMILES IDX 41 52 96 53 90 54 89 55 42 57 76 58 55 59 75 60 56 61 59 62
REMARK SMILES IDX 74 63 94 64 57 65 58 66 73 68 95 69 60 70 43 71 44 72 53 73
REMARK SMILES IDX 45 74 46 75 52 76 54 77 47 78 48 79 49 80 50 81 51 82 77 83
REMARK SMILES IDX 78 84 87 85 79 86 80 87 86 88 88 89 81 90 82 91 83 92 84 93
REMARK SMILES IDX 85 94 61 95 62 96 71 97 63 98 64 99 70 100 72 101 65 102
REMARK SMILES IDX 66 103 67 104 68 105 69 106
REMARK H PARENT 93 56 59 67
REMARK Flexibility Score: inf
ROOT
ATOM      1  O   UNL A   1      32.223  28.963  26.029  1.00  0.00    -0.377 OA
ENDROOT
BRANCH   1   2
ATOM      2  C   UNL A   1      32.675  28.339  24.831  1.00  0.00     0.188 C 
BRANCH   2   3
ATOM      3  C   UNL A   1      31.655  27.847  23.788  1.00  0.00     0.188 C 
BRANCH   3   4
ATOM      4  O   UNL A   1      32.037  27.602  22.451  1.00  0.00    -0.376 OA
BRANCH   4   5
ATOM      5  C   UNL A   1      31.828  26.330  21.908  1.00  0.00     0.202 C 
BRANCH   5   6
ATOM      6  C   UNL A   1      32.986  25.425  21.662  1.00  0.00     0.261 C 
BRANCH   6   7
ATOM      7  O   UNL A   1      33.928  25.260  22.732  1.00  0.00    -0.460 OA
BRANCH   7   8
ATOM      8  C   UNL A   1      33.766  24.643  23.924  1.00  0.00     0.338 C 
ATOM      9  O   UNL A   1      32.776  24.466  24.617  1.00  0.00    -0.246 OA
BRANCH   8  10
ATOM     10  C   UNL A   1      35.066  24.057  24.262  1.00  0.00     0.060 A 
ATOM     11  C   UNL A   1      37.251  22.590  25.086  1.00  0.00     0.069 A 
ATOM     12  C   UNL A   1      36.800  22.482  23.766  1.00  0.00     0.029 A 
ATOM     13  C   UNL A   1      36.661  23.501  25.970  1.00  0.00     0.029 A 
ATOM     14  C   UNL A   1      35.697  23.200  23.357  1.00  0.00     0.018 A 
ATOM     15  C   UNL A   1      35.580  24.265  25.545  1.00  0.00     0.018 A 
BRANCH  11  16
ATOM     16  N   UNL A   1      38.295  21.741  25.490  1.00  0.00    -0.196 N 
ATOM     17  C   UNL A   1      40.365  21.732  26.413  1.00  0.00     0.122 A 
ATOM     18  C   UNL A   1      40.530  20.288  26.215  1.00  0.00     0.043 A 
ATOM     19  N   UNL A   1      39.364  22.429  26.008  1.00  0.00    -0.158 NA
ATOM     20  C   UNL A   1      39.482  19.643  25.696  1.00  0.00     0.076 A 
ATOM     21  C   UNL A   1      38.226  20.358  25.363  1.00  0.00     0.271 A 
ATOM     22  O   UNL A   1      37.280  19.693  24.947  1.00  0.00    -0.267 OA
BRANCH  17  23
ATOM     23  S   UNL A   1      41.657  22.515  27.276  1.00  0.00    -0.068 SA
BRANCH  23  24
ATOM     24  C   UNL A   1      41.252  24.260  27.155  1.00  0.00     0.014 A 
ATOM     25  C   UNL A   1      40.035  28.418  27.149  1.00  0.00     0.044 C 
ATOM     26  C   UNL A   1      40.466  26.980  27.147  1.00  0.00    -0.051 A 
ATOM     27  C   UNL A   1      40.348  26.210  28.305  1.00  0.00     0.004 A 
ATOM     28  C   UNL A   1      41.001  26.391  25.999  1.00  0.00     0.004 A 
ATOM     29  C   UNL A   1      40.738  24.865  28.309  1.00  0.00     0.016 A 
ATOM     30  C   UNL A   1      41.388  25.045  26.003  1.00  0.00     0.016 A 
ENDBRANCH  23  24
ENDBRANCH  17  23
ENDBRANCH  11  16
ENDBRANCH   8  10
ENDBRANCH   7   8
ENDBRANCH   6   7
ENDBRANCH   5   6
ENDBRANCH   4   5
ENDBRANCH   3   4
ENDBRANCH   2   3
ENDBRANCH   1   2
BRANCH   1  31
ATOM     31  C   UNL A   1      31.997  30.377  26.081  1.00  0.00     0.188 C 
BRANCH  31  32
ATOM     32  C   UNL A   1      32.876  31.246  27.017  1.00  0.00     0.188 C 
BRANCH  32  33
ATOM     33  O   UNL A   1      34.222  30.784  27.004  1.00  0.00    -0.376 OA
BRANCH  33  34
ATOM     34  C   UNL A   1      35.134  31.316  27.931  1.00  0.00     0.202 C 
BRANCH  34  35
ATOM     35  C   UNL A   1      34.383  31.823  29.156  1.00  0.00     0.261 C 
BRANCH  35  36
ATOM     36  O   UNL A   1      34.841  33.166  29.426  1.00  0.00    -0.460 OA
BRANCH  36  37
ATOM     37  C   UNL A   1      34.829  33.556  30.732  1.00  0.00     0.338 C 
ATOM     38  O   UNL A   1      33.908  34.145  31.274  1.00  0.00    -0.246 OA
BRANCH  37  39
ATOM     39  C   UNL A   1      36.147  33.246  31.374  1.00  0.00     0.060 A 
ATOM     40  C   UNL A   1      37.353  33.674  30.779  1.00  0.00     0.016 A 
ATOM     41  C   UNL A   1      36.206  32.361  32.451  1.00  0.00     0.016 A 
ATOM     42  C   UNL A   1      38.605  33.177  31.219  1.00  0.00     0.010 A 
ATOM     43  C   UNL A   1      37.437  31.843  32.851  1.00  0.00     0.010 A 
ATOM     44  C   UNL A   1      38.654  32.241  32.253  1.00  0.00    -0.014 A 
BRANCH  44  45
ATOM     45  C   UNL A   1      39.860  31.569  32.783  1.00  0.00     0.031 A 
ATOM     46  C   UNL A   1      40.232  30.247  32.232  1.00  0.00     0.074 A 
ATOM     47  C   UNL A   1      40.822  32.214  33.491  1.00  0.00     0.049 A 
ATOM     48  N   UNL A   1      41.229  29.547  32.657  1.00  0.00    -0.248 NA
ATOM     49  C   UNL A   1      39.498  29.560  31.165  1.00  0.00     0.031 C 
ATOM     50  C   UNL A   1      42.277  32.020  33.399  1.00  0.00     0.029 A 
ATOM     51  N   UNL A   1      40.737  33.358  34.272  1.00  0.00    -0.354 N 
ATOM     52  C   UNL A   1      41.561  28.718  31.621  1.00  0.00     0.074 A 
ATOM     53  C   UNL A   1      40.332  28.550  30.893  1.00  0.00     0.031 C 
ATOM     54  C   UNL A   1      42.922  32.836  34.252  1.00  0.00     0.029 A 
ATOM     55  C   UNL A   1      41.913  33.541  35.025  1.00  0.00     0.049 A 
ATOM     56  H   UNL A   1      39.959  33.961  34.295  1.00  0.00     0.167 HD
ATOM     57  C   UNL A   1      42.880  28.479  31.357  1.00  0.00     0.037 A 
ATOM     58  C   UNL A   1      41.877  33.711  36.373  1.00  0.00     0.037 A 
ATOM     59  C   UNL A   1      43.785  28.997  32.417  1.00  0.00     0.049 A 
ATOM     60  C   UNL A   1      42.335  32.406  36.962  1.00  0.00     0.074 A 
ATOM     61  C   UNL A   1      44.953  29.743  32.446  1.00  0.00     0.029 A 
ATOM     62  N   UNL A   1      43.391  28.910  33.760  1.00  0.00    -0.354 N 
ATOM     63  N   UNL A   1      42.502  31.372  36.182  1.00  0.00    -0.248 NA
ATOM     64  C   UNL A   1      42.747  32.112  38.328  1.00  0.00     0.031 C 
ATOM     65  C   UNL A   1      45.209  30.134  33.806  1.00  0.00     0.029 A 
ATOM     66  C   UNL A   1      44.212  29.614  34.619  1.00  0.00     0.049 A 
ATOM     67  H   UNL A   1      42.606  28.398  34.061  1.00  0.00     0.167 HD
ATOM     68  C   UNL A   1      43.289  30.467  36.778  1.00  0.00     0.074 A 
ATOM     69  C   UNL A   1      43.241  30.862  38.183  1.00  0.00     0.031 C 
ATOM     70  C   UNL A   1      43.999  29.548  36.067  1.00  0.00     0.037 A 
BRANCH  57  71
ATOM     71  C   UNL A   1      43.344  27.879  30.033  1.00  0.00     0.058 A 
ATOM     72  C   UNL A   1      43.351  28.654  28.857  1.00  0.00     0.135 A 
ATOM     73  C   UNL A   1      43.783  26.543  29.848  1.00  0.00     0.135 A 
ATOM     74  F   UNL A   1      42.877  29.908  28.854  1.00  0.00    -0.206 F 
ATOM     75  C   UNL A   1      43.842  28.177  27.632  1.00  0.00     0.059 A 
ATOM     76  C   UNL A   1      44.348  26.069  28.660  1.00  0.00     0.059 A 
ATOM     77  F   UNL A   1      43.632  25.604  30.791  1.00  0.00    -0.206 F 
ATOM     78  C   UNL A   1      44.378  26.896  27.552  1.00  0.00     0.060 A 
BRANCH  78  79
ATOM     79  S   UNL A   1      45.126  26.332  26.011  1.00  0.00     0.124 S 
ATOM     80  O   UNL A   1      44.450  27.165  25.022  1.00  0.00    -0.237 OA
ATOM     81  O   UNL A   1      46.542  26.620  26.225  1.00  0.00    -0.237 OA
ATOM     82  O   UNL A   1      44.788  24.911  25.967  1.00  0.00    -0.744 OA
ENDBRANCH  78  79
ENDBRANCH  57  71
BRANCH  58  83
ATOM     83  C   UNL A   1      40.859  34.723  36.774  1.00  0.00     0.058 A 
ATOM     84  C   UNL A   1      39.780  34.257  37.573  1.00  0.00     0.135 A 
ATOM     85  C   UNL A   1      41.149  36.088  36.854  1.00  0.00     0.135 A 
ATOM     86  F   UNL A   1      39.448  32.953  37.552  1.00  0.00    -0.206 F 
ATOM     87  C   UNL A   1      39.137  35.061  38.519  1.00  0.00     0.059 A 
ATOM     88  C   UNL A   1      40.529  36.909  37.807  1.00  0.00     0.059 A 
ATOM     89  F   UNL A   1      42.129  36.611  36.102  1.00  0.00    -0.206 F 
ATOM     90  C   UNL A   1      39.572  36.372  38.676  1.00  0.00     0.060 A 
BRANCH  90  91
ATOM     91  S   UNL A   1      39.098  37.322  40.152  1.00  0.00     0.124 S 
ATOM     92  O   UNL A   1      40.393  37.744  40.673  1.00  0.00    -0.237 OA
ATOM     93  O   UNL A   1      38.256  38.393  39.623  1.00  0.00    -0.237 OA
ATOM     94  O   UNL A   1      38.383  36.322  40.938  1.00  0.00    -0.744 OA
ENDBRANCH  90  91
ENDBRANCH  58  83
BRANCH  70  95
ATOM     95  C   UNL A   1      44.518  28.384  36.789  1.00  0.00     0.058 A 
ATOM     96  C   UNL A   1      43.740  27.269  37.095  1.00  0.00     0.135 A 
ATOM     97  C   UNL A   1      45.884  28.377  37.115  1.00  0.00     0.135 A 
ATOM     98  F   UNL A   1      42.421  27.256  36.837  1.00  0.00    -0.206 F 
ATOM     99  C   UNL A   1      44.330  26.126  37.600  1.00  0.00     0.059 A 
ATOM    100  C   UNL A   1      46.477  27.276  37.686  1.00  0.00     0.059 A 
ATOM    101  F   UNL A   1      46.683  29.412  36.813  1.00  0.00    -0.206 F 
ATOM    102  C   UNL A   1      45.702  26.138  37.865  1.00  0.00     0.060 A 
BRANCH 102 103
ATOM    103  S   UNL A   1      46.518  24.627  38.378  1.00  0.00     0.124 S 
ATOM    104  O   UNL A   1      46.272  23.733  37.251  1.00  0.00    -0.237 OA
ATOM    105  O   UNL A   1      47.894  25.088  38.530  1.00  0.00    -0.237 OA
ATOM    106  O   UNL A   1      45.824  24.280  39.612  1.00  0.00    -0.744 OA
ENDBRANCH 102 103
ENDBRANCH  70  95
ENDBRANCH  44  45
ENDBRANCH  37  39
ENDBRANCH  36  37
ENDBRANCH  35  36
ENDBRANCH  34  35
ENDBRANCH  33  34
ENDBRANCH  32  33
ENDBRANCH  31  32
ENDBRANCH   1  31
TORSDOF 26
ENDMDL
MODEL 2
REMARK VINA RESULT:      -8.7      2.875      4.042
REMARK SMILES Cc1ccc(Sc2ccc(=O)n(-c3ccc(C(=O)OCCOCCOCCOCCOC(=O)c4ccc(-c5c6nc(c(-c7c(F)cc(S(=O)(=O)[O-])cc7F)c7ccc([nH]7)c(-c7c(F)cc(S(=O)(=O)[O-])cc7F)c7nc(c(-c8c(F)cc(S(=O)(=O)[O-])cc8F)c8ccc5[nH]8)C=C7)C=C6)cc4)cc3)n2)cc1
REMARK SMILES IDX 25 1 24 2 23 3 22 4 21 5 20 6 19 7 17 8 18 9 16 10 13 11
REMARK SMILES IDX 14 12 101 13 15 14 100 15 12 16 7 17 8 18 102 19 9 20 10 21
REMARK SMILES IDX 11 22 6 23 5 24 1 25 2 26 3 27 104 28 4 29 103 30 26 31
REMARK SMILES IDX 27 32 28 33 29 34 30 35 31 36 32 37 33 38 34 39 35 40 99 41
REMARK SMILES IDX 36 42 98 43 37 44 38 45 39 46 92 47 40 48 97 49 91 50 93 51
REMARK SMILES IDX 41 52 96 53 90 54 89 55 42 57 76 58 55 59 75 60 56 61 59 62
REMARK SMILES IDX 74 63 94 64 57 65 58 66 73 68 95 69 60 70 43 71 44 72 53 73
REMARK SMILES IDX 45 74 46 75 52 76 54 77 47 78 48 79 49 80 50 81 51 82 77 83
REMARK SMILES IDX 78 84 87 85 79 86 80 87 86 88 88 89 81 90 82 91 83 92 84 93
REMARK SMILES IDX 85 94 61 95 62 96 71 97 63 98 64 99 70 100 72 101 65 102
REMARK SMILES IDX 66 103 67 104 68 105 69 106
REMARK H PARENT 93 56 59 67
REMARK Flexibility Score: inf
ROOT
ATOM      1  O   UNL A   1      33.905  28.227  25.618  1.00  0.00    -0.377 OA
ENDROOT
BRANCH   1   2
ATOM      2  C   UNL A   1      33.369  27.056  25.009  1.00  0.00     0.188 C 
BRANCH   2   3
ATOM      3  C   UNL A   1      32.882  25.887  25.886  1.00  0.00     0.188 C 
BRANCH   3   4
ATOM      4  O   UNL A   1      31.528  25.487  25.884  1.00  0.00    -0.376 OA
BRANCH   4   5
ATOM      5  C   UNL A   1      31.179  24.275  25.281  1.00  0.00     0.202 C 
BRANCH   5   6
ATOM      6  C   UNL A   1      31.512  24.030  23.850  1.00  0.00     0.261 C 
BRANCH   6   7
ATOM      7  O   UNL A   1      32.808  23.481  23.563  1.00  0.00    -0.460 OA
BRANCH   7   8
ATOM      8  C   UNL A   1      33.187  22.186  23.486  1.00  0.00     0.338 C 
ATOM      9  O   UNL A   1      32.629  21.204  23.023  1.00  0.00    -0.246 OA
BRANCH   8  10
ATOM     10  C   UNL A   1      34.560  22.131  23.995  1.00  0.00     0.060 A 
ATOM     11  C   UNL A   1      37.012  22.404  25.227  1.00  0.00     0.069 A 
ATOM     12  C   UNL A   1      36.086  21.480  25.722  1.00  0.00     0.029 A 
ATOM     13  C   UNL A   1      36.744  23.130  24.060  1.00  0.00     0.029 A 
ATOM     14  C   UNL A   1      34.853  21.354  25.119  1.00  0.00     0.018 A 
ATOM     15  C   UNL A   1      35.521  22.968  23.420  1.00  0.00     0.018 A 
BRANCH  11  16
ATOM     16  N   UNL A   1      38.201  22.589  25.953  1.00  0.00    -0.196 N 
ATOM     17  C   UNL A   1      40.108  21.546  26.596  1.00  0.00     0.122 A 
ATOM     18  C   UNL A   1      40.524  22.667  27.446  1.00  0.00     0.043 A 
ATOM     19  N   UNL A   1      38.993  21.467  25.962  1.00  0.00    -0.158 NA
ATOM     20  C   UNL A   1      39.730  23.740  27.433  1.00  0.00     0.076 A 
ATOM     21  C   UNL A   1      38.512  23.786  26.587  1.00  0.00     0.271 A 
ATOM     22  O   UNL A   1      37.861  24.828  26.575  1.00  0.00    -0.267 OA
BRANCH  17  23
ATOM     23  S   UNL A   1      41.257  20.245  26.469  1.00  0.00    -0.068 SA
BRANCH  23  24
ATOM     24  C   UNL A   1      42.706  21.029  25.754  1.00  0.00     0.014 A 
ATOM     25  C   UNL A   1      46.401  22.621  24.148  1.00  0.00     0.044 C 
ATOM     26  C   UNL A   1      45.115  22.075  24.697  1.00  0.00    -0.051 A 
ATOM     27  C   UNL A   1      44.962  20.700  24.890  1.00  0.00     0.004 A 
ATOM     28  C   UNL A   1      44.051  22.922  25.013  1.00  0.00     0.004 A 
ATOM     29  C   UNL A   1      43.769  20.184  25.411  1.00  0.00     0.016 A 
ATOM     30  C   UNL A   1      42.859  22.404  25.537  1.00  0.00     0.016 A 
ENDBRANCH  23  24
ENDBRANCH  17  23
ENDBRANCH  11  16
ENDBRANCH   8  10
ENDBRANCH   7   8
ENDBRANCH   6   7
ENDBRANCH   5   6
ENDBRANCH   4   5
ENDBRANCH   3   4
ENDBRANCH   2   3
ENDBRANCH   1   2
BRANCH   1  31
ATOM     31  C   UNL A   1      33.157  29.449  25.643  1.00  0.00     0.188 C 
BRANCH  31  32
ATOM     32  C   UNL A   1      32.625  29.978  27.000  1.00  0.00     0.188 C 
BRANCH  32  33
ATOM     33  O   UNL A   1      33.638  30.710  27.680  1.00  0.00    -0.376 OA
BRANCH  33  34
ATOM     34  C   UNL A   1      34.952  30.212  27.686  1.00  0.00     0.202 C 
BRANCH  34  35
ATOM     35  C   UNL A   1      35.925  31.339  28.006  1.00  0.00     0.261 C 
BRANCH  35  36
ATOM     36  O   UNL A   1      36.061  31.406  29.443  1.00  0.00    -0.460 OA
BRANCH  36  37
ATOM     37  C   UNL A   1      36.849  32.407  29.929  1.00  0.00     0.338 C 
ATOM     38  O   UNL A   1      36.579  33.596  29.871  1.00  0.00    -0.246 OA
BRANCH  37  39
ATOM     39  C   UNL A   1      38.135  31.842  30.451  1.00  0.00     0.060 A 
ATOM     40  C   UNL A   1      39.373  32.280  29.935  1.00  0.00     0.016 A 
ATOM     41  C   UNL A   1      38.115  30.737  31.302  1.00  0.00     0.016 A 
ATOM     42  C   UNL A   1      40.574  31.585  30.221  1.00  0.00     0.010 A 
ATOM     43  C   UNL A   1      39.292  30.032  31.545  1.00  0.00     0.010 A 
ATOM     44  C   UNL A   1      40.538  30.440  31.020  1.00  0.00    -0.014 A 
BRANCH  44  45
ATOM     45  C   UNL A   1      41.678  29.559  31.356  1.00  0.00     0.031 A 
ATOM     46  C   UNL A   1      42.143  28.588  30.341  1.00  0.00     0.074 A 
ATOM     47  C   UNL A   1      42.529  29.802  32.385  1.00  0.00     0.049 A 
ATOM     48  N   UNL A   1      43.089  27.734  30.546  1.00  0.00    -0.248 NA
ATOM     49  C   UNL A   1      41.565  28.453  29.001  1.00  0.00     0.031 C 
ATOM     50  C   UNL A   1      43.987  29.608  32.402  1.00  0.00     0.029 A 
ATOM     51  N   UNL A   1      42.322  30.504  33.565  1.00  0.00    -0.354 N 
ATOM     52  C   UNL A   1      43.567  27.416  29.304  1.00  0.00     0.074 A 
ATOM     53  C   UNL A   1      42.446  27.624  28.427  1.00  0.00     0.031 C 
ATOM     54  C   UNL A   1      44.501  29.955  33.595  1.00  0.00     0.029 A 
ATOM     55  C   UNL A   1      43.387  30.300  34.464  1.00  0.00     0.049 A 
ATOM     56  H   UNL A   1      41.537  31.068  33.748  1.00  0.00     0.167 HD
ATOM     57  C   UNL A   1      44.913  27.262  29.129  1.00  0.00     0.037 A 
ATOM     58  C   UNL A   1      43.174  29.878  35.738  1.00  0.00     0.037 A 
ATOM     59  C   UNL A   1      45.663  27.240  30.413  1.00  0.00     0.049 A 
ATOM     60  C   UNL A   1      43.576  28.430  35.762  1.00  0.00     0.074 A 
ATOM     61  C   UNL A   1      46.804  27.856  30.904  1.00  0.00     0.029 A 
ATOM     62  N   UNL A   1      45.101  26.602  31.528  1.00  0.00    -0.354 N 
ATOM     63  N   UNL A   1      43.862  27.823  34.641  1.00  0.00    -0.248 NA
ATOM     64  C   UNL A   1      43.813  27.563  36.908  1.00  0.00     0.031 C 
ATOM     65  C   UNL A   1      46.875  27.616  32.321  1.00  0.00     0.029 A 
ATOM     66  C   UNL A   1      45.791  26.838  32.701  1.00  0.00     0.049 A 
ATOM     67  H   UNL A   1      44.293  26.041  31.479  1.00  0.00     0.167 HD
ATOM     68  C   UNL A   1      44.581  26.720  34.884  1.00  0.00     0.074 A 
ATOM     69  C   UNL A   1      44.345  26.477  36.303  1.00  0.00     0.031 C 
ATOM     70  C   UNL A   1      45.394  26.167  33.941  1.00  0.00     0.037 A 
BRANCH  57  71
ATOM     71  C   UNL A   1      45.555  27.268  27.745  1.00  0.00     0.058 A 
ATOM     72  C   UNL A   1      46.201  28.422  27.259  1.00  0.00     0.135 A 
ATOM     73  C   UNL A   1      45.562  26.177  26.839  1.00  0.00     0.135 A 
ATOM     74  F   UNL A   1      46.197  29.562  27.964  1.00  0.00    -0.206 F 
ATOM     75  C   UNL A   1      46.876  28.457  26.030  1.00  0.00     0.059 A 
ATOM     76  C   UNL A   1      46.291  26.163  25.647  1.00  0.00     0.059 A 
ATOM     77  F   UNL A   1      44.810  25.085  27.031  1.00  0.00    -0.206 F 
ATOM     78  C   UNL A   1      46.952  27.310  25.248  1.00  0.00     0.060 A 
BRANCH  78  79
ATOM     79  S   UNL A   1      47.929  27.321  23.731  1.00  0.00     0.124 S 
ATOM     80  O   UNL A   1      47.103  28.133  22.845  1.00  0.00    -0.237 OA
ATOM     81  O   UNL A   1      49.182  27.929  24.169  1.00  0.00    -0.237 OA
ATOM     82  O   UNL A   1      48.023  25.907  23.376  1.00  0.00    -0.744 OA
ENDBRANCH  78  79
ENDBRANCH  57  71
BRANCH  58  83
ATOM     83  C   UNL A   1      42.095  30.660  36.405  1.00  0.00     0.058 A 
ATOM     84  C   UNL A   1      42.489  31.861  37.053  1.00  0.00     0.135 A 
ATOM     85  C   UNL A   1      40.756  30.572  36.017  1.00  0.00     0.135 A 
ATOM     86  F   UNL A   1      43.766  32.019  37.449  1.00  0.00    -0.206 F 
ATOM     87  C   UNL A   1      41.649  32.974  37.160  1.00  0.00     0.059 A 
ATOM     88  C   UNL A   1      39.900  31.681  36.098  1.00  0.00     0.059 A 
ATOM     89  F   UNL A   1      40.298  29.456  35.432  1.00  0.00    -0.206 F 
ATOM     90  C   UNL A   1      40.375  32.895  36.612  1.00  0.00     0.060 A 
BRANCH  90  91
ATOM     91  S   UNL A   1      39.406  34.405  36.325  1.00  0.00     0.124 S 
ATOM     92  O   UNL A   1      39.183  34.889  37.682  1.00  0.00    -0.237 OA
ATOM     93  O   UNL A   1      40.284  35.233  35.501  1.00  0.00    -0.237 OA
ATOM     94  O   UNL A   1      38.235  33.885  35.626  1.00  0.00    -0.744 OA
ENDBRANCH  90  91
ENDBRANCH  58  83
BRANCH  70  95
ATOM     95  C   UNL A   1      45.836  24.786  34.151  1.00  0.00     0.058 A 
ATOM     96  C   UNL A   1      46.998  24.455  34.845  1.00  0.00     0.135 A 
ATOM     97  C   UNL A   1      44.997  23.759  33.688  1.00  0.00     0.135 A 
ATOM     98  F   UNL A   1      47.845  25.409  35.265  1.00  0.00    -0.206 F 
ATOM     99  C   UNL A   1      47.258  23.140  35.179  1.00  0.00     0.059 A 
ATOM    100  C   UNL A   1      45.276  22.438  33.947  1.00  0.00     0.059 A 
ATOM    101  F   UNL A   1      43.851  24.025  33.043  1.00  0.00    -0.206 F 
ATOM    102  C   UNL A   1      46.375  22.148  34.745  1.00  0.00     0.060 A 
BRANCH 102 103
ATOM    103  S   UNL A   1      46.607  20.456  35.290  1.00  0.00     0.124 S 
ATOM    104  O   UNL A   1      45.270  19.888  35.147  1.00  0.00    -0.237 OA
ATOM    105  O   UNL A   1      47.601  19.986  34.330  1.00  0.00    -0.237 OA
ATOM    106  O   UNL A   1      47.074  20.613  36.662  1.00  0.00    -0.744 OA
ENDBRANCH 102 103
ENDBRANCH  70  95
ENDBRANCH  44  45
ENDBRANCH  37  39
ENDBRANCH  36  37
ENDBRANCH  35  36
ENDBRANCH  34  35
ENDBRANCH  33  34
ENDBRANCH  32  33
ENDBRANCH  31  32
ENDBRANCH   1  31
TORSDOF 26
ENDMDL
MODEL 3
REMARK VINA RESULT:      -8.6      9.734     15.427
REMARK SMILES Cc1ccc(Sc2ccc(=O)n(-c3ccc(C(=O)OCCOCCOCCOCCOC(=O)c4ccc(-c5c6nc(c(-c7c(F)cc(S(=O)(=O)[O-])cc7F)c7ccc([nH]7)c(-c7c(F)cc(S(=O)(=O)[O-])cc7F)c7nc(c(-c8c(F)cc(S(=O)(=O)[O-])cc8F)c8ccc5[nH]8)C=C7)C=C6)cc4)cc3)n2)cc1
REMARK SMILES IDX 25 1 24 2 23 3 22 4 21 5 20 6 19 7 17 8 18 9 16 10 13 11
REMARK SMILES IDX 14 12 101 13 15 14 100 15 12 16 7 17 8 18 102 19 9 20 10 21
REMARK SMILES IDX 11 22 6 23 5 24 1 25 2 26 3 27 104 28 4 29 103 30 26 31
REMARK SMILES IDX 27 32 28 33 29 34 30 35 31 36 32 37 33 38 34 39 35 40 99 41
REMARK SMILES IDX 36 42 98 43 37 44 38 45 39 46 92 47 40 48 97 49 91 50 93 51
REMARK SMILES IDX 41 52 96 53 90 54 89 55 42 57 76 58 55 59 75 60 56 61 59 62
REMARK SMILES IDX 74 63 94 64 57 65 58 66 73 68 95 69 60 70 43 71 44 72 53 73
REMARK SMILES IDX 45 74 46 75 52 76 54 77 47 78 48 79 49 80 50 81 51 82 77 83
REMARK SMILES IDX 78 84 87 85 79 86 80 87 86 88 88 89 81 90 82 91 83 92 84 93
REMARK SMILES IDX 85 94 61 95 62 96 71 97 63 98 64 99 70 100 72 101 65 102
REMARK SMILES IDX 66 103 67 104 68 105 69 106
REMARK H PARENT 93 56 59 67
REMARK Flexibility Score: inf
ROOT
ATOM      1  O   UNL A   1      47.734  40.054  31.069  1.00  0.00    -0.377 OA
ENDROOT
BRANCH   1   2
ATOM      2  C   UNL A   1      47.327  41.351  31.496  1.00  0.00     0.188 C 
BRANCH   2   3
ATOM      3  C   UNL A   1      48.032  42.601  30.938  1.00  0.00     0.188 C 
BRANCH   3   4
ATOM      4  O   UNL A   1      47.750  43.082  29.641  1.00  0.00    -0.376 OA
BRANCH   4   5
ATOM      5  C   UNL A   1      48.440  42.542  28.551  1.00  0.00     0.202 C 
BRANCH   5   6
ATOM      6  C   UNL A   1      47.836  42.586  27.190  1.00  0.00     0.261 C 
BRANCH   6   7
ATOM      7  O   UNL A   1      46.512  43.128  27.077  1.00  0.00    -0.460 OA
BRANCH   7   8
ATOM      8  C   UNL A   1      46.130  44.401  26.827  1.00  0.00     0.338 C 
ATOM      9  O   UNL A   1      46.493  45.465  27.304  1.00  0.00    -0.246 OA
BRANCH   8  10
ATOM     10  C   UNL A   1      45.192  44.333  25.703  1.00  0.00     0.060 A 
ATOM     11  C   UNL A   1      43.803  44.025  23.342  1.00  0.00     0.069 A 
ATOM     12  C   UNL A   1      43.724  43.036  24.328  1.00  0.00     0.029 A 
ATOM     13  C   UNL A   1      44.508  45.211  23.574  1.00  0.00     0.029 A 
ATOM     14  C   UNL A   1      44.432  43.179  25.502  1.00  0.00     0.018 A 
ATOM     15  C   UNL A   1      45.182  45.382  24.778  1.00  0.00     0.018 A 
BRANCH  11  16
ATOM     16  N   UNL A   1      43.170  43.771  22.113  1.00  0.00    -0.196 N 
ATOM     17  C   UNL A   1      43.497  43.804  19.870  1.00  0.00     0.122 A 
ATOM     18  C   UNL A   1      42.093  43.485  19.585  1.00  0.00     0.043 A 
ATOM     19  N   UNL A   1      43.989  44.017  21.038  1.00  0.00    -0.158 NA
ATOM     20  C   UNL A   1      41.314  43.265  20.646  1.00  0.00     0.076 A 
ATOM     21  C   UNL A   1      41.856  43.325  22.025  1.00  0.00     0.271 A 
ATOM     22  O   UNL A   1      41.098  43.051  22.953  1.00  0.00    -0.267 OA
BRANCH  17  23
ATOM     23  S   UNL A   1      44.537  43.884  18.477  1.00  0.00    -0.068 SA
BRANCH  23  24
ATOM     24  C   UNL A   1      44.447  45.607  17.981  1.00  0.00     0.014 A 
ATOM     25  C   UNL A   1      43.896  49.686  16.631  1.00  0.00     0.044 C 
ATOM     26  C   UNL A   1      44.094  48.277  17.106  1.00  0.00    -0.051 A 
ATOM     27  C   UNL A   1      42.990  47.449  17.326  1.00  0.00     0.004 A 
ATOM     28  C   UNL A   1      45.373  47.771  17.348  1.00  0.00     0.004 A 
ATOM     29  C   UNL A   1      43.167  46.130  17.760  1.00  0.00     0.016 A 
ATOM     30  C   UNL A   1      45.547  46.450  17.780  1.00  0.00     0.016 A 
ENDBRANCH  23  24
ENDBRANCH  17  23
ENDBRANCH  11  16
ENDBRANCH   8  10
ENDBRANCH   7   8
ENDBRANCH   6   7
ENDBRANCH   5   6
ENDBRANCH   4   5
ENDBRANCH   3   4
ENDBRANCH   2   3
ENDBRANCH   1   2
BRANCH   1  31
ATOM     31  C   UNL A   1      47.188  39.466  29.882  1.00  0.00     0.188 C 
BRANCH  31  32
ATOM     32  C   UNL A   1      45.707  39.744  29.518  1.00  0.00     0.188 C 
BRANCH  32  33
ATOM     33  O   UNL A   1      45.276  38.866  28.485  1.00  0.00    -0.376 OA
BRANCH  33  34
ATOM     34  C   UNL A   1      46.196  37.961  27.931  1.00  0.00     0.202 C 
BRANCH  34  35
ATOM     35  C   UNL A   1      45.476  36.682  27.524  1.00  0.00     0.261 C 
BRANCH  35  36
ATOM     36  O   UNL A   1      44.435  36.437  28.495  1.00  0.00    -0.460 OA
BRANCH  36  37
ATOM     37  C   UNL A   1      43.396  35.655  28.083  1.00  0.00     0.338 C 
ATOM     38  O   UNL A   1      42.239  36.029  27.986  1.00  0.00    -0.246 OA
BRANCH  37  39
ATOM     39  C   UNL A   1      43.867  34.249  27.862  1.00  0.00     0.060 A 
ATOM     40  C   UNL A   1      43.828  33.673  26.575  1.00  0.00     0.016 A 
ATOM     41  C   UNL A   1      44.153  33.431  28.956  1.00  0.00     0.016 A 
ATOM     42  C   UNL A   1      44.017  32.282  26.387  1.00  0.00     0.010 A 
ATOM     43  C   UNL A   1      44.296  32.057  28.770  1.00  0.00     0.010 A 
ATOM     44  C   UNL A   1      44.238  31.458  27.492  1.00  0.00    -0.014 A 
BRANCH  44  45
ATOM     45  C   UNL A   1      44.383  29.986  27.484  1.00  0.00     0.031 A 
ATOM     46  C   UNL A   1      45.650  29.404  26.989  1.00  0.00     0.074 A 
ATOM     47  C   UNL A   1      43.581  29.154  28.196  1.00  0.00     0.049 A 
ATOM     48  N   UNL A   1      45.865  28.135  26.885  1.00  0.00    -0.248 NA
ATOM     49  C   UNL A   1      46.797  30.192  26.527  1.00  0.00     0.031 C 
ATOM     50  C   UNL A   1      43.978  27.941  28.926  1.00  0.00     0.029 A 
ATOM     51  N   UNL A   1      42.276  29.334  28.634  1.00  0.00    -0.354 N 
ATOM     52  C   UNL A   1      47.225  27.992  26.918  1.00  0.00     0.074 A 
ATOM     53  C   UNL A   1      47.726  29.238  26.400  1.00  0.00     0.031 C 
ATOM     54  C   UNL A   1      42.914  27.369  29.518  1.00  0.00     0.029 A 
ATOM     55  C   UNL A   1      41.738  28.127  29.121  1.00  0.00     0.049 A 
ATOM     56  H   UNL A   1      41.791  30.190  28.607  1.00  0.00     0.167 HD
ATOM     57  C   UNL A   1      47.766  26.947  27.611  1.00  0.00     0.037 A 
ATOM     58  C   UNL A   1      40.558  27.634  28.660  1.00  0.00     0.037 A 
ATOM     59  C   UNL A   1      46.748  25.957  28.053  1.00  0.00     0.049 A 
ATOM     60  C   UNL A   1      40.917  26.492  27.752  1.00  0.00     0.074 A 
ATOM     61  C   UNL A   1      46.459  25.295  29.236  1.00  0.00     0.029 A 
ATOM     62  N   UNL A   1      45.671  25.655  27.208  1.00  0.00    -0.354 N 
ATOM     63  N   UNL A   1      42.169  26.289  27.439  1.00  0.00    -0.248 NA
ATOM     64  C   UNL A   1      40.059  25.447  27.211  1.00  0.00     0.031 C 
ATOM     65  C   UNL A   1      45.182  24.649  29.093  1.00  0.00     0.029 A 
ATOM     66  C   UNL A   1      44.693  24.895  27.818  1.00  0.00     0.049 A 
ATOM     67  H   UNL A   1      45.616  25.956  26.272  1.00  0.00     0.167 HD
ATOM     68  C   UNL A   1      42.336  25.035  26.999  1.00  0.00     0.074 A 
ATOM     69  C   UNL A   1      40.978  24.617  26.667  1.00  0.00     0.031 C 
ATOM     70  C   UNL A   1      43.545  24.408  27.048  1.00  0.00     0.037 A 
BRANCH  57  71
ATOM     71  C   UNL A   1      49.241  26.912  28.000  1.00  0.00     0.058 A 
ATOM     72  C   UNL A   1      49.725  27.716  29.051  1.00  0.00     0.135 A 
ATOM     73  C   UNL A   1      50.237  26.121  27.373  1.00  0.00     0.135 A 
ATOM     74  F   UNL A   1      48.922  28.586  29.679  1.00  0.00    -0.206 F 
ATOM     75  C   UNL A   1      51.053  27.664  29.502  1.00  0.00     0.059 A 
ATOM     76  C   UNL A   1      51.544  25.994  27.852  1.00  0.00     0.059 A 
ATOM     77  F   UNL A   1      50.013  25.472  26.222  1.00  0.00    -0.206 F 
ATOM     78  C   UNL A   1      51.946  26.769  28.924  1.00  0.00     0.060 A 
BRANCH  78  79
ATOM     79  S   UNL A   1      53.615  26.611  29.590  1.00  0.00     0.124 S 
ATOM     80  O   UNL A   1      53.997  28.005  29.784  1.00  0.00    -0.237 OA
ATOM     81  O   UNL A   1      53.395  25.836  30.808  1.00  0.00    -0.237 OA
ATOM     82  O   UNL A   1      54.339  25.906  28.535  1.00  0.00    -0.744 OA
ENDBRANCH  78  79
ENDBRANCH  57  71
BRANCH  58  83
ATOM     83  C   UNL A   1      39.498  28.682  28.630  1.00  0.00     0.058 A 
ATOM     84  C   UNL A   1      39.172  29.220  27.356  1.00  0.00     0.135 A 
ATOM     85  C   UNL A   1      38.516  28.784  29.619  1.00  0.00     0.135 A 
ATOM     86  F   UNL A   1      40.067  29.152  26.353  1.00  0.00    -0.206 F 
ATOM     87  C   UNL A   1      37.892  29.680  27.033  1.00  0.00     0.059 A 
ATOM     88  C   UNL A   1      37.219  29.225  29.314  1.00  0.00     0.059 A 
ATOM     89  F   UNL A   1      38.761  28.333  30.857  1.00  0.00    -0.206 F 
ATOM     90  C   UNL A   1      36.901  29.609  28.005  1.00  0.00     0.060 A 
BRANCH  90  91
ATOM     91  S   UNL A   1      35.151  29.768  27.542  1.00  0.00     0.124 S 
ATOM     92  O   UNL A   1      35.026  31.202  27.303  1.00  0.00    -0.237 OA
ATOM     93  O   UNL A   1      35.024  28.923  26.357  1.00  0.00    -0.237 OA
ATOM     94  O   UNL A   1      34.475  29.252  28.728  1.00  0.00    -0.744 OA
ENDBRANCH  90  91
ENDBRANCH  58  83
BRANCH  70  95
ATOM     95  C   UNL A   1      43.725  23.215  26.219  1.00  0.00     0.058 A 
ATOM     96  C   UNL A   1      44.351  23.239  24.974  1.00  0.00     0.135 A 
ATOM     97  C   UNL A   1      43.307  21.984  26.752  1.00  0.00     0.135 A 
ATOM     98  F   UNL A   1      44.726  24.401  24.414  1.00  0.00    -0.206 F 
ATOM     99  C   UNL A   1      44.666  22.058  24.331  1.00  0.00     0.059 A 
ATOM    100  C   UNL A   1      43.545  20.802  26.093  1.00  0.00     0.059 A 
ATOM    101  F   UNL A   1      42.728  21.903  27.960  1.00  0.00    -0.206 F 
ATOM    102  C   UNL A   1      44.279  20.848  24.915  1.00  0.00     0.060 A 
BRANCH 102 103
ATOM    103  S   UNL A   1      44.804  19.302  24.179  1.00  0.00     0.124 S 
ATOM    104  O   UNL A   1      44.437  19.473  22.777  1.00  0.00    -0.237 OA
ATOM    105  O   UNL A   1      46.235  19.325  24.466  1.00  0.00    -0.237 OA
ATOM    106  O   UNL A   1      44.026  18.308  24.910  1.00  0.00    -0.744 OA
ENDBRANCH 102 103
ENDBRANCH  70  95
ENDBRANCH  44  45
ENDBRANCH  37  39
ENDBRANCH  36  37
ENDBRANCH  35  36
ENDBRANCH  34  35
ENDBRANCH  33  34
ENDBRANCH  32  33
ENDBRANCH  31  32
ENDBRANCH   1  31
TORSDOF 26
ENDMDL
