MODEL 1
REMARK VINA RESULT:     -10.8      0.000      0.000
REMARK SMILES CC1=C[C@H](C)[C@H](CN2C[C@]34C=C[C@H](O3)[C@H](C(=O)OCCOCCOCCOCCOC(=O)c3ccc(-c5c6nc(c(-c7c(F)cc(S(=O)(=O)[O-])cc7F)c7ccc([nH]7)c(-c7c(F)cc(S(=O)(=O)[O-])cc7F)c7nc(c(-c8c(F)cc(S(=O)(=O)[O-])cc8F)c8ccc5[nH]8)C=C7)C=C6)cc3)[C@@H]4C2=O)[C@H](C)C1
REMARK SMILES IDX 25 1 24 2 23 3 22 4 21 5 20 6 19 7 18 8 16 9 17 10 15 11
REMARK SMILES IDX 8 12 9 13 100 14 10 15 99 16 101 17 11 18 14 19 12 20 13 21
REMARK SMILES IDX 7 22 6 23 1 24 2 25 3 26 104 27 4 28 102 29 5 30 103 31
REMARK SMILES IDX 26 32 27 33 28 34 29 35 30 36 31 37 32 38 33 39 34 40 98 41
REMARK SMILES IDX 35 42 97 43 36 44 37 45 38 46 91 47 39 48 96 49 90 50 92 51
REMARK SMILES IDX 40 52 95 53 89 54 88 55 41 57 75 58 54 59 74 60 55 61 58 62
REMARK SMILES IDX 73 63 93 64 56 65 57 66 72 68 94 69 59 70 42 71 43 72 52 73
REMARK SMILES IDX 44 74 45 75 51 76 53 77 46 78 47 79 48 80 49 81 50 82 76 83
REMARK SMILES IDX 77 84 86 85 78 86 79 87 85 88 87 89 80 90 81 91 82 92 83 93
REMARK SMILES IDX 84 94 60 95 61 96 70 97 62 98 63 99 69 100 71 101 64 102
REMARK SMILES IDX 65 103 66 104 67 105 68 106
REMARK H PARENT 92 56 58 67
REMARK Flexibility Score: inf
ROOT
ATOM      1  C   UNL A   1      33.661  35.938  29.993  1.00  0.00     0.188 C 
ENDROOT
BRANCH   1   2
ATOM      2  O   UNL A   1      32.753  35.580  28.952  1.00  0.00    -0.377 OA
BRANCH   2   3
ATOM      3  C   UNL A   1      32.975  34.319  28.360  1.00  0.00     0.188 C 
BRANCH   3   4
ATOM      4  C   UNL A   1      34.436  33.977  28.046  1.00  0.00     0.188 C 
BRANCH   4   5
ATOM      5  O   UNL A   1      34.774  32.682  27.572  1.00  0.00    -0.376 OA
BRANCH   5   6
ATOM      6  C   UNL A   1      33.814  31.630  27.690  1.00  0.00     0.202 C 
BRANCH   6   7
ATOM      7  C   UNL A   1      34.060  30.290  26.965  1.00  0.00     0.261 C 
BRANCH   7   8
ATOM      8  O   UNL A   1      32.878  29.469  26.865  1.00  0.00    -0.463 OA
BRANCH   8   9
ATOM      9  C   UNL A   1      31.968  29.775  25.887  1.00  0.00     0.312 C 
ATOM     10  O   UNL A   1      31.416  30.859  25.763  1.00  0.00    -0.252 OA
BRANCH   9  11
ATOM     11  C   UNL A   1      32.058  28.747  24.789  1.00  0.00     0.148 C 
ATOM     12  N   UNL A   1      31.346  25.125  25.348  1.00  0.00    -0.339 N 
ATOM     13  C   UNL A   1      31.330  25.296  23.927  1.00  0.00     0.160 C 
ATOM     14  C   UNL A   1      31.120  26.441  25.929  1.00  0.00     0.230 C 
ATOM     15  C   UNL A   1      31.995  26.641  23.829  1.00  0.00     0.117 C 
ATOM     16  C   UNL A   1      31.149  27.503  24.767  1.00  0.00     0.133 C 
ATOM     17  O   UNL A   1      31.009  26.690  27.118  1.00  0.00    -0.274 OA
ATOM     18  C   UNL A   1      32.599  27.150  22.561  1.00  0.00     0.009 C 
ATOM     19  O   UNL A   1      33.209  26.775  24.654  1.00  0.00    -0.360 OA
ATOM     20  C   UNL A   1      33.567  27.998  22.943  1.00  0.00     0.004 C 
ATOM     21  C   UNL A   1      33.443  28.169  24.435  1.00  0.00     0.157 C 
BRANCH  12  22
ATOM     22  C   UNL A   1      32.236  24.144  26.031  1.00  0.00     0.124 C 
BRANCH  22  23
ATOM     23  C   UNL A   1      33.558  23.541  25.337  1.00  0.00     0.018 C 
ATOM     24  C   UNL A   1      36.773  20.411  25.057  1.00  0.00     0.039 C 
ATOM     25  C   UNL A   1      35.764  21.514  24.862  1.00  0.00    -0.077 C 
ATOM     26  C   UNL A   1      35.972  22.683  25.481  1.00  0.00    -0.025 C 
ATOM     27  C   UNL A   1      34.369  21.136  24.432  1.00  0.00     0.034 C 
ATOM     28  C   UNL A   1      34.790  23.241  26.232  1.00  0.00     0.014 C 
ATOM     29  C   UNL A   1      33.286  22.277  24.408  1.00  0.00    -0.005 C 
ATOM     30  C   UNL A   1      34.515  22.240  27.364  1.00  0.00     0.012 C 
ATOM     31  C   UNL A   1      31.922  21.610  24.621  1.00  0.00     0.008 C 
ENDBRANCH  22  23
ENDBRANCH  12  22
ENDBRANCH   9  11
ENDBRANCH   8   9
ENDBRANCH   7   8
ENDBRANCH   6   7
ENDBRANCH   5   6
ENDBRANCH   4   5
ENDBRANCH   3   4
ENDBRANCH   2   3
ENDBRANCH   1   2
BRANCH   1  32
ATOM     32  C   UNL A   1      33.359  35.356  31.387  1.00  0.00     0.188 C 
BRANCH  32  33
ATOM     33  O   UNL A   1      33.756  33.990  31.520  1.00  0.00    -0.376 OA
BRANCH  33  34
ATOM     34  C   UNL A   1      35.144  33.724  31.684  1.00  0.00     0.202 C 
BRANCH  34  35
ATOM     35  C   UNL A   1      35.511  32.394  32.362  1.00  0.00     0.261 C 
BRANCH  35  36
ATOM     36  O   UNL A   1      36.746  31.789  31.948  1.00  0.00    -0.460 OA
BRANCH  36  37
ATOM     37  C   UNL A   1      36.700  30.887  30.936  1.00  0.00     0.338 C 
ATOM     38  O   UNL A   1      35.720  30.455  30.385  1.00  0.00    -0.246 OA
BRANCH  37  39
ATOM     39  C   UNL A   1      38.093  30.669  30.484  1.00  0.00     0.060 A 
ATOM     40  C   UNL A   1      38.343  30.532  29.113  1.00  0.00     0.016 A 
ATOM     41  C   UNL A   1      39.136  30.589  31.408  1.00  0.00     0.016 A 
ATOM     42  C   UNL A   1      39.638  30.275  28.664  1.00  0.00     0.010 A 
ATOM     43  C   UNL A   1      40.428  30.313  30.959  1.00  0.00     0.010 A 
ATOM     44  C   UNL A   1      40.678  30.120  29.589  1.00  0.00    -0.014 A 
BRANCH  44  45
ATOM     45  C   UNL A   1      41.980  29.562  29.149  1.00  0.00     0.031 A 
ATOM     46  C   UNL A   1      43.155  30.496  29.047  1.00  0.00     0.074 A 
ATOM     47  C   UNL A   1      42.117  28.261  28.844  1.00  0.00     0.049 A 
ATOM     48  N   UNL A   1      44.370  30.261  28.626  1.00  0.00    -0.248 NA
ATOM     49  C   UNL A   1      42.924  31.886  29.472  1.00  0.00     0.031 C 
ATOM     50  C   UNL A   1      41.059  27.256  28.929  1.00  0.00     0.029 A 
ATOM     51  N   UNL A   1      43.207  27.567  28.379  1.00  0.00    -0.354 N 
ATOM     52  C   UNL A   1      45.044  31.473  28.723  1.00  0.00     0.074 A 
ATOM     53  C   UNL A   1      44.096  32.447  29.216  1.00  0.00     0.031 C 
ATOM     54  C   UNL A   1      41.547  26.077  28.505  1.00  0.00     0.029 A 
ATOM     55  C   UNL A   1      42.939  26.251  28.091  1.00  0.00     0.049 A 
ATOM     56  H   UNL A   1      44.096  27.974  28.263  1.00  0.00     0.167 HD
ATOM     57  C   UNL A   1      46.337  31.746  28.431  1.00  0.00     0.037 A 
ATOM     58  C   UNL A   1      43.720  25.304  27.531  1.00  0.00     0.037 A 
ATOM     59  C   UNL A   1      47.274  30.772  27.938  1.00  0.00     0.049 A 
ATOM     60  C   UNL A   1      45.143  25.643  27.165  1.00  0.00     0.074 A 
ATOM     61  C   UNL A   1      48.614  30.941  27.639  1.00  0.00     0.029 A 
ATOM     62  N   UNL A   1      46.965  29.449  27.655  1.00  0.00    -0.354 N 
ATOM     63  N   UNL A   1      45.782  26.782  27.297  1.00  0.00    -0.248 NA
ATOM     64  C   UNL A   1      45.955  24.566  26.578  1.00  0.00     0.031 C 
ATOM     65  C   UNL A   1      49.101  29.736  27.123  1.00  0.00     0.029 A 
ATOM     66  C   UNL A   1      48.081  28.798  27.157  1.00  0.00     0.049 A 
ATOM     67  H   UNL A   1      46.081  29.035  27.787  1.00  0.00     0.167 HD
ATOM     68  C   UNL A   1      47.075  26.552  26.836  1.00  0.00     0.074 A 
ATOM     69  C   UNL A   1      47.131  25.162  26.431  1.00  0.00     0.031 C 
ATOM     70  C   UNL A   1      48.123  27.411  26.762  1.00  0.00     0.037 A 
BRANCH  57  71
ATOM     71  C   UNL A   1      46.801  33.166  28.607  1.00  0.00     0.058 A 
ATOM     72  C   UNL A   1      47.353  33.624  29.815  1.00  0.00     0.135 A 
ATOM     73  C   UNL A   1      46.703  34.080  27.546  1.00  0.00     0.135 A 
ATOM     74  F   UNL A   1      47.453  32.799  30.870  1.00  0.00    -0.206 F 
ATOM     75  C   UNL A   1      47.759  34.945  29.975  1.00  0.00     0.059 A 
ATOM     76  C   UNL A   1      47.131  35.397  27.673  1.00  0.00     0.059 A 
ATOM     77  F   UNL A   1      46.180  33.697  26.370  1.00  0.00    -0.206 F 
ATOM     78  C   UNL A   1      47.642  35.825  28.897  1.00  0.00     0.060 A 
BRANCH  78  79
ATOM     79  S   UNL A   1      48.163  37.538  29.123  1.00  0.00     0.124 S 
ATOM     80  O   UNL A   1      47.443  38.207  28.043  1.00  0.00    -0.237 OA
ATOM     81  O   UNL A   1      47.693  37.831  30.473  1.00  0.00    -0.237 OA
ATOM     82  O   UNL A   1      49.613  37.476  28.966  1.00  0.00    -0.744 OA
ENDBRANCH  78  79
ENDBRANCH  57  71
BRANCH  58  83
ATOM     83  C   UNL A   1      43.166  23.950  27.266  1.00  0.00     0.058 A 
ATOM     84  C   UNL A   1      42.660  23.602  26.005  1.00  0.00     0.135 A 
ATOM     85  C   UNL A   1      43.140  22.970  28.272  1.00  0.00     0.135 A 
ATOM     86  F   UNL A   1      42.650  24.507  25.014  1.00  0.00    -0.206 F 
ATOM     87  C   UNL A   1      42.140  22.337  25.752  1.00  0.00     0.059 A 
ATOM     88  C   UNL A   1      42.650  21.690  28.036  1.00  0.00     0.059 A 
ATOM     89  F   UNL A   1      43.620  23.250  29.495  1.00  0.00    -0.206 F 
ATOM     90  C   UNL A   1      42.145  21.385  26.774  1.00  0.00     0.060 A 
BRANCH  90  91
ATOM     91  S   UNL A   1      41.518  19.729  26.416  1.00  0.00     0.124 S 
ATOM     92  O   UNL A   1      41.809  19.030  27.662  1.00  0.00    -0.237 OA
ATOM     93  O   UNL A   1      40.108  19.990  26.143  1.00  0.00    -0.237 OA
ATOM     94  O   UNL A   1      42.308  19.315  25.260  1.00  0.00    -0.744 OA
ENDBRANCH  90  91
ENDBRANCH  58  83
BRANCH  70  95
ATOM     95  C   UNL A   1      49.436  26.873  26.258  1.00  0.00     0.058 A 
ATOM     96  C   UNL A   1      49.855  27.059  24.931  1.00  0.00     0.135 A 
ATOM     97  C   UNL A   1      50.316  26.218  27.136  1.00  0.00     0.135 A 
ATOM     98  F   UNL A   1      49.051  27.673  24.049  1.00  0.00    -0.206 F 
ATOM     99  C   UNL A   1      51.090  26.597  24.488  1.00  0.00     0.059 A 
ATOM    100  C   UNL A   1      51.569  25.775  26.722  1.00  0.00     0.059 A 
ATOM    101  F   UNL A   1      49.972  26.024  28.419  1.00  0.00    -0.206 F 
ATOM    102  C   UNL A   1      51.942  25.959  25.392  1.00  0.00     0.060 A 
BRANCH 102 103
ATOM    103  S   UNL A   1      53.558  25.400  24.813  1.00  0.00     0.124 S 
ATOM    104  O   UNL A   1      53.517  23.980  25.150  1.00  0.00    -0.237 OA
ATOM    105  O   UNL A   1      53.507  25.715  23.389  1.00  0.00    -0.237 OA
ATOM    106  O   UNL A   1      54.496  26.204  25.592  1.00  0.00    -0.744 OA
ENDBRANCH 102 103
ENDBRANCH  70  95
ENDBRANCH  44  45
ENDBRANCH  37  39
ENDBRANCH  36  37
ENDBRANCH  35  36
ENDBRANCH  34  35
ENDBRANCH  33  34
ENDBRANCH  32  33
ENDBRANCH   1  32
TORSDOF 25
ENDMDL
MODEL 2
REMARK VINA RESULT:     -10.2      1.677      2.638
REMARK SMILES CC1=C[C@H](C)[C@H](CN2C[C@]34C=C[C@H](O3)[C@H](C(=O)OCCOCCOCCOCCOC(=O)c3ccc(-c5c6nc(c(-c7c(F)cc(S(=O)(=O)[O-])cc7F)c7ccc([nH]7)c(-c7c(F)cc(S(=O)(=O)[O-])cc7F)c7nc(c(-c8c(F)cc(S(=O)(=O)[O-])cc8F)c8ccc5[nH]8)C=C7)C=C6)cc3)[C@@H]4C2=O)[C@H](C)C1
REMARK SMILES IDX 25 1 24 2 23 3 22 4 21 5 20 6 19 7 18 8 16 9 17 10 15 11
REMARK SMILES IDX 8 12 9 13 100 14 10 15 99 16 101 17 11 18 14 19 12 20 13 21
REMARK SMILES IDX 7 22 6 23 1 24 2 25 3 26 104 27 4 28 102 29 5 30 103 31
REMARK SMILES IDX 26 32 27 33 28 34 29 35 30 36 31 37 32 38 33 39 34 40 98 41
REMARK SMILES IDX 35 42 97 43 36 44 37 45 38 46 91 47 39 48 96 49 90 50 92 51
REMARK SMILES IDX 40 52 95 53 89 54 88 55 41 57 75 58 54 59 74 60 55 61 58 62
REMARK SMILES IDX 73 63 93 64 56 65 57 66 72 68 94 69 59 70 42 71 43 72 52 73
REMARK SMILES IDX 44 74 45 75 51 76 53 77 46 78 47 79 48 80 49 81 50 82 76 83
REMARK SMILES IDX 77 84 86 85 78 86 79 87 85 88 87 89 80 90 81 91 82 92 83 93
REMARK SMILES IDX 84 94 60 95 61 96 70 97 62 98 63 99 69 100 71 101 64 102
REMARK SMILES IDX 65 103 66 104 67 105 68 106
REMARK H PARENT 92 56 58 67
REMARK Flexibility Score: inf
ROOT
ATOM      1  C   UNL A   1      33.238  36.589  29.578  1.00  0.00     0.188 C 
ENDROOT
BRANCH   1   2
ATOM      2  O   UNL A   1      32.715  35.430  28.931  1.00  0.00    -0.377 OA
BRANCH   2   3
ATOM      3  C   UNL A   1      33.446  34.240  29.133  1.00  0.00     0.188 C 
BRANCH   3   4
ATOM      4  C   UNL A   1      34.423  33.860  28.013  1.00  0.00     0.188 C 
BRANCH   4   5
ATOM      5  O   UNL A   1      34.967  32.550  27.964  1.00  0.00    -0.376 OA
BRANCH   5   6
ATOM      6  C   UNL A   1      34.088  31.431  28.093  1.00  0.00     0.202 C 
BRANCH   6   7
ATOM      7  C   UNL A   1      33.874  30.488  26.890  1.00  0.00     0.261 C 
BRANCH   7   8
ATOM      8  O   UNL A   1      32.586  29.838  26.897  1.00  0.00    -0.463 OA
BRANCH   8   9
ATOM      9  C   UNL A   1      31.693  30.177  25.915  1.00  0.00     0.312 C 
ATOM     10  O   UNL A   1      31.122  31.256  25.834  1.00  0.00    -0.252 OA
BRANCH   9  11
ATOM     11  C   UNL A   1      31.830  29.212  24.766  1.00  0.00     0.148 C 
ATOM     12  N   UNL A   1      31.773  25.507  25.224  1.00  0.00    -0.339 N 
ATOM     13  C   UNL A   1      31.579  25.715  23.822  1.00  0.00     0.160 C 
ATOM     14  C   UNL A   1      31.401  26.750  25.886  1.00  0.00     0.230 C 
ATOM     15  C   UNL A   1      32.005  27.153  23.721  1.00  0.00     0.117 C 
ATOM     16  C   UNL A   1      31.136  27.835  24.777  1.00  0.00     0.133 C 
ATOM     17  O   UNL A   1      31.379  26.942  27.090  1.00  0.00    -0.274 OA
ATOM     18  C   UNL A   1      32.381  27.791  22.423  1.00  0.00     0.009 C 
ATOM     19  O   UNL A   1      33.262  27.460  24.425  1.00  0.00    -0.360 OA
ATOM     20  C   UNL A   1      33.236  28.776  22.745  1.00  0.00     0.004 C 
ATOM     21  C   UNL A   1      33.244  28.880  24.250  1.00  0.00     0.157 C 
BRANCH  12  22
ATOM     22  C   UNL A   1      32.877  24.666  25.768  1.00  0.00     0.124 C 
BRANCH  22  23
ATOM     23  C   UNL A   1      32.763  23.066  25.908  1.00  0.00     0.018 C 
ATOM     24  C   UNL A   1      33.699  18.916  24.458  1.00  0.00     0.039 C 
ATOM     25  C   UNL A   1      33.340  20.171  25.210  1.00  0.00    -0.077 C 
ATOM     26  C   UNL A   1      32.173  20.767  24.932  1.00  0.00    -0.025 C 
ATOM     27  C   UNL A   1      34.455  20.970  25.837  1.00  0.00     0.034 C 
ATOM     28  C   UNL A   1      32.243  22.254  24.693  1.00  0.00     0.014 C 
ATOM     29  C   UNL A   1      34.081  22.365  26.461  1.00  0.00    -0.005 C 
ATOM     30  C   UNL A   1      33.085  22.423  23.418  1.00  0.00     0.012 C 
ATOM     31  C   UNL A   1      35.341  23.239  26.400  1.00  0.00     0.008 C 
ENDBRANCH  22  23
ENDBRANCH  12  22
ENDBRANCH   9  11
ENDBRANCH   8   9
ENDBRANCH   7   8
ENDBRANCH   6   7
ENDBRANCH   5   6
ENDBRANCH   4   5
ENDBRANCH   3   4
ENDBRANCH   2   3
ENDBRANCH   1   2
BRANCH   1  32
ATOM     32  C   UNL A   1      32.828  36.790  31.049  1.00  0.00     0.188 C 
BRANCH  32  33
ATOM     33  O   UNL A   1      33.934  36.733  31.950  1.00  0.00    -0.376 OA
BRANCH  33  34
ATOM     34  C   UNL A   1      34.206  35.486  32.579  1.00  0.00     0.202 C 
BRANCH  34  35
ATOM     35  C   UNL A   1      35.593  34.876  32.320  1.00  0.00     0.261 C 
BRANCH  35  36
ATOM     36  O   UNL A   1      35.818  33.560  32.851  1.00  0.00    -0.460 OA
BRANCH  36  37
ATOM     37  C   UNL A   1      35.393  32.502  32.117  1.00  0.00     0.338 C 
ATOM     38  O   UNL A   1      34.262  32.239  31.799  1.00  0.00    -0.246 OA
BRANCH  37  39
ATOM     39  C   UNL A   1      36.601  31.821  31.597  1.00  0.00     0.060 A 
ATOM     40  C   UNL A   1      37.338  31.003  32.463  1.00  0.00     0.016 A 
ATOM     41  C   UNL A   1      37.004  32.000  30.273  1.00  0.00     0.016 A 
ATOM     42  C   UNL A   1      38.507  30.390  32.014  1.00  0.00     0.010 A 
ATOM     43  C   UNL A   1      38.185  31.401  29.831  1.00  0.00     0.010 A 
ATOM     44  C   UNL A   1      38.959  30.622  30.708  1.00  0.00    -0.014 A 
BRANCH  44  45
ATOM     45  C   UNL A   1      40.333  30.221  30.320  1.00  0.00     0.031 A 
ATOM     46  C   UNL A   1      41.425  31.252  30.406  1.00  0.00     0.074 A 
ATOM     47  C   UNL A   1      40.606  28.975  29.897  1.00  0.00     0.049 A 
ATOM     48  N   UNL A   1      42.683  31.162  30.061  1.00  0.00    -0.248 NA
ATOM     49  C   UNL A   1      41.042  32.566  30.949  1.00  0.00     0.031 C 
ATOM     50  C   UNL A   1      39.638  27.885  29.796  1.00  0.00     0.029 A 
ATOM     51  N   UNL A   1      41.783  28.425  29.452  1.00  0.00    -0.354 N 
ATOM     52  C   UNL A   1      43.238  32.407  30.333  1.00  0.00     0.074 A 
ATOM     53  C   UNL A   1      42.175  33.244  30.845  1.00  0.00     0.031 C 
ATOM     54  C   UNL A   1      40.256  26.801  29.295  1.00  0.00     0.029 A 
ATOM     55  C   UNL A   1      41.653  27.130  29.013  1.00  0.00     0.049 A 
ATOM     56  H   UNL A   1      42.638  28.913  29.449  1.00  0.00     0.167 HD
ATOM     57  C   UNL A   1      44.519  32.814  30.175  1.00  0.00     0.037 A 
ATOM     58  C   UNL A   1      42.553  26.315  28.424  1.00  0.00     0.037 A 
ATOM     59  C   UNL A   1      45.571  31.976  29.661  1.00  0.00     0.049 A 
ATOM     60  C   UNL A   1      43.963  26.805  28.209  1.00  0.00     0.074 A 
ATOM     61  C   UNL A   1      46.909  32.284  29.489  1.00  0.00     0.029 A 
ATOM     62  N   UNL A   1      45.401  30.671  29.223  1.00  0.00    -0.354 N 
ATOM     63  N   UNL A   1      44.487  27.971  28.506  1.00  0.00    -0.248 NA
ATOM     64  C   UNL A   1      44.906  25.866  27.583  1.00  0.00     0.031 C 
ATOM     65  C   UNL A   1      47.536  31.184  28.895  1.00  0.00     0.029 A 
ATOM     66  C   UNL A   1      46.603  30.169  28.753  1.00  0.00     0.049 A 
ATOM     67  H   UNL A   1      44.550  30.175  29.242  1.00  0.00     0.167 HD
ATOM     68  C   UNL A   1      45.825  27.897  28.128  1.00  0.00     0.074 A 
ATOM     69  C   UNL A   1      46.032  26.568  27.590  1.00  0.00     0.031 C 
ATOM     70  C   UNL A   1      46.796  28.840  28.224  1.00  0.00     0.037 A 
BRANCH  57  71
ATOM     71  C   UNL A   1      44.842  34.239  30.529  1.00  0.00     0.058 A 
ATOM     72  C   UNL A   1      44.746  35.279  29.590  1.00  0.00     0.135 A 
ATOM     73  C   UNL A   1      45.243  34.572  31.833  1.00  0.00     0.135 A 
ATOM     74  F   UNL A   1      44.387  35.016  28.323  1.00  0.00    -0.206 F 
ATOM     75  C   UNL A   1      45.068  36.591  29.921  1.00  0.00     0.059 A 
ATOM     76  C   UNL A   1      45.540  35.881  32.195  1.00  0.00     0.059 A 
ATOM     77  F   UNL A   1      45.356  33.617  32.770  1.00  0.00    -0.206 F 
ATOM     78  C   UNL A   1      45.467  36.882  31.228  1.00  0.00     0.060 A 
BRANCH  78  79
ATOM     79  S   UNL A   1      45.891  38.586  31.640  1.00  0.00     0.124 S 
ATOM     80  O   UNL A   1      46.632  38.998  30.451  1.00  0.00    -0.237 OA
ATOM     81  O   UNL A   1      44.580  39.202  31.814  1.00  0.00    -0.237 OA
ATOM     82  O   UNL A   1      46.686  38.454  32.858  1.00  0.00    -0.744 OA
ENDBRANCH  78  79
ENDBRANCH  57  71
BRANCH  58  83
ATOM     83  C   UNL A   1      42.141  24.956  27.981  1.00  0.00     0.058 A 
ATOM     84  C   UNL A   1      42.390  23.825  28.771  1.00  0.00     0.135 A 
ATOM     85  C   UNL A   1      41.478  24.765  26.758  1.00  0.00     0.135 A 
ATOM     86  F   UNL A   1      43.031  23.954  29.943  1.00  0.00    -0.206 F 
ATOM     87  C   UNL A   1      42.006  22.551  28.362  1.00  0.00     0.059 A 
ATOM     88  C   UNL A   1      41.062  23.506  26.339  1.00  0.00     0.059 A 
ATOM     89  F   UNL A   1      41.209  25.817  25.968  1.00  0.00    -0.206 F 
ATOM     90  C   UNL A   1      41.337  22.403  27.146  1.00  0.00     0.060 A 
BRANCH  90  91
ATOM     91  S   UNL A   1      40.795  20.753  26.652  1.00  0.00     0.124 S 
ATOM     92  O   UNL A   1      40.869  20.029  27.915  1.00  0.00    -0.237 OA
ATOM     93  O   UNL A   1      39.453  21.014  26.141  1.00  0.00    -0.237 OA
ATOM     94  O   UNL A   1      41.778  20.365  25.644  1.00  0.00    -0.744 OA
ENDBRANCH  90  91
ENDBRANCH  58  83
BRANCH  70  95
ATOM     95  C   UNL A   1      48.183  28.467  27.775  1.00  0.00     0.058 A 
ATOM     96  C   UNL A   1      48.564  28.513  26.425  1.00  0.00     0.135 A 
ATOM     97  C   UNL A   1      49.164  28.121  28.720  1.00  0.00     0.135 A 
ATOM     98  F   UNL A   1      47.666  28.834  25.480  1.00  0.00    -0.206 F 
ATOM     99  C   UNL A   1      49.862  28.210  26.025  1.00  0.00     0.059 A 
ATOM    100  C   UNL A   1      50.475  27.843  28.346  1.00  0.00     0.059 A 
ATOM    101  F   UNL A   1      48.857  28.072  30.026  1.00  0.00    -0.206 F 
ATOM    102  C   UNL A   1      50.812  27.879  26.994  1.00  0.00     0.060 A 
BRANCH 102 103
ATOM    103  S   UNL A   1      52.502  27.526  26.466  1.00  0.00     0.124 S 
ATOM    104  O   UNL A   1      52.878  28.781  25.823  1.00  0.00    -0.237 OA
ATOM    105  O   UNL A   1      53.171  27.235  27.731  1.00  0.00    -0.237 OA
ATOM    106  O   UNL A   1      52.347  26.383  25.570  1.00  0.00    -0.744 OA
ENDBRANCH 102 103
ENDBRANCH  70  95
ENDBRANCH  44  45
ENDBRANCH  37  39
ENDBRANCH  36  37
ENDBRANCH  35  36
ENDBRANCH  34  35
ENDBRANCH  33  34
ENDBRANCH  32  33
ENDBRANCH   1  32
TORSDOF 25
ENDMDL
MODEL 3
REMARK VINA RESULT:      -9.5      4.053      7.947
REMARK SMILES CC1=C[C@H](C)[C@H](CN2C[C@]34C=C[C@H](O3)[C@H](C(=O)OCCOCCOCCOCCOC(=O)c3ccc(-c5c6nc(c(-c7c(F)cc(S(=O)(=O)[O-])cc7F)c7ccc([nH]7)c(-c7c(F)cc(S(=O)(=O)[O-])cc7F)c7nc(c(-c8c(F)cc(S(=O)(=O)[O-])cc8F)c8ccc5[nH]8)C=C7)C=C6)cc3)[C@@H]4C2=O)[C@H](C)C1
REMARK SMILES IDX 25 1 24 2 23 3 22 4 21 5 20 6 19 7 18 8 16 9 17 10 15 11
REMARK SMILES IDX 8 12 9 13 100 14 10 15 99 16 101 17 11 18 14 19 12 20 13 21
REMARK SMILES IDX 7 22 6 23 1 24 2 25 3 26 104 27 4 28 102 29 5 30 103 31
REMARK SMILES IDX 26 32 27 33 28 34 29 35 30 36 31 37 32 38 33 39 34 40 98 41
REMARK SMILES IDX 35 42 97 43 36 44 37 45 38 46 91 47 39 48 96 49 90 50 92 51
REMARK SMILES IDX 40 52 95 53 89 54 88 55 41 57 75 58 54 59 74 60 55 61 58 62
REMARK SMILES IDX 73 63 93 64 56 65 57 66 72 68 94 69 59 70 42 71 43 72 52 73
REMARK SMILES IDX 44 74 45 75 51 76 53 77 46 78 47 79 48 80 49 81 50 82 76 83
REMARK SMILES IDX 77 84 86 85 78 86 79 87 85 88 87 89 80 90 81 91 82 92 83 93
REMARK SMILES IDX 84 94 60 95 61 96 70 97 62 98 63 99 69 100 71 101 64 102
REMARK SMILES IDX 65 103 66 104 67 105 68 106
REMARK H PARENT 92 56 58 67
REMARK Flexibility Score: inf
ROOT
ATOM      1  C   UNL A   1      34.959  34.364  28.339  1.00  0.00     0.188 C 
ENDROOT
BRANCH   1   2
ATOM      2  O   UNL A   1      36.180  34.463  29.071  1.00  0.00    -0.377 OA
BRANCH   2   3
ATOM      3  C   UNL A   1      36.156  33.909  30.368  1.00  0.00     0.188 C 
BRANCH   3   4
ATOM      4  C   UNL A   1      37.470  33.995  31.155  1.00  0.00     0.188 C 
BRANCH   4   5
ATOM      5  O   UNL A   1      37.538  33.485  32.478  1.00  0.00    -0.376 OA
BRANCH   5   6
ATOM      6  C   UNL A   1      37.165  32.126  32.715  1.00  0.00     0.202 C 
BRANCH   6   7
ATOM      7  C   UNL A   1      37.398  31.505  34.109  1.00  0.00     0.261 C 
BRANCH   7   8
ATOM      8  O   UNL A   1      38.785  31.495  34.504  1.00  0.00    -0.463 OA
BRANCH   8   9
ATOM      9  C   UNL A   1      39.563  30.448  34.084  1.00  0.00     0.312 C 
ATOM     10  O   UNL A   1      39.343  29.773  33.088  1.00  0.00    -0.252 OA
BRANCH   9  11
ATOM     11  C   UNL A   1      40.901  30.517  34.774  1.00  0.00     0.148 C 
ATOM     12  N   UNL A   1      43.008  27.499  35.400  1.00  0.00    -0.339 N 
ATOM     13  C   UNL A   1      43.881  28.615  35.601  1.00  0.00     0.160 C 
ATOM     14  C   UNL A   1      41.903  27.976  34.579  1.00  0.00     0.230 C 
ATOM     15  C   UNL A   1      42.861  29.714  35.710  1.00  0.00     0.117 C 
ATOM     16  C   UNL A   1      42.041  29.537  34.431  1.00  0.00     0.133 C 
ATOM     17  O   UNL A   1      40.985  27.298  34.149  1.00  0.00    -0.274 OA
ATOM     18  C   UNL A   1      43.173  31.045  36.312  1.00  0.00     0.009 C 
ATOM     19  O   UNL A   1      41.724  29.397  36.592  1.00  0.00    -0.360 OA
ATOM     20  C   UNL A   1      42.004  31.503  36.789  1.00  0.00     0.004 C 
ATOM     21  C   UNL A   1      40.931  30.556  36.315  1.00  0.00     0.157 C 
BRANCH  12  22
ATOM     22  C   UNL A   1      42.776  26.459  36.442  1.00  0.00     0.124 C 
BRANCH  22  23
ATOM     23  C   UNL A   1      43.137  24.906  36.217  1.00  0.00     0.018 C 
ATOM     24  C   UNL A   1      45.678  21.687  34.379  1.00  0.00     0.039 C 
ATOM     25  C   UNL A   1      44.757  22.553  35.198  1.00  0.00    -0.077 C 
ATOM     26  C   UNL A   1      43.580  22.910  34.667  1.00  0.00    -0.025 C 
ATOM     27  C   UNL A   1      45.356  23.380  36.308  1.00  0.00     0.034 C 
ATOM     28  C   UNL A   1      43.242  24.376  34.763  1.00  0.00     0.014 C 
ATOM     29  C   UNL A   1      44.412  24.410  37.031  1.00  0.00    -0.005 C 
ATOM     30  C   UNL A   1      44.294  25.096  33.906  1.00  0.00     0.012 C 
ATOM     31  C   UNL A   1      45.302  25.536  37.572  1.00  0.00     0.008 C 
ENDBRANCH  22  23
ENDBRANCH  12  22
ENDBRANCH   9  11
ENDBRANCH   8   9
ENDBRANCH   7   8
ENDBRANCH   6   7
ENDBRANCH   5   6
ENDBRANCH   4   5
ENDBRANCH   3   4
ENDBRANCH   2   3
ENDBRANCH   1   2
BRANCH   1  32
ATOM     32  C   UNL A   1      33.690  34.091  29.168  1.00  0.00     0.188 C 
BRANCH  32  33
ATOM     33  O   UNL A   1      32.507  34.026  28.372  1.00  0.00    -0.376 OA
BRANCH  33  34
ATOM     34  C   UNL A   1      32.529  33.175  27.232  1.00  0.00     0.202 C 
BRANCH  34  35
ATOM     35  C   UNL A   1      32.687  31.670  27.503  1.00  0.00     0.261 C 
BRANCH  35  36
ATOM     36  O   UNL A   1      34.000  31.122  27.301  1.00  0.00    -0.460 OA
BRANCH  36  37
ATOM     37  C   UNL A   1      34.233  29.862  27.744  1.00  0.00     0.338 C 
ATOM     38  O   UNL A   1      33.500  28.909  27.661  1.00  0.00    -0.246 OA
BRANCH  37  39
ATOM     39  C   UNL A   1      35.647  29.808  28.178  1.00  0.00     0.060 A 
ATOM     40  C   UNL A   1      36.651  30.082  27.240  1.00  0.00     0.016 A 
ATOM     41  C   UNL A   1      35.975  29.477  29.494  1.00  0.00     0.016 A 
ATOM     42  C   UNL A   1      37.992  29.989  27.611  1.00  0.00     0.010 A 
ATOM     43  C   UNL A   1      37.318  29.366  29.858  1.00  0.00     0.010 A 
ATOM     44  C   UNL A   1      38.331  29.587  28.909  1.00  0.00    -0.014 A 
BRANCH  44  45
ATOM     45  C   UNL A   1      39.729  29.204  29.222  1.00  0.00     0.031 A 
ATOM     46  C   UNL A   1      40.632  30.243  29.828  1.00  0.00     0.074 A 
ATOM     47  C   UNL A   1      40.189  27.966  28.972  1.00  0.00     0.049 A 
ATOM     48  N   UNL A   1      41.903  30.169  30.126  1.00  0.00    -0.248 NA
ATOM     49  C   UNL A   1      40.018  31.546  30.131  1.00  0.00     0.031 C 
ATOM     50  C   UNL A   1      39.402  26.869  28.412  1.00  0.00     0.029 A 
ATOM     51  N   UNL A   1      41.442  27.432  29.141  1.00  0.00    -0.354 N 
ATOM     52  C   UNL A   1      42.243  31.415  30.640  1.00  0.00     0.074 A 
ATOM     53  C   UNL A   1      41.053  32.235  30.587  1.00  0.00     0.031 C 
ATOM     54  C   UNL A   1      40.200  25.797  28.261  1.00  0.00     0.029 A 
ATOM     55  C   UNL A   1      41.557  26.142  28.684  1.00  0.00     0.049 A 
ATOM     56  H   UNL A   1      42.188  27.927  29.551  1.00  0.00     0.167 HD
ATOM     57  C   UNL A   1      43.438  31.834  31.117  1.00  0.00     0.037 A 
ATOM     58  C   UNL A   1      42.640  25.343  28.591  1.00  0.00     0.037 A 
ATOM     59  C   UNL A   1      44.619  31.014  31.163  1.00  0.00     0.049 A 
ATOM     60  C   UNL A   1      43.974  25.847  29.080  1.00  0.00     0.074 A 
ATOM     61  C   UNL A   1      45.872  31.335  31.654  1.00  0.00     0.029 A 
ATOM     62  N   UNL A   1      44.698  29.713  30.687  1.00  0.00    -0.354 N 
ATOM     63  N   UNL A   1      44.276  27.014  29.600  1.00  0.00    -0.248 NA
ATOM     64  C   UNL A   1      45.115  24.926  28.975  1.00  0.00     0.031 C 
ATOM     65  C   UNL A   1      46.722  30.249  31.424  1.00  0.00     0.029 A 
ATOM     66  C   UNL A   1      45.985  29.227  30.845  1.00  0.00     0.049 A 
ATOM     67  H   UNL A   1      43.949  29.209  30.293  1.00  0.00     0.167 HD
ATOM     68  C   UNL A   1      45.633  26.957  29.909  1.00  0.00     0.074 A 
ATOM     69  C   UNL A   1      46.090  25.637  29.525  1.00  0.00     0.031 C 
ATOM     70  C   UNL A   1      46.426  27.907  30.464  1.00  0.00     0.037 A 
BRANCH  57  71
ATOM     71  C   UNL A   1      43.532  33.258  31.593  1.00  0.00     0.058 A 
ATOM     72  C   UNL A   1      43.807  34.319  30.715  1.00  0.00     0.135 A 
ATOM     73  C   UNL A   1      43.332  33.567  32.948  1.00  0.00     0.135 A 
ATOM     74  F   UNL A   1      44.027  34.080  29.412  1.00  0.00    -0.206 F 
ATOM     75  C   UNL A   1      43.914  35.630  31.169  1.00  0.00     0.059 A 
ATOM     76  C   UNL A   1      43.404  34.873  33.419  1.00  0.00     0.059 A 
ATOM     77  F   UNL A   1      43.071  32.591  33.832  1.00  0.00    -0.206 F 
ATOM     78  C   UNL A   1      43.712  35.896  32.525  1.00  0.00     0.060 A 
BRANCH  78  79
ATOM     79  S   UNL A   1      43.865  37.600  33.100  1.00  0.00     0.124 S 
ATOM     80  O   UNL A   1      42.667  37.738  33.924  1.00  0.00    -0.237 OA
ATOM     81  O   UNL A   1      45.131  37.573  33.825  1.00  0.00    -0.237 OA
ATOM     82  O   UNL A   1      43.868  38.377  31.865  1.00  0.00    -0.744 OA
ENDBRANCH  78  79
ENDBRANCH  57  71
BRANCH  58  83
ATOM     83  C   UNL A   1      42.509  23.986  27.995  1.00  0.00     0.058 A 
ATOM     84  C   UNL A   1      42.385  23.808  26.610  1.00  0.00     0.135 A 
ATOM     85  C   UNL A   1      42.514  22.838  28.803  1.00  0.00     0.135 A 
ATOM     86  F   UNL A   1      42.361  24.875  25.795  1.00  0.00    -0.206 F 
ATOM     87  C   UNL A   1      42.262  22.541  26.046  1.00  0.00     0.059 A 
ATOM     88  C   UNL A   1      42.420  21.560  28.262  1.00  0.00     0.059 A 
ATOM     89  F   UNL A   1      42.639  22.954  30.135  1.00  0.00    -0.206 F 
ATOM     90  C   UNL A   1      42.286  21.423  26.881  1.00  0.00     0.060 A 
BRANCH  90  91
ATOM     91  S   UNL A   1      42.181  19.782  26.133  1.00  0.00     0.124 S 
ATOM     92  O   UNL A   1      43.100  19.913  25.009  1.00  0.00    -0.237 OA
ATOM     93  O   UNL A   1      42.625  18.921  27.226  1.00  0.00    -0.237 OA
ATOM     94  O   UNL A   1      40.769  19.663  25.784  1.00  0.00    -0.744 OA
ENDBRANCH  90  91
ENDBRANCH  58  83
BRANCH  70  95
ATOM     95  C   UNL A   1      47.864  27.552  30.731  1.00  0.00     0.058 A 
ATOM     96  C   UNL A   1      48.866  27.739  29.766  1.00  0.00     0.135 A 
ATOM     97  C   UNL A   1      48.253  27.079  31.995  1.00  0.00     0.135 A 
ATOM     98  F   UNL A   1      48.549  28.185  28.540  1.00  0.00    -0.206 F 
ATOM     99  C   UNL A   1      50.200  27.450  30.038  1.00  0.00     0.059 A 
ATOM    100  C   UNL A   1      49.585  26.812  32.298  1.00  0.00     0.059 A 
ATOM    101  F   UNL A   1      47.338  26.893  32.958  1.00  0.00    -0.206 F 
ATOM    102  C   UNL A   1      50.550  26.990  31.309  1.00  0.00     0.060 A 
BRANCH 102 103
ATOM    103  S   UNL A   1      52.289  26.656  31.661  1.00  0.00     0.124 S 
ATOM    104  O   UNL A   1      52.957  27.559  30.729  1.00  0.00    -0.237 OA
ATOM    105  O   UNL A   1      52.396  27.010  33.074  1.00  0.00    -0.237 OA
ATOM    106  O   UNL A   1      52.429  25.233  31.367  1.00  0.00    -0.744 OA
ENDBRANCH 102 103
ENDBRANCH  70  95
ENDBRANCH  44  45
ENDBRANCH  37  39
ENDBRANCH  36  37
ENDBRANCH  35  36
ENDBRANCH  34  35
ENDBRANCH  33  34
ENDBRANCH  32  33
ENDBRANCH   1  32
TORSDOF 25
ENDMDL
