MODEL 1
REMARK VINA RESULT:      -9.9      0.000      0.000
REMARK SMILES CCc1ccc(S(=O)(=O)N2CCC3(CC2)NC(=O)C[C@H]3C(=O)OCCOCCOCCOCCOC(=O)c2ccc(-c3c4nc(c(-c5c(F)cc(S(=O)(=O)[O-])cc5F)c5ccc([nH]5)c(-c5c(F)cc(S(=O)(=O)[O-])cc5F)c5nc(c(-c6c(F)cc(S(=O)(=O)[O-])cc6F)c6ccc3[nH]6)C=C5)C=C4)cc2)s1
REMARK SMILES IDX 29 1 28 2 27 3 26 4 25 5 24 6 23 7 21 8 22 9 20 10 10 11
REMARK SMILES IDX 11 12 15 13 12 14 14 15 13 16 16 17 17 18 19 20 18 21 7 22
REMARK SMILES IDX 8 23 9 24 6 25 3 26 4 27 104 28 5 29 2 30 1 31 30 32 31 33
REMARK SMILES IDX 32 34 33 35 34 36 35 37 36 38 37 39 38 40 39 41 103 42 40 43
REMARK SMILES IDX 102 44 41 45 42 46 43 47 96 48 44 49 101 50 95 51 97 52
REMARK SMILES IDX 45 53 100 54 94 55 93 56 46 58 80 59 59 60 79 61 60 62 63 63
REMARK SMILES IDX 78 64 98 65 61 66 62 67 77 69 99 70 64 71 47 72 48 73 57 74
REMARK SMILES IDX 49 75 50 76 56 77 58 78 51 79 52 80 53 81 54 82 55 83 81 84
REMARK SMILES IDX 82 85 91 86 83 87 84 88 90 89 92 90 85 91 86 92 87 93 88 94
REMARK SMILES IDX 89 95 65 96 66 97 75 98 67 99 68 100 74 101 76 102 69 103
REMARK SMILES IDX 70 104 71 105 72 106 73 107
REMARK H PARENT 16 19 97 57 63 68
REMARK Flexibility Score: inf
ROOT
ATOM      1  O   UNL A   1      35.247  29.788  27.897  1.00  0.00    -0.377 OA
ENDROOT
BRANCH   1   2
ATOM      2  C   UNL A   1      34.382  28.816  27.344  1.00  0.00     0.188 C 
BRANCH   2   3
ATOM      3  C   UNL A   1      32.895  29.174  27.408  1.00  0.00     0.188 C 
BRANCH   3   4
ATOM      4  O   UNL A   1      31.942  28.163  27.154  1.00  0.00    -0.376 OA
BRANCH   4   5
ATOM      5  C   UNL A   1      31.196  28.212  25.939  1.00  0.00     0.202 C 
BRANCH   5   6
ATOM      6  C   UNL A   1      31.695  29.062  24.749  1.00  0.00     0.261 C 
BRANCH   6   7
ATOM      7  O   UNL A   1      30.927  29.012  23.514  1.00  0.00    -0.463 OA
BRANCH   7   8
ATOM      8  C   UNL A   1      31.197  27.965  22.711  1.00  0.00     0.311 C 
ATOM      9  O   UNL A   1      30.587  27.739  21.663  1.00  0.00    -0.252 OA
BRANCH   8  10
ATOM     10  C   UNL A   1      32.273  26.981  23.146  1.00  0.00     0.134 C 
ATOM     11  N   UNL A   1      32.129  24.205  26.256  1.00  0.00    -0.197 NA
ATOM     12  C   UNL A   1      33.329  24.952  25.912  1.00  0.00     0.105 C 
ATOM     13  C   UNL A   1      30.897  24.825  25.792  1.00  0.00     0.105 C 
ATOM     14  C   UNL A   1      33.465  25.145  24.404  1.00  0.00     0.046 C 
ATOM     15  C   UNL A   1      30.879  24.974  24.281  1.00  0.00     0.046 C 
ATOM     16  C   UNL A   1      32.149  25.495  23.593  1.00  0.00     0.056 C 
ATOM     17  N   UNL A   1      32.211  24.833  22.289  1.00  0.00    -0.350 N 
ATOM     18  C   UNL A   1      32.828  25.564  21.312  1.00  0.00     0.221 C 
ATOM     19  H   UNL A   1      31.840  23.936  22.129  1.00  0.00     0.164 HD
ATOM     20  C   UNL A   1      33.207  26.886  21.903  1.00  0.00     0.117 C 
ATOM     21  O   UNL A   1      33.058  25.165  20.184  1.00  0.00    -0.275 OA
BRANCH  11  22
ATOM     22  S   UNL A   1      32.146  22.593  26.773  1.00  0.00     0.252 S 
ATOM     23  O   UNL A   1      30.939  21.967  26.273  1.00  0.00    -0.206 OA
ATOM     24  O   UNL A   1      32.501  22.569  28.174  1.00  0.00    -0.206 OA
BRANCH  22  25
ATOM     25  C   UNL A   1      33.498  21.790  25.935  1.00  0.00     0.135 A 
ATOM     26  C   UNL A   1      35.761  21.098  25.211  1.00  0.00     0.006 A 
ATOM     27  C   UNL A   1      34.775  20.366  24.593  1.00  0.00     0.017 A 
ATOM     28  S   UNL A   1      35.106  22.226  26.335  1.00  0.00    -0.127 S 
ATOM     29  C   UNL A   1      33.498  20.844  24.937  1.00  0.00     0.034 A 
BRANCH  26  30
ATOM     30  C   UNL A   1      37.223  21.000  24.907  1.00  0.00     0.043 C 
ATOM     31  C   UNL A   1      38.078  21.961  25.704  1.00  0.00     0.010 C 
ENDBRANCH  26  30
ENDBRANCH  22  25
ENDBRANCH  11  22
ENDBRANCH   8  10
ENDBRANCH   7   8
ENDBRANCH   6   7
ENDBRANCH   5   6
ENDBRANCH   4   5
ENDBRANCH   3   4
ENDBRANCH   2   3
ENDBRANCH   1   2
BRANCH   1  32
ATOM     32  C   UNL A   1      35.137  31.164  27.541  1.00  0.00     0.188 C 
BRANCH  32  33
ATOM     33  C   UNL A   1      35.208  32.209  28.657  1.00  0.00     0.188 C 
BRANCH  33  34
ATOM     34  O   UNL A   1      35.811  33.475  28.361  1.00  0.00    -0.376 OA
BRANCH  34  35
ATOM     35  C   UNL A   1      36.503  34.168  29.395  1.00  0.00     0.202 C 
BRANCH  35  36
ATOM     36  C   UNL A   1      36.340  33.611  30.807  1.00  0.00     0.261 C 
BRANCH  36  37
ATOM     37  O   UNL A   1      37.524  32.915  31.222  1.00  0.00    -0.460 OA
BRANCH  37  38
ATOM     38  C   UNL A   1      37.314  31.628  31.575  1.00  0.00     0.338 C 
ATOM     39  O   UNL A   1      36.374  31.180  32.208  1.00  0.00    -0.246 OA
BRANCH  38  40
ATOM     40  C   UNL A   1      38.318  30.773  30.926  1.00  0.00     0.060 A 
ATOM     41  C   UNL A   1      39.251  30.142  31.756  1.00  0.00     0.016 A 
ATOM     42  C   UNL A   1      38.411  30.678  29.535  1.00  0.00     0.016 A 
ATOM     43  C   UNL A   1      40.340  29.490  31.199  1.00  0.00     0.010 A 
ATOM     44  C   UNL A   1      39.514  30.033  28.974  1.00  0.00     0.010 A 
ATOM     45  C   UNL A   1      40.510  29.502  29.810  1.00  0.00    -0.014 A 
BRANCH  45  46
ATOM     46  C   UNL A   1      41.858  29.203  29.285  1.00  0.00     0.031 A 
ATOM     47  C   UNL A   1      42.131  27.806  28.798  1.00  0.00     0.074 A 
ATOM     48  C   UNL A   1      42.768  30.180  29.150  1.00  0.00     0.049 A 
ATOM     49  N   UNL A   1      43.216  27.310  28.267  1.00  0.00    -0.248 NA
ATOM     50  C   UNL A   1      41.028  26.838  28.929  1.00  0.00     0.031 C 
ATOM     51  C   UNL A   1      42.571  31.573  29.544  1.00  0.00     0.029 A 
ATOM     52  N   UNL A   1      44.038  30.145  28.641  1.00  0.00    -0.354 N 
ATOM     53  C   UNL A   1      42.927  25.975  28.001  1.00  0.00     0.074 A 
ATOM     54  C   UNL A   1      41.584  25.727  28.474  1.00  0.00     0.031 C 
ATOM     55  C   UNL A   1      43.693  32.263  29.274  1.00  0.00     0.029 A 
ATOM     56  C   UNL A   1      44.689  31.350  28.717  1.00  0.00     0.049 A 
ATOM     57  H   UNL A   1      44.444  29.334  28.258  1.00  0.00     0.167 HD
ATOM     58  C   UNL A   1      43.708  25.046  27.400  1.00  0.00     0.037 A 
ATOM     59  C   UNL A   1      45.957  31.667  28.393  1.00  0.00     0.037 A 
ATOM     60  C   UNL A   1      45.047  25.315  26.949  1.00  0.00     0.049 A 
ATOM     61  C   UNL A   1      46.834  30.606  27.786  1.00  0.00     0.074 A 
ATOM     62  C   UNL A   1      45.944  24.455  26.341  1.00  0.00     0.029 A 
ATOM     63  N   UNL A   1      45.688  26.542  27.068  1.00  0.00    -0.354 N 
ATOM     64  N   UNL A   1      46.555  29.347  27.537  1.00  0.00    -0.248 NA
ATOM     65  C   UNL A   1      48.192  31.009  27.401  1.00  0.00     0.031 C 
ATOM     66  C   UNL A   1      47.143  25.147  26.143  1.00  0.00     0.029 A 
ATOM     67  C   UNL A   1      46.975  26.458  26.564  1.00  0.00     0.049 A 
ATOM     68  H   UNL A   1      45.286  27.353  27.454  1.00  0.00     0.167 HD
ATOM     69  C   UNL A   1      47.693  28.813  26.942  1.00  0.00     0.074 A 
ATOM     70  C   UNL A   1      48.658  29.892  26.859  1.00  0.00     0.031 C 
ATOM     71  C   UNL A   1      47.919  27.549  26.499  1.00  0.00     0.037 A 
BRANCH  58  72
ATOM     72  C   UNL A   1      43.139  23.661  27.245  1.00  0.00     0.058 A 
ATOM     73  C   UNL A   1      43.111  22.742  28.309  1.00  0.00     0.135 A 
ATOM     74  C   UNL A   1      42.634  23.234  26.006  1.00  0.00     0.135 A 
ATOM     75  F   UNL A   1      43.600  23.086  29.512  1.00  0.00    -0.206 F 
ATOM     76  C   UNL A   1      42.651  21.440  28.138  1.00  0.00     0.059 A 
ATOM     77  C   UNL A   1      42.135  21.948  25.821  1.00  0.00     0.059 A 
ATOM     78  F   UNL A   1      42.637  24.065  24.953  1.00  0.00    -0.206 F 
ATOM     79  C   UNL A   1      42.169  21.050  26.887  1.00  0.00     0.060 A 
BRANCH  79  80
ATOM     80  S   UNL A   1      41.599  19.351  26.672  1.00  0.00     0.124 S 
ATOM     81  O   UNL A   1      42.862  18.642  26.486  1.00  0.00    -0.237 OA
ATOM     82  O   UNL A   1      40.907  19.091  27.930  1.00  0.00    -0.237 OA
ATOM     83  O   UNL A   1      40.743  19.425  25.492  1.00  0.00    -0.744 OA
ENDBRANCH  79  80
ENDBRANCH  58  72
BRANCH  59  84
ATOM     84  C   UNL A   1      46.452  33.044  28.655  1.00  0.00     0.058 A 
ATOM     85  C   UNL A   1      47.269  33.335  29.756  1.00  0.00     0.135 A 
ATOM     86  C   UNL A   1      46.156  34.090  27.766  1.00  0.00     0.135 A 
ATOM     87  F   UNL A   1      47.575  32.371  30.638  1.00  0.00    -0.206 F 
ATOM     88  C   UNL A   1      47.776  34.613  29.967  1.00  0.00     0.059 A 
ATOM     89  C   UNL A   1      46.673  35.369  27.939  1.00  0.00     0.059 A 
ATOM     90  F   UNL A   1      45.390  33.860  26.687  1.00  0.00    -0.206 F 
ATOM     91  C   UNL A   1      47.480  35.622  29.046  1.00  0.00     0.060 A 
BRANCH  91  92
ATOM     92  S   UNL A   1      48.213  37.255  29.285  1.00  0.00     0.124 S 
ATOM     93  O   UNL A   1      49.437  36.925  30.006  1.00  0.00    -0.237 OA
ATOM     94  O   UNL A   1      48.384  37.715  27.911  1.00  0.00    -0.237 OA
ATOM     95  O   UNL A   1      47.199  37.968  30.056  1.00  0.00    -0.744 OA
ENDBRANCH  91  92
ENDBRANCH  59  84
BRANCH  71  96
ATOM     96  C   UNL A   1      49.249  27.276  25.850  1.00  0.00     0.058 A 
ATOM     97  C   UNL A   1      50.377  26.900  26.596  1.00  0.00     0.135 A 
ATOM     98  C   UNL A   1      49.383  27.355  24.454  1.00  0.00     0.135 A 
ATOM     99  F   UNL A   1      50.305  26.811  27.933  1.00  0.00    -0.206 F 
ATOM    100  C   UNL A   1      51.600  26.648  25.984  1.00  0.00     0.059 A 
ATOM    101  C   UNL A   1      50.586  27.074  23.818  1.00  0.00     0.059 A 
ATOM    102  F   UNL A   1      48.332  27.696  23.692  1.00  0.00    -0.206 F 
ATOM    103  C   UNL A   1      51.695  26.738  24.593  1.00  0.00     0.060 A 
BRANCH 103 104
ATOM    104  S   UNL A   1      53.285  26.397  23.810  1.00  0.00     0.124 S 
ATOM    105  O   UNL A   1      54.105  27.489  24.326  1.00  0.00    -0.237 OA
ATOM    106  O   UNL A   1      53.604  25.068  24.321  1.00  0.00    -0.237 OA
ATOM    107  O   UNL A   1      52.981  26.458  22.384  1.00  0.00    -0.744 OA
ENDBRANCH 103 104
ENDBRANCH  71  96
ENDBRANCH  45  46
ENDBRANCH  38  40
ENDBRANCH  37  38
ENDBRANCH  36  37
ENDBRANCH  35  36
ENDBRANCH  34  35
ENDBRANCH  33  34
ENDBRANCH  32  33
ENDBRANCH   1  32
TORSDOF 26
ENDMDL
MODEL 2
REMARK VINA RESULT:      -9.9      5.924     11.504
REMARK SMILES CCc1ccc(S(=O)(=O)N2CCC3(CC2)NC(=O)C[C@H]3C(=O)OCCOCCOCCOCCOC(=O)c2ccc(-c3c4nc(c(-c5c(F)cc(S(=O)(=O)[O-])cc5F)c5ccc([nH]5)c(-c5c(F)cc(S(=O)(=O)[O-])cc5F)c5nc(c(-c6c(F)cc(S(=O)(=O)[O-])cc6F)c6ccc3[nH]6)C=C5)C=C4)cc2)s1
REMARK SMILES IDX 29 1 28 2 27 3 26 4 25 5 24 6 23 7 21 8 22 9 20 10 10 11
REMARK SMILES IDX 11 12 15 13 12 14 14 15 13 16 16 17 17 18 19 20 18 21 7 22
REMARK SMILES IDX 8 23 9 24 6 25 3 26 4 27 104 28 5 29 2 30 1 31 30 32 31 33
REMARK SMILES IDX 32 34 33 35 34 36 35 37 36 38 37 39 38 40 39 41 103 42 40 43
REMARK SMILES IDX 102 44 41 45 42 46 43 47 96 48 44 49 101 50 95 51 97 52
REMARK SMILES IDX 45 53 100 54 94 55 93 56 46 58 80 59 59 60 79 61 60 62 63 63
REMARK SMILES IDX 78 64 98 65 61 66 62 67 77 69 99 70 64 71 47 72 48 73 57 74
REMARK SMILES IDX 49 75 50 76 56 77 58 78 51 79 52 80 53 81 54 82 55 83 81 84
REMARK SMILES IDX 82 85 91 86 83 87 84 88 90 89 92 90 85 91 86 92 87 93 88 94
REMARK SMILES IDX 89 95 65 96 66 97 75 98 67 99 68 100 74 101 76 102 69 103
REMARK SMILES IDX 70 104 71 105 72 106 73 107
REMARK H PARENT 16 19 97 57 63 68
REMARK Flexibility Score: inf
ROOT
ATOM      1  O   UNL A   1      39.311  21.925  26.732  1.00  0.00    -0.377 OA
ENDROOT
BRANCH   1   2
ATOM      2  C   UNL A   1      38.512  21.573  25.621  1.00  0.00     0.188 C 
BRANCH   2   3
ATOM      3  C   UNL A   1      37.110  22.187  25.622  1.00  0.00     0.188 C 
BRANCH   3   4
ATOM      4  O   UNL A   1      36.019  21.389  25.208  1.00  0.00    -0.376 OA
BRANCH   4   5
ATOM      5  C   UNL A   1      34.897  21.258  26.078  1.00  0.00     0.202 C 
BRANCH   5   6
ATOM      6  C   UNL A   1      34.039  22.491  26.441  1.00  0.00     0.261 C 
BRANCH   6   7
ATOM      7  O   UNL A   1      32.613  22.428  26.161  1.00  0.00    -0.463 OA
BRANCH   7   8
ATOM      8  C   UNL A   1      32.287  21.991  24.929  1.00  0.00     0.311 C 
ATOM      9  O   UNL A   1      32.071  20.806  24.665  1.00  0.00    -0.252 OA
BRANCH   8  10
ATOM     10  C   UNL A   1      32.234  23.005  23.796  1.00  0.00     0.134 C 
ATOM     11  N   UNL A   1      30.999  26.986  23.949  1.00  0.00    -0.197 NA
ATOM     12  C   UNL A   1      30.724  26.111  22.819  1.00  0.00     0.105 C 
ATOM     13  C   UNL A   1      31.283  26.277  25.188  1.00  0.00     0.105 C 
ATOM     14  C   UNL A   1      31.889  25.166  22.537  1.00  0.00     0.046 C 
ATOM     15  C   UNL A   1      32.497  25.375  25.050  1.00  0.00     0.046 C 
ATOM     16  C   UNL A   1      32.617  24.514  23.785  1.00  0.00     0.056 C 
ATOM     17  N   UNL A   1      34.047  24.410  23.492  1.00  0.00    -0.350 N 
ATOM     18  C   UNL A   1      34.413  23.252  22.863  1.00  0.00     0.221 C 
ATOM     19  H   UNL A   1      34.692  25.115  23.727  1.00  0.00     0.164 HD
ATOM     20  C   UNL A   1      33.188  22.404  22.721  1.00  0.00     0.117 C 
ATOM     21  O   UNL A   1      35.536  23.005  22.457  1.00  0.00    -0.275 OA
BRANCH  11  22
ATOM     22  S   UNL A   1      31.362  28.632  23.791  1.00  0.00     0.252 S 
ATOM     23  O   UNL A   1      30.194  29.375  24.219  1.00  0.00    -0.206 OA
ATOM     24  O   UNL A   1      31.975  28.840  22.498  1.00  0.00    -0.206 OA
BRANCH  22  25
ATOM     25  C   UNL A   1      32.640  29.001  24.977  1.00  0.00     0.135 A 
ATOM     26  C   UNL A   1      33.870  29.857  26.947  1.00  0.00     0.006 A 
ATOM     27  C   UNL A   1      34.655  29.049  26.160  1.00  0.00     0.017 A 
ATOM     28  S   UNL A   1      32.263  29.970  26.339  1.00  0.00    -0.127 S 
ATOM     29  C   UNL A   1      33.972  28.659  24.994  1.00  0.00     0.034 A 
BRANCH  26  30
ATOM     30  C   UNL A   1      34.347  30.616  28.144  1.00  0.00     0.043 C 
ATOM     31  C   UNL A   1      35.838  30.877  28.147  1.00  0.00     0.010 C 
ENDBRANCH  26  30
ENDBRANCH  22  25
ENDBRANCH  11  22
ENDBRANCH   8  10
ENDBRANCH   7   8
ENDBRANCH   6   7
ENDBRANCH   5   6
ENDBRANCH   4   5
ENDBRANCH   3   4
ENDBRANCH   2   3
ENDBRANCH   1   2
BRANCH   1  32
ATOM     32  C   UNL A   1      40.669  21.503  26.829  1.00  0.00     0.188 C 
BRANCH  32  33
ATOM     33  C   UNL A   1      41.747  22.571  27.035  1.00  0.00     0.188 C 
BRANCH  33  34
ATOM     34  O   UNL A   1      42.944  22.484  26.253  1.00  0.00    -0.376 OA
BRANCH  34  35
ATOM     35  C   UNL A   1      43.715  23.662  26.038  1.00  0.00     0.202 C 
BRANCH  35  36
ATOM     36  C   UNL A   1      43.185  24.632  24.985  1.00  0.00     0.261 C 
BRANCH  36  37
ATOM     37  O   UNL A   1      43.121  25.967  25.505  1.00  0.00    -0.460 OA
BRANCH  37  38
ATOM     38  C   UNL A   1      41.902  26.323  25.967  1.00  0.00     0.338 C 
ATOM     39  O   UNL A   1      40.826  26.144  25.424  1.00  0.00    -0.246 OA
BRANCH  38  40
ATOM     40  C   UNL A   1      42.027  26.819  27.345  1.00  0.00     0.060 A 
ATOM     41  C   UNL A   1      41.075  26.376  28.270  1.00  0.00     0.016 A 
ATOM     42  C   UNL A   1      42.984  27.774  27.697  1.00  0.00     0.016 A 
ATOM     43  C   UNL A   1      41.013  26.958  29.526  1.00  0.00     0.010 A 
ATOM     44  C   UNL A   1      42.914  28.369  28.957  1.00  0.00     0.010 A 
ATOM     45  C   UNL A   1      41.884  28.007  29.841  1.00  0.00    -0.014 A 
BRANCH  45  46
ATOM     46  C   UNL A   1      41.518  28.881  30.974  1.00  0.00     0.031 A 
ATOM     47  C   UNL A   1      42.326  28.771  32.240  1.00  0.00     0.074 A 
ATOM     48  C   UNL A   1      40.565  29.815  30.834  1.00  0.00     0.049 A 
ATOM     49  N   UNL A   1      42.222  29.447  33.352  1.00  0.00    -0.248 NA
ATOM     50  C   UNL A   1      43.396  27.759  32.249  1.00  0.00     0.031 C 
ATOM     51  C   UNL A   1      39.769  30.030  29.627  1.00  0.00     0.029 A 
ATOM     52  N   UNL A   1      40.110  30.758  31.716  1.00  0.00    -0.354 N 
ATOM     53  C   UNL A   1      43.211  28.944  34.190  1.00  0.00     0.074 A 
ATOM     54  C   UNL A   1      43.871  27.873  33.478  1.00  0.00     0.031 C 
ATOM     55  C   UNL A   1      38.909  31.038  29.850  1.00  0.00     0.029 A 
ATOM     56  C   UNL A   1      39.077  31.513  31.222  1.00  0.00     0.049 A 
ATOM     57  H   UNL A   1      40.488  30.881  32.617  1.00  0.00     0.167 HD
ATOM     58  C   UNL A   1      43.548  29.351  35.437  1.00  0.00     0.037 A 
ATOM     59  C   UNL A   1      38.339  32.464  31.824  1.00  0.00     0.037 A 
ATOM     60  C   UNL A   1      42.868  30.413  36.131  1.00  0.00     0.049 A 
ATOM     61  C   UNL A   1      38.684  32.862  33.234  1.00  0.00     0.074 A 
ATOM     62  C   UNL A   1      43.105  30.907  37.400  1.00  0.00     0.029 A 
ATOM     63  N   UNL A   1      41.804  31.139  35.610  1.00  0.00    -0.354 N 
ATOM     64  N   UNL A   1      39.620  32.383  34.021  1.00  0.00    -0.248 NA
ATOM     65  C   UNL A   1      37.886  33.938  33.834  1.00  0.00     0.031 C 
ATOM     66  C   UNL A   1      42.149  31.893  37.667  1.00  0.00     0.029 A 
ATOM     67  C   UNL A   1      41.359  32.064  36.540  1.00  0.00     0.049 A 
ATOM     68  H   UNL A   1      41.422  31.015  34.712  1.00  0.00     0.167 HD
ATOM     69  C   UNL A   1      39.541  33.115  35.200  1.00  0.00     0.074 A 
ATOM     70  C   UNL A   1      38.473  34.078  35.014  1.00  0.00     0.031 C 
ATOM     71  C   UNL A   1      40.287  33.008  36.330  1.00  0.00     0.037 A 
BRANCH  58  72
ATOM     72  C   UNL A   1      44.667  28.615  36.126  1.00  0.00     0.058 A 
ATOM     73  C   UNL A   1      44.432  27.491  36.937  1.00  0.00     0.135 A 
ATOM     74  C   UNL A   1      45.995  29.055  35.994  1.00  0.00     0.135 A 
ATOM     75  F   UNL A   1      43.181  27.037  37.117  1.00  0.00    -0.206 F 
ATOM     76  C   UNL A   1      45.463  26.861  37.628  1.00  0.00     0.059 A 
ATOM     77  C   UNL A   1      47.046  28.419  36.648  1.00  0.00     0.059 A 
ATOM     78  F   UNL A   1      46.280  30.125  35.237  1.00  0.00    -0.206 F 
ATOM     79  C   UNL A   1      46.768  27.335  37.481  1.00  0.00     0.060 A 
BRANCH  79  80
ATOM     80  S   UNL A   1      48.090  26.526  38.404  1.00  0.00     0.124 S 
ATOM     81  O   UNL A   1      47.988  25.154  37.915  1.00  0.00    -0.237 OA
ATOM     82  O   UNL A   1      49.271  27.266  37.971  1.00  0.00    -0.237 OA
ATOM     83  O   UNL A   1      47.705  26.725  39.797  1.00  0.00    -0.744 OA
ENDBRANCH  79  80
ENDBRANCH  58  72
BRANCH  59  84
ATOM     84  C   UNL A   1      37.204  33.080  31.088  1.00  0.00     0.058 A 
ATOM     85  C   UNL A   1      37.412  33.963  30.020  1.00  0.00     0.135 A 
ATOM     86  C   UNL A   1      35.878  32.746  31.412  1.00  0.00     0.135 A 
ATOM     87  F   UNL A   1      38.660  34.318  29.676  1.00  0.00    -0.206 F 
ATOM     88  C   UNL A   1      36.348  34.494  29.298  1.00  0.00     0.059 A 
ATOM     89  C   UNL A   1      34.799  33.242  30.687  1.00  0.00     0.059 A 
ATOM     90  F   UNL A   1      35.625  31.893  32.417  1.00  0.00    -0.206 F 
ATOM     91  C   UNL A   1      35.045  34.119  29.633  1.00  0.00     0.060 A 
BRANCH  91  92
ATOM     92  S   UNL A   1      33.678  34.747  28.635  1.00  0.00     0.124 S 
ATOM     93  O   UNL A   1      33.564  33.717  27.610  1.00  0.00    -0.237 OA
ATOM     94  O   UNL A   1      32.592  34.805  29.608  1.00  0.00    -0.237 OA
ATOM     95  O   UNL A   1      34.168  36.044  28.175  1.00  0.00    -0.744 OA
ENDBRANCH  91  92
ENDBRANCH  59  84
BRANCH  71  96
ATOM     96  C   UNL A   1      39.996  33.983  37.440  1.00  0.00     0.058 A 
ATOM     97  C   UNL A   1      39.191  33.641  38.537  1.00  0.00     0.135 A 
ATOM     98  C   UNL A   1      40.567  35.266  37.420  1.00  0.00     0.135 A 
ATOM     99  F   UNL A   1      38.619  32.429  38.606  1.00  0.00    -0.206 F 
ATOM    100  C   UNL A   1      38.932  34.550  39.558  1.00  0.00     0.059 A 
ATOM    101  C   UNL A   1      40.350  36.178  38.445  1.00  0.00     0.059 A 
ATOM    102  F   UNL A   1      41.357  35.639  36.400  1.00  0.00    -0.206 F 
ATOM    103  C   UNL A   1      39.517  35.818  39.502  1.00  0.00     0.060 A 
BRANCH 103 104
ATOM    104  S   UNL A   1      39.182  36.984  40.838  1.00  0.00     0.124 S 
ATOM    105  O   UNL A   1      38.390  37.999  40.149  1.00  0.00    -0.237 OA
ATOM    106  O   UNL A   1      38.457  36.157  41.798  1.00  0.00    -0.237 OA
ATOM    107  O   UNL A   1      40.513  37.406  41.262  1.00  0.00    -0.744 OA
ENDBRANCH 103 104
ENDBRANCH  71  96
ENDBRANCH  45  46
ENDBRANCH  38  40
ENDBRANCH  37  38
ENDBRANCH  36  37
ENDBRANCH  35  36
ENDBRANCH  34  35
ENDBRANCH  33  34
ENDBRANCH  32  33
ENDBRANCH   1  32
TORSDOF 26
ENDMDL
MODEL 3
REMARK VINA RESULT:      -9.5      1.477      2.525
REMARK SMILES CCc1ccc(S(=O)(=O)N2CCC3(CC2)NC(=O)C[C@H]3C(=O)OCCOCCOCCOCCOC(=O)c2ccc(-c3c4nc(c(-c5c(F)cc(S(=O)(=O)[O-])cc5F)c5ccc([nH]5)c(-c5c(F)cc(S(=O)(=O)[O-])cc5F)c5nc(c(-c6c(F)cc(S(=O)(=O)[O-])cc6F)c6ccc3[nH]6)C=C5)C=C4)cc2)s1
REMARK SMILES IDX 29 1 28 2 27 3 26 4 25 5 24 6 23 7 21 8 22 9 20 10 10 11
REMARK SMILES IDX 11 12 15 13 12 14 14 15 13 16 16 17 17 18 19 20 18 21 7 22
REMARK SMILES IDX 8 23 9 24 6 25 3 26 4 27 104 28 5 29 2 30 1 31 30 32 31 33
REMARK SMILES IDX 32 34 33 35 34 36 35 37 36 38 37 39 38 40 39 41 103 42 40 43
REMARK SMILES IDX 102 44 41 45 42 46 43 47 96 48 44 49 101 50 95 51 97 52
REMARK SMILES IDX 45 53 100 54 94 55 93 56 46 58 80 59 59 60 79 61 60 62 63 63
REMARK SMILES IDX 78 64 98 65 61 66 62 67 77 69 99 70 64 71 47 72 48 73 57 74
REMARK SMILES IDX 49 75 50 76 56 77 58 78 51 79 52 80 53 81 54 82 55 83 81 84
REMARK SMILES IDX 82 85 91 86 83 87 84 88 90 89 92 90 85 91 86 92 87 93 88 94
REMARK SMILES IDX 89 95 65 96 66 97 75 98 67 99 68 100 74 101 76 102 69 103
REMARK SMILES IDX 70 104 71 105 72 106 73 107
REMARK H PARENT 16 19 97 57 63 68
REMARK Flexibility Score: inf
ROOT
ATOM      1  O   UNL A   1      33.408  30.277  27.327  1.00  0.00    -0.377 OA
ENDROOT
BRANCH   1   2
ATOM      2  C   UNL A   1      32.910  29.893  26.062  1.00  0.00     0.188 C 
BRANCH   2   3
ATOM      3  C   UNL A   1      33.769  28.866  25.321  1.00  0.00     0.188 C 
BRANCH   3   4
ATOM      4  O   UNL A   1      33.938  29.004  23.925  1.00  0.00    -0.376 OA
BRANCH   4   5
ATOM      5  C   UNL A   1      33.598  27.906  23.081  1.00  0.00     0.202 C 
BRANCH   5   6
ATOM      6  C   UNL A   1      32.261  27.898  22.306  1.00  0.00     0.261 C 
BRANCH   6   7
ATOM      7  O   UNL A   1      31.503  26.657  22.277  1.00  0.00    -0.463 OA
BRANCH   7   8
ATOM      8  C   UNL A   1      30.495  26.577  23.168  1.00  0.00     0.311 C 
ATOM      9  O   UNL A   1      29.554  27.373  23.200  1.00  0.00    -0.252 OA
BRANCH   8  10
ATOM     10  C   UNL A   1      30.548  25.480  24.221  1.00  0.00     0.134 C 
ATOM     11  N   UNL A   1      33.024  22.125  24.329  1.00  0.00    -0.197 NA
ATOM     12  C   UNL A   1      31.636  22.103  24.764  1.00  0.00     0.105 C 
ATOM     13  C   UNL A   1      33.340  23.218  23.422  1.00  0.00     0.105 C 
ATOM     14  C   UNL A   1      31.242  23.398  25.470  1.00  0.00     0.046 C 
ATOM     15  C   UNL A   1      33.080  24.570  24.062  1.00  0.00     0.046 C 
ATOM     16  C   UNL A   1      31.775  24.756  24.850  1.00  0.00     0.056 C 
ATOM     17  N   UNL A   1      32.082  25.681  25.942  1.00  0.00    -0.350 N 
ATOM     18  C   UNL A   1      31.027  26.452  26.343  1.00  0.00     0.221 C 
ATOM     19  H   UNL A   1      32.973  25.743  26.353  1.00  0.00     0.164 HD
ATOM     20  C   UNL A   1      29.863  26.127  25.460  1.00  0.00     0.117 C 
ATOM     21  O   UNL A   1      31.046  27.223  27.288  1.00  0.00    -0.275 OA
BRANCH  11  22
ATOM     22  S   UNL A   1      34.257  21.246  25.088  1.00  0.00     0.252 S 
ATOM     23  O   UNL A   1      34.317  21.690  26.466  1.00  0.00    -0.206 OA
ATOM     24  O   UNL A   1      35.417  21.254  24.226  1.00  0.00    -0.206 OA
BRANCH  22  25
ATOM     25  C   UNL A   1      33.728  19.546  25.143  1.00  0.00     0.135 A 
ATOM     26  C   UNL A   1      33.665  17.077  24.977  1.00  0.00     0.006 A 
ATOM     27  C   UNL A   1      32.511  17.587  25.522  1.00  0.00     0.017 A 
ATOM     28  S   UNL A   1      34.809  18.317  24.636  1.00  0.00    -0.127 S 
ATOM     29  C   UNL A   1      32.523  18.993  25.511  1.00  0.00     0.034 A 
BRANCH  26  30
ATOM     30  C   UNL A   1      33.893  15.637  24.642  1.00  0.00     0.043 C 
ATOM     31  C   UNL A   1      33.036  14.681  25.442  1.00  0.00     0.010 C 
ENDBRANCH  26  30
ENDBRANCH  22  25
ENDBRANCH  11  22
ENDBRANCH   8  10
ENDBRANCH   7   8
ENDBRANCH   6   7
ENDBRANCH   5   6
ENDBRANCH   4   5
ENDBRANCH   3   4
ENDBRANCH   2   3
ENDBRANCH   1   2
BRANCH   1  32
ATOM     32  C   UNL A   1      33.726  31.637  27.616  1.00  0.00     0.188 C 
BRANCH  32  33
ATOM     33  C   UNL A   1      35.175  31.983  27.968  1.00  0.00     0.188 C 
BRANCH  33  34
ATOM     34  O   UNL A   1      35.626  33.323  27.735  1.00  0.00    -0.376 OA
BRANCH  34  35
ATOM     35  C   UNL A   1      36.405  33.972  28.734  1.00  0.00     0.202 C 
BRANCH  35  36
ATOM     36  C   UNL A   1      36.248  33.447  30.159  1.00  0.00     0.261 C 
BRANCH  36  37
ATOM     37  O   UNL A   1      37.476  32.877  30.632  1.00  0.00    -0.460 OA
BRANCH  37  38
ATOM     38  C   UNL A   1      37.352  31.621  31.115  1.00  0.00     0.338 C 
ATOM     39  O   UNL A   1      36.449  31.180  31.805  1.00  0.00    -0.246 OA
BRANCH  38  40
ATOM     40  C   UNL A   1      38.401  30.769  30.535  1.00  0.00     0.060 A 
ATOM     41  C   UNL A   1      39.332  30.213  31.420  1.00  0.00     0.016 A 
ATOM     42  C   UNL A   1      38.534  30.606  29.154  1.00  0.00     0.016 A 
ATOM     43  C   UNL A   1      40.456  29.572  30.924  1.00  0.00     0.010 A 
ATOM     44  C   UNL A   1      39.672  29.972  28.654  1.00  0.00     0.010 A 
ATOM     45  C   UNL A   1      40.663  29.519  29.541  1.00  0.00    -0.014 A 
BRANCH  45  46
ATOM     46  C   UNL A   1      42.033  29.241  29.066  1.00  0.00     0.031 A 
ATOM     47  C   UNL A   1      42.347  27.846  28.594  1.00  0.00     0.074 A 
ATOM     48  C   UNL A   1      42.932  30.231  28.961  1.00  0.00     0.049 A 
ATOM     49  N   UNL A   1      43.458  27.367  28.104  1.00  0.00    -0.248 NA
ATOM     50  C   UNL A   1      41.255  26.861  28.688  1.00  0.00     0.031 C 
ATOM     51  C   UNL A   1      42.699  31.623  29.344  1.00  0.00     0.029 A 
ATOM     52  N   UNL A   1      44.220  30.215  28.498  1.00  0.00    -0.354 N 
ATOM     53  C   UNL A   1      43.200  26.027  27.832  1.00  0.00     0.074 A 
ATOM     54  C   UNL A   1      41.845  25.758  28.257  1.00  0.00     0.031 C 
ATOM     55  C   UNL A   1      43.818  32.329  29.111  1.00  0.00     0.029 A 
ATOM     56  C   UNL A   1      44.848  31.431  28.593  1.00  0.00     0.049 A 
ATOM     57  H   UNL A   1      44.652  29.410  28.133  1.00  0.00     0.167 HD
ATOM     58  C   UNL A   1      44.016  25.109  27.263  1.00  0.00     0.037 A 
ATOM     59  C   UNL A   1      46.122  31.768  28.314  1.00  0.00     0.037 A 
ATOM     60  C   UNL A   1      45.367  25.398  26.859  1.00  0.00     0.049 A 
ATOM     61  C   UNL A   1      47.038  30.720  27.743  1.00  0.00     0.074 A 
ATOM     62  C   UNL A   1      46.298  24.551  26.286  1.00  0.00     0.029 A 
ATOM     63  N   UNL A   1      45.983  26.636  26.997  1.00  0.00    -0.354 N 
ATOM     64  N   UNL A   1      46.788  29.456  27.488  1.00  0.00    -0.248 NA
ATOM     65  C   UNL A   1      48.402  31.144  27.406  1.00  0.00     0.031 C 
ATOM     66  C   UNL A   1      47.493  25.261  26.129  1.00  0.00     0.029 A 
ATOM     67  C   UNL A   1      47.288  26.571  26.540  1.00  0.00     0.049 A 
ATOM     68  H   UNL A   1      45.554  27.441  27.366  1.00  0.00     0.167 HD
ATOM     69  C   UNL A   1      47.954  28.938  26.936  1.00  0.00     0.074 A 
ATOM     70  C   UNL A   1      48.905  30.033  26.884  1.00  0.00     0.031 C 
ATOM     71  C   UNL A   1      48.217  27.677  26.505  1.00  0.00     0.037 A 
BRANCH  58  72
ATOM     72  C   UNL A   1      43.476  23.714  27.092  1.00  0.00     0.058 A 
ATOM     73  C   UNL A   1      42.923  23.271  25.878  1.00  0.00     0.135 A 
ATOM     74  C   UNL A   1      43.487  22.811  28.168  1.00  0.00     0.135 A 
ATOM     75  F   UNL A   1      42.864  24.097  24.820  1.00  0.00    -0.206 F 
ATOM     76  C   UNL A   1      42.359  22.004  25.751  1.00  0.00     0.059 A 
ATOM     77  C   UNL A   1      42.962  21.527  28.054  1.00  0.00     0.059 A 
ATOM     78  F   UNL A   1      43.998  23.178  29.353  1.00  0.00    -0.206 F 
ATOM     79  C   UNL A   1      42.379  21.140  26.847  1.00  0.00     0.060 A 
BRANCH  79  80
ATOM     80  S   UNL A   1      41.622  19.511  26.677  1.00  0.00     0.124 S 
ATOM     81  O   UNL A   1      42.788  18.638  26.758  1.00  0.00    -0.237 OA
ATOM     82  O   UNL A   1      40.716  19.466  27.820  1.00  0.00    -0.237 OA
ATOM     83  O   UNL A   1      40.975  19.571  25.370  1.00  0.00    -0.744 OA
ENDBRANCH  79  80
ENDBRANCH  58  72
BRANCH  59  84
ATOM     84  C   UNL A   1      46.585  33.153  28.590  1.00  0.00     0.058 A 
ATOM     85  C   UNL A   1      46.445  34.178  27.644  1.00  0.00     0.135 A 
ATOM     86  C   UNL A   1      47.133  33.487  29.840  1.00  0.00     0.135 A 
ATOM     87  F   UNL A   1      45.934  33.908  26.433  1.00  0.00    -0.206 F 
ATOM     88  C   UNL A   1      46.829  35.485  27.926  1.00  0.00     0.059 A 
ATOM     89  C   UNL A   1      47.498  34.791  30.156  1.00  0.00     0.059 A 
ATOM     90  F   UNL A   1      47.275  32.545  30.786  1.00  0.00    -0.206 F 
ATOM     91  C   UNL A   1      47.346  35.783  29.190  1.00  0.00     0.060 A 
BRANCH  91  92
ATOM     92  S   UNL A   1      47.761  37.498  29.573  1.00  0.00     0.124 S 
ATOM     93  O   UNL A   1      46.586  38.204  29.076  1.00  0.00    -0.237 OA
ATOM     94  O   UNL A   1      47.918  37.457  31.023  1.00  0.00    -0.237 OA
ATOM     95  O   UNL A   1      48.994  37.720  28.822  1.00  0.00    -0.744 OA
ENDBRANCH  91  92
ENDBRANCH  59  84
BRANCH  71  96
ATOM     96  C   UNL A   1      49.573  27.424  25.906  1.00  0.00     0.058 A 
ATOM     97  C   UNL A   1      50.694  27.135  26.699  1.00  0.00     0.135 A 
ATOM     98  C   UNL A   1      49.741  27.432  24.511  1.00  0.00     0.135 A 
ATOM     99  F   UNL A   1      50.590  27.117  28.037  1.00  0.00    -0.206 F 
ATOM    100  C   UNL A   1      51.943  26.900  26.132  1.00  0.00     0.059 A 
ATOM    101  C   UNL A   1      50.971  27.166  23.922  1.00  0.00     0.059 A 
ATOM    102  F   UNL A   1      48.699  27.688  23.705  1.00  0.00    -0.206 F 
ATOM    103  C   UNL A   1      52.071  26.918  24.741  1.00  0.00     0.060 A 
BRANCH 103 104
ATOM    104  S   UNL A   1      53.694  26.601  24.018  1.00  0.00     0.124 S 
ATOM    105  O   UNL A   1      54.319  25.779  25.049  1.00  0.00    -0.237 OA
ATOM    106  O   UNL A   1      53.352  25.911  22.778  1.00  0.00    -0.237 OA
ATOM    107  O   UNL A   1      54.258  27.937  23.851  1.00  0.00    -0.744 OA
ENDBRANCH 103 104
ENDBRANCH  71  96
ENDBRANCH  45  46
ENDBRANCH  38  40
ENDBRANCH  37  38
ENDBRANCH  36  37
ENDBRANCH  35  36
ENDBRANCH  34  35
ENDBRANCH  33  34
ENDBRANCH  32  33
ENDBRANCH   1  32
TORSDOF 26
ENDMDL
