MODEL 1
REMARK VINA RESULT:      -9.0      0.000      0.000
REMARK SMILES C[C@@](NC(=O)CCOC1CC[NH2+]CC1)(C(=O)OCCOCCOCCOCCOC(=O)c1ccc(-c2c3nc(c(-c4c(F)cc(S(=O)(=O)[O-])cc4F)c4ccc([nH]4)c(-c4c(F)cc(S(=O)(=O)[O-])cc4F)c4nc(c(-c5c(F)cc(S(=O)(=O)[O-])cc5F)c5ccc2[nH]5)C=C4)C=C3)cc1)C(F)(F)F
REMARK SMILES IDX 22 1 21 2 20 3 19 4 18 5 17 6 15 7 16 8 2 9 1 10 3 11 4 12
REMARK SMILES IDX 5 14 6 15 7 16 8 17 9 18 10 19 14 20 11 21 13 22 12 23 98 26
REMARK SMILES IDX 99 27 100 28 101 29 23 30 24 31 25 32 26 33 27 34 28 35
REMARK SMILES IDX 29 36 30 37 31 38 32 39 33 40 97 41 34 42 96 43 35 44 36 45
REMARK SMILES IDX 37 46 90 47 38 48 95 49 89 50 91 51 39 52 94 53 88 54 87 55
REMARK SMILES IDX 40 57 74 58 53 59 73 60 54 61 57 62 72 63 92 64 55 65 56 66
REMARK SMILES IDX 71 68 93 69 58 70 41 71 42 72 51 73 43 74 44 75 50 76 52 77
REMARK SMILES IDX 45 78 46 79 47 80 48 81 49 82 75 83 76 84 85 85 77 86 78 87
REMARK SMILES IDX 84 88 86 89 79 90 80 91 81 92 82 93 83 94 59 95 60 96 69 97
REMARK SMILES IDX 61 98 62 99 68 100 70 101 63 102 64 103 65 104 66 105 67 106
REMARK H PARENT 3 13 12 24 12 25 91 56 57 67
REMARK Flexibility Score: inf
ROOT
ATOM      1  C   UNL A   1      33.485  33.852  28.196  1.00  0.00     0.188 C 
ENDROOT
BRANCH   1   2
ATOM      2  C   UNL A   1      32.615  32.745  27.562  1.00  0.00     0.188 C 
BRANCH   2   3
ATOM      3  O   UNL A   1      33.296  31.577  27.135  1.00  0.00    -0.376 OA
BRANCH   3   4
ATOM      4  C   UNL A   1      32.617  30.347  26.933  1.00  0.00     0.202 C 
BRANCH   4   5
ATOM      5  C   UNL A   1      31.738  30.064  25.720  1.00  0.00     0.261 C 
BRANCH   5   6
ATOM      6  O   UNL A   1      32.104  28.919  24.943  1.00  0.00    -0.461 OA
BRANCH   6   7
ATOM      7  C   UNL A   1      31.137  28.132  24.424  1.00  0.00     0.341 C 
ATOM      8  O   UNL A   1      30.620  27.203  25.027  1.00  0.00    -0.249 OA
BRANCH   7   9
ATOM      9  C   UNL A   1      30.969  28.436  22.941  1.00  0.00     0.231 C 
ATOM     10  C   UNL A   1      31.874  29.528  22.340  1.00  0.00     0.058 C 
BRANCH   9  11
ATOM     11  N   UNL A   1      31.111  27.144  22.184  1.00  0.00    -0.333 N 
ATOM     12  C   UNL A   1      32.176  26.344  21.876  1.00  0.00     0.223 C 
ATOM     13  H   UNL A   1      30.256  26.802  21.836  1.00  0.00     0.164 HD
ATOM     14  O   UNL A   1      32.005  25.561  20.937  1.00  0.00    -0.275 OA
BRANCH  12  15
ATOM     15  C   UNL A   1      33.467  26.282  22.682  1.00  0.00     0.128 C 
BRANCH  15  16
ATOM     16  C   UNL A   1      34.020  24.949  23.211  1.00  0.00     0.170 C 
BRANCH  16  17
ATOM     17  O   UNL A   1      33.054  24.006  23.638  1.00  0.00    -0.377 OA
BRANCH  17  18
ATOM     18  C   UNL A   1      32.218  24.252  24.775  1.00  0.00     0.129 C 
ATOM     19  C   UNL A   1      32.947  24.475  26.092  1.00  0.00     0.093 C 
ATOM     20  C   UNL A   1      31.031  23.314  24.981  1.00  0.00     0.093 C 
ATOM     21  C   UNL A   1      33.283  23.188  26.825  1.00  0.00     0.263 C 
ATOM     22  C   UNL A   1      31.383  22.074  25.794  1.00  0.00     0.263 C 
ATOM     23  N   UNL A   1      32.086  22.388  27.041  1.00  0.00    -0.346 N 
ATOM     24  H   UNL A   1      31.453  22.906  27.651  1.00  0.00     0.346 HD
ATOM     25  H   UNL A   1      32.377  21.506  27.462  1.00  0.00     0.346 HD
ENDBRANCH  17  18
ENDBRANCH  16  17
ENDBRANCH  15  16
ENDBRANCH  12  15
ENDBRANCH   9  11
BRANCH   9  26
ATOM     26  C   UNL A   1      29.555  29.047  22.852  1.00  0.00     0.422 C 
ATOM     27  F   UNL A   1      28.589  28.124  23.087  1.00  0.00    -0.168 F 
ATOM     28  F   UNL A   1      29.402  30.003  23.812  1.00  0.00    -0.168 F 
ATOM     29  F   UNL A   1      29.282  29.644  21.678  1.00  0.00    -0.168 F 
ENDBRANCH   9  26
ENDBRANCH   7   9
ENDBRANCH   6   7
ENDBRANCH   5   6
ENDBRANCH   4   5
ENDBRANCH   3   4
ENDBRANCH   2   3
ENDBRANCH   1   2
BRANCH   1  30
ATOM     30  O   UNL A   1      32.779  34.701  29.087  1.00  0.00    -0.377 OA
BRANCH  30  31
ATOM     31  C   UNL A   1      33.442  34.986  30.314  1.00  0.00     0.188 C 
BRANCH  31  32
ATOM     32  C   UNL A   1      34.820  34.324  30.504  1.00  0.00     0.188 C 
BRANCH  32  33
ATOM     33  O   UNL A   1      35.122  34.022  31.857  1.00  0.00    -0.376 OA
BRANCH  33  34
ATOM     34  C   UNL A   1      34.939  32.730  32.398  1.00  0.00     0.202 C 
BRANCH  34  35
ATOM     35  C   UNL A   1      36.118  31.747  32.475  1.00  0.00     0.261 C 
BRANCH  35  36
ATOM     36  O   UNL A   1      37.030  31.733  31.373  1.00  0.00    -0.460 OA
BRANCH  36  37
ATOM     37  C   UNL A   1      36.700  30.997  30.295  1.00  0.00     0.338 C 
ATOM     38  O   UNL A   1      35.629  31.001  29.702  1.00  0.00    -0.246 OA
BRANCH  37  39
ATOM     39  C   UNL A   1      37.929  30.334  29.820  1.00  0.00     0.060 A 
ATOM     40  C   UNL A   1      38.877  29.899  30.757  1.00  0.00     0.016 A 
ATOM     41  C   UNL A   1      38.143  30.147  28.453  1.00  0.00     0.016 A 
ATOM     42  C   UNL A   1      40.068  29.323  30.326  1.00  0.00     0.010 A 
ATOM     43  C   UNL A   1      39.351  29.599  28.019  1.00  0.00     0.010 A 
ATOM     44  C   UNL A   1      40.333  29.229  28.955  1.00  0.00    -0.014 A 
BRANCH  44  45
ATOM     45  C   UNL A   1      41.723  28.991  28.506  1.00  0.00     0.031 A 
ATOM     46  C   UNL A   1      42.093  27.592  28.095  1.00  0.00     0.074 A 
ATOM     47  C   UNL A   1      42.615  29.991  28.430  1.00  0.00     0.049 A 
ATOM     48  N   UNL A   1      43.253  27.112  27.732  1.00  0.00    -0.248 NA
ATOM     49  C   UNL A   1      41.005  26.598  28.098  1.00  0.00     0.031 C 
ATOM     50  C   UNL A   1      42.344  31.394  28.742  1.00  0.00     0.029 A 
ATOM     51  N   UNL A   1      43.939  29.973  28.072  1.00  0.00    -0.354 N 
ATOM     52  C   UNL A   1      43.038  25.763  27.476  1.00  0.00     0.074 A 
ATOM     53  C   UNL A   1      41.645  25.492  27.754  1.00  0.00     0.031 C 
ATOM     54  C   UNL A   1      43.474  32.102  28.574  1.00  0.00     0.029 A 
ATOM     55  C   UNL A   1      44.555  31.197  28.184  1.00  0.00     0.049 A 
ATOM     56  H   UNL A   1      44.402  29.162  27.763  1.00  0.00     0.167 HD
ATOM     57  C   UNL A   1      43.922  24.836  27.041  1.00  0.00     0.037 A 
ATOM     58  C   UNL A   1      45.848  31.533  28.017  1.00  0.00     0.037 A 
ATOM     59  C   UNL A   1      45.306  25.122  26.770  1.00  0.00     0.049 A 
ATOM     60  C   UNL A   1      46.835  30.466  27.614  1.00  0.00     0.074 A 
ATOM     61  C   UNL A   1      46.290  24.260  26.321  1.00  0.00     0.029 A 
ATOM     62  N   UNL A   1      45.903  26.364  26.929  1.00  0.00    -0.354 N 
ATOM     63  N   UNL A   1      46.623  29.193  27.370  1.00  0.00    -0.248 NA
ATOM     64  C   UNL A   1      48.237  30.879  27.462  1.00  0.00     0.031 C 
ATOM     65  C   UNL A   1      47.494  24.968  26.266  1.00  0.00     0.029 A 
ATOM     66  C   UNL A   1      47.248  26.287  26.614  1.00  0.00     0.049 A 
ATOM     67  H   UNL A   1      45.437  27.181  27.223  1.00  0.00     0.167 HD
ATOM     68  C   UNL A   1      47.857  28.664  27.002  1.00  0.00     0.074 A 
ATOM     69  C   UNL A   1      48.807  29.756  27.047  1.00  0.00     0.031 C 
ATOM     70  C   UNL A   1      48.175  27.391  26.655  1.00  0.00     0.037 A 
BRANCH  57  71
ATOM     71  C   UNL A   1      43.429  23.425  26.868  1.00  0.00     0.058 A 
ATOM     72  C   UNL A   1      43.140  22.598  27.965  1.00  0.00     0.135 A 
ATOM     73  C   UNL A   1      43.215  22.904  25.582  1.00  0.00     0.135 A 
ATOM     74  F   UNL A   1      43.350  23.036  29.217  1.00  0.00    -0.206 F 
ATOM     75  C   UNL A   1      42.679  21.297  27.793  1.00  0.00     0.059 A 
ATOM     76  C   UNL A   1      42.724  21.616  25.386  1.00  0.00     0.059 A 
ATOM     77  F   UNL A   1      43.483  23.647  24.497  1.00  0.00    -0.206 F 
ATOM     78  C   UNL A   1      42.472  20.816  26.499  1.00  0.00     0.060 A 
BRANCH  78  79
ATOM     79  S   UNL A   1      41.859  19.130  26.293  1.00  0.00     0.124 S 
ATOM     80  O   UNL A   1      41.911  18.632  27.664  1.00  0.00    -0.237 OA
ATOM     81  O   UNL A   1      40.524  19.350  25.749  1.00  0.00    -0.237 OA
ATOM     82  O   UNL A   1      42.818  18.529  25.372  1.00  0.00    -0.744 OA
ENDBRANCH  78  79
ENDBRANCH  57  71
BRANCH  58  83
ATOM     83  C   UNL A   1      46.290  32.936  28.246  1.00  0.00     0.058 A 
ATOM     84  C   UNL A   1      46.285  33.877  27.207  1.00  0.00     0.135 A 
ATOM     85  C   UNL A   1      46.730  33.361  29.510  1.00  0.00     0.135 A 
ATOM     86  F   UNL A   1      45.885  33.518  25.978  1.00  0.00    -0.206 F 
ATOM     87  C   UNL A   1      46.711  35.187  27.408  1.00  0.00     0.059 A 
ATOM     88  C   UNL A   1      47.133  34.672  29.743  1.00  0.00     0.059 A 
ATOM     89  F   UNL A   1      46.747  32.503  30.542  1.00  0.00    -0.206 F 
ATOM     90  C   UNL A   1      47.128  35.576  28.682  1.00  0.00     0.060 A 
BRANCH  90  91
ATOM     91  S   UNL A   1      47.629  37.291  28.943  1.00  0.00     0.124 S 
ATOM     92  O   UNL A   1      46.360  37.994  28.790  1.00  0.00    -0.237 OA
ATOM     93  O   UNL A   1      48.176  37.245  30.295  1.00  0.00    -0.237 OA
ATOM     94  O   UNL A   1      48.609  37.518  27.886  1.00  0.00    -0.744 OA
ENDBRANCH  90  91
ENDBRANCH  58  83
BRANCH  70  95
ATOM     95  C   UNL A   1      49.599  27.114  26.251  1.00  0.00     0.058 A 
ATOM     96  C   UNL A   1      50.022  27.193  24.916  1.00  0.00     0.135 A 
ATOM     97  C   UNL A   1      50.567  26.825  27.228  1.00  0.00     0.135 A 
ATOM     98  F   UNL A   1      49.138  27.462  23.942  1.00  0.00    -0.206 F 
ATOM     99  C   UNL A   1      51.348  26.969  24.559  1.00  0.00     0.059 A 
ATOM    100  C   UNL A   1      51.904  26.631  26.899  1.00  0.00     0.059 A 
ATOM    101  F   UNL A   1      50.220  26.751  28.524  1.00  0.00    -0.206 F 
ATOM    102  C   UNL A   1      52.283  26.694  25.559  1.00  0.00     0.060 A 
BRANCH 102 103
ATOM    103  S   UNL A   1      54.006  26.440  25.085  1.00  0.00     0.124 S 
ATOM    104  O   UNL A   1      53.917  25.213  24.299  1.00  0.00    -0.237 OA
ATOM    105  O   UNL A   1      54.303  27.655  24.333  1.00  0.00    -0.237 OA
ATOM    106  O   UNL A   1      54.697  26.316  26.364  1.00  0.00    -0.744 OA
ENDBRANCH 102 103
ENDBRANCH  70  95
ENDBRANCH  44  45
ENDBRANCH  37  39
ENDBRANCH  36  37
ENDBRANCH  35  36
ENDBRANCH  34  35
ENDBRANCH  33  34
ENDBRANCH  32  33
ENDBRANCH  31  32
ENDBRANCH  30  31
ENDBRANCH   1  30
TORSDOF 29
ENDMDL
MODEL 2
REMARK VINA RESULT:      -9.0      1.521      2.217
REMARK SMILES C[C@@](NC(=O)CCOC1CC[NH2+]CC1)(C(=O)OCCOCCOCCOCCOC(=O)c1ccc(-c2c3nc(c(-c4c(F)cc(S(=O)(=O)[O-])cc4F)c4ccc([nH]4)c(-c4c(F)cc(S(=O)(=O)[O-])cc4F)c4nc(c(-c5c(F)cc(S(=O)(=O)[O-])cc5F)c5ccc2[nH]5)C=C4)C=C3)cc1)C(F)(F)F
REMARK SMILES IDX 22 1 21 2 20 3 19 4 18 5 17 6 15 7 16 8 2 9 1 10 3 11 4 12
REMARK SMILES IDX 5 14 6 15 7 16 8 17 9 18 10 19 14 20 11 21 13 22 12 23 98 26
REMARK SMILES IDX 99 27 100 28 101 29 23 30 24 31 25 32 26 33 27 34 28 35
REMARK SMILES IDX 29 36 30 37 31 38 32 39 33 40 97 41 34 42 96 43 35 44 36 45
REMARK SMILES IDX 37 46 90 47 38 48 95 49 89 50 91 51 39 52 94 53 88 54 87 55
REMARK SMILES IDX 40 57 74 58 53 59 73 60 54 61 57 62 72 63 92 64 55 65 56 66
REMARK SMILES IDX 71 68 93 69 58 70 41 71 42 72 51 73 43 74 44 75 50 76 52 77
REMARK SMILES IDX 45 78 46 79 47 80 48 81 49 82 75 83 76 84 85 85 77 86 78 87
REMARK SMILES IDX 84 88 86 89 79 90 80 91 81 92 82 93 83 94 59 95 60 96 69 97
REMARK SMILES IDX 61 98 62 99 68 100 70 101 63 102 64 103 65 104 66 105 67 106
REMARK H PARENT 3 13 12 24 12 25 91 56 57 67
REMARK Flexibility Score: inf
ROOT
ATOM      1  C   UNL A   1      33.776  34.476  28.706  1.00  0.00     0.188 C 
ENDROOT
BRANCH   1   2
ATOM      2  C   UNL A   1      33.404  33.070  28.188  1.00  0.00     0.188 C 
BRANCH   2   3
ATOM      3  O   UNL A   1      34.476  32.268  27.720  1.00  0.00    -0.376 OA
BRANCH   3   4
ATOM      4  C   UNL A   1      34.294  30.904  27.374  1.00  0.00     0.202 C 
BRANCH   4   5
ATOM      5  C   UNL A   1      33.058  30.380  26.653  1.00  0.00     0.261 C 
BRANCH   5   6
ATOM      6  O   UNL A   1      33.152  29.043  26.151  1.00  0.00    -0.461 OA
BRANCH   6   7
ATOM      7  C   UNL A   1      32.030  28.307  26.006  1.00  0.00     0.341 C 
ATOM      8  O   UNL A   1      31.274  28.030  26.927  1.00  0.00    -0.249 OA
BRANCH   7   9
ATOM      9  C   UNL A   1      31.987  27.706  24.607  1.00  0.00     0.231 C 
ATOM     10  C   UNL A   1      33.337  27.459  23.907  1.00  0.00     0.058 C 
BRANCH   9  11
ATOM     11  N   UNL A   1      31.175  26.442  24.670  1.00  0.00    -0.333 N 
ATOM     12  C   UNL A   1      31.435  25.175  25.115  1.00  0.00     0.223 C 
ATOM     13  H   UNL A   1      30.263  26.548  24.315  1.00  0.00     0.164 HD
ATOM     14  O   UNL A   1      30.686  24.292  24.687  1.00  0.00    -0.275 OA
BRANCH  12  15
ATOM     15  C   UNL A   1      32.478  24.831  26.169  1.00  0.00     0.128 C 
BRANCH  15  16
ATOM     16  C   UNL A   1      33.981  25.023  25.905  1.00  0.00     0.170 C 
BRANCH  16  17
ATOM     17  O   UNL A   1      34.651  23.917  25.326  1.00  0.00    -0.377 OA
BRANCH  17  18
ATOM     18  C   UNL A   1      35.508  23.071  26.100  1.00  0.00     0.129 C 
ATOM     19  C   UNL A   1      36.981  23.100  25.719  1.00  0.00     0.093 C 
ATOM     20  C   UNL A   1      35.049  21.632  26.322  1.00  0.00     0.093 C 
ATOM     21  C   UNL A   1      37.335  22.146  24.590  1.00  0.00     0.263 C 
ATOM     22  C   UNL A   1      35.494  20.685  25.215  1.00  0.00     0.263 C 
ATOM     23  N   UNL A   1      36.925  20.787  24.914  1.00  0.00    -0.346 N 
ATOM     24  H   UNL A   1      37.453  20.473  25.729  1.00  0.00     0.346 HD
ATOM     25  H   UNL A   1      37.111  20.207  24.097  1.00  0.00     0.346 HD
ENDBRANCH  17  18
ENDBRANCH  16  17
ENDBRANCH  15  16
ENDBRANCH  12  15
ENDBRANCH   9  11
BRANCH   9  26
ATOM     26  C   UNL A   1      31.333  28.814  23.755  1.00  0.00     0.422 C 
ATOM     27  F   UNL A   1      30.637  29.694  24.517  1.00  0.00    -0.168 F 
ATOM     28  F   UNL A   1      32.297  29.542  23.124  1.00  0.00    -0.168 F 
ATOM     29  F   UNL A   1      30.512  28.359  22.791  1.00  0.00    -0.168 F 
ENDBRANCH   9  26
ENDBRANCH   7   9
ENDBRANCH   6   7
ENDBRANCH   5   6
ENDBRANCH   4   5
ENDBRANCH   3   4
ENDBRANCH   2   3
ENDBRANCH   1   2
BRANCH   1  30
ATOM     30  O   UNL A   1      32.796  35.058  29.551  1.00  0.00    -0.377 OA
BRANCH  30  31
ATOM     31  C   UNL A   1      33.130  35.105  30.934  1.00  0.00     0.188 C 
BRANCH  31  32
ATOM     32  C   UNL A   1      34.600  34.801  31.282  1.00  0.00     0.188 C 
BRANCH  32  33
ATOM     33  O   UNL A   1      34.753  33.761  32.235  1.00  0.00    -0.376 OA
BRANCH  33  34
ATOM     34  C   UNL A   1      34.714  32.397  31.873  1.00  0.00     0.202 C 
BRANCH  34  35
ATOM     35  C   UNL A   1      35.965  31.517  32.025  1.00  0.00     0.261 C 
BRANCH  35  36
ATOM     36  O   UNL A   1      37.226  32.113  31.705  1.00  0.00    -0.460 OA
BRANCH  36  37
ATOM     37  C   UNL A   1      37.510  32.315  30.404  1.00  0.00     0.338 C 
ATOM     38  O   UNL A   1      37.010  33.150  29.663  1.00  0.00    -0.246 OA
BRANCH  37  39
ATOM     39  C   UNL A   1      38.689  31.490  30.078  1.00  0.00     0.060 A 
ATOM     40  C   UNL A   1      39.745  31.413  30.997  1.00  0.00     0.016 A 
ATOM     41  C   UNL A   1      38.749  30.798  28.866  1.00  0.00     0.016 A 
ATOM     42  C   UNL A   1      40.889  30.685  30.683  1.00  0.00     0.010 A 
ATOM     43  C   UNL A   1      39.909  30.095  28.538  1.00  0.00     0.010 A 
ATOM     44  C   UNL A   1      40.998  30.077  29.428  1.00  0.00    -0.014 A 
BRANCH  44  45
ATOM     45  C   UNL A   1      42.331  29.650  28.948  1.00  0.00     0.031 A 
ATOM     46  C   UNL A   1      42.491  28.220  28.511  1.00  0.00     0.074 A 
ATOM     47  C   UNL A   1      43.356  30.515  28.869  1.00  0.00     0.049 A 
ATOM     48  N   UNL A   1      43.564  27.586  28.119  1.00  0.00    -0.248 NA
ATOM     49  C   UNL A   1      41.272  27.391  28.521  1.00  0.00     0.031 C 
ATOM     50  C   UNL A   1      43.293  31.936  29.206  1.00  0.00     0.029 A 
ATOM     51  N   UNL A   1      44.657  30.314  28.484  1.00  0.00    -0.354 N 
ATOM     52  C   UNL A   1      43.154  26.286  27.848  1.00  0.00     0.074 A 
ATOM     53  C   UNL A   1      41.742  26.211  28.149  1.00  0.00     0.031 C 
ATOM     54  C   UNL A   1      44.510  32.478  29.026  1.00  0.00     0.029 A 
ATOM     55  C   UNL A   1      45.443  31.435  28.602  1.00  0.00     0.049 A 
ATOM     56  H   UNL A   1      44.994  29.450  28.156  1.00  0.00     0.167 HD
ATOM     57  C   UNL A   1      43.889  25.250  27.383  1.00  0.00     0.037 A 
ATOM     58  C   UNL A   1      46.769  31.587  28.415  1.00  0.00     0.037 A 
ATOM     59  C   UNL A   1      45.295  25.340  27.089  1.00  0.00     0.049 A 
ATOM     60  C   UNL A   1      47.586  30.397  27.977  1.00  0.00     0.074 A 
ATOM     61  C   UNL A   1      46.137  24.354  26.609  1.00  0.00     0.029 A 
ATOM     62  N   UNL A   1      46.065  26.482  27.254  1.00  0.00    -0.354 N 
ATOM     63  N   UNL A   1      47.190  29.171  27.720  1.00  0.00    -0.248 NA
ATOM     64  C   UNL A   1      49.029  30.608  27.804  1.00  0.00     0.031 C 
ATOM     65  C   UNL A   1      47.429  24.883  26.541  1.00  0.00     0.029 A 
ATOM     66  C   UNL A   1      47.380  26.218  26.911  1.00  0.00     0.049 A 
ATOM     67  H   UNL A   1      45.726  27.351  27.568  1.00  0.00     0.167 HD
ATOM     68  C   UNL A   1      48.329  28.478  27.321  1.00  0.00     0.074 A 
ATOM     69  C   UNL A   1      49.426  29.422  27.363  1.00  0.00     0.031 C 
ATOM     70  C   UNL A   1      48.456  27.178  26.950  1.00  0.00     0.037 A 
BRANCH  57  71
ATOM     71  C   UNL A   1      43.196  23.926  27.200  1.00  0.00     0.058 A 
ATOM     72  C   UNL A   1      43.035  23.018  28.259  1.00  0.00     0.135 A 
ATOM     73  C   UNL A   1      42.661  23.576  25.950  1.00  0.00     0.135 A 
ATOM     74  F   UNL A   1      43.549  23.291  29.469  1.00  0.00    -0.206 F 
ATOM     75  C   UNL A   1      42.388  21.800  28.079  1.00  0.00     0.059 A 
ATOM     76  C   UNL A   1      41.981  22.377  25.756  1.00  0.00     0.059 A 
ATOM     77  F   UNL A   1      42.793  24.402  24.901  1.00  0.00    -0.206 F 
ATOM     78  C   UNL A   1      41.862  21.490  26.824  1.00  0.00     0.060 A 
BRANCH  78  79
ATOM     79  S   UNL A   1      41.012  19.911  26.611  1.00  0.00     0.124 S 
ATOM     80  O   UNL A   1      39.737  20.340  26.045  1.00  0.00    -0.237 OA
ATOM     81  O   UNL A   1      41.903  19.200  25.700  1.00  0.00    -0.237 OA
ATOM     82  O   UNL A   1      40.947  19.374  27.967  1.00  0.00    -0.744 OA
ENDBRANCH  78  79
ENDBRANCH  57  71
BRANCH  58  83
ATOM     83  C   UNL A   1      47.410  32.908  28.655  1.00  0.00     0.058 A 
ATOM     84  C   UNL A   1      47.864  33.274  29.930  1.00  0.00     0.135 A 
ATOM     85  C   UNL A   1      47.578  33.833  27.612  1.00  0.00     0.135 A 
ATOM     86  F   UNL A   1      47.716  32.430  30.963  1.00  0.00    -0.206 F 
ATOM     87  C   UNL A   1      48.451  34.514  30.167  1.00  0.00     0.059 A 
ATOM     88  C   UNL A   1      48.188  35.066  27.817  1.00  0.00     0.059 A 
ATOM     89  F   UNL A   1      47.169  33.530  26.370  1.00  0.00    -0.206 F 
ATOM     90  C   UNL A   1      48.613  35.401  29.102  1.00  0.00     0.060 A 
BRANCH  90  91
ATOM     91  S   UNL A   1      49.423  36.985  29.411  1.00  0.00     0.124 S 
ATOM     92  O   UNL A   1      48.339  37.925  29.152  1.00  0.00    -0.237 OA
ATOM     93  O   UNL A   1      49.833  36.849  30.806  1.00  0.00    -0.237 OA
ATOM     94  O   UNL A   1      50.516  36.997  28.443  1.00  0.00    -0.744 OA
ENDBRANCH  90  91
ENDBRANCH  58  83
BRANCH  70  95
ATOM     95  C   UNL A   1      49.818  26.708  26.515  1.00  0.00     0.058 A 
ATOM     96  C   UNL A   1      50.730  26.134  27.414  1.00  0.00     0.135 A 
ATOM     97  C   UNL A   1      50.191  26.781  25.161  1.00  0.00     0.135 A 
ATOM     98  F   UNL A   1      50.427  26.044  28.718  1.00  0.00    -0.206 F 
ATOM     99  C   UNL A   1      51.973  25.672  26.992  1.00  0.00     0.059 A 
ATOM    100  C   UNL A   1      51.414  26.294  24.712  1.00  0.00     0.059 A 
ATOM    101  F   UNL A   1      49.352  27.309  24.256  1.00  0.00    -0.206 F 
ATOM    102  C   UNL A   1      52.304  25.752  25.638  1.00  0.00     0.060 A 
BRANCH 102 103
ATOM    103  S   UNL A   1      53.906  25.117  25.101  1.00  0.00     0.124 S 
ATOM    104  O   UNL A   1      53.595  23.715  24.844  1.00  0.00    -0.237 OA
ATOM    105  O   UNL A   1      54.183  25.933  23.922  1.00  0.00    -0.237 OA
ATOM    106  O   UNL A   1      54.774  25.367  26.248  1.00  0.00    -0.744 OA
ENDBRANCH 102 103
ENDBRANCH  70  95
ENDBRANCH  44  45
ENDBRANCH  37  39
ENDBRANCH  36  37
ENDBRANCH  35  36
ENDBRANCH  34  35
ENDBRANCH  33  34
ENDBRANCH  32  33
ENDBRANCH  31  32
ENDBRANCH  30  31
ENDBRANCH   1  30
TORSDOF 29
ENDMDL
MODEL 3
REMARK VINA RESULT:      -7.6      3.362      4.216
REMARK SMILES C[C@@](NC(=O)CCOC1CC[NH2+]CC1)(C(=O)OCCOCCOCCOCCOC(=O)c1ccc(-c2c3nc(c(-c4c(F)cc(S(=O)(=O)[O-])cc4F)c4ccc([nH]4)c(-c4c(F)cc(S(=O)(=O)[O-])cc4F)c4nc(c(-c5c(F)cc(S(=O)(=O)[O-])cc5F)c5ccc2[nH]5)C=C4)C=C3)cc1)C(F)(F)F
REMARK SMILES IDX 22 1 21 2 20 3 19 4 18 5 17 6 15 7 16 8 2 9 1 10 3 11 4 12
REMARK SMILES IDX 5 14 6 15 7 16 8 17 9 18 10 19 14 20 11 21 13 22 12 23 98 26
REMARK SMILES IDX 99 27 100 28 101 29 23 30 24 31 25 32 26 33 27 34 28 35
REMARK SMILES IDX 29 36 30 37 31 38 32 39 33 40 97 41 34 42 96 43 35 44 36 45
REMARK SMILES IDX 37 46 90 47 38 48 95 49 89 50 91 51 39 52 94 53 88 54 87 55
REMARK SMILES IDX 40 57 74 58 53 59 73 60 54 61 57 62 72 63 92 64 55 65 56 66
REMARK SMILES IDX 71 68 93 69 58 70 41 71 42 72 51 73 43 74 44 75 50 76 52 77
REMARK SMILES IDX 45 78 46 79 47 80 48 81 49 82 75 83 76 84 85 85 77 86 78 87
REMARK SMILES IDX 84 88 86 89 79 90 80 91 81 92 82 93 83 94 59 95 60 96 69 97
REMARK SMILES IDX 61 98 62 99 68 100 70 101 63 102 64 103 65 104 66 105 67 106
REMARK H PARENT 3 13 12 24 12 25 91 56 57 67
REMARK Flexibility Score: inf
ROOT
ATOM      1  C   UNL A   1      33.899  34.945  28.691  1.00  0.00     0.188 C 
ENDROOT
BRANCH   1   2
ATOM      2  C   UNL A   1      33.691  33.436  28.434  1.00  0.00     0.188 C 
BRANCH   2   3
ATOM      3  O   UNL A   1      34.850  32.689  28.106  1.00  0.00    -0.376 OA
BRANCH   3   4
ATOM      4  C   UNL A   1      34.782  31.309  27.777  1.00  0.00     0.202 C 
BRANCH   4   5
ATOM      5  C   UNL A   1      33.609  30.683  27.033  1.00  0.00     0.261 C 
BRANCH   5   6
ATOM      6  O   UNL A   1      33.466  29.266  27.180  1.00  0.00    -0.461 OA
BRANCH   6   7
ATOM      7  C   UNL A   1      32.253  28.700  27.011  1.00  0.00     0.341 C 
ATOM      8  O   UNL A   1      31.253  29.037  27.628  1.00  0.00    -0.249 OA
BRANCH   7   9
ATOM      9  C   UNL A   1      32.381  27.464  26.130  1.00  0.00     0.231 C 
ATOM     10  C   UNL A   1      33.804  26.931  25.871  1.00  0.00     0.058 C 
BRANCH   9  11
ATOM     11  N   UNL A   1      31.500  26.390  26.705  1.00  0.00    -0.333 N 
ATOM     12  C   UNL A   1      30.993  25.222  26.208  1.00  0.00     0.223 C 
ATOM     13  H   UNL A   1      31.231  26.565  27.635  1.00  0.00     0.164 HD
ATOM     14  O   UNL A   1      30.016  24.763  26.808  1.00  0.00    -0.275 OA
BRANCH  12  15
ATOM     15  C   UNL A   1      31.624  24.422  25.077  1.00  0.00     0.128 C 
BRANCH  15  16
ATOM     16  C   UNL A   1      32.579  23.250  25.357  1.00  0.00     0.170 C 
BRANCH  16  17
ATOM     17  O   UNL A   1      33.947  23.589  25.496  1.00  0.00    -0.377 OA
BRANCH  17  18
ATOM     18  C   UNL A   1      34.960  22.583  25.616  1.00  0.00     0.129 C 
ATOM     19  C   UNL A   1      36.136  22.938  26.514  1.00  0.00     0.093 C 
ATOM     20  C   UNL A   1      35.458  21.941  24.324  1.00  0.00     0.093 C 
ATOM     21  C   UNL A   1      37.229  23.719  25.805  1.00  0.00     0.263 C 
ATOM     22  C   UNL A   1      36.611  22.703  23.683  1.00  0.00     0.263 C 
ATOM     23  N   UNL A   1      37.694  23.003  24.626  1.00  0.00    -0.346 N 
ATOM     24  H   UNL A   1      38.119  22.124  24.924  1.00  0.00     0.346 HD
ATOM     25  H   UNL A   1      38.364  23.602  24.146  1.00  0.00     0.346 HD
ENDBRANCH  17  18
ENDBRANCH  16  17
ENDBRANCH  15  16
ENDBRANCH  12  15
ENDBRANCH   9  11
BRANCH   9  26
ATOM     26  C   UNL A   1      31.921  27.958  24.742  1.00  0.00     0.422 C 
ATOM     27  F   UNL A   1      32.377  29.207  24.471  1.00  0.00    -0.168 F 
ATOM     28  F   UNL A   1      32.433  27.152  23.770  1.00  0.00    -0.168 F 
ATOM     29  F   UNL A   1      30.586  27.957  24.569  1.00  0.00    -0.168 F 
ENDBRANCH   9  26
ENDBRANCH   7   9
ENDBRANCH   6   7
ENDBRANCH   5   6
ENDBRANCH   4   5
ENDBRANCH   3   4
ENDBRANCH   2   3
ENDBRANCH   1   2
BRANCH   1  30
ATOM     30  O   UNL A   1      32.814  35.572  29.357  1.00  0.00    -0.377 OA
BRANCH  30  31
ATOM     31  C   UNL A   1      32.804  35.434  30.774  1.00  0.00     0.188 C 
BRANCH  31  32
ATOM     32  C   UNL A   1      34.163  35.125  31.429  1.00  0.00     0.188 C 
BRANCH  32  33
ATOM     33  O   UNL A   1      34.130  34.008  32.303  1.00  0.00    -0.376 OA
BRANCH  33  34
ATOM     34  C   UNL A   1      34.408  32.697  31.858  1.00  0.00     0.202 C 
BRANCH  34  35
ATOM     35  C   UNL A   1      35.710  31.995  32.274  1.00  0.00     0.261 C 
BRANCH  35  36
ATOM     36  O   UNL A   1      36.840  32.827  32.554  1.00  0.00    -0.460 OA
BRANCH  36  37
ATOM     37  C   UNL A   1      37.528  33.322  31.507  1.00  0.00     0.338 C 
ATOM     38  O   UNL A   1      37.321  34.377  30.924  1.00  0.00    -0.246 OA
BRANCH  37  39
ATOM     39  C   UNL A   1      38.715  32.466  31.317  1.00  0.00     0.060 A 
ATOM     40  C   UNL A   1      39.156  31.663  32.378  1.00  0.00     0.016 A 
ATOM     41  C   UNL A   1      39.389  32.461  30.094  1.00  0.00     0.016 A 
ATOM     42  C   UNL A   1      40.306  30.893  32.236  1.00  0.00     0.010 A 
ATOM     43  C   UNL A   1      40.560  31.713  29.963  1.00  0.00     0.010 A 
ATOM     44  C   UNL A   1      41.044  30.965  31.050  1.00  0.00    -0.014 A 
BRANCH  44  45
ATOM     45  C   UNL A   1      42.439  30.471  31.039  1.00  0.00     0.031 A 
ATOM     46  C   UNL A   1      42.698  29.124  30.422  1.00  0.00     0.074 A 
ATOM     47  C   UNL A   1      43.447  31.211  31.528  1.00  0.00     0.049 A 
ATOM     48  N   UNL A   1      43.810  28.443  30.350  1.00  0.00    -0.248 NA
ATOM     49  C   UNL A   1      41.540  28.453  29.804  1.00  0.00     0.031 C 
ATOM     50  C   UNL A   1      43.317  32.555  32.089  1.00  0.00     0.029 A 
ATOM     51  N   UNL A   1      44.784  30.927  31.635  1.00  0.00    -0.354 N 
ATOM     52  C   UNL A   1      43.486  27.262  29.692  1.00  0.00     0.074 A 
ATOM     53  C   UNL A   1      42.068  27.304  29.413  1.00  0.00     0.031 C 
ATOM     54  C   UNL A   1      44.528  32.974  32.496  1.00  0.00     0.029 A 
ATOM     55  C   UNL A   1      45.507  31.914  32.261  1.00  0.00     0.049 A 
ATOM     56  H   UNL A   1      45.188  30.096  31.295  1.00  0.00     0.167 HD
ATOM     57  C   UNL A   1      44.300  26.239  29.347  1.00  0.00     0.037 A 
ATOM     58  C   UNL A   1      46.804  31.939  32.626  1.00  0.00     0.037 A 
ATOM     59  C   UNL A   1      45.711  26.212  29.633  1.00  0.00     0.049 A 
ATOM     60  C   UNL A   1      47.676  30.751  32.306  1.00  0.00     0.074 A 
ATOM     61  C   UNL A   1      46.631  25.228  29.324  1.00  0.00     0.029 A 
ATOM     62  N   UNL A   1      46.401  27.213  30.300  1.00  0.00    -0.354 N 
ATOM     63  N   UNL A   1      47.363  29.639  31.680  1.00  0.00    -0.248 NA
ATOM     64  C   UNL A   1      49.078  30.819  32.739  1.00  0.00     0.031 C 
ATOM     65  C   UNL A   1      47.866  25.607  29.858  1.00  0.00     0.029 A 
ATOM     66  C   UNL A   1      47.731  26.859  30.438  1.00  0.00     0.049 A 
ATOM     67  H   UNL A   1      46.003  28.052  30.627  1.00  0.00     0.167 HD
ATOM     68  C   UNL A   1      48.536  28.894  31.615  1.00  0.00     0.074 A 
ATOM     69  C   UNL A   1      49.566  29.684  32.257  1.00  0.00     0.031 C 
ATOM     70  C   UNL A   1      48.744  27.667  31.072  1.00  0.00     0.037 A 
BRANCH  57  71
ATOM     71  C   UNL A   1      43.681  25.054  28.657  1.00  0.00     0.058 A 
ATOM     72  C   UNL A   1      43.327  23.888  29.354  1.00  0.00     0.135 A 
ATOM     73  C   UNL A   1      43.412  25.099  27.279  1.00  0.00     0.135 A 
ATOM     74  F   UNL A   1      43.584  23.780  30.667  1.00  0.00    -0.206 F 
ATOM     75  C   UNL A   1      42.750  22.800  28.706  1.00  0.00     0.059 A 
ATOM     76  C   UNL A   1      42.806  24.036  26.616  1.00  0.00     0.059 A 
ATOM     77  F   UNL A   1      43.738  26.186  26.561  1.00  0.00    -0.206 F 
ATOM     78  C   UNL A   1      42.491  22.886  27.337  1.00  0.00     0.060 A 
BRANCH  78  79
ATOM     79  S   UNL A   1      41.728  21.471  26.514  1.00  0.00     0.124 S 
ATOM     80  O   UNL A   1      40.423  22.014  26.150  1.00  0.00    -0.237 OA
ATOM     81  O   UNL A   1      42.644  21.227  25.405  1.00  0.00    -0.237 OA
ATOM     82  O   UNL A   1      41.712  20.442  27.549  1.00  0.00    -0.744 OA
ENDBRANCH  78  79
ENDBRANCH  57  71
BRANCH  58  83
ATOM     83  C   UNL A   1      47.353  33.119  33.348  1.00  0.00     0.058 A 
ATOM     84  C   UNL A   1      47.311  33.198  34.747  1.00  0.00     0.135 A 
ATOM     85  C   UNL A   1      47.930  34.192  32.650  1.00  0.00     0.135 A 
ATOM     86  F   UNL A   1      46.760  32.204  35.460  1.00  0.00    -0.206 F 
ATOM     87  C   UNL A   1      47.808  34.305  35.430  1.00  0.00     0.059 A 
ATOM     88  C   UNL A   1      48.460  35.296  33.311  1.00  0.00     0.059 A 
ATOM     89  F   UNL A   1      48.004  34.163  31.310  1.00  0.00    -0.206 F 
ATOM     90  C   UNL A   1      48.386  35.346  34.702  1.00  0.00     0.060 A 
BRANCH  90  91
ATOM     91  S   UNL A   1      49.075  36.752  35.602  1.00  0.00     0.124 S 
ATOM     92  O   UNL A   1      48.311  37.862  35.043  1.00  0.00    -0.237 OA
ATOM     93  O   UNL A   1      48.776  36.402  36.987  1.00  0.00    -0.237 OA
ATOM     94  O   UNL A   1      50.490  36.716  35.246  1.00  0.00    -0.744 OA
ENDBRANCH  90  91
ENDBRANCH  58  83
BRANCH  70  95
ATOM     95  C   UNL A   1      50.147  27.121  31.103  1.00  0.00     0.058 A 
ATOM     96  C   UNL A   1      51.007  27.215  29.999  1.00  0.00     0.135 A 
ATOM     97  C   UNL A   1      50.655  26.546  32.281  1.00  0.00     0.135 A 
ATOM     98  F   UNL A   1      50.571  27.750  28.847  1.00  0.00    -0.206 F 
ATOM     99  C   UNL A   1      52.313  26.737  30.051  1.00  0.00     0.059 A 
ATOM    100  C   UNL A   1      51.967  26.093  32.367  1.00  0.00     0.059 A 
ATOM    101  F   UNL A   1      49.880  26.443  33.373  1.00  0.00    -0.206 F 
ATOM    102  C   UNL A   1      52.784  26.182  31.242  1.00  0.00     0.060 A 
BRANCH 102 103
ATOM    103  S   UNL A   1      54.491  25.598  31.306  1.00  0.00     0.124 S 
ATOM    104  O   UNL A   1      54.892  25.708  29.907  1.00  0.00    -0.237 OA
ATOM    105  O   UNL A   1      55.111  26.550  32.222  1.00  0.00    -0.237 OA
ATOM    106  O   UNL A   1      54.367  24.235  31.816  1.00  0.00    -0.744 OA
ENDBRANCH 102 103
ENDBRANCH  70  95
ENDBRANCH  44  45
ENDBRANCH  37  39
ENDBRANCH  36  37
ENDBRANCH  35  36
ENDBRANCH  34  35
ENDBRANCH  33  34
ENDBRANCH  32  33
ENDBRANCH  31  32
ENDBRANCH  30  31
ENDBRANCH   1  30
TORSDOF 29
ENDMDL
