MODEL 1
REMARK VINA RESULT:     -10.0      0.000      0.000
REMARK SMILES C[C@@H]1SCCC[C@H]1Nc1cccc(C(=O)OCCOCCOCCOCCOC(=O)c2ccc(-c3c4nc(c(-c5c(F)cc(S(=O)(=O)[O-])cc5F)c5ccc([nH]5)c(-c5c(F)cc(S(=O)(=O)[O-])cc5F)c5nc(c(-c6c(F)cc(S(=O)(=O)[O-])cc6F)c6ccc3[nH]6)C=C5)C=C4)cc2)c1
REMARK SMILES IDX 23 1 22 2 21 3 20 4 19 5 18 6 17 7 16 8 14 9 15 10 13 11
REMARK SMILES IDX 9 12 10 13 97 14 11 15 12 16 8 17 7 19 1 20 2 21 3 22 4 23
REMARK SMILES IDX 6 24 5 25 24 26 25 27 26 28 27 29 28 30 29 31 30 32 31 33
REMARK SMILES IDX 32 34 96 35 33 36 95 37 34 38 35 39 36 40 89 41 37 42 94 43
REMARK SMILES IDX 88 44 90 45 38 46 93 47 87 48 86 49 39 51 73 52 52 53 72 54
REMARK SMILES IDX 53 55 56 56 71 57 91 58 54 59 55 60 70 62 92 63 57 64 40 65
REMARK SMILES IDX 41 66 50 67 42 68 43 69 49 70 51 71 44 72 45 73 46 74 47 75
REMARK SMILES IDX 48 76 74 77 75 78 84 79 76 80 77 81 83 82 85 83 78 84 79 85
REMARK SMILES IDX 80 86 81 87 82 88 58 89 59 90 68 91 60 92 61 93 67 94 69 95
REMARK SMILES IDX 62 96 63 97 64 98 65 99 66 100
REMARK H PARENT 8 18 90 50 56 61
REMARK Flexibility Score: inf
ROOT
ATOM      1  C   UNL A   1      34.738  30.139  27.525  1.00  0.00     0.188 C 
ENDROOT
BRANCH   1   2
ATOM      2  O   UNL A   1      33.477  29.672  27.057  1.00  0.00    -0.377 OA
BRANCH   2   3
ATOM      3  C   UNL A   1      33.059  28.347  27.342  1.00  0.00     0.188 C 
BRANCH   3   4
ATOM      4  C   UNL A   1      31.549  28.037  27.372  1.00  0.00     0.188 C 
BRANCH   4   5
ATOM      5  O   UNL A   1      31.225  26.697  27.035  1.00  0.00    -0.376 OA
BRANCH   5   6
ATOM      6  C   UNL A   1      30.738  26.421  25.734  1.00  0.00     0.202 C 
BRANCH   6   7
ATOM      7  C   UNL A   1      31.314  25.215  24.980  1.00  0.00     0.261 C 
BRANCH   7   8
ATOM      8  O   UNL A   1      31.048  23.936  25.566  1.00  0.00    -0.460 OA
BRANCH   8   9
ATOM      9  C   UNL A   1      31.895  23.478  26.513  1.00  0.00     0.338 C 
ATOM     10  O   UNL A   1      31.729  23.502  27.720  1.00  0.00    -0.246 OA
BRANCH   9  11
ATOM     11  C   UNL A   1      32.963  22.722  25.813  1.00  0.00     0.062 A 
ATOM     12  C   UNL A   1      34.097  20.610  25.368  1.00  0.00     0.035 A 
ATOM     13  C   UNL A   1      35.108  21.334  24.722  1.00  0.00     0.026 A 
ATOM     14  C   UNL A   1      33.043  21.330  25.936  1.00  0.00     0.041 A 
ATOM     15  C   UNL A   1      35.043  22.727  24.600  1.00  0.00     0.003 A 
ATOM     16  C   UNL A   1      33.957  23.423  25.128  1.00  0.00     0.016 A 
BRANCH  12  17
ATOM     17  N   UNL A   1      34.153  19.230  25.392  1.00  0.00    -0.381 N 
ATOM     18  H   UNL A   1      34.569  18.788  26.166  1.00  0.00     0.160 HD
BRANCH  17  19
ATOM     19  C   UNL A   1      33.614  18.394  24.310  1.00  0.00     0.092 C 
ATOM     20  C   UNL A   1      34.329  16.639  22.604  1.00  0.00     0.021 C 
ATOM     21  C   UNL A   1      34.653  17.310  23.938  1.00  0.00     0.066 C 
ATOM     22  S   UNL A   1      34.871  16.059  25.264  1.00  0.00    -0.157 SA
ATOM     23  C   UNL A   1      33.132  15.603  25.526  1.00  0.00     0.070 C 
ATOM     24  C   UNL A   1      32.238  17.850  24.713  1.00  0.00     0.027 C 
ATOM     25  C   UNL A   1      32.264  16.814  25.835  1.00  0.00     0.013 C 
ENDBRANCH  17  19
ENDBRANCH  12  17
ENDBRANCH   9  11
ENDBRANCH   8   9
ENDBRANCH   7   8
ENDBRANCH   6   7
ENDBRANCH   5   6
ENDBRANCH   4   5
ENDBRANCH   3   4
ENDBRANCH   2   3
ENDBRANCH   1   2
BRANCH   1  26
ATOM     26  C   UNL A   1      35.002  31.636  27.822  1.00  0.00     0.188 C 
BRANCH  26  27
ATOM     27  O   UNL A   1      34.140  32.215  28.789  1.00  0.00    -0.376 OA
BRANCH  27  28
ATOM     28  C   UNL A   1      34.712  33.121  29.716  1.00  0.00     0.202 C 
BRANCH  28  29
ATOM     29  C   UNL A   1      35.241  32.519  31.022  1.00  0.00     0.261 C 
BRANCH  29  30
ATOM     30  O   UNL A   1      36.578  32.003  30.984  1.00  0.00    -0.460 OA
BRANCH  30  31
ATOM     31  C   UNL A   1      36.734  30.661  30.986  1.00  0.00     0.338 C 
ATOM     32  O   UNL A   1      35.878  29.817  31.184  1.00  0.00    -0.246 OA
BRANCH  31  33
ATOM     33  C   UNL A   1      38.112  30.393  30.529  1.00  0.00     0.060 A 
ATOM     34  C   UNL A   1      38.401  30.365  29.156  1.00  0.00     0.016 A 
ATOM     35  C   UNL A   1      39.122  30.209  31.474  1.00  0.00     0.016 A 
ATOM     36  C   UNL A   1      39.710  30.134  28.727  1.00  0.00     0.010 A 
ATOM     37  C   UNL A   1      40.422  29.955  31.043  1.00  0.00     0.010 A 
ATOM     38  C   UNL A   1      40.718  29.890  29.669  1.00  0.00    -0.014 A 
BRANCH  38  39
ATOM     39  C   UNL A   1      42.036  29.353  29.256  1.00  0.00     0.031 A 
ATOM     40  C   UNL A   1      43.179  30.324  29.147  1.00  0.00     0.074 A 
ATOM     41  C   UNL A   1      42.203  28.061  28.928  1.00  0.00     0.049 A 
ATOM     42  N   UNL A   1      44.369  30.153  28.638  1.00  0.00    -0.248 NA
ATOM     43  C   UNL A   1      42.933  31.679  29.671  1.00  0.00     0.031 C 
ATOM     44  C   UNL A   1      41.183  27.020  29.036  1.00  0.00     0.029 A 
ATOM     45  N   UNL A   1      43.294  27.410  28.406  1.00  0.00    -0.354 N 
ATOM     46  C   UNL A   1      45.008  31.382  28.761  1.00  0.00     0.074 A 
ATOM     47  C   UNL A   1      44.068  32.294  29.372  1.00  0.00     0.031 C 
ATOM     48  C   UNL A   1      41.687  25.865  28.566  1.00  0.00     0.029 A 
ATOM     49  C   UNL A   1      43.049  26.097  28.082  1.00  0.00     0.049 A 
ATOM     50  H   UNL A   1      44.169  27.844  28.277  1.00  0.00     0.167 HD
ATOM     51  C   UNL A   1      46.267  31.716  28.395  1.00  0.00     0.037 A 
ATOM     52  C   UNL A   1      43.821  25.202  27.431  1.00  0.00     0.037 A 
ATOM     53  C   UNL A   1      47.191  30.800  27.783  1.00  0.00     0.049 A 
ATOM     54  C   UNL A   1      45.195  25.617  26.963  1.00  0.00     0.074 A 
ATOM     55  C   UNL A   1      48.496  31.033  27.388  1.00  0.00     0.029 A 
ATOM     56  N   UNL A   1      46.905  29.479  27.470  1.00  0.00    -0.354 N 
ATOM     57  N   UNL A   1      45.799  26.776  27.097  1.00  0.00    -0.248 NA
ATOM     58  C   UNL A   1      45.994  24.608  26.252  1.00  0.00     0.031 C 
ATOM     59  C   UNL A   1      48.980  29.869  26.783  1.00  0.00     0.029 A 
ATOM     60  C   UNL A   1      48.001  28.890  26.863  1.00  0.00     0.049 A 
ATOM     61  H   UNL A   1      46.050  29.027  27.652  1.00  0.00     0.167 HD
ATOM     62  C   UNL A   1      47.058  26.620  26.523  1.00  0.00     0.074 A 
ATOM     63  C   UNL A   1      47.130  25.258  26.040  1.00  0.00     0.031 C 
ATOM     64  C   UNL A   1      48.065  27.522  26.411  1.00  0.00     0.037 A 
BRANCH  51  65
ATOM     65  C   UNL A   1      46.703  33.137  28.615  1.00  0.00     0.058 A 
ATOM     66  C   UNL A   1      46.616  34.105  27.602  1.00  0.00     0.135 A 
ATOM     67  C   UNL A   1      47.186  33.545  29.869  1.00  0.00     0.135 A 
ATOM     68  F   UNL A   1      46.182  33.766  26.377  1.00  0.00    -0.206 F 
ATOM     69  C   UNL A   1      47.015  35.420  27.817  1.00  0.00     0.059 A 
ATOM     70  C   UNL A   1      47.561  34.861  30.117  1.00  0.00     0.059 A 
ATOM     71  F   UNL A   1      47.296  32.657  30.871  1.00  0.00    -0.206 F 
ATOM     72  C   UNL A   1      47.483  35.789  29.079  1.00  0.00     0.060 A 
BRANCH  72  73
ATOM     73  S   UNL A   1      47.983  37.502  29.345  1.00  0.00     0.124 S 
ATOM     74  O   UNL A   1      48.796  37.385  30.552  1.00  0.00    -0.237 OA
ATOM     75  O   UNL A   1      48.712  37.807  28.118  1.00  0.00    -0.237 OA
ATOM     76  O   UNL A   1      46.716  38.206  29.510  1.00  0.00    -0.744 OA
ENDBRANCH  72  73
ENDBRANCH  51  65
BRANCH  52  77
ATOM     77  C   UNL A   1      43.308  23.831  27.157  1.00  0.00     0.058 A 
ATOM     78  C   UNL A   1      43.383  22.823  28.130  1.00  0.00     0.135 A 
ATOM     79  C   UNL A   1      42.742  23.498  25.917  1.00  0.00     0.135 A 
ATOM     80  F   UNL A   1      43.929  23.085  29.327  1.00  0.00    -0.206 F 
ATOM     81  C   UNL A   1      42.928  21.531  27.880  1.00  0.00     0.059 A 
ATOM     82  C   UNL A   1      42.255  22.221  25.652  1.00  0.00     0.059 A 
ATOM     83  F   UNL A   1      42.640  24.426  24.952  1.00  0.00    -0.206 F 
ATOM     84  C   UNL A   1      42.362  21.242  26.637  1.00  0.00     0.060 A 
BRANCH  84  85
ATOM     85  S   UNL A   1      41.730  19.576  26.339  1.00  0.00     0.124 S 
ATOM     86  O   UNL A   1      42.075  18.903  27.586  1.00  0.00    -0.237 OA
ATOM     87  O   UNL A   1      40.309  19.825  26.119  1.00  0.00    -0.237 OA
ATOM     88  O   UNL A   1      42.472  19.142  25.159  1.00  0.00    -0.744 OA
ENDBRANCH  84  85
ENDBRANCH  52  77
BRANCH  64  89
ATOM     89  C   UNL A   1      49.361  27.064  25.799  1.00  0.00     0.058 A 
ATOM     90  C   UNL A   1      49.636  27.224  24.433  1.00  0.00     0.135 A 
ATOM     91  C   UNL A   1      50.383  26.552  26.617  1.00  0.00     0.135 A 
ATOM     92  F   UNL A   1      48.694  27.702  23.604  1.00  0.00    -0.206 F 
ATOM     93  C   UNL A   1      50.876  26.887  23.898  1.00  0.00     0.059 A 
ATOM     94  C   UNL A   1      51.638  26.237  26.110  1.00  0.00     0.059 A 
ATOM     95  F   UNL A   1      50.174  26.390  27.934  1.00  0.00    -0.206 F 
ATOM     96  C   UNL A   1      51.875  26.404  24.747  1.00  0.00     0.060 A 
BRANCH  96  97
ATOM     97  S   UNL A   1      53.500  26.039  24.052  1.00  0.00     0.124 S 
ATOM     98  O   UNL A   1      54.296  27.149  24.563  1.00  0.00    -0.237 OA
ATOM     99  O   UNL A   1      53.795  24.730  24.625  1.00  0.00    -0.237 OA
ATOM    100  O   UNL A   1      53.265  26.046  22.611  1.00  0.00    -0.744 OA
ENDBRANCH  96  97
ENDBRANCH  64  89
ENDBRANCH  38  39
ENDBRANCH  31  33
ENDBRANCH  30  31
ENDBRANCH  29  30
ENDBRANCH  28  29
ENDBRANCH  27  28
ENDBRANCH  26  27
ENDBRANCH   1  26
TORSDOF 25
ENDMDL
MODEL 2
REMARK VINA RESULT:      -9.9      6.374     12.128
REMARK SMILES C[C@@H]1SCCC[C@H]1Nc1cccc(C(=O)OCCOCCOCCOCCOC(=O)c2ccc(-c3c4nc(c(-c5c(F)cc(S(=O)(=O)[O-])cc5F)c5ccc([nH]5)c(-c5c(F)cc(S(=O)(=O)[O-])cc5F)c5nc(c(-c6c(F)cc(S(=O)(=O)[O-])cc6F)c6ccc3[nH]6)C=C5)C=C4)cc2)c1
REMARK SMILES IDX 23 1 22 2 21 3 20 4 19 5 18 6 17 7 16 8 14 9 15 10 13 11
REMARK SMILES IDX 9 12 10 13 97 14 11 15 12 16 8 17 7 19 1 20 2 21 3 22 4 23
REMARK SMILES IDX 6 24 5 25 24 26 25 27 26 28 27 29 28 30 29 31 30 32 31 33
REMARK SMILES IDX 32 34 96 35 33 36 95 37 34 38 35 39 36 40 89 41 37 42 94 43
REMARK SMILES IDX 88 44 90 45 38 46 93 47 87 48 86 49 39 51 73 52 52 53 72 54
REMARK SMILES IDX 53 55 56 56 71 57 91 58 54 59 55 60 70 62 92 63 57 64 40 65
REMARK SMILES IDX 41 66 50 67 42 68 43 69 49 70 51 71 44 72 45 73 46 74 47 75
REMARK SMILES IDX 48 76 74 77 75 78 84 79 76 80 77 81 83 82 85 83 78 84 79 85
REMARK SMILES IDX 80 86 81 87 82 88 58 89 59 90 68 91 60 92 61 93 67 94 69 95
REMARK SMILES IDX 62 96 63 97 64 98 65 99 66 100
REMARK H PARENT 8 18 90 50 56 61
REMARK Flexibility Score: inf
ROOT
ATOM      1  C   UNL A   1      42.211  21.299  26.518  1.00  0.00     0.188 C 
ENDROOT
BRANCH   1   2
ATOM      2  O   UNL A   1      41.493  22.354  27.149  1.00  0.00    -0.377 OA
BRANCH   2   3
ATOM      3  C   UNL A   1      40.075  22.331  27.180  1.00  0.00     0.188 C 
BRANCH   3   4
ATOM      4  C   UNL A   1      39.325  21.519  26.104  1.00  0.00     0.188 C 
BRANCH   4   5
ATOM      5  O   UNL A   1      37.973  21.910  25.920  1.00  0.00    -0.376 OA
BRANCH   5   6
ATOM      6  C   UNL A   1      37.376  21.718  24.651  1.00  0.00     0.202 C 
BRANCH   6   7
ATOM      7  C   UNL A   1      35.988  21.066  24.589  1.00  0.00     0.261 C 
BRANCH   7   8
ATOM      8  O   UNL A   1      34.880  21.958  24.748  1.00  0.00    -0.460 OA
BRANCH   8   9
ATOM      9  C   UNL A   1      33.634  21.470  24.558  1.00  0.00     0.338 C 
ATOM     10  O   UNL A   1      33.334  20.349  24.188  1.00  0.00    -0.246 OA
BRANCH   9  11
ATOM     11  C   UNL A   1      32.687  22.470  25.111  1.00  0.00     0.062 A 
ATOM     12  C   UNL A   1      31.864  24.763  25.193  1.00  0.00     0.035 A 
ATOM     13  C   UNL A   1      31.104  24.409  26.315  1.00  0.00     0.026 A 
ATOM     14  C   UNL A   1      32.676  23.781  24.620  1.00  0.00     0.041 A 
ATOM     15  C   UNL A   1      31.114  23.103  26.819  1.00  0.00     0.003 A 
ATOM     16  C   UNL A   1      31.890  22.123  26.203  1.00  0.00     0.016 A 
BRANCH  12  17
ATOM     17  N   UNL A   1      31.760  26.039  24.672  1.00  0.00    -0.381 N 
ATOM     18  H   UNL A   1      30.876  26.361  24.386  1.00  0.00     0.160 HD
BRANCH  17  19
ATOM     19  C   UNL A   1      32.915  26.935  24.530  1.00  0.00     0.092 C 
ATOM     20  C   UNL A   1      33.710  28.966  23.210  1.00  0.00     0.021 C 
ATOM     21  C   UNL A   1      32.500  28.174  23.702  1.00  0.00     0.066 C 
ATOM     22  S   UNL A   1      31.327  29.263  24.602  1.00  0.00    -0.157 SA
ATOM     23  C   UNL A   1      32.252  29.471  26.152  1.00  0.00     0.070 C 
ATOM     24  C   UNL A   1      33.495  27.256  25.914  1.00  0.00     0.027 C 
ATOM     25  C   UNL A   1      32.605  28.136  26.790  1.00  0.00     0.013 C 
ENDBRANCH  17  19
ENDBRANCH  12  17
ENDBRANCH   9  11
ENDBRANCH   8   9
ENDBRANCH   7   8
ENDBRANCH   6   7
ENDBRANCH   5   6
ENDBRANCH   4   5
ENDBRANCH   3   4
ENDBRANCH   2   3
ENDBRANCH   1   2
BRANCH   1  26
ATOM     26  C   UNL A   1      43.543  21.544  25.767  1.00  0.00     0.188 C 
BRANCH  26  27
ATOM     27  O   UNL A   1      43.425  22.292  24.567  1.00  0.00    -0.376 OA
BRANCH  27  28
ATOM     28  C   UNL A   1      44.087  23.543  24.508  1.00  0.00     0.202 C 
BRANCH  28  29
ATOM     29  C   UNL A   1      43.831  24.507  25.671  1.00  0.00     0.261 C 
BRANCH  29  30
ATOM     30  O   UNL A   1      42.516  25.073  25.745  1.00  0.00    -0.460 OA
BRANCH  30  31
ATOM     31  C   UNL A   1      42.404  26.416  25.658  1.00  0.00     0.338 C 
ATOM     32  O   UNL A   1      42.312  27.087  24.645  1.00  0.00    -0.246 OA
BRANCH  31  33
ATOM     33  C   UNL A   1      42.236  26.918  27.036  1.00  0.00     0.060 A 
ATOM     34  C   UNL A   1      41.364  26.263  27.919  1.00  0.00     0.016 A 
ATOM     35  C   UNL A   1      42.980  28.020  27.458  1.00  0.00     0.016 A 
ATOM     36  C   UNL A   1      41.225  26.726  29.229  1.00  0.00     0.010 A 
ATOM     37  C   UNL A   1      42.821  28.495  28.758  1.00  0.00     0.010 A 
ATOM     38  C   UNL A   1      41.924  27.867  29.641  1.00  0.00    -0.014 A 
BRANCH  38  39
ATOM     39  C   UNL A   1      41.583  28.556  30.908  1.00  0.00     0.031 A 
ATOM     40  C   UNL A   1      40.422  29.511  30.890  1.00  0.00     0.074 A 
ATOM     41  C   UNL A   1      42.316  28.390  32.023  1.00  0.00     0.049 A 
ATOM     42  N   UNL A   1      40.035  30.366  31.798  1.00  0.00    -0.248 NA
ATOM     43  C   UNL A   1      39.597  29.508  29.669  1.00  0.00     0.031 C 
ATOM     44  C   UNL A   1      43.433  27.461  32.173  1.00  0.00     0.029 A 
ATOM     45  N   UNL A   1      42.241  29.026  33.238  1.00  0.00    -0.354 N 
ATOM     46  C   UNL A   1      38.935  31.017  31.252  1.00  0.00     0.074 A 
ATOM     47  C   UNL A   1      38.729  30.475  29.928  1.00  0.00     0.031 C 
ATOM     48  C   UNL A   1      43.960  27.608  33.402  1.00  0.00     0.029 A 
ATOM     49  C   UNL A   1      43.246  28.674  34.106  1.00  0.00     0.049 A 
ATOM     50  H   UNL A   1      41.533  29.673  33.464  1.00  0.00     0.167 HD
ATOM     51  C   UNL A   1      38.167  31.982  31.808  1.00  0.00     0.037 A 
ATOM     52  C   UNL A   1      43.574  29.184  35.312  1.00  0.00     0.037 A 
ATOM     53  C   UNL A   1      38.385  32.517  33.125  1.00  0.00     0.049 A 
ATOM     54  C   UNL A   1      42.750  30.313  35.883  1.00  0.00     0.074 A 
ATOM     55  C   UNL A   1      37.655  33.486  33.790  1.00  0.00     0.029 A 
ATOM     56  N   UNL A   1      39.414  32.135  33.974  1.00  0.00    -0.354 N 
ATOM     57  N   UNL A   1      41.701  30.914  35.369  1.00  0.00    -0.248 NA
ATOM     58  C   UNL A   1      43.153  30.839  37.195  1.00  0.00     0.031 C 
ATOM     59  C   UNL A   1      38.277  33.731  35.018  1.00  0.00     0.029 A 
ATOM     60  C   UNL A   1      39.355  32.867  35.147  1.00  0.00     0.049 A 
ATOM     61  H   UNL A   1      40.087  31.446  33.772  1.00  0.00     0.167 HD
ATOM     62  C   UNL A   1      41.300  31.857  36.310  1.00  0.00     0.074 A 
ATOM     63  C   UNL A   1      42.216  31.749  37.425  1.00  0.00     0.031 C 
ATOM     64  C   UNL A   1      40.262  32.729  36.259  1.00  0.00     0.037 A 
BRANCH  51  65
ATOM     65  C   UNL A   1      37.044  32.544  30.981  1.00  0.00     0.058 A 
ATOM     66  C   UNL A   1      35.736  32.042  31.069  1.00  0.00     0.135 A 
ATOM     67  C   UNL A   1      37.275  33.621  30.111  1.00  0.00     0.135 A 
ATOM     68  F   UNL A   1      35.463  30.998  31.869  1.00  0.00    -0.206 F 
ATOM     69  C   UNL A   1      34.702  32.574  30.306  1.00  0.00     0.059 A 
ATOM     70  C   UNL A   1      36.250  34.189  29.361  1.00  0.00     0.059 A 
ATOM     71  F   UNL A   1      38.509  34.135  29.984  1.00  0.00    -0.206 F 
ATOM     72  C   UNL A   1      34.968  33.649  29.457  1.00  0.00     0.060 A 
BRANCH  72  73
ATOM     73  S   UNL A   1      33.612  34.335  28.485  1.00  0.00     0.124 S 
ATOM     74  O   UNL A   1      32.711  34.805  29.533  1.00  0.00    -0.237 OA
ATOM     75  O   UNL A   1      34.280  35.376  27.711  1.00  0.00    -0.237 OA
ATOM     76  O   UNL A   1      33.133  33.193  27.714  1.00  0.00    -0.744 OA
ENDBRANCH  72  73
ENDBRANCH  51  65
BRANCH  52  77
ATOM     77  C   UNL A   1      44.751  28.654  36.053  1.00  0.00     0.058 A 
ATOM     78  C   UNL A   1      44.614  27.607  36.977  1.00  0.00     0.135 A 
ATOM     79  C   UNL A   1      46.035  29.187  35.861  1.00  0.00     0.135 A 
ATOM     80  F   UNL A   1      43.405  27.072  37.210  1.00  0.00    -0.206 F 
ATOM     81  C   UNL A   1      45.702  27.117  37.693  1.00  0.00     0.059 A 
ATOM     82  C   UNL A   1      47.144  28.697  36.544  1.00  0.00     0.059 A 
ATOM     83  F   UNL A   1      46.225  30.186  34.984  1.00  0.00    -0.206 F 
ATOM     84  C   UNL A   1      46.965  27.667  37.466  1.00  0.00     0.060 A 
BRANCH  84  85
ATOM     85  S   UNL A   1      48.379  26.991  38.364  1.00  0.00     0.124 S 
ATOM     86  O   UNL A   1      48.013  27.276  39.747  1.00  0.00    -0.237 OA
ATOM     87  O   UNL A   1      48.346  25.586  37.971  1.00  0.00    -0.237 OA
ATOM     88  O   UNL A   1      49.507  27.755  37.838  1.00  0.00    -0.744 OA
ENDBRANCH  84  85
ENDBRANCH  52  77
BRANCH  64  89
ATOM     89  C   UNL A   1      40.010  33.602  37.459  1.00  0.00     0.058 A 
ATOM     90  C   UNL A   1      40.620  34.856  37.607  1.00  0.00     0.135 A 
ATOM     91  C   UNL A   1      39.062  33.215  38.422  1.00  0.00     0.135 A 
ATOM     92  F   UNL A   1      41.538  35.271  36.721  1.00  0.00    -0.206 F 
ATOM     93  C   UNL A   1      40.303  35.695  38.672  1.00  0.00     0.059 A 
ATOM     94  C   UNL A   1      38.709  34.049  39.477  1.00  0.00     0.059 A 
ATOM     95  F   UNL A   1      38.442  32.029  38.320  1.00  0.00    -0.206 F 
ATOM     96  C   UNL A   1      39.338  35.288  39.596  1.00  0.00     0.060 A 
BRANCH  96  97
ATOM     97  S   UNL A   1      38.886  36.416  40.930  1.00  0.00     0.124 S 
ATOM     98  O   UNL A   1      37.791  35.694  41.569  1.00  0.00    -0.237 OA
ATOM     99  O   UNL A   1      40.124  36.499  41.699  1.00  0.00    -0.237 OA
ATOM    100  O   UNL A   1      38.508  37.639  40.230  1.00  0.00    -0.744 OA
ENDBRANCH  96  97
ENDBRANCH  64  89
ENDBRANCH  38  39
ENDBRANCH  31  33
ENDBRANCH  30  31
ENDBRANCH  29  30
ENDBRANCH  28  29
ENDBRANCH  27  28
ENDBRANCH  26  27
ENDBRANCH   1  26
TORSDOF 25
ENDMDL
MODEL 3
REMARK VINA RESULT:      -9.6      0.652      8.023
REMARK SMILES C[C@@H]1SCCC[C@H]1Nc1cccc(C(=O)OCCOCCOCCOCCOC(=O)c2ccc(-c3c4nc(c(-c5c(F)cc(S(=O)(=O)[O-])cc5F)c5ccc([nH]5)c(-c5c(F)cc(S(=O)(=O)[O-])cc5F)c5nc(c(-c6c(F)cc(S(=O)(=O)[O-])cc6F)c6ccc3[nH]6)C=C5)C=C4)cc2)c1
REMARK SMILES IDX 23 1 22 2 21 3 20 4 19 5 18 6 17 7 16 8 14 9 15 10 13 11
REMARK SMILES IDX 9 12 10 13 97 14 11 15 12 16 8 17 7 19 1 20 2 21 3 22 4 23
REMARK SMILES IDX 6 24 5 25 24 26 25 27 26 28 27 29 28 30 29 31 30 32 31 33
REMARK SMILES IDX 32 34 96 35 33 36 95 37 34 38 35 39 36 40 89 41 37 42 94 43
REMARK SMILES IDX 88 44 90 45 38 46 93 47 87 48 86 49 39 51 73 52 52 53 72 54
REMARK SMILES IDX 53 55 56 56 71 57 91 58 54 59 55 60 70 62 92 63 57 64 40 65
REMARK SMILES IDX 41 66 50 67 42 68 43 69 49 70 51 71 44 72 45 73 46 74 47 75
REMARK SMILES IDX 48 76 74 77 75 78 84 79 76 80 77 81 83 82 85 83 78 84 79 85
REMARK SMILES IDX 80 86 81 87 82 88 58 89 59 90 68 91 60 92 61 93 67 94 69 95
REMARK SMILES IDX 62 96 63 97 64 98 65 99 66 100
REMARK H PARENT 8 18 90 50 56 61
REMARK Flexibility Score: inf
ROOT
ATOM      1  C   UNL A   1      34.737  30.180  27.547  1.00  0.00     0.188 C 
ENDROOT
BRANCH   1   2
ATOM      2  O   UNL A   1      33.445  29.759  27.119  1.00  0.00    -0.377 OA
BRANCH   2   3
ATOM      3  C   UNL A   1      33.084  28.389  27.190  1.00  0.00     0.188 C 
BRANCH   3   4
ATOM      4  C   UNL A   1      31.621  28.026  27.518  1.00  0.00     0.188 C 
BRANCH   4   5
ATOM      5  O   UNL A   1      31.172  26.825  26.910  1.00  0.00    -0.376 OA
BRANCH   5   6
ATOM      6  C   UNL A   1      31.175  26.736  25.497  1.00  0.00     0.202 C 
BRANCH   6   7
ATOM      7  C   UNL A   1      31.672  25.436  24.850  1.00  0.00     0.261 C 
BRANCH   7   8
ATOM      8  O   UNL A   1      31.229  24.226  25.474  1.00  0.00    -0.460 OA
BRANCH   8   9
ATOM      9  C   UNL A   1      32.006  23.681  26.435  1.00  0.00     0.338 C 
ATOM     10  O   UNL A   1      31.797  23.682  27.635  1.00  0.00    -0.246 OA
BRANCH   9  11
ATOM     11  C   UNL A   1      33.044  22.872  25.749  1.00  0.00     0.062 A 
ATOM     12  C   UNL A   1      34.102  20.712  25.351  1.00  0.00     0.035 A 
ATOM     13  C   UNL A   1      35.134  21.384  24.684  1.00  0.00     0.026 A 
ATOM     14  C   UNL A   1      33.076  21.481  25.906  1.00  0.00     0.041 A 
ATOM     15  C   UNL A   1      35.116  22.775  24.528  1.00  0.00     0.003 A 
ATOM     16  C   UNL A   1      34.058  23.521  25.044  1.00  0.00     0.016 A 
BRANCH  12  17
ATOM     17  N   UNL A   1      34.109  19.331  25.408  1.00  0.00    -0.381 N 
ATOM     18  H   UNL A   1      34.456  18.895  26.219  1.00  0.00     0.160 HD
BRANCH  17  19
ATOM     19  C   UNL A   1      33.619  18.488  24.310  1.00  0.00     0.092 C 
ATOM     20  C   UNL A   1      34.407  16.719  22.652  1.00  0.00     0.021 C 
ATOM     21  C   UNL A   1      34.671  17.400  23.994  1.00  0.00     0.066 C 
ATOM     22  S   UNL A   1      34.828  16.159  25.337  1.00  0.00    -0.157 SA
ATOM     23  C   UNL A   1      33.078  15.707  25.524  1.00  0.00     0.070 C 
ATOM     24  C   UNL A   1      32.225  17.948  24.654  1.00  0.00     0.027 C 
ATOM     25  C   UNL A   1      32.199  16.921  25.785  1.00  0.00     0.013 C 
ENDBRANCH  17  19
ENDBRANCH  12  17
ENDBRANCH   9  11
ENDBRANCH   8   9
ENDBRANCH   7   8
ENDBRANCH   6   7
ENDBRANCH   5   6
ENDBRANCH   4   5
ENDBRANCH   3   4
ENDBRANCH   2   3
ENDBRANCH   1   2
BRANCH   1  26
ATOM     26  C   UNL A   1      34.999  31.605  28.091  1.00  0.00     0.188 C 
BRANCH  26  27
ATOM     27  O   UNL A   1      34.213  31.971  29.215  1.00  0.00    -0.376 OA
BRANCH  27  28
ATOM     28  C   UNL A   1      34.840  32.731  30.232  1.00  0.00     0.202 C 
BRANCH  28  29
ATOM     29  C   UNL A   1      35.402  31.945  31.423  1.00  0.00     0.261 C 
BRANCH  29  30
ATOM     30  O   UNL A   1      36.773  31.536  31.318  1.00  0.00    -0.460 OA
BRANCH  30  31
ATOM     31  C   UNL A   1      37.022  30.233  31.065  1.00  0.00     0.338 C 
ATOM     32  O   UNL A   1      36.239  29.302  31.141  1.00  0.00    -0.246 OA
BRANCH  31  33
ATOM     33  C   UNL A   1      38.385  30.162  30.505  1.00  0.00     0.060 A 
ATOM     34  C   UNL A   1      38.619  30.558  29.179  1.00  0.00     0.016 A 
ATOM     35  C   UNL A   1      39.438  29.738  31.317  1.00  0.00     0.016 A 
ATOM     36  C   UNL A   1      39.914  30.512  28.659  1.00  0.00     0.010 A 
ATOM     37  C   UNL A   1      40.725  29.670  30.789  1.00  0.00     0.010 A 
ATOM     38  C   UNL A   1      40.965  30.031  29.451  1.00  0.00    -0.014 A 
BRANCH  38  39
ATOM     39  C   UNL A   1      42.278  29.689  28.853  1.00  0.00     0.031 A 
ATOM     40  C   UNL A   1      42.495  28.267  28.418  1.00  0.00     0.074 A 
ATOM     41  C   UNL A   1      43.267  30.594  28.755  1.00  0.00     0.049 A 
ATOM     42  N   UNL A   1      43.594  27.672  28.041  1.00  0.00    -0.248 NA
ATOM     43  C   UNL A   1      41.306  27.396  28.426  1.00  0.00     0.031 C 
ATOM     44  C   UNL A   1      43.160  32.009  29.103  1.00  0.00     0.029 A 
ATOM     45  N   UNL A   1      44.573  30.442  28.359  1.00  0.00    -0.354 N 
ATOM     46  C   UNL A   1      43.236  26.353  27.788  1.00  0.00     0.074 A 
ATOM     47  C   UNL A   1      41.825  26.230  28.073  1.00  0.00     0.031 C 
ATOM     48  C   UNL A   1      44.361  32.592  28.932  1.00  0.00     0.029 A 
ATOM     49  C   UNL A   1      45.329  31.580  28.508  1.00  0.00     0.049 A 
ATOM     50  H   UNL A   1      44.933  29.597  28.001  1.00  0.00     0.167 HD
ATOM     51  C   UNL A   1      44.018  25.336  27.356  1.00  0.00     0.037 A 
ATOM     52  C   UNL A   1      46.658  31.768  28.360  1.00  0.00     0.037 A 
ATOM     53  C   UNL A   1      45.423  25.471  27.080  1.00  0.00     0.049 A 
ATOM     54  C   UNL A   1      47.527  30.603  27.951  1.00  0.00     0.074 A 
ATOM     55  C   UNL A   1      46.305  24.508  26.623  1.00  0.00     0.029 A 
ATOM     56  N   UNL A   1      46.154  26.639  27.245  1.00  0.00    -0.354 N 
ATOM     57  N   UNL A   1      47.179  29.362  27.697  1.00  0.00    -0.248 NA
ATOM     58  C   UNL A   1      48.967  30.859  27.810  1.00  0.00     0.031 C 
ATOM     59  C   UNL A   1      47.580  25.079  26.566  1.00  0.00     0.029 A 
ATOM     60  C   UNL A   1      47.481  26.416  26.922  1.00  0.00     0.049 A 
ATOM     61  H   UNL A   1      45.783  27.500  27.546  1.00  0.00     0.167 HD
ATOM     62  C   UNL A   1      48.350  28.704  27.331  1.00  0.00     0.074 A 
ATOM     63  C   UNL A   1      49.415  29.681  27.396  1.00  0.00     0.031 C 
ATOM     64  C   UNL A   1      48.526  27.409  26.968  1.00  0.00     0.037 A 
BRANCH  51  65
ATOM     65  C   UNL A   1      43.380  23.986  27.190  1.00  0.00     0.058 A 
ATOM     66  C   UNL A   1      42.970  23.509  25.935  1.00  0.00     0.135 A 
ATOM     67  C   UNL A   1      43.203  23.144  28.299  1.00  0.00     0.135 A 
ATOM     68  F   UNL A   1      43.095  24.281  24.843  1.00  0.00    -0.206 F 
ATOM     69  C   UNL A   1      42.388  22.255  25.789  1.00  0.00     0.059 A 
ATOM     70  C   UNL A   1      42.651  21.873  28.173  1.00  0.00     0.059 A 
ATOM     71  F   UNL A   1      43.570  23.554  29.524  1.00  0.00    -0.206 F 
ATOM     72  C   UNL A   1      42.235  21.442  26.914  1.00  0.00     0.060 A 
BRANCH  72  73
ATOM     73  S   UNL A   1      41.490  19.813  26.705  1.00  0.00     0.124 S 
ATOM     74  O   UNL A   1      42.158  19.050  27.756  1.00  0.00    -0.237 OA
ATOM     75  O   UNL A   1      40.074  20.089  26.925  1.00  0.00    -0.237 OA
ATOM     76  O   UNL A   1      41.850  19.445  25.340  1.00  0.00    -0.744 OA
ENDBRANCH  72  73
ENDBRANCH  51  65
BRANCH  52  77
ATOM     77  C   UNL A   1      47.257  33.105  28.624  1.00  0.00     0.058 A 
ATOM     78  C   UNL A   1      47.624  33.490  29.922  1.00  0.00     0.135 A 
ATOM     79  C   UNL A   1      47.468  34.028  27.588  1.00  0.00     0.135 A 
ATOM     80  F   UNL A   1      47.430  32.651  30.951  1.00  0.00    -0.206 F 
ATOM     81  C   UNL A   1      48.165  34.745  30.187  1.00  0.00     0.059 A 
ATOM     82  C   UNL A   1      48.033  35.279  27.823  1.00  0.00     0.059 A 
ATOM     83  F   UNL A   1      47.141  33.710  26.326  1.00  0.00    -0.206 F 
ATOM     84  C   UNL A   1      48.369  35.631  29.128  1.00  0.00     0.060 A 
BRANCH  84  85
ATOM     85  S   UNL A   1      49.117  37.238  29.475  1.00  0.00     0.124 S 
ATOM     86  O   UNL A   1      50.425  36.849  29.989  1.00  0.00    -0.237 OA
ATOM     87  O   UNL A   1      49.110  37.868  28.158  1.00  0.00    -0.237 OA
ATOM     88  O   UNL A   1      48.205  37.830  30.449  1.00  0.00    -0.744 OA
ENDBRANCH  84  85
ENDBRANCH  52  77
BRANCH  64  89
ATOM     89  C   UNL A   1      49.903  26.971  26.551  1.00  0.00     0.058 A 
ATOM     90  C   UNL A   1      50.860  26.539  27.482  1.00  0.00     0.135 A 
ATOM     91  C   UNL A   1      50.231  26.886  25.187  1.00  0.00     0.135 A 
ATOM     92  F   UNL A   1      50.603  26.606  28.797  1.00  0.00    -0.206 F 
ATOM     93  C   UNL A   1      52.096  26.044  27.075  1.00  0.00     0.059 A 
ATOM     94  C   UNL A   1      51.447  26.367  24.757  1.00  0.00     0.059 A 
ATOM     95  F   UNL A   1      49.346  27.276  24.255  1.00  0.00    -0.206 F 
ATOM     96  C   UNL A   1      52.376  25.951  25.710  1.00  0.00     0.060 A 
BRANCH  96  97
ATOM     97  S   UNL A   1      53.954  25.241  25.195  1.00  0.00     0.124 S 
ATOM     98  O   UNL A   1      54.843  25.695  26.260  1.00  0.00    -0.237 OA
ATOM     99  O   UNL A   1      53.660  23.811  25.181  1.00  0.00    -0.237 OA
ATOM    100  O   UNL A   1      54.187  25.839  23.884  1.00  0.00    -0.744 OA
ENDBRANCH  96  97
ENDBRANCH  64  89
ENDBRANCH  38  39
ENDBRANCH  31  33
ENDBRANCH  30  31
ENDBRANCH  29  30
ENDBRANCH  28  29
ENDBRANCH  27  28
ENDBRANCH  26  27
ENDBRANCH   1  26
TORSDOF 25
ENDMDL
