MODEL 1
REMARK VINA RESULT:      -9.1      0.000      0.000
REMARK SMILES O=C(OCCOCCOCCOCCOC(=O)c1ccc(S(=O)(=O)NCC[NH+]2CCCC2)c(F)c1)c1ccc(-c2c3nc(c(-c4c(F)cc(S(=O)(=O)[O-])cc4F)c4ccc([nH]4)c(-c4c(F)cc(S(=O)(=O)[O-])cc4F)c4nc(c(-c5c(F)cc(S(=O)(=O)[O-])cc5F)c5ccc2[nH]5)C=C4)C=C3)cc1
REMARK SMILES IDX 10 1 9 2 8 3 7 4 6 5 5 6 4 7 3 8 2 9 1 10 36 11 37 12 101 13
REMARK SMILES IDX 38 14 100 15 39 16 40 17 41 18 94 19 42 20 99 21 93 22 95 23
REMARK SMILES IDX 43 24 98 25 92 26 91 27 44 29 78 30 57 31 77 32 58 33 61 34
REMARK SMILES IDX 76 35 96 36 59 37 60 38 75 40 97 41 62 42 45 43 46 44 55 45
REMARK SMILES IDX 47 46 48 47 54 48 56 49 49 50 50 51 51 52 52 53 53 54 79 55
REMARK SMILES IDX 80 56 89 57 81 58 82 59 88 60 90 61 83 62 84 63 85 64 86 65
REMARK SMILES IDX 87 66 63 67 64 68 73 69 65 70 66 71 72 72 74 73 67 74 68 75
REMARK SMILES IDX 69 76 70 77 71 78 11 79 12 80 13 81 14 82 15 83 16 84 17 85
REMARK SMILES IDX 18 86 19 87 35 88 20 89 33 90 21 91 34 92 22 93 23 94 24 95
REMARK SMILES IDX 25 96 26 98 27 99 28 100 29 101 32 102 30 104 31 105
REMARK H PARENT 95 28 61 39 25 97 28 103
REMARK Flexibility Score: inf
ROOT
ATOM      1  C   UNL A   1      34.943  22.377  26.872  1.00  0.00     0.188 C 
ENDROOT
BRANCH   1   2
ATOM      2  O   UNL A   1      34.911  21.362  25.873  1.00  0.00    -0.377 OA
BRANCH   2   3
ATOM      3  C   UNL A   1      35.566  21.651  24.638  1.00  0.00     0.188 C 
BRANCH   3   4
ATOM      4  C   UNL A   1      37.071  21.379  24.621  1.00  0.00     0.188 C 
BRANCH   4   5
ATOM      5  O   UNL A   1      37.332  20.024  24.253  1.00  0.00    -0.376 OA
BRANCH   5   6
ATOM      6  C   UNL A   1      38.302  19.345  25.046  1.00  0.00     0.202 C 
BRANCH   6   7
ATOM      7  C   UNL A   1      39.200  20.268  25.874  1.00  0.00     0.261 C 
BRANCH   7   8
ATOM      8  O   UNL A   1      40.381  19.601  26.340  1.00  0.00    -0.460 OA
BRANCH   8   9
ATOM      9  C   UNL A   1      41.670  19.949  26.096  1.00  0.00     0.338 C 
ATOM     10  O   UNL A   1      42.418  19.097  25.617  1.00  0.00    -0.246 OA
BRANCH   9  11
ATOM     11  C   UNL A   1      42.242  21.308  26.368  1.00  0.00     0.060 A 
ATOM     12  C   UNL A   1      42.315  22.358  25.449  1.00  0.00     0.016 A 
ATOM     13  C   UNL A   1      42.654  21.566  27.685  1.00  0.00     0.016 A 
ATOM     14  C   UNL A   1      42.812  23.607  25.799  1.00  0.00     0.010 A 
ATOM     15  C   UNL A   1      43.136  22.827  28.056  1.00  0.00     0.010 A 
ATOM     16  C   UNL A   1      43.225  23.848  27.103  1.00  0.00    -0.014 A 
BRANCH  16  17
ATOM     17  C   UNL A   1      43.854  25.141  27.413  1.00  0.00     0.031 A 
ATOM     18  C   UNL A   1      42.998  26.202  28.033  1.00  0.00     0.074 A 
ATOM     19  C   UNL A   1      45.175  25.310  27.225  1.00  0.00     0.049 A 
ATOM     20  N   UNL A   1      43.282  27.450  28.274  1.00  0.00    -0.248 NA
ATOM     21  C   UNL A   1      41.641  25.799  28.450  1.00  0.00     0.031 C 
ATOM     22  C   UNL A   1      46.098  24.275  26.752  1.00  0.00     0.029 A 
ATOM     23  N   UNL A   1      45.975  26.406  27.413  1.00  0.00    -0.354 N 
ATOM     24  C   UNL A   1      42.131  27.991  28.831  1.00  0.00     0.074 A 
ATOM     25  C   UNL A   1      41.147  26.938  28.911  1.00  0.00     0.031 C 
ATOM     26  C   UNL A   1      47.336  24.791  26.677  1.00  0.00     0.029 A 
ATOM     27  C   UNL A   1      47.280  26.207  27.024  1.00  0.00     0.049 A 
ATOM     28  H   UNL A   1      45.648  27.255  27.791  1.00  0.00     0.167 HD
ATOM     29  C   UNL A   1      41.926  29.267  29.224  1.00  0.00     0.037 A 
ATOM     30  C   UNL A   1      48.290  27.091  26.906  1.00  0.00     0.037 A 
ATOM     31  C   UNL A   1      42.941  30.280  29.141  1.00  0.00     0.049 A 
ATOM     32  C   UNL A   1      48.006  28.530  27.251  1.00  0.00     0.074 A 
ATOM     33  C   UNL A   1      42.852  31.616  29.478  1.00  0.00     0.029 A 
ATOM     34  N   UNL A   1      44.234  30.059  28.685  1.00  0.00    -0.354 N 
ATOM     35  N   UNL A   1      46.900  29.054  27.733  1.00  0.00    -0.248 NA
ATOM     36  C   UNL A   1      49.078  29.504  27.015  1.00  0.00     0.031 C 
ATOM     37  C   UNL A   1      44.077  32.215  29.178  1.00  0.00     0.029 A 
ATOM     38  C   UNL A   1      44.945  31.243  28.699  1.00  0.00     0.049 A 
ATOM     39  H   UNL A   1      44.591  29.188  28.395  1.00  0.00     0.167 HD
ATOM     40  C   UNL A   1      47.143  30.416  27.852  1.00  0.00     0.074 A 
ATOM     41  C   UNL A   1      48.508  30.633  27.417  1.00  0.00     0.031 C 
ATOM     42  C   UNL A   1      46.312  31.403  28.267  1.00  0.00     0.037 A 
BRANCH  29  43
ATOM     43  C   UNL A   1      40.562  29.649  29.714  1.00  0.00     0.058 A 
ATOM     44  C   UNL A   1      39.511  29.815  28.799  1.00  0.00     0.135 A 
ATOM     45  C   UNL A   1      40.302  29.908  31.068  1.00  0.00     0.135 A 
ATOM     46  F   UNL A   1      39.701  29.555  27.496  1.00  0.00    -0.206 F 
ATOM     47  C   UNL A   1      38.258  30.260  29.204  1.00  0.00     0.059 A 
ATOM     48  C   UNL A   1      39.049  30.335  31.500  1.00  0.00     0.059 A 
ATOM     49  F   UNL A   1      41.263  29.724  31.987  1.00  0.00    -0.206 F 
ATOM     50  C   UNL A   1      38.039  30.527  30.556  1.00  0.00     0.060 A 
BRANCH  50  51
ATOM     51  S   UNL A   1      36.409  31.117  31.060  1.00  0.00     0.124 S 
ATOM     52  O   UNL A   1      35.793  29.898  31.570  1.00  0.00    -0.237 OA
ATOM     53  O   UNL A   1      36.746  32.127  32.060  1.00  0.00    -0.237 OA
ATOM     54  O   UNL A   1      35.840  31.641  29.822  1.00  0.00    -0.744 OA
ENDBRANCH  50  51
ENDBRANCH  29  43
BRANCH  30  55
ATOM     55  C   UNL A   1      49.606  26.663  26.352  1.00  0.00     0.058 A 
ATOM     56  C   UNL A   1      49.892  26.799  24.982  1.00  0.00     0.135 A 
ATOM     57  C   UNL A   1      50.606  26.115  27.168  1.00  0.00     0.135 A 
ATOM     58  F   UNL A   1      48.976  27.319  24.150  1.00  0.00    -0.206 F 
ATOM     59  C   UNL A   1      51.103  26.383  24.439  1.00  0.00     0.059 A 
ATOM     60  C   UNL A   1      51.840  25.718  26.653  1.00  0.00     0.059 A 
ATOM     61  F   UNL A   1      50.395  25.980  28.487  1.00  0.00    -0.206 F 
ATOM     62  C   UNL A   1      52.072  25.844  25.283  1.00  0.00     0.060 A 
BRANCH  62  63
ATOM     63  S   UNL A   1      53.648  25.336  24.559  1.00  0.00     0.124 S 
ATOM     64  O   UNL A   1      53.482  25.757  23.173  1.00  0.00    -0.237 OA
ATOM     65  O   UNL A   1      54.609  26.105  25.346  1.00  0.00    -0.237 OA
ATOM     66  O   UNL A   1      53.672  23.894  24.782  1.00  0.00    -0.744 OA
ENDBRANCH  62  63
ENDBRANCH  30  55
BRANCH  42  67
ATOM     67  C   UNL A   1      46.844  32.804  28.270  1.00  0.00     0.058 A 
ATOM     68  C   UNL A   1      46.694  33.621  27.140  1.00  0.00     0.135 A 
ATOM     69  C   UNL A   1      47.638  33.270  29.329  1.00  0.00     0.135 A 
ATOM     70  F   UNL A   1      45.949  33.210  26.101  1.00  0.00    -0.206 F 
ATOM     71  C   UNL A   1      47.356  34.837  27.037  1.00  0.00     0.059 A 
ATOM     72  C   UNL A   1      48.290  34.495  29.257  1.00  0.00     0.059 A 
ATOM     73  F   UNL A   1      47.797  32.523  30.432  1.00  0.00    -0.206 F 
ATOM     74  C   UNL A   1      48.164  35.256  28.095  1.00  0.00     0.060 A 
BRANCH  74  75
ATOM     75  S   UNL A   1      49.066  36.809  27.917  1.00  0.00     0.124 S 
ATOM     76  O   UNL A   1      50.446  36.376  28.112  1.00  0.00    -0.237 OA
ATOM     77  O   UNL A   1      48.713  37.215  26.561  1.00  0.00    -0.237 OA
ATOM     78  O   UNL A   1      48.515  37.645  28.979  1.00  0.00    -0.744 OA
ENDBRANCH  74  75
ENDBRANCH  42  67
ENDBRANCH  16  17
ENDBRANCH   9  11
ENDBRANCH   8   9
ENDBRANCH   7   8
ENDBRANCH   6   7
ENDBRANCH   5   6
ENDBRANCH   4   5
ENDBRANCH   3   4
ENDBRANCH   2   3
ENDBRANCH   1   2
BRANCH   1  79
ATOM     79  C   UNL A   1      33.746  22.534  27.835  1.00  0.00     0.188 C 
BRANCH  79  80
ATOM     80  O   UNL A   1      32.518  21.991  27.372  1.00  0.00    -0.376 OA
BRANCH  80  81
ATOM     81  C   UNL A   1      31.531  22.947  26.988  1.00  0.00     0.202 C 
BRANCH  81  82
ATOM     82  C   UNL A   1      31.257  22.980  25.479  1.00  0.00     0.261 C 
BRANCH  82  83
ATOM     83  O   UNL A   1      32.081  23.900  24.738  1.00  0.00    -0.460 OA
BRANCH  83  84
ATOM     84  C   UNL A   1      31.882  24.001  23.405  1.00  0.00     0.338 C 
ATOM     85  O   UNL A   1      32.029  23.132  22.564  1.00  0.00    -0.246 OA
BRANCH  84  86
ATOM     86  C   UNL A   1      31.234  25.306  23.146  1.00  0.00     0.063 A 
ATOM     87  C   UNL A   1      31.906  26.307  22.438  1.00  0.00     0.017 A 
ATOM     88  C   UNL A   1      29.978  25.570  23.716  1.00  0.00     0.056 A 
ATOM     89  C   UNL A   1      31.312  27.560  22.289  1.00  0.00     0.026 A 
ATOM     90  C   UNL A   1      29.399  26.834  23.578  1.00  0.00     0.144 A 
ATOM     91  C   UNL A   1      30.052  27.820  22.855  1.00  0.00     0.118 A 
ATOM     92  F   UNL A   1      28.221  27.060  24.173  1.00  0.00    -0.205 F 
BRANCH  91  93
ATOM     93  S   UNL A   1      29.364  29.416  22.572  1.00  0.00     0.243 S 
ATOM     94  O   UNL A   1      29.650  29.743  21.191  1.00  0.00    -0.207 OA
ATOM     95  O   UNL A   1      28.000  29.357  23.052  1.00  0.00    -0.207 OA
BRANCH  93  96
ATOM     96  N   UNL A   1      30.145  30.528  23.537  1.00  0.00    -0.205 NA
ATOM     97  H   UNL A   1      29.480  31.284  23.693  1.00  0.00     0.141 HD
BRANCH  96  98
ATOM     98  C   UNL A   1      30.689  30.187  24.856  1.00  0.00     0.160 C 
BRANCH  98  99
ATOM     99  C   UNL A   1      32.132  29.639  24.835  1.00  0.00     0.278 C 
BRANCH  99 100
ATOM    100  N   UNL A   1      32.347  28.516  25.783  1.00  0.00    -0.334 N 
ATOM    101  C   UNL A   1      32.225  28.969  27.185  1.00  0.00     0.262 C 
ATOM    102  C   UNL A   1      33.734  28.006  25.720  1.00  0.00     0.262 C 
ATOM    103  H   UNL A   1      31.654  27.814  25.520  1.00  0.00     0.348 HD
ATOM    104  C   UNL A   1      33.556  29.630  27.502  1.00  0.00     0.067 C 
ATOM    105  C   UNL A   1      34.559  28.772  26.752  1.00  0.00     0.067 C 
ENDBRANCH  99 100
ENDBRANCH  98  99
ENDBRANCH  96  98
ENDBRANCH  93  96
ENDBRANCH  91  93
ENDBRANCH  84  86
ENDBRANCH  83  84
ENDBRANCH  82  83
ENDBRANCH  81  82
ENDBRANCH  80  81
ENDBRANCH  79  80
ENDBRANCH   1  79
TORSDOF 28
ENDMDL
MODEL 2
REMARK VINA RESULT:      -8.3      5.305     10.456
REMARK SMILES O=C(OCCOCCOCCOCCOC(=O)c1ccc(S(=O)(=O)NCC[NH+]2CCCC2)c(F)c1)c1ccc(-c2c3nc(c(-c4c(F)cc(S(=O)(=O)[O-])cc4F)c4ccc([nH]4)c(-c4c(F)cc(S(=O)(=O)[O-])cc4F)c4nc(c(-c5c(F)cc(S(=O)(=O)[O-])cc5F)c5ccc2[nH]5)C=C4)C=C3)cc1
REMARK SMILES IDX 10 1 9 2 8 3 7 4 6 5 5 6 4 7 3 8 2 9 1 10 36 11 37 12 101 13
REMARK SMILES IDX 38 14 100 15 39 16 40 17 41 18 94 19 42 20 99 21 93 22 95 23
REMARK SMILES IDX 43 24 98 25 92 26 91 27 44 29 78 30 57 31 77 32 58 33 61 34
REMARK SMILES IDX 76 35 96 36 59 37 60 38 75 40 97 41 62 42 45 43 46 44 55 45
REMARK SMILES IDX 47 46 48 47 54 48 56 49 49 50 50 51 51 52 52 53 53 54 79 55
REMARK SMILES IDX 80 56 89 57 81 58 82 59 88 60 90 61 83 62 84 63 85 64 86 65
REMARK SMILES IDX 87 66 63 67 64 68 73 69 65 70 66 71 72 72 74 73 67 74 68 75
REMARK SMILES IDX 69 76 70 77 71 78 11 79 12 80 13 81 14 82 15 83 16 84 17 85
REMARK SMILES IDX 18 86 19 87 35 88 20 89 33 90 21 91 34 92 22 93 23 94 24 95
REMARK SMILES IDX 25 96 26 98 27 99 28 100 29 101 32 102 30 104 31 105
REMARK H PARENT 95 28 61 39 25 97 28 103
REMARK Flexibility Score: inf
ROOT
ATOM      1  C   UNL A   1      32.437  26.299  24.272  1.00  0.00     0.188 C 
ENDROOT
BRANCH   1   2
ATOM      2  O   UNL A   1      32.727  27.597  24.781  1.00  0.00    -0.377 OA
BRANCH   2   3
ATOM      3  C   UNL A   1      31.710  28.227  25.561  1.00  0.00     0.188 C 
BRANCH   3   4
ATOM      4  C   UNL A   1      32.124  28.609  26.982  1.00  0.00     0.188 C 
BRANCH   4   5
ATOM      5  O   UNL A   1      31.735  29.952  27.275  1.00  0.00    -0.376 OA
BRANCH   5   6
ATOM      6  C   UNL A   1      32.598  30.968  26.772  1.00  0.00     0.202 C 
BRANCH   6   7
ATOM      7  C   UNL A   1      32.619  32.251  27.607  1.00  0.00     0.261 C 
BRANCH   7   8
ATOM      8  O   UNL A   1      33.954  32.699  27.879  1.00  0.00    -0.460 OA
BRANCH   8   9
ATOM      9  C   UNL A   1      34.404  33.294  29.014  1.00  0.00     0.338 C 
ATOM     10  O   UNL A   1      33.575  33.817  29.759  1.00  0.00    -0.246 OA
BRANCH   9  11
ATOM     11  C   UNL A   1      35.845  33.351  29.421  1.00  0.00     0.060 A 
ATOM     12  C   UNL A   1      36.347  34.015  30.543  1.00  0.00     0.016 A 
ATOM     13  C   UNL A   1      36.748  32.597  28.654  1.00  0.00     0.016 A 
ATOM     14  C   UNL A   1      37.694  33.974  30.880  1.00  0.00     0.010 A 
ATOM     15  C   UNL A   1      38.103  32.529  28.996  1.00  0.00     0.010 A 
ATOM     16  C   UNL A   1      38.578  33.231  30.108  1.00  0.00    -0.014 A 
BRANCH  16  17
ATOM     17  C   UNL A   1      40.014  33.302  30.422  1.00  0.00     0.031 A 
ATOM     18  C   UNL A   1      40.591  32.232  31.296  1.00  0.00     0.074 A 
ATOM     19  C   UNL A   1      40.781  34.251  29.855  1.00  0.00     0.049 A 
ATOM     20  N   UNL A   1      41.782  32.148  31.816  1.00  0.00    -0.248 NA
ATOM     21  C   UNL A   1      39.709  31.094  31.619  1.00  0.00     0.031 C 
ATOM     22  C   UNL A   1      40.314  35.246  28.886  1.00  0.00     0.029 A 
ATOM     23  N   UNL A   1      42.114  34.533  30.003  1.00  0.00    -0.354 N 
ATOM     24  C   UNL A   1      41.782  30.974  32.557  1.00  0.00     0.074 A 
ATOM     25  C   UNL A   1      40.481  30.365  32.411  1.00  0.00     0.031 C 
ATOM     26  C   UNL A   1      41.343  36.034  28.535  1.00  0.00     0.029 A 
ATOM     27  C   UNL A   1      42.519  35.650  29.309  1.00  0.00     0.049 A 
ATOM     28  H   UNL A   1      42.724  33.989  30.552  1.00  0.00     0.167 HD
ATOM     29  C   UNL A   1      42.788  30.470  33.303  1.00  0.00     0.037 A 
ATOM     30  C   UNL A   1      43.690  36.314  29.349  1.00  0.00     0.037 A 
ATOM     31  C   UNL A   1      44.073  31.102  33.406  1.00  0.00     0.049 A 
ATOM     32  C   UNL A   1      44.762  35.790  30.270  1.00  0.00     0.074 A 
ATOM     33  C   UNL A   1      45.167  30.710  34.152  1.00  0.00     0.029 A 
ATOM     34  N   UNL A   1      44.431  32.266  32.739  1.00  0.00    -0.354 N 
ATOM     35  N   UNL A   1      44.744  34.705  31.012  1.00  0.00    -0.248 NA
ATOM     36  C   UNL A   1      45.992  36.580  30.392  1.00  0.00     0.031 C 
ATOM     37  C   UNL A   1      46.171  31.665  33.974  1.00  0.00     0.029 A 
ATOM     38  C   UNL A   1      45.719  32.627  33.081  1.00  0.00     0.049 A 
ATOM     39  H   UNL A   1      43.852  32.760  32.114  1.00  0.00     0.167 HD
ATOM     40  C   UNL A   1      45.957  34.685  31.690  1.00  0.00     0.074 A 
ATOM     41  C   UNL A   1      46.695  35.853  31.251  1.00  0.00     0.031 C 
ATOM     42  C   UNL A   1      46.416  33.796  32.603  1.00  0.00     0.037 A 
BRANCH  29  43
ATOM     43  C   UNL A   1      42.527  29.227  34.100  1.00  0.00     0.058 A 
ATOM     44  C   UNL A   1      42.066  29.327  35.422  1.00  0.00     0.135 A 
ATOM     45  C   UNL A   1      42.785  27.947  33.588  1.00  0.00     0.135 A 
ATOM     46  F   UNL A   1      41.780  30.528  35.950  1.00  0.00    -0.206 F 
ATOM     47  C   UNL A   1      41.903  28.202  36.222  1.00  0.00     0.059 A 
ATOM     48  C   UNL A   1      42.610  26.804  34.365  1.00  0.00     0.059 A 
ATOM     49  F   UNL A   1      43.188  27.796  32.317  1.00  0.00    -0.206 F 
ATOM     50  C   UNL A   1      42.188  26.945  35.688  1.00  0.00     0.060 A 
BRANCH  50  51
ATOM     51  S   UNL A   1      41.984  25.497  36.747  1.00  0.00     0.124 S 
ATOM     52  O   UNL A   1      42.199  26.063  38.074  1.00  0.00    -0.237 OA
ATOM     53  O   UNL A   1      40.615  25.088  36.443  1.00  0.00    -0.237 OA
ATOM     54  O   UNL A   1      43.021  24.584  36.276  1.00  0.00    -0.744 OA
ENDBRANCH  50  51
ENDBRANCH  29  43
BRANCH  30  55
ATOM     55  C   UNL A   1      43.867  37.580  28.583  1.00  0.00     0.058 A 
ATOM     56  C   UNL A   1      44.237  37.558  27.226  1.00  0.00     0.135 A 
ATOM     57  C   UNL A   1      43.672  38.836  29.177  1.00  0.00     0.135 A 
ATOM     58  F   UNL A   1      44.436  36.387  26.600  1.00  0.00    -0.206 F 
ATOM     59  C   UNL A   1      44.433  38.727  26.499  1.00  0.00     0.059 A 
ATOM     60  C   UNL A   1      43.832  40.021  28.461  1.00  0.00     0.059 A 
ATOM     61  F   UNL A   1      43.300  38.916  30.464  1.00  0.00    -0.206 F 
ATOM     62  C   UNL A   1      44.227  39.955  27.124  1.00  0.00     0.060 A 
BRANCH  62  63
ATOM     63  S   UNL A   1      44.461  41.459  26.151  1.00  0.00     0.124 S 
ATOM     64  O   UNL A   1      45.030  42.365  27.144  1.00  0.00    -0.237 OA
ATOM     65  O   UNL A   1      45.375  41.008  25.105  1.00  0.00    -0.237 OA
ATOM     66  O   UNL A   1      43.111  41.784  25.702  1.00  0.00    -0.744 OA
ENDBRANCH  62  63
ENDBRANCH  30  55
BRANCH  42  67
ATOM     67  C   UNL A   1      47.770  34.043  33.194  1.00  0.00     0.058 A 
ATOM     68  C   UNL A   1      48.912  33.479  32.608  1.00  0.00     0.135 A 
ATOM     69  C   UNL A   1      47.908  34.701  34.426  1.00  0.00     0.135 A 
ATOM     70  F   UNL A   1      48.823  32.834  31.433  1.00  0.00    -0.206 F 
ATOM     71  C   UNL A   1      50.144  33.515  33.249  1.00  0.00     0.059 A 
ATOM     72  C   UNL A   1      49.136  34.770  35.073  1.00  0.00     0.059 A 
ATOM     73  F   UNL A   1      46.842  35.264  35.014  1.00  0.00    -0.206 F 
ATOM     74  C   UNL A   1      50.240  34.149  34.489  1.00  0.00     0.060 A 
BRANCH  74  75
ATOM     75  S   UNL A   1      51.833  34.130  35.336  1.00  0.00     0.124 S 
ATOM     76  O   UNL A   1      52.432  32.905  34.817  1.00  0.00    -0.237 OA
ATOM     77  O   UNL A   1      52.438  35.377  34.880  1.00  0.00    -0.237 OA
ATOM     78  O   UNL A   1      51.466  34.099  36.748  1.00  0.00    -0.744 OA
ENDBRANCH  74  75
ENDBRANCH  42  67
ENDBRANCH  16  17
ENDBRANCH   9  11
ENDBRANCH   8   9
ENDBRANCH   7   8
ENDBRANCH   6   7
ENDBRANCH   5   6
ENDBRANCH   4   5
ENDBRANCH   3   4
ENDBRANCH   2   3
ENDBRANCH   1   2
BRANCH   1  79
ATOM     79  C   UNL A   1      31.608  25.315  25.127  1.00  0.00     0.188 C 
BRANCH  79  80
ATOM     80  O   UNL A   1      32.287  24.131  25.520  1.00  0.00    -0.376 OA
BRANCH  80  81
ATOM     81  C   UNL A   1      31.722  22.912  25.040  1.00  0.00     0.202 C 
BRANCH  81  82
ATOM     82  C   UNL A   1      32.653  22.122  24.112  1.00  0.00     0.261 C 
BRANCH  82  83
ATOM     83  O   UNL A   1      34.010  22.004  24.580  1.00  0.00    -0.460 OA
BRANCH  83  84
ATOM     84  C   UNL A   1      34.989  22.577  23.847  1.00  0.00     0.338 C 
ATOM     85  O   UNL A   1      34.872  23.197  22.805  1.00  0.00    -0.246 OA
BRANCH  84  86
ATOM     86  C   UNL A   1      36.236  22.519  24.642  1.00  0.00     0.063 A 
ATOM     87  C   UNL A   1      36.750  23.670  25.247  1.00  0.00     0.017 A 
ATOM     88  C   UNL A   1      36.960  21.317  24.691  1.00  0.00     0.056 A 
ATOM     89  C   UNL A   1      37.974  23.609  25.912  1.00  0.00     0.026 A 
ATOM     90  C   UNL A   1      38.195  21.269  25.342  1.00  0.00     0.144 A 
ATOM     91  C   UNL A   1      38.694  22.403  25.964  1.00  0.00     0.118 A 
ATOM     92  F   UNL A   1      38.875  20.116  25.328  1.00  0.00    -0.205 F 
BRANCH  91  93
ATOM     93  S   UNL A   1      40.207  22.415  26.865  1.00  0.00     0.243 S 
ATOM     94  O   UNL A   1      40.261  23.689  27.551  1.00  0.00    -0.207 OA
ATOM     95  O   UNL A   1      40.244  21.173  27.606  1.00  0.00    -0.207 OA
BRANCH  93  96
ATOM     96  N   UNL A   1      41.482  22.352  25.795  1.00  0.00    -0.205 NA
ATOM     97  H   UNL A   1      41.731  23.320  25.593  1.00  0.00     0.141 HD
BRANCH  96  98
ATOM     98  C   UNL A   1      42.741  21.664  26.102  1.00  0.00     0.160 C 
BRANCH  98  99
ATOM     99  C   UNL A   1      43.989  22.573  26.099  1.00  0.00     0.278 C 
BRANCH  99 100
ATOM    100  N   UNL A   1      44.118  23.390  24.866  1.00  0.00    -0.334 N 
ATOM    101  C   UNL A   1      44.910  22.683  23.838  1.00  0.00     0.262 C 
ATOM    102  C   UNL A   1      44.906  24.618  25.103  1.00  0.00     0.262 C 
ATOM    103  H   UNL A   1      43.158  23.584  24.578  1.00  0.00     0.348 HD
ATOM    104  C   UNL A   1      46.359  22.885  24.249  1.00  0.00     0.067 C 
ATOM    105  C   UNL A   1      46.369  24.297  24.805  1.00  0.00     0.067 C 
ENDBRANCH  99 100
ENDBRANCH  98  99
ENDBRANCH  96  98
ENDBRANCH  93  96
ENDBRANCH  91  93
ENDBRANCH  84  86
ENDBRANCH  83  84
ENDBRANCH  82  83
ENDBRANCH  81  82
ENDBRANCH  80  81
ENDBRANCH  79  80
ENDBRANCH   1  79
TORSDOF 28
ENDMDL
MODEL 3
REMARK VINA RESULT:      -8.2      5.634     11.469
REMARK SMILES O=C(OCCOCCOCCOCCOC(=O)c1ccc(S(=O)(=O)NCC[NH+]2CCCC2)c(F)c1)c1ccc(-c2c3nc(c(-c4c(F)cc(S(=O)(=O)[O-])cc4F)c4ccc([nH]4)c(-c4c(F)cc(S(=O)(=O)[O-])cc4F)c4nc(c(-c5c(F)cc(S(=O)(=O)[O-])cc5F)c5ccc2[nH]5)C=C4)C=C3)cc1
REMARK SMILES IDX 10 1 9 2 8 3 7 4 6 5 5 6 4 7 3 8 2 9 1 10 36 11 37 12 101 13
REMARK SMILES IDX 38 14 100 15 39 16 40 17 41 18 94 19 42 20 99 21 93 22 95 23
REMARK SMILES IDX 43 24 98 25 92 26 91 27 44 29 78 30 57 31 77 32 58 33 61 34
REMARK SMILES IDX 76 35 96 36 59 37 60 38 75 40 97 41 62 42 45 43 46 44 55 45
REMARK SMILES IDX 47 46 48 47 54 48 56 49 49 50 50 51 51 52 52 53 53 54 79 55
REMARK SMILES IDX 80 56 89 57 81 58 82 59 88 60 90 61 83 62 84 63 85 64 86 65
REMARK SMILES IDX 87 66 63 67 64 68 73 69 65 70 66 71 72 72 74 73 67 74 68 75
REMARK SMILES IDX 69 76 70 77 71 78 11 79 12 80 13 81 14 82 15 83 16 84 17 85
REMARK SMILES IDX 18 86 19 87 35 88 20 89 33 90 21 91 34 92 22 93 23 94 24 95
REMARK SMILES IDX 25 96 26 98 27 99 28 100 29 101 32 102 30 104 31 105
REMARK H PARENT 95 28 61 39 25 97 28 103
REMARK Flexibility Score: inf
ROOT
ATOM      1  C   UNL A   1      34.729  33.784  30.906  1.00  0.00     0.188 C 
ENDROOT
BRANCH   1   2
ATOM      2  O   UNL A   1      34.064  33.004  31.895  1.00  0.00    -0.377 OA
BRANCH   2   3
ATOM      3  C   UNL A   1      34.268  33.380  33.258  1.00  0.00     0.188 C 
BRANCH   3   4
ATOM      4  C   UNL A   1      35.439  34.331  33.502  1.00  0.00     0.188 C 
BRANCH   4   5
ATOM      5  O   UNL A   1      36.057  34.054  34.760  1.00  0.00    -0.376 OA
BRANCH   5   6
ATOM      6  C   UNL A   1      37.434  33.692  34.704  1.00  0.00     0.202 C 
BRANCH   6   7
ATOM      7  C   UNL A   1      37.730  32.257  35.146  1.00  0.00     0.261 C 
BRANCH   7   8
ATOM      8  O   UNL A   1      37.771  31.346  34.039  1.00  0.00    -0.460 OA
BRANCH   8   9
ATOM      9  C   UNL A   1      38.832  30.609  33.622  1.00  0.00     0.338 C 
ATOM     10  O   UNL A   1      38.835  29.405  33.878  1.00  0.00    -0.246 OA
BRANCH   9  11
ATOM     11  C   UNL A   1      40.000  31.166  32.865  1.00  0.00     0.060 A 
ATOM     12  C   UNL A   1      41.301  31.295  33.357  1.00  0.00     0.016 A 
ATOM     13  C   UNL A   1      39.778  31.500  31.519  1.00  0.00     0.016 A 
ATOM     14  C   UNL A   1      42.341  31.771  32.570  1.00  0.00     0.010 A 
ATOM     15  C   UNL A   1      40.822  31.960  30.709  1.00  0.00     0.010 A 
ATOM     16  C   UNL A   1      42.106  32.107  31.242  1.00  0.00    -0.014 A 
BRANCH  16  17
ATOM     17  C   UNL A   1      43.199  32.718  30.470  1.00  0.00     0.031 A 
ATOM     18  C   UNL A   1      44.107  31.806  29.704  1.00  0.00     0.074 A 
ATOM     19  C   UNL A   1      43.301  34.057  30.391  1.00  0.00     0.049 A 
ATOM     20  N   UNL A   1      45.206  32.087  29.064  1.00  0.00    -0.248 NA
ATOM     21  C   UNL A   1      43.719  30.384  29.642  1.00  0.00     0.031 C 
ATOM     22  C   UNL A   1      42.370  35.011  31.000  1.00  0.00     0.029 A 
ATOM     23  N   UNL A   1      44.226  34.850  29.765  1.00  0.00    -0.354 N 
ATOM     24  C   UNL A   1      45.661  30.878  28.558  1.00  0.00     0.074 A 
ATOM     25  C   UNL A   1      44.716  29.858  28.947  1.00  0.00     0.031 C 
ATOM     26  C   UNL A   1      42.779  36.260  30.724  1.00  0.00     0.029 A 
ATOM     27  C   UNL A   1      44.037  36.195  29.987  1.00  0.00     0.049 A 
ATOM     28  H   UNL A   1      44.956  34.493  29.208  1.00  0.00     0.167 HD
ATOM     29  C   UNL A   1      46.783  30.653  27.842  1.00  0.00     0.037 A 
ATOM     30  C   UNL A   1      44.828  37.241  29.680  1.00  0.00     0.037 A 
ATOM     31  C   UNL A   1      47.688  31.702  27.462  1.00  0.00     0.049 A 
ATOM     32  C   UNL A   1      46.127  36.953  28.972  1.00  0.00     0.074 A 
ATOM     33  C   UNL A   1      48.875  31.604  26.763  1.00  0.00     0.029 A 
ATOM     34  N   UNL A   1      47.498  33.046  27.756  1.00  0.00    -0.354 N 
ATOM     35  N   UNL A   1      46.583  35.800  28.536  1.00  0.00    -0.248 NA
ATOM     36  C   UNL A   1      47.033  38.083  28.740  1.00  0.00     0.031 C 
ATOM     37  C   UNL A   1      49.428  32.883  26.678  1.00  0.00     0.029 A 
ATOM     38  C   UNL A   1      48.563  33.786  27.282  1.00  0.00     0.049 A 
ATOM     39  H   UNL A   1      46.719  33.416  28.231  1.00  0.00     0.167 HD
ATOM     40  C   UNL A   1      47.829  36.066  27.983  1.00  0.00     0.074 A 
ATOM     41  C   UNL A   1      48.044  37.493  28.115  1.00  0.00     0.031 C 
ATOM     42  C   UNL A   1      48.723  35.212  27.429  1.00  0.00     0.037 A 
BRANCH  29  43
ATOM     43  C   UNL A   1      47.124  29.239  27.480  1.00  0.00     0.058 A 
ATOM     44  C   UNL A   1      46.657  28.692  26.274  1.00  0.00     0.135 A 
ATOM     45  C   UNL A   1      47.855  28.405  28.340  1.00  0.00     0.135 A 
ATOM     46  F   UNL A   1      45.975  29.455  25.405  1.00  0.00    -0.206 F 
ATOM     47  C   UNL A   1      46.872  27.358  25.949  1.00  0.00     0.059 A 
ATOM     48  C   UNL A   1      48.100  27.071  28.026  1.00  0.00     0.059 A 
ATOM     49  F   UNL A   1      48.357  28.892  29.485  1.00  0.00    -0.206 F 
ATOM     50  C   UNL A   1      47.586  26.552  26.836  1.00  0.00     0.060 A 
BRANCH  50  51
ATOM     51  S   UNL A   1      47.843  24.818  26.402  1.00  0.00     0.124 S 
ATOM     52  O   UNL A   1      47.648  24.838  24.958  1.00  0.00    -0.237 OA
ATOM     53  O   UNL A   1      49.212  24.590  26.858  1.00  0.00    -0.237 OA
ATOM     54  O   UNL A   1      46.813  24.122  27.167  1.00  0.00    -0.744 OA
ENDBRANCH  50  51
ENDBRANCH  29  43
BRANCH  30  55
ATOM     55  C   UNL A   1      44.466  38.617  30.123  1.00  0.00     0.058 A 
ATOM     56  C   UNL A   1      43.698  39.462  29.303  1.00  0.00     0.135 A 
ATOM     57  C   UNL A   1      44.873  39.122  31.367  1.00  0.00     0.135 A 
ATOM     58  F   UNL A   1      43.277  39.036  28.102  1.00  0.00    -0.206 F 
ATOM     59  C   UNL A   1      43.371  40.758  29.685  1.00  0.00     0.059 A 
ATOM     60  C   UNL A   1      44.532  40.408  31.786  1.00  0.00     0.059 A 
ATOM     61  F   UNL A   1      45.592  38.352  32.199  1.00  0.00    -0.206 F 
ATOM     62  C   UNL A   1      43.791  41.223  30.930  1.00  0.00     0.060 A 
BRANCH  62  63
ATOM     63  S   UNL A   1      43.330  42.901  31.416  1.00  0.00     0.124 S 
ATOM     64  O   UNL A   1      44.103  43.074  32.641  1.00  0.00    -0.237 OA
ATOM     65  O   UNL A   1      43.776  43.686  30.268  1.00  0.00    -0.237 OA
ATOM     66  O   UNL A   1      41.884  42.817  31.590  1.00  0.00    -0.744 OA
ENDBRANCH  62  63
ENDBRANCH  30  55
BRANCH  42  67
ATOM     67  C   UNL A   1      50.014  35.784  26.928  1.00  0.00     0.058 A 
ATOM     68  C   UNL A   1      50.115  36.255  25.610  1.00  0.00     0.135 A 
ATOM     69  C   UNL A   1      51.181  35.713  27.703  1.00  0.00     0.135 A 
ATOM     70  F   UNL A   1      49.024  36.333  24.832  1.00  0.00    -0.206 F 
ATOM     71  C   UNL A   1      51.345  36.592  25.059  1.00  0.00     0.059 A 
ATOM     72  C   UNL A   1      52.418  36.068  27.178  1.00  0.00     0.059 A 
ATOM     73  F   UNL A   1      51.124  35.279  28.971  1.00  0.00    -0.206 F 
ATOM     74  C   UNL A   1      52.492  36.478  25.847  1.00  0.00     0.060 A 
BRANCH  74  75
ATOM     75  S   UNL A   1      54.086  36.859  25.094  1.00  0.00     0.124 S 
ATOM     76  O   UNL A   1      54.971  35.926  25.783  1.00  0.00    -0.237 OA
ATOM     77  O   UNL A   1      53.836  36.574  23.685  1.00  0.00    -0.237 OA
ATOM     78  O   UNL A   1      54.286  38.268  25.416  1.00  0.00    -0.744 OA
ENDBRANCH  74  75
ENDBRANCH  42  67
ENDBRANCH  16  17
ENDBRANCH   9  11
ENDBRANCH   8   9
ENDBRANCH   7   8
ENDBRANCH   6   7
ENDBRANCH   5   6
ENDBRANCH   4   5
ENDBRANCH   3   4
ENDBRANCH   2   3
ENDBRANCH   1   2
BRANCH   1  79
ATOM     79  C   UNL A   1      35.714  33.099  29.932  1.00  0.00     0.188 C 
BRANCH  79  80
ATOM     80  O   UNL A   1      36.627  32.191  30.531  1.00  0.00    -0.376 OA
BRANCH  80  81
ATOM     81  C   UNL A   1      36.366  30.809  30.289  1.00  0.00     0.202 C 
BRANCH  81  82
ATOM     82  C   UNL A   1      36.709  30.356  28.864  1.00  0.00     0.261 C 
BRANCH  82  83
ATOM     83  O   UNL A   1      37.145  28.988  28.756  1.00  0.00    -0.460 OA
BRANCH  83  84
ATOM     84  C   UNL A   1      38.253  28.617  29.435  1.00  0.00     0.338 C 
ATOM     85  O   UNL A   1      38.369  28.454  30.636  1.00  0.00    -0.246 OA
BRANCH  84  86
ATOM     86  C   UNL A   1      39.275  28.220  28.440  1.00  0.00     0.063 A 
ATOM     87  C   UNL A   1      39.364  26.897  28.000  1.00  0.00     0.017 A 
ATOM     88  C   UNL A   1      40.227  29.165  28.026  1.00  0.00     0.056 A 
ATOM     89  C   UNL A   1      40.393  26.527  27.135  1.00  0.00     0.026 A 
ATOM     90  C   UNL A   1      41.267  28.782  27.175  1.00  0.00     0.144 A 
ATOM     91  C   UNL A   1      41.343  27.476  26.717  1.00  0.00     0.118 A 
ATOM     92  F   UNL A   1      42.182  29.701  26.838  1.00  0.00    -0.205 F 
BRANCH  91  93
ATOM     93  S   UNL A   1      42.578  26.925  25.589  1.00  0.00     0.243 S 
ATOM     94  O   UNL A   1      42.549  27.847  24.473  1.00  0.00    -0.207 OA
ATOM     95  O   UNL A   1      43.783  26.744  26.368  1.00  0.00    -0.207 OA
BRANCH  93  96
ATOM     96  N   UNL A   1      42.165  25.414  25.020  1.00  0.00    -0.205 NA
ATOM     97  H   UNL A   1      41.824  25.554  24.069  1.00  0.00     0.141 HD
BRANCH  96  98
ATOM     98  C   UNL A   1      43.122  24.305  24.951  1.00  0.00     0.160 C 
BRANCH  98  99
ATOM     99  C   UNL A   1      42.853  23.160  25.950  1.00  0.00     0.278 C 
BRANCH  99 100
ATOM    100  N   UNL A   1      41.432  23.067  26.369  1.00  0.00    -0.334 N 
ATOM    101  C   UNL A   1      41.296  23.214  27.834  1.00  0.00     0.262 C 
ATOM    102  C   UNL A   1      40.875  21.720  26.120  1.00  0.00     0.262 C 
ATOM    103  H   UNL A   1      40.954  23.798  25.842  1.00  0.00     0.348 HD
ATOM    104  C   UNL A   1      41.663  21.853  28.402  1.00  0.00     0.067 C 
ATOM    105  C   UNL A   1      41.094  20.885  27.381  1.00  0.00     0.067 C 
ENDBRANCH  99 100
ENDBRANCH  98  99
ENDBRANCH  96  98
ENDBRANCH  93  96
ENDBRANCH  91  93
ENDBRANCH  84  86
ENDBRANCH  83  84
ENDBRANCH  82  83
ENDBRANCH  81  82
ENDBRANCH  80  81
ENDBRANCH  79  80
ENDBRANCH   1  79
TORSDOF 28
ENDMDL
