MODEL 1
REMARK VINA RESULT:      -8.0      0.000      0.000
REMARK SMILES C[C@@H](C(=O)OCCOCCOCCOCCOC(=O)c1ccc(-c2c3nc(c(-c4c(F)cc(S(=O)(=O)[O-])cc4F)c4ccc([nH]4)c(-c4c(F)cc(S(=O)(=O)[O-])cc4F)c4nc(c(-c5c(F)cc(S(=O)(=O)[O-])cc5F)c5ccc2[nH]5)C=C4)C=C3)cc1)c1ccc(=O)n(C(F)F)c1
REMARK SMILES IDX 12 1 11 2 10 3 9 4 8 5 7 6 6 7 5 8 3 9 4 10 2 11 1 12 86 13
REMARK SMILES IDX 87 14 95 15 88 16 91 17 89 18 90 19 92 20 93 21 94 22 13 23
REMARK SMILES IDX 14 24 15 25 16 26 17 27 18 28 19 29 20 30 21 31 85 32 22 33
REMARK SMILES IDX 84 34 23 35 24 36 25 37 78 38 26 39 83 40 77 41 79 42 27 43
REMARK SMILES IDX 82 44 76 45 75 46 28 48 62 49 41 50 61 51 42 52 45 53 60 54
REMARK SMILES IDX 80 55 43 56 44 57 59 59 81 60 46 61 29 62 30 63 39 64 31 65
REMARK SMILES IDX 32 66 38 67 40 68 33 69 34 70 35 71 36 72 37 73 63 74 64 75
REMARK SMILES IDX 73 76 65 77 66 78 72 79 74 80 67 81 68 82 69 83 70 84 71 85
REMARK SMILES IDX 47 86 48 87 57 88 49 89 50 90 56 91 58 92 51 93 52 94 53 95
REMARK SMILES IDX 54 96 55 97
REMARK H PARENT 79 47 45 58
REMARK Flexibility Score: inf
ROOT
ATOM      1  C   UNL A   1      37.643  30.551  33.397  1.00  0.00     0.188 C 
ENDROOT
BRANCH   1   2
ATOM      2  O   UNL A   1      38.345  31.651  33.956  1.00  0.00    -0.377 OA
BRANCH   2   3
ATOM      3  C   UNL A   1      39.408  31.345  34.831  1.00  0.00     0.188 C 
BRANCH   3   4
ATOM      4  C   UNL A   1      39.151  31.691  36.311  1.00  0.00     0.188 C 
BRANCH   4   5
ATOM      5  O   UNL A   1      37.828  31.749  36.823  1.00  0.00    -0.376 OA
BRANCH   5   6
ATOM      6  C   UNL A   1      37.178  33.000  36.996  1.00  0.00     0.202 C 
BRANCH   6   7
ATOM      7  C   UNL A   1      36.923  33.963  35.819  1.00  0.00     0.261 C 
BRANCH   7   8
ATOM      8  O   UNL A   1      35.952  33.549  34.840  1.00  0.00    -0.463 OA
BRANCH   8   9
ATOM      9  C   UNL A   1      35.631  34.451  33.883  1.00  0.00     0.313 C 
ATOM     10  O   UNL A   1      36.449  35.181  33.330  1.00  0.00    -0.252 OA
BRANCH   9  11
ATOM     11  C   UNL A   1      34.133  34.468  33.500  1.00  0.00     0.127 C 
ATOM     12  C   UNL A   1      33.367  33.139  33.454  1.00  0.00     0.025 C 
BRANCH  11  13
ATOM     13  C   UNL A   1      33.977  35.402  32.294  1.00  0.00    -0.017 A 
ATOM     14  C   UNL A   1      33.701  36.825  32.412  1.00  0.00     0.012 A 
ATOM     15  C   UNL A   1      33.998  34.875  31.056  1.00  0.00     0.099 A 
ATOM     16  C   UNL A   1      33.406  37.568  31.336  1.00  0.00     0.072 A 
ATOM     17  N   UNL A   1      33.718  35.621  29.927  1.00  0.00    -0.258 N 
ATOM     18  C   UNL A   1      33.393  36.963  29.977  1.00  0.00     0.254 A 
ATOM     19  O   UNL A   1      33.113  37.674  29.018  1.00  0.00    -0.269 OA
BRANCH  17  20
ATOM     20  C   UNL A   1      33.695  34.982  28.639  1.00  0.00     0.451 C 
ATOM     21  F   UNL A   1      34.907  35.045  28.034  1.00  0.00    -0.185 F 
ATOM     22  F   UNL A   1      33.351  33.675  28.752  1.00  0.00    -0.185 F 
ENDBRANCH  17  20
ENDBRANCH  11  13
ENDBRANCH   9  11
ENDBRANCH   8   9
ENDBRANCH   7   8
ENDBRANCH   6   7
ENDBRANCH   5   6
ENDBRANCH   4   5
ENDBRANCH   3   4
ENDBRANCH   2   3
ENDBRANCH   1   2
BRANCH   1  23
ATOM     23  C   UNL A   1      37.122  30.687  31.954  1.00  0.00     0.188 C 
BRANCH  23  24
ATOM     24  O   UNL A   1      35.836  31.291  31.855  1.00  0.00    -0.376 OA
BRANCH  24  25
ATOM     25  C   UNL A   1      35.573  32.154  30.759  1.00  0.00     0.202 C 
BRANCH  25  26
ATOM     26  C   UNL A   1      36.381  31.929  29.470  1.00  0.00     0.261 C 
BRANCH  26  27
ATOM     27  O   UNL A   1      35.631  31.610  28.289  1.00  0.00    -0.460 OA
BRANCH  27  28
ATOM     28  C   UNL A   1      35.542  30.311  27.933  1.00  0.00     0.338 C 
ATOM     29  O   UNL A   1      34.570  29.747  27.457  1.00  0.00    -0.246 OA
BRANCH  28  30
ATOM     30  C   UNL A   1      36.897  29.724  28.018  1.00  0.00     0.060 A 
ATOM     31  C   UNL A   1      37.230  28.956  29.142  1.00  0.00     0.016 A 
ATOM     32  C   UNL A   1      37.827  29.918  26.993  1.00  0.00     0.016 A 
ATOM     33  C   UNL A   1      38.509  28.412  29.262  1.00  0.00     0.010 A 
ATOM     34  C   UNL A   1      39.116  29.393  27.128  1.00  0.00     0.010 A 
ATOM     35  C   UNL A   1      39.472  28.669  28.280  1.00  0.00    -0.014 A 
BRANCH  35  36
ATOM     36  C   UNL A   1      40.898  28.362  28.552  1.00  0.00     0.031 A 
ATOM     37  C   UNL A   1      41.715  29.384  29.297  1.00  0.00     0.074 A 
ATOM     38  C   UNL A   1      41.451  27.196  28.173  1.00  0.00     0.049 A 
ATOM     39  N   UNL A   1      42.987  29.371  29.594  1.00  0.00    -0.248 NA
ATOM     40  C   UNL A   1      40.998  30.581  29.767  1.00  0.00     0.031 C 
ATOM     41  C   UNL A   1      40.752  26.111  27.487  1.00  0.00     0.029 A 
ATOM     42  N   UNL A   1      42.739  26.737  28.305  1.00  0.00    -0.354 N 
ATOM     43  C   UNL A   1      43.225  30.560  30.275  1.00  0.00     0.074 A 
ATOM     44  C   UNL A   1      41.974  31.281  30.324  1.00  0.00     0.031 C 
ATOM     45  C   UNL A   1      41.625  25.119  27.240  1.00  0.00     0.029 A 
ATOM     46  C   UNL A   1      42.951  25.513  27.718  1.00  0.00     0.049 A 
ATOM     47  H   UNL A   1      43.444  27.238  28.776  1.00  0.00     0.167 HD
ATOM     48  C   UNL A   1      44.384  31.004  30.815  1.00  0.00     0.037 A 
ATOM     49  C   UNL A   1      44.089  24.806  27.559  1.00  0.00     0.037 A 
ATOM     50  C   UNL A   1      45.625  30.277  30.767  1.00  0.00     0.049 A 
ATOM     51  C   UNL A   1      45.380  25.345  28.119  1.00  0.00     0.074 A 
ATOM     52  C   UNL A   1      46.850  30.638  31.300  1.00  0.00     0.029 A 
ATOM     53  N   UNL A   1      45.804  29.050  30.147  1.00  0.00    -0.354 N 
ATOM     54  N   UNL A   1      45.593  26.468  28.765  1.00  0.00    -0.248 NA
ATOM     55  C   UNL A   1      46.585  24.523  27.935  1.00  0.00     0.031 C 
ATOM     56  C   UNL A   1      47.783  29.657  30.951  1.00  0.00     0.029 A 
ATOM     57  C   UNL A   1      47.125  28.650  30.262  1.00  0.00     0.049 A 
ATOM     58  H   UNL A   1      45.096  28.538  29.692  1.00  0.00     0.167 HD
ATOM     59  C   UNL A   1      46.948  26.473  29.086  1.00  0.00     0.074 A 
ATOM     60  C   UNL A   1      47.501  25.238  28.573  1.00  0.00     0.031 C 
ATOM     61  C   UNL A   1      47.665  27.415  29.750  1.00  0.00     0.037 A 
BRANCH  48  62
ATOM     62  C   UNL A   1      44.377  32.349  31.487  1.00  0.00     0.058 A 
ATOM     63  C   UNL A   1      44.180  32.487  32.870  1.00  0.00     0.135 A 
ATOM     64  C   UNL A   1      44.642  33.511  30.744  1.00  0.00     0.135 A 
ATOM     65  F   UNL A   1      43.897  31.413  33.623  1.00  0.00    -0.206 F 
ATOM     66  C   UNL A   1      44.243  33.730  33.492  1.00  0.00     0.059 A 
ATOM     67  C   UNL A   1      44.738  34.761  31.349  1.00  0.00     0.059 A 
ATOM     68  F   UNL A   1      44.826  33.437  29.416  1.00  0.00    -0.206 F 
ATOM     69  C   UNL A   1      44.533  34.860  32.724  1.00  0.00     0.060 A 
BRANCH  69  70
ATOM     70  S   UNL A   1      44.661  36.456  33.556  1.00  0.00     0.124 S 
ATOM     71  O   UNL A   1      43.257  36.840  33.669  1.00  0.00    -0.237 OA
ATOM     72  O   UNL A   1      45.323  36.100  34.806  1.00  0.00    -0.237 OA
ATOM     73  O   UNL A   1      45.457  37.259  32.633  1.00  0.00    -0.744 OA
ENDBRANCH  69  70
ENDBRANCH  48  62
BRANCH  49  74
ATOM     74  C   UNL A   1      44.056  23.516  26.815  1.00  0.00     0.058 A 
ATOM     75  C   UNL A   1      44.586  23.403  25.522  1.00  0.00     0.135 A 
ATOM     76  C   UNL A   1      43.513  22.360  27.401  1.00  0.00     0.135 A 
ATOM     77  F   UNL A   1      45.102  24.481  24.912  1.00  0.00    -0.206 F 
ATOM     78  C   UNL A   1      44.585  22.193  24.836  1.00  0.00     0.059 A 
ATOM     79  C   UNL A   1      43.523  21.133  26.746  1.00  0.00     0.059 A 
ATOM     80  F   UNL A   1      42.996  22.413  28.638  1.00  0.00    -0.206 F 
ATOM     81  C   UNL A   1      44.061  21.059  25.462  1.00  0.00     0.060 A 
BRANCH  81  82
ATOM     82  S   UNL A   1      44.145  19.475  24.598  1.00  0.00     0.124 S 
ATOM     83  O   UNL A   1      44.414  19.899  23.229  1.00  0.00    -0.237 OA
ATOM     84  O   UNL A   1      45.244  18.811  25.291  1.00  0.00    -0.237 OA
ATOM     85  O   UNL A   1      42.826  18.896  24.832  1.00  0.00    -0.744 OA
ENDBRANCH  81  82
ENDBRANCH  49  74
BRANCH  61  86
ATOM     86  C   UNL A   1      49.124  27.140  29.999  1.00  0.00     0.058 A 
ATOM     87  C   UNL A   1      50.122  27.557  29.105  1.00  0.00     0.135 A 
ATOM     88  C   UNL A   1      49.533  26.512  31.188  1.00  0.00     0.135 A 
ATOM     89  F   UNL A   1      49.789  28.162  27.954  1.00  0.00    -0.206 F 
ATOM     90  C   UNL A   1      51.471  27.339  29.368  1.00  0.00     0.059 A 
ATOM     91  C   UNL A   1      50.877  26.312  31.487  1.00  0.00     0.059 A 
ATOM     92  F   UNL A   1      48.622  26.104  32.086  1.00  0.00    -0.206 F 
ATOM     93  C   UNL A   1      51.839  26.719  30.564  1.00  0.00     0.060 A 
BRANCH  93  94
ATOM     94  S   UNL A   1      53.594  26.471  30.905  1.00  0.00     0.124 S 
ATOM     95  O   UNL A   1      54.159  26.477  29.560  1.00  0.00    -0.237 OA
ATOM     96  O   UNL A   1      53.917  27.629  31.733  1.00  0.00    -0.237 OA
ATOM     97  O   UNL A   1      53.629  25.185  31.594  1.00  0.00    -0.744 OA
ENDBRANCH  93  94
ENDBRANCH  61  86
ENDBRANCH  35  36
ENDBRANCH  28  30
ENDBRANCH  27  28
ENDBRANCH  26  27
ENDBRANCH  25  26
ENDBRANCH  24  25
ENDBRANCH  23  24
ENDBRANCH   1  23
TORSDOF 25
ENDMDL
MODEL 2
REMARK VINA RESULT:      -7.8      3.799     10.091
REMARK SMILES C[C@@H](C(=O)OCCOCCOCCOCCOC(=O)c1ccc(-c2c3nc(c(-c4c(F)cc(S(=O)(=O)[O-])cc4F)c4ccc([nH]4)c(-c4c(F)cc(S(=O)(=O)[O-])cc4F)c4nc(c(-c5c(F)cc(S(=O)(=O)[O-])cc5F)c5ccc2[nH]5)C=C4)C=C3)cc1)c1ccc(=O)n(C(F)F)c1
REMARK SMILES IDX 12 1 11 2 10 3 9 4 8 5 7 6 6 7 5 8 3 9 4 10 2 11 1 12 86 13
REMARK SMILES IDX 87 14 95 15 88 16 91 17 89 18 90 19 92 20 93 21 94 22 13 23
REMARK SMILES IDX 14 24 15 25 16 26 17 27 18 28 19 29 20 30 21 31 85 32 22 33
REMARK SMILES IDX 84 34 23 35 24 36 25 37 78 38 26 39 83 40 77 41 79 42 27 43
REMARK SMILES IDX 82 44 76 45 75 46 28 48 62 49 41 50 61 51 42 52 45 53 60 54
REMARK SMILES IDX 80 55 43 56 44 57 59 59 81 60 46 61 29 62 30 63 39 64 31 65
REMARK SMILES IDX 32 66 38 67 40 68 33 69 34 70 35 71 36 72 37 73 63 74 64 75
REMARK SMILES IDX 73 76 65 77 66 78 72 79 74 80 67 81 68 82 69 83 70 84 71 85
REMARK SMILES IDX 47 86 48 87 57 88 49 89 50 90 56 91 58 92 51 93 52 94 53 95
REMARK SMILES IDX 54 96 55 97
REMARK H PARENT 79 47 45 58
REMARK Flexibility Score: inf
ROOT
ATOM      1  C   UNL A   1      39.630  35.427  36.280  1.00  0.00     0.188 C 
ENDROOT
BRANCH   1   2
ATOM      2  O   UNL A   1      40.332  34.681  37.262  1.00  0.00    -0.377 OA
BRANCH   2   3
ATOM      3  C   UNL A   1      41.202  33.675  36.790  1.00  0.00     0.188 C 
BRANCH   3   4
ATOM      4  C   UNL A   1      40.635  32.244  36.851  1.00  0.00     0.188 C 
BRANCH   4   5
ATOM      5  O   UNL A   1      41.493  31.118  36.739  1.00  0.00    -0.376 OA
BRANCH   5   6
ATOM      6  C   UNL A   1      41.132  30.018  35.917  1.00  0.00     0.202 C 
BRANCH   6   7
ATOM      7  C   UNL A   1      41.983  28.734  35.842  1.00  0.00     0.261 C 
BRANCH   7   8
ATOM      8  O   UNL A   1      42.634  28.458  34.587  1.00  0.00    -0.463 OA
BRANCH   8   9
ATOM      9  C   UNL A   1      43.895  28.926  34.441  1.00  0.00     0.313 C 
ATOM     10  O   UNL A   1      44.764  28.830  35.303  1.00  0.00    -0.252 OA
BRANCH   9  11
ATOM     11  C   UNL A   1      44.181  29.568  33.064  1.00  0.00     0.127 C 
ATOM     12  C   UNL A   1      43.203  30.618  32.520  1.00  0.00     0.025 C 
BRANCH  11  13
ATOM     13  C   UNL A   1      44.595  28.443  32.108  1.00  0.00    -0.017 A 
ATOM     14  C   UNL A   1      43.783  27.263  31.859  1.00  0.00     0.012 A 
ATOM     15  C   UNL A   1      45.813  28.488  31.539  1.00  0.00     0.099 A 
ATOM     16  C   UNL A   1      44.257  26.228  31.150  1.00  0.00     0.072 A 
ATOM     17  N   UNL A   1      46.320  27.446  30.787  1.00  0.00    -0.258 N 
ATOM     18  C   UNL A   1      45.621  26.276  30.560  1.00  0.00     0.254 A 
ATOM     19  O   UNL A   1      46.022  25.308  29.922  1.00  0.00    -0.269 OA
BRANCH  17  20
ATOM     20  C   UNL A   1      47.655  27.533  30.259  1.00  0.00     0.451 C 
ATOM     21  F   UNL A   1      48.164  28.781  30.402  1.00  0.00    -0.185 F 
ATOM     22  F   UNL A   1      48.484  26.668  30.894  1.00  0.00    -0.185 F 
ENDBRANCH  17  20
ENDBRANCH  11  13
ENDBRANCH   9  11
ENDBRANCH   8   9
ENDBRANCH   7   8
ENDBRANCH   6   7
ENDBRANCH   5   6
ENDBRANCH   4   5
ENDBRANCH   3   4
ENDBRANCH   2   3
ENDBRANCH   1   2
BRANCH   1  23
ATOM     23  C   UNL A   1      39.016  34.659  35.094  1.00  0.00     0.188 C 
BRANCH  23  24
ATOM     24  O   UNL A   1      37.794  33.994  35.403  1.00  0.00    -0.376 OA
BRANCH  24  25
ATOM     25  C   UNL A   1      37.017  33.471  34.336  1.00  0.00     0.202 C 
BRANCH  25  26
ATOM     26  C   UNL A   1      37.767  32.991  33.082  1.00  0.00     0.261 C 
BRANCH  26  27
ATOM     27  O   UNL A   1      37.620  31.606  32.736  1.00  0.00    -0.460 OA
BRANCH  27  28
ATOM     28  C   UNL A   1      37.265  31.310  31.467  1.00  0.00     0.338 C 
ATOM     29  O   UNL A   1      36.228  31.625  30.906  1.00  0.00    -0.246 OA
BRANCH  28  30
ATOM     30  C   UNL A   1      38.439  30.715  30.795  1.00  0.00     0.060 A 
ATOM     31  C   UNL A   1      39.436  30.120  31.579  1.00  0.00     0.016 A 
ATOM     32  C   UNL A   1      38.551  30.732  29.402  1.00  0.00     0.016 A 
ATOM     33  C   UNL A   1      40.568  29.573  30.973  1.00  0.00     0.010 A 
ATOM     34  C   UNL A   1      39.698  30.207  28.800  1.00  0.00     0.010 A 
ATOM     35  C   UNL A   1      40.727  29.659  29.586  1.00  0.00    -0.014 A 
BRANCH  35  36
ATOM     36  C   UNL A   1      42.050  29.367  28.980  1.00  0.00     0.031 A 
ATOM     37  C   UNL A   1      42.315  27.966  28.495  1.00  0.00     0.074 A 
ATOM     38  C   UNL A   1      42.985  30.322  28.837  1.00  0.00     0.049 A 
ATOM     39  N   UNL A   1      43.407  27.456  27.993  1.00  0.00    -0.248 NA
ATOM     40  C   UNL A   1      41.195  27.015  28.592  1.00  0.00     0.031 C 
ATOM     41  C   UNL A   1      42.831  31.723  29.226  1.00  0.00     0.029 A 
ATOM     42  N   UNL A   1      44.262  30.251  28.334  1.00  0.00    -0.354 N 
ATOM     43  C   UNL A   1      43.111  26.124  27.725  1.00  0.00     0.074 A 
ATOM     44  C   UNL A   1      41.746  25.898  28.143  1.00  0.00     0.031 C 
ATOM     45  C   UNL A   1      43.976  32.375  28.966  1.00  0.00     0.029 A 
ATOM     46  C   UNL A   1      44.956  31.433  28.424  1.00  0.00     0.049 A 
ATOM     47  H   UNL A   1      44.643  29.431  27.945  1.00  0.00     0.167 HD
ATOM     48  C   UNL A   1      43.906  25.178  27.174  1.00  0.00     0.037 A 
ATOM     49  C   UNL A   1      46.243  31.715  28.132  1.00  0.00     0.037 A 
ATOM     50  C   UNL A   1      45.263  25.412  26.754  1.00  0.00     0.049 A 
ATOM     51  C   UNL A   1      47.128  30.632  27.572  1.00  0.00     0.074 A 
ATOM     52  C   UNL A   1      46.144  24.520  26.169  1.00  0.00     0.029 A 
ATOM     53  N   UNL A   1      45.937  26.617  26.880  1.00  0.00    -0.354 N 
ATOM     54  N   UNL A   1      46.836  29.377  27.318  1.00  0.00    -0.248 NA
ATOM     55  C   UNL A   1      48.515  31.000  27.251  1.00  0.00     0.031 C 
ATOM     56  C   UNL A   1      47.370  25.169  25.995  1.00  0.00     0.029 A 
ATOM     57  C   UNL A   1      47.232  26.485  26.406  1.00  0.00     0.049 A 
ATOM     58  H   UNL A   1      45.551  27.444  27.250  1.00  0.00     0.167 HD
ATOM     59  C   UNL A   1      47.994  28.815  26.785  1.00  0.00     0.074 A 
ATOM     60  C   UNL A   1      48.985  29.869  26.743  1.00  0.00     0.031 C 
ATOM     61  C   UNL A   1      48.212  27.543  26.366  1.00  0.00     0.037 A 
BRANCH  48  62
ATOM     62  C   UNL A   1      43.343  23.793  27.010  1.00  0.00     0.058 A 
ATOM     63  C   UNL A   1      43.141  22.940  28.106  1.00  0.00     0.135 A 
ATOM     64  C   UNL A   1      42.934  23.342  25.745  1.00  0.00     0.135 A 
ATOM     65  F   UNL A   1      43.538  23.310  29.334  1.00  0.00    -0.206 F 
ATOM     66  C   UNL A   1      42.558  21.686  27.953  1.00  0.00     0.059 A 
ATOM     67  C   UNL A   1      42.322  22.104  25.572  1.00  0.00     0.059 A 
ATOM     68  F   UNL A   1      43.115  24.114  24.661  1.00  0.00    -0.206 F 
ATOM     69  C   UNL A   1      42.142  21.282  26.683  1.00  0.00     0.060 A 
BRANCH  69  70
ATOM     70  S   UNL A   1      41.340  19.674  26.511  1.00  0.00     0.124 S 
ATOM     71  O   UNL A   1      42.011  19.137  25.330  1.00  0.00    -0.237 OA
ATOM     72  O   UNL A   1      41.672  19.028  27.776  1.00  0.00    -0.237 OA
ATOM     73  O   UNL A   1      39.932  20.012  26.332  1.00  0.00    -0.744 OA
ENDBRANCH  69  70
ENDBRANCH  48  62
BRANCH  49  74
ATOM     74  C   UNL A   1      46.774  33.083  28.388  1.00  0.00     0.058 A 
ATOM     75  C   UNL A   1      47.255  33.456  29.651  1.00  0.00     0.135 A 
ATOM     76  C   UNL A   1      46.832  34.037  27.358  1.00  0.00     0.135 A 
ATOM     77  F   UNL A   1      47.206  32.587  30.671  1.00  0.00    -0.206 F 
ATOM     78  C   UNL A   1      47.779  34.723  29.885  1.00  0.00     0.059 A 
ATOM     79  C   UNL A   1      47.376  35.301  27.561  1.00  0.00     0.059 A 
ATOM     80  F   UNL A   1      46.388  33.728  26.130  1.00  0.00    -0.206 F 
ATOM     81  C   UNL A   1      47.847  35.636  28.830  1.00  0.00     0.060 A 
BRANCH  81  82
ATOM     82  S   UNL A   1      48.610  37.246  29.123  1.00  0.00     0.124 S 
ATOM     83  O   UNL A   1      47.599  37.909  29.937  1.00  0.00    -0.237 OA
ATOM     84  O   UNL A   1      49.843  36.875  29.811  1.00  0.00    -0.237 OA
ATOM     85  O   UNL A   1      48.789  37.782  27.777  1.00  0.00    -0.744 OA
ENDBRANCH  81  82
ENDBRANCH  49  74
BRANCH  61  86
ATOM     86  C   UNL A   1      49.561  27.216  25.786  1.00  0.00     0.058 A 
ATOM     87  C   UNL A   1      49.824  27.319  24.411  1.00  0.00     0.135 A 
ATOM     88  C   UNL A   1      50.628  26.861  26.630  1.00  0.00     0.135 A 
ATOM     89  F   UNL A   1      48.842  27.653  23.559  1.00  0.00    -0.206 F 
ATOM     90  C   UNL A   1      51.088  27.059  23.891  1.00  0.00     0.059 A 
ATOM     91  C   UNL A   1      51.907  26.628  26.135  1.00  0.00     0.059 A 
ATOM     92  F   UNL A   1      50.437  26.760  27.955  1.00  0.00    -0.206 F 
ATOM     93  C   UNL A   1      52.125  26.718  24.762  1.00  0.00     0.060 A 
BRANCH  93  94
ATOM     94  S   UNL A   1      53.767  26.414  24.075  1.00  0.00     0.124 S 
ATOM     95  O   UNL A   1      54.110  25.134  24.687  1.00  0.00    -0.237 OA
ATOM     96  O   UNL A   1      53.502  26.380  22.640  1.00  0.00    -0.237 OA
ATOM     97  O   UNL A   1      54.546  27.558  24.537  1.00  0.00    -0.744 OA
ENDBRANCH  93  94
ENDBRANCH  61  86
ENDBRANCH  35  36
ENDBRANCH  28  30
ENDBRANCH  27  28
ENDBRANCH  26  27
ENDBRANCH  25  26
ENDBRANCH  24  25
ENDBRANCH  23  24
ENDBRANCH   1  23
TORSDOF 25
ENDMDL
MODEL 3
REMARK VINA RESULT:      -7.8      4.877     12.891
REMARK SMILES C[C@@H](C(=O)OCCOCCOCCOCCOC(=O)c1ccc(-c2c3nc(c(-c4c(F)cc(S(=O)(=O)[O-])cc4F)c4ccc([nH]4)c(-c4c(F)cc(S(=O)(=O)[O-])cc4F)c4nc(c(-c5c(F)cc(S(=O)(=O)[O-])cc5F)c5ccc2[nH]5)C=C4)C=C3)cc1)c1ccc(=O)n(C(F)F)c1
REMARK SMILES IDX 12 1 11 2 10 3 9 4 8 5 7 6 6 7 5 8 3 9 4 10 2 11 1 12 86 13
REMARK SMILES IDX 87 14 95 15 88 16 91 17 89 18 90 19 92 20 93 21 94 22 13 23
REMARK SMILES IDX 14 24 15 25 16 26 17 27 18 28 19 29 20 30 21 31 85 32 22 33
REMARK SMILES IDX 84 34 23 35 24 36 25 37 78 38 26 39 83 40 77 41 79 42 27 43
REMARK SMILES IDX 82 44 76 45 75 46 28 48 62 49 41 50 61 51 42 52 45 53 60 54
REMARK SMILES IDX 80 55 43 56 44 57 59 59 81 60 46 61 29 62 30 63 39 64 31 65
REMARK SMILES IDX 32 66 38 67 40 68 33 69 34 70 35 71 36 72 37 73 63 74 64 75
REMARK SMILES IDX 73 76 65 77 66 78 72 79 74 80 67 81 68 82 69 83 70 84 71 85
REMARK SMILES IDX 47 86 48 87 57 88 49 89 50 90 56 91 58 92 51 93 52 94 53 95
REMARK SMILES IDX 54 96 55 97
REMARK H PARENT 79 47 45 58
REMARK Flexibility Score: inf
ROOT
ATOM      1  C   UNL A   1      50.987  28.515  21.439  1.00  0.00     0.188 C 
ENDROOT
BRANCH   1   2
ATOM      2  O   UNL A   1      49.647  28.982  21.410  1.00  0.00    -0.377 OA
BRANCH   2   3
ATOM      3  C   UNL A   1      48.635  28.015  21.586  1.00  0.00     0.188 C 
BRANCH   3   4
ATOM      4  C   UNL A   1      48.847  27.061  22.778  1.00  0.00     0.188 C 
BRANCH   4   5
ATOM      5  O   UNL A   1      47.952  27.066  23.880  1.00  0.00    -0.376 OA
BRANCH   5   6
ATOM      6  C   UNL A   1      46.816  27.919  23.879  1.00  0.00     0.202 C 
BRANCH   6   7
ATOM      7  C   UNL A   1      46.300  28.600  25.163  1.00  0.00     0.261 C 
BRANCH   7   8
ATOM      8  O   UNL A   1      45.228  27.939  25.862  1.00  0.00    -0.463 OA
BRANCH   8   9
ATOM      9  C   UNL A   1      44.853  28.476  27.047  1.00  0.00     0.313 C 
ATOM     10  O   UNL A   1      44.688  29.679  27.230  1.00  0.00    -0.252 OA
BRANCH   9  11
ATOM     11  C   UNL A   1      44.603  27.439  28.166  1.00  0.00     0.127 C 
ATOM     12  C   UNL A   1      45.049  25.988  27.942  1.00  0.00     0.025 C 
BRANCH  11  13
ATOM     13  C   UNL A   1      43.176  27.655  28.683  1.00  0.00    -0.017 A 
ATOM     14  C   UNL A   1      42.868  28.368  29.913  1.00  0.00     0.012 A 
ATOM     15  C   UNL A   1      42.151  27.079  28.028  1.00  0.00     0.099 A 
ATOM     16  C   UNL A   1      41.624  28.387  30.413  1.00  0.00     0.072 A 
ATOM     17  N   UNL A   1      40.857  27.100  28.508  1.00  0.00    -0.258 N 
ATOM     18  C   UNL A   1      40.508  27.711  29.698  1.00  0.00     0.254 A 
ATOM     19  O   UNL A   1      39.386  27.746  30.190  1.00  0.00    -0.269 OA
BRANCH  17  20
ATOM     20  C   UNL A   1      39.819  26.410  27.791  1.00  0.00     0.451 C 
ATOM     21  F   UNL A   1      40.175  26.185  26.502  1.00  0.00    -0.185 F 
ATOM     22  F   UNL A   1      39.548  25.212  28.365  1.00  0.00    -0.185 F 
ENDBRANCH  17  20
ENDBRANCH  11  13
ENDBRANCH   9  11
ENDBRANCH   8   9
ENDBRANCH   7   8
ENDBRANCH   6   7
ENDBRANCH   5   6
ENDBRANCH   4   5
ENDBRANCH   3   4
ENDBRANCH   2   3
ENDBRANCH   1   2
BRANCH   1  23
ATOM     23  C   UNL A   1      51.960  29.182  22.429  1.00  0.00     0.188 C 
BRANCH  23  24
ATOM     24  O   UNL A   1      52.839  28.271  23.083  1.00  0.00    -0.376 OA
BRANCH  24  25
ATOM     25  C   UNL A   1      52.415  27.672  24.298  1.00  0.00     0.202 C 
BRANCH  25  26
ATOM     26  C   UNL A   1      53.502  27.098  25.223  1.00  0.00     0.261 C 
BRANCH  26  27
ATOM     27  O   UNL A   1      53.087  26.715  26.542  1.00  0.00    -0.460 OA
BRANCH  27  28
ATOM     28  C   UNL A   1      52.015  25.902  26.652  1.00  0.00     0.338 C 
ATOM     29  O   UNL A   1      51.978  24.705  26.419  1.00  0.00    -0.246 OA
BRANCH  28  30
ATOM     30  C   UNL A   1      50.932  26.665  27.309  1.00  0.00     0.060 A 
ATOM     31  C   UNL A   1      51.247  27.468  28.413  1.00  0.00     0.016 A 
ATOM     32  C   UNL A   1      49.620  26.600  26.834  1.00  0.00     0.016 A 
ATOM     33  C   UNL A   1      50.241  28.179  29.070  1.00  0.00     0.010 A 
ATOM     34  C   UNL A   1      48.610  27.293  27.509  1.00  0.00     0.010 A 
ATOM     35  C   UNL A   1      48.912  28.055  28.651  1.00  0.00    -0.014 A 
BRANCH  35  36
ATOM     36  C   UNL A   1      47.819  28.551  29.523  1.00  0.00     0.031 A 
ATOM     37  C   UNL A   1      47.259  27.615  30.561  1.00  0.00     0.074 A 
ATOM     38  C   UNL A   1      47.350  29.807  29.419  1.00  0.00     0.049 A 
ATOM     39  N   UNL A   1      46.266  27.795  31.390  1.00  0.00    -0.248 NA
ATOM     40  C   UNL A   1      47.908  26.298  30.675  1.00  0.00     0.031 C 
ATOM     41  C   UNL A   1      47.841  30.819  28.485  1.00  0.00     0.029 A 
ATOM     42  N   UNL A   1      46.341  30.441  30.103  1.00  0.00    -0.354 N 
ATOM     43  C   UNL A   1      46.163  26.613  32.115  1.00  0.00     0.074 A 
ATOM     44  C   UNL A   1      47.177  25.715  31.612  1.00  0.00     0.031 C 
ATOM     45  C   UNL A   1      47.118  31.942  28.641  1.00  0.00     0.029 A 
ATOM     46  C   UNL A   1      46.092  31.718  29.660  1.00  0.00     0.049 A 
ATOM     47  H   UNL A   1      45.844  30.020  30.841  1.00  0.00     0.167 HD
ATOM     48  C   UNL A   1      45.304  26.311  33.116  1.00  0.00     0.037 A 
ATOM     49  C   UNL A   1      45.129  32.593  30.014  1.00  0.00     0.037 A 
ATOM     50  C   UNL A   1      44.301  27.214  33.616  1.00  0.00     0.049 A 
ATOM     51  C   UNL A   1      44.145  32.214  31.092  1.00  0.00     0.074 A 
ATOM     52  C   UNL A   1      43.392  27.004  34.639  1.00  0.00     0.029 A 
ATOM     53  N   UNL A   1      44.067  28.490  33.129  1.00  0.00    -0.354 N 
ATOM     54  N   UNL A   1      44.061  31.096  31.775  1.00  0.00    -0.248 NA
ATOM     55  C   UNL A   1      43.131  33.214  31.454  1.00  0.00     0.031 C 
ATOM     56  C   UNL A   1      42.571  28.131  34.730  1.00  0.00     0.029 A 
ATOM     57  C   UNL A   1      43.012  29.072  33.813  1.00  0.00     0.049 A 
ATOM     58  H   UNL A   1      44.576  28.921  32.404  1.00  0.00     0.167 HD
ATOM     59  C   UNL A   1      43.002  31.270  32.663  1.00  0.00     0.074 A 
ATOM     60  C   UNL A   1      42.485  32.602  32.437  1.00  0.00     0.031 C 
ATOM     61  C   UNL A   1      42.507  30.403  33.583  1.00  0.00     0.037 A 
BRANCH  48  62
ATOM     62  C   UNL A   1      45.389  24.939  33.726  1.00  0.00     0.058 A 
ATOM     63  C   UNL A   1      44.742  23.832  33.156  1.00  0.00     0.135 A 
ATOM     64  C   UNL A   1      46.190  24.719  34.859  1.00  0.00     0.135 A 
ATOM     65  F   UNL A   1      43.943  23.990  32.089  1.00  0.00    -0.206 F 
ATOM     66  C   UNL A   1      44.881  22.555  33.690  1.00  0.00     0.059 A 
ATOM     67  C   UNL A   1      46.367  23.446  35.393  1.00  0.00     0.059 A 
ATOM     68  F   UNL A   1      46.822  25.746  35.450  1.00  0.00    -0.206 F 
ATOM     69  C   UNL A   1      45.706  22.371  34.803  1.00  0.00     0.060 A 
BRANCH  69  70
ATOM     70  S   UNL A   1      45.916  20.699  35.451  1.00  0.00     0.124 S 
ATOM     71  O   UNL A   1      47.189  20.311  34.851  1.00  0.00    -0.237 OA
ATOM     72  O   UNL A   1      45.938  20.928  36.892  1.00  0.00    -0.237 OA
ATOM     73  O   UNL A   1      44.744  19.989  34.949  1.00  0.00    -0.744 OA
ENDBRANCH  69  70
ENDBRANCH  48  62
BRANCH  49  74
ATOM     74  C   UNL A   1      45.038  33.909  29.323  1.00  0.00     0.058 A 
ATOM     75  C   UNL A   1      44.295  34.066  28.144  1.00  0.00     0.135 A 
ATOM     76  C   UNL A   1      45.678  35.044  29.847  1.00  0.00     0.135 A 
ATOM     77  F   UNL A   1      43.679  33.009  27.594  1.00  0.00    -0.206 F 
ATOM     78  C   UNL A   1      44.183  35.299  27.512  1.00  0.00     0.059 A 
ATOM     79  C   UNL A   1      45.560  36.294  29.248  1.00  0.00     0.059 A 
ATOM     80  F   UNL A   1      46.398  34.948  30.976  1.00  0.00    -0.206 F 
ATOM     81  C   UNL A   1      44.810  36.412  28.078  1.00  0.00     0.060 A 
BRANCH  81  82
ATOM     82  S   UNL A   1      44.586  38.025  27.299  1.00  0.00     0.124 S 
ATOM     83  O   UNL A   1      45.714  38.068  26.377  1.00  0.00    -0.237 OA
ATOM     84  O   UNL A   1      43.267  37.885  26.690  1.00  0.00    -0.237 OA
ATOM     85  O   UNL A   1      44.653  38.953  28.423  1.00  0.00    -0.744 OA
ENDBRANCH  81  82
ENDBRANCH  49  74
BRANCH  61  86
ATOM     86  C   UNL A   1      41.370  30.872  34.450  1.00  0.00     0.058 A 
ATOM     87  C   UNL A   1      40.029  30.725  34.061  1.00  0.00     0.135 A 
ATOM     88  C   UNL A   1      41.625  31.413  35.722  1.00  0.00     0.135 A 
ATOM     89  F   UNL A   1      39.727  30.215  32.856  1.00  0.00    -0.206 F 
ATOM     90  C   UNL A   1      38.984  31.121  34.890  1.00  0.00     0.059 A 
ATOM     91  C   UNL A   1      40.595  31.786  36.580  1.00  0.00     0.059 A 
ATOM     92  F   UNL A   1      42.888  31.565  36.151  1.00  0.00    -0.206 F 
ATOM     93  C   UNL A   1      39.278  31.646  36.150  1.00  0.00     0.060 A 
BRANCH  93  94
ATOM     94  S   UNL A   1      37.910  32.125  37.226  1.00  0.00     0.124 S 
ATOM     95  O   UNL A   1      36.975  32.712  36.272  1.00  0.00    -0.237 OA
ATOM     96  O   UNL A   1      37.506  30.847  37.805  1.00  0.00    -0.237 OA
ATOM     97  O   UNL A   1      38.524  33.064  38.160  1.00  0.00    -0.744 OA
ENDBRANCH  93  94
ENDBRANCH  61  86
ENDBRANCH  35  36
ENDBRANCH  28  30
ENDBRANCH  27  28
ENDBRANCH  26  27
ENDBRANCH  25  26
ENDBRANCH  24  25
ENDBRANCH  23  24
ENDBRANCH   1  23
TORSDOF 25
ENDMDL
